MODEL        1
REMARK 921   NORMALIZED FREE ENERGY PREDICTED BY IDOCK:   -6.34 KCAL/MOL
REMARK 922        TOTAL FREE ENERGY PREDICTED BY IDOCK:   -6.79 KCAL/MOL
REMARK 923 INTER-LIGAND FREE ENERGY PREDICTED BY IDOCK:   -6.71 KCAL/MOL
REMARK 924 INTRA-LIGAND FREE ENERGY PREDICTED BY IDOCK:   -0.08 KCAL/MOL
REMARK 927      BINDING AFFINITY PREDICTED BY RF-SCORE:    0.00 PKD
ROOT
HETATM    1  C   UNL     1     -10.734  14.820  69.206  1.00  0.00    -0.256 C  
HETATM    2  N   UNL     1     -10.819  15.335  67.837  1.00  0.00    -0.279 NA 
HETATM    3  C   UNL     1     -11.227  14.532  66.783  1.00  0.00    -0.334 C  
HETATM    4  C   UNL     1     -11.379  14.915  65.509  1.00  0.00    -0.339 C  
HETATM    5  C   UNL     1     -11.098  16.335  65.183  1.00  0.00    -0.212 C  
HETATM    6  C   UNL     1     -10.547  18.604  66.038  1.00  0.00    -0.410 A  
HETATM    7  F   UNL     1      -9.772  19.805  69.360  1.00  0.00    -0.441 F  
HETATM    8  C   UNL     1     -10.732  17.236  66.306  1.00  0.00    -0.077 A  
HETATM    9  O   UNL     1     -11.179  16.763  64.036  1.00  0.00    -1.089 OA 
HETATM   10  C   UNL     1     -10.224  19.474  67.074  1.00  0.00    -0.540 A  
HETATM   11  C   UNL     1     -10.598  16.712  67.612  1.00  0.00    -0.321 A  
HETATM   12  C   UNL     1     -10.256  17.614  68.633  1.00  0.00    -0.377 A  
HETATM   13  C   UNL     1     -10.080  18.971  68.358  1.00  0.00    -0.403 A  
ENDROOT
BRANCH   4  14
HETATM   14  S   UNL     1     -11.986  13.788  64.278  1.00  0.00    -0.423 S  
HETATM   15  C   UNL     1     -10.509  12.766  64.087  1.00  0.00    -0.413 C  
HETATM   16  O   UNL     1     -13.044  12.944  64.930  1.00  0.00    -0.799 OA 
ENDBRANCH   4  14
TORSDOF 1
ENDMDL
MODEL        2
REMARK 921   NORMALIZED FREE ENERGY PREDICTED BY IDOCK:   -6.12 KCAL/MOL
REMARK 922        TOTAL FREE ENERGY PREDICTED BY IDOCK:   -6.56 KCAL/MOL
REMARK 923 INTER-LIGAND FREE ENERGY PREDICTED BY IDOCK:   -6.48 KCAL/MOL
REMARK 924 INTRA-LIGAND FREE ENERGY PREDICTED BY IDOCK:   -0.08 KCAL/MOL
REMARK 927      BINDING AFFINITY PREDICTED BY RF-SCORE:    0.00 PKD
ROOT
HETATM    1  C   UNL     1      -8.876  14.168  68.135  1.00  0.00    -0.183 C  
HETATM    2  N   UNL     1      -9.593  14.799  67.024  1.00  0.00    -0.233 NA 
HETATM    3  C   UNL     1     -10.300  14.050  66.096  1.00  0.00    -0.297 C  
HETATM    4  C   UNL     1     -11.021  14.529  65.075  1.00  0.00    -0.398 C  
HETATM    5  C   UNL     1     -11.088  16.003  64.917  1.00  0.00    -0.370 C  
HETATM    6  C   UNL     1     -10.525  18.232  65.864  1.00  0.00    -0.324 A  
HETATM    7  F   UNL     1      -8.588  19.201  68.761  1.00  0.00    -0.368 F  
HETATM    8  C   UNL     1     -10.403  16.834  65.941  1.00  0.00    -0.341 A  
HETATM    9  O   UNL     1     -11.697  16.527  63.989  1.00  0.00    -1.111 OA 
HETATM   10  C   UNL     1      -9.912  19.033  66.822  1.00  0.00    -0.417 A  
HETATM   11  C   UNL     1      -9.667  16.209  66.974  1.00  0.00    -0.230 A  
HETATM   12  C   UNL     1      -9.046  17.047  67.915  1.00  0.00    -0.232 A  
HETATM   13  C   UNL     1      -9.178  18.434  67.835  1.00  0.00    -0.283 A  
ENDROOT
BRANCH   4  14
HETATM   14  S   UNL     1     -11.938  13.444  64.009  1.00  0.00    -0.449 S  
HETATM   15  C   UNL     1     -10.667  12.192  63.730  1.00  0.00    -0.437 C  
HETATM   16  O   UNL     1     -13.022  12.817  64.839  1.00  0.00    -0.805 OA 
ENDBRANCH   4  14
TORSDOF 1
ENDMDL
MODEL        3
REMARK 921   NORMALIZED FREE ENERGY PREDICTED BY IDOCK:   -5.77 KCAL/MOL
REMARK 922        TOTAL FREE ENERGY PREDICTED BY IDOCK:   -6.19 KCAL/MOL
REMARK 923 INTER-LIGAND FREE ENERGY PREDICTED BY IDOCK:   -6.09 KCAL/MOL
REMARK 924 INTRA-LIGAND FREE ENERGY PREDICTED BY IDOCK:   -0.10 KCAL/MOL
REMARK 927      BINDING AFFINITY PREDICTED BY RF-SCORE:    0.00 PKD
ROOT
HETATM    1  C   UNL     1     -10.374  16.660  65.927  1.00  0.00    -0.340 C  
HETATM    2  N   UNL     1     -10.825  15.303  66.246  1.00  0.00    -0.314 NA 
HETATM    3  C   UNL     1     -10.778  14.283  65.308  1.00  0.00    -0.366 C  
HETATM    4  C   UNL     1     -11.125  13.005  65.510  1.00  0.00    -0.275 C  
HETATM    5  C   UNL     1     -11.594  12.629  66.866  1.00  0.00    -0.373 C  
HETATM    6  C   UNL     1     -11.938  13.334  69.226  1.00  0.00    -0.354 A  
HETATM    7  F   UNL     1     -11.525  16.528  70.873  1.00  0.00    -0.406 F  
HETATM    8  C   UNL     1     -11.583  13.685  67.912  1.00  0.00    -0.376 A  
HETATM    9  O   UNL     1     -11.963  11.490  67.130  1.00  0.00    -0.581 OA 
HETATM   10  C   UNL     1     -11.915  14.297  70.230  1.00  0.00    -0.398 A  
HETATM   11  C   UNL     1     -11.198  15.003  67.575  1.00  0.00    -0.330 A  
HETATM   12  C   UNL     1     -11.202  15.956  68.608  1.00  0.00    -0.360 A  
HETATM   13  C   UNL     1     -11.551  15.597  69.911  1.00  0.00    -0.347 A  
ENDROOT
BRANCH   4  14
HETATM   14  S   UNL     1     -10.938  11.790  64.229  1.00  0.00    -0.374 S  
HETATM   15  C   UNL     1     -12.533  12.007  63.408  1.00  0.00    -0.509 C  
HETATM   16  O   UNL     1      -9.873  12.288  63.294  1.00  0.00    -0.390 OA 
ENDBRANCH   4  14
TORSDOF 1
ENDMDL
MODEL        4
REMARK 921   NORMALIZED FREE ENERGY PREDICTED BY IDOCK:   -5.74 KCAL/MOL
REMARK 922        TOTAL FREE ENERGY PREDICTED BY IDOCK:   -6.16 KCAL/MOL
REMARK 923 INTER-LIGAND FREE ENERGY PREDICTED BY IDOCK:   -6.08 KCAL/MOL
REMARK 924 INTRA-LIGAND FREE ENERGY PREDICTED BY IDOCK:   -0.09 KCAL/MOL
REMARK 927      BINDING AFFINITY PREDICTED BY RF-SCORE:    0.00 PKD
ROOT
HETATM    1  C   UNL     1     -10.438  17.232  67.680  1.00  0.00    -0.363 C  
HETATM    2  N   UNL     1     -10.919  15.853  67.799  1.00  0.00    -0.326 NA 
HETATM    3  C   UNL     1     -10.852  14.966  66.736  1.00  0.00    -0.320 C  
HETATM    4  C   UNL     1     -11.223  13.680  66.753  1.00  0.00    -0.314 C  
HETATM    5  C   UNL     1     -11.746  13.136  68.030  1.00  0.00    -0.355 C  
HETATM    6  C   UNL     1     -12.166  13.527  70.450  1.00  0.00    -0.426 A  
HETATM    7  F   UNL     1     -11.769  16.465  72.522  1.00  0.00    -0.544 F  
HETATM    8  C   UNL     1     -11.758  14.043  69.208  1.00  0.00    -0.372 A  
HETATM    9  O   UNL     1     -12.141  11.978  68.127  1.00  0.00    -0.480 OA 
HETATM   10  C   UNL     1     -12.166  14.347  71.574  1.00  0.00    -0.406 A  
HETATM   11  C   UNL     1     -11.344  15.386  69.063  1.00  0.00    -0.316 A  
HETATM   12  C   UNL     1     -11.372  16.193  70.213  1.00  0.00    -0.363 A  
HETATM   13  C   UNL     1     -11.773  15.671  71.443  1.00  0.00    -0.428 A  
ENDROOT
BRANCH   4  14
HETATM   14  S   UNL     1     -11.007  12.642  65.328  1.00  0.00    -0.296 S  
HETATM   15  C   UNL     1     -12.720  12.597  64.757  1.00  0.00    -0.379 C  
HETATM   16  O   UNL     1     -10.211  13.426  64.324  1.00  0.00    -0.387 OA 
ENDBRANCH   4  14
TORSDOF 1
ENDMDL
MODEL        5
REMARK 921   NORMALIZED FREE ENERGY PREDICTED BY IDOCK:   -5.72 KCAL/MOL
REMARK 922        TOTAL FREE ENERGY PREDICTED BY IDOCK:   -6.13 KCAL/MOL
REMARK 923 INTER-LIGAND FREE ENERGY PREDICTED BY IDOCK:   -6.05 KCAL/MOL
REMARK 924 INTRA-LIGAND FREE ENERGY PREDICTED BY IDOCK:   -0.08 KCAL/MOL
REMARK 927      BINDING AFFINITY PREDICTED BY RF-SCORE:    0.00 PKD
ROOT
HETATM    1  C   UNL     1      -8.655  13.503  67.725  1.00  0.00    -0.183 C  
HETATM    2  N   UNL     1      -9.465  14.309  66.808  1.00  0.00    -0.264 NA 
HETATM    3  C   UNL     1      -9.472  15.694  66.872  1.00  0.00    -0.229 C  
HETATM    4  C   UNL     1     -10.140  16.521  66.058  1.00  0.00    -0.348 C  
HETATM    5  C   UNL     1     -10.944  15.910  64.972  1.00  0.00    -0.412 C  
HETATM    6  C   UNL     1     -11.577  13.834  63.756  1.00  0.00    -0.125 A  
HETATM    7  F   UNL     1     -10.765  10.358  64.339  1.00  0.00    -0.343 F  
HETATM    8  C   UNL     1     -10.895  14.431  64.831  1.00  0.00    -0.430 A  
HETATM    9  O   UNL     1     -11.615  16.591  64.201  1.00  0.00    -1.052 OA 
HETATM   10  C   UNL     1     -11.530  12.454  63.589  1.00  0.00    -0.568 A  
HETATM   11  C   UNL     1     -10.155  13.663  65.758  1.00  0.00    -0.298 A  
HETATM   12  C   UNL     1     -10.141  12.270  65.571  1.00  0.00    -0.279 A  
HETATM   13  C   UNL     1     -10.816  11.687  64.497  1.00  0.00    -0.324 A  
ENDROOT
BRANCH   4  14
HETATM   14  S   UNL     1      -9.992  18.284  66.216  1.00  0.00    -0.329 S  
HETATM   15  C   UNL     1     -10.189  18.418  68.006  1.00  0.00    -0.381 C  
HETATM   16  O   UNL     1      -8.571  18.642  65.885  1.00  0.00    -0.488 OA 
ENDBRANCH   4  14
TORSDOF 1
ENDMDL
MODEL        6
REMARK 921   NORMALIZED FREE ENERGY PREDICTED BY IDOCK:   -5.69 KCAL/MOL
REMARK 922        TOTAL FREE ENERGY PREDICTED BY IDOCK:   -6.11 KCAL/MOL
REMARK 923 INTER-LIGAND FREE ENERGY PREDICTED BY IDOCK:   -6.00 KCAL/MOL
REMARK 924 INTRA-LIGAND FREE ENERGY PREDICTED BY IDOCK:   -0.11 KCAL/MOL
REMARK 927      BINDING AFFINITY PREDICTED BY RF-SCORE:    0.00 PKD
ROOT
HETATM    1  C   UNL     1     -11.170  15.845  70.312  1.00  0.00    -0.380 C  
HETATM    2  N   UNL     1     -11.071  15.993  68.857  1.00  0.00    -0.308 NA 
HETATM    3  C   UNL     1     -10.678  17.188  68.274  1.00  0.00    -0.363 C  
HETATM    4  C   UNL     1     -10.516  17.415  66.965  1.00  0.00    -0.284 C  
HETATM    5  C   UNL     1     -10.765  16.284  66.039  1.00  0.00    -0.214 C  
HETATM    6  C   UNL     1     -11.269  13.861  65.790  1.00  0.00    -0.303 A  
HETATM    7  F   UNL     1     -12.023  11.293  68.223  1.00  0.00    -0.365 F  
HETATM    8  C   UNL     1     -11.114  14.970  66.640  1.00  0.00    -0.326 A  
HETATM    9  O   UNL     1     -10.673  16.411  64.822  1.00  0.00    -0.700 OA 
HETATM   10  C   UNL     1     -11.574  12.614  66.327  1.00  0.00    -0.440 A  
HETATM   11  C   UNL     1     -11.261  14.856  68.041  1.00  0.00    -0.308 A  
HETATM   12  C   UNL     1     -11.586  13.588  68.551  1.00  0.00    -0.368 A  
HETATM   13  C   UNL     1     -11.732  12.491  67.700  1.00  0.00    -0.361 A  
ENDROOT
BRANCH   4  14
HETATM   14  S   UNL     1      -9.932  18.983  66.370  1.00  0.00    -0.416 S  
HETATM   15  C   UNL     1     -10.134  19.946  67.884  1.00  0.00    -0.436 C  
HETATM   16  O   UNL     1      -8.458  18.841  66.113  1.00  0.00    -0.425 OA 
ENDBRANCH   4  14
TORSDOF 1
ENDMDL
MODEL        7
REMARK 921   NORMALIZED FREE ENERGY PREDICTED BY IDOCK:   -5.67 KCAL/MOL
REMARK 922        TOTAL FREE ENERGY PREDICTED BY IDOCK:   -6.08 KCAL/MOL
REMARK 923 INTER-LIGAND FREE ENERGY PREDICTED BY IDOCK:   -5.98 KCAL/MOL
REMARK 924 INTRA-LIGAND FREE ENERGY PREDICTED BY IDOCK:   -0.10 KCAL/MOL
REMARK 927      BINDING AFFINITY PREDICTED BY RF-SCORE:    0.00 PKD
ROOT
HETATM    1  C   UNL     1     -12.186  10.592  70.852  1.00  0.00    -0.395 C  
HETATM    2  N   UNL     1     -12.022  11.781  70.011  1.00  0.00    -0.341 NA 
HETATM    3  C   UNL     1     -11.713  11.680  68.663  1.00  0.00    -0.325 C  
HETATM    4  C   UNL     1     -11.585  12.697  67.802  1.00  0.00    -0.348 C  
HETATM    5  C   UNL     1     -11.804  14.068  68.325  1.00  0.00    -0.371 C  
HETATM    6  C   UNL     1     -12.511  15.483  70.244  1.00  0.00    -0.403 A  
HETATM    7  F   UNL     1     -13.398  14.654  73.651  1.00  0.00    -0.449 F  
HETATM    8  C   UNL     1     -12.211  14.202  69.748  1.00  0.00    -0.397 A  
HETATM    9  O   UNL     1     -11.673  15.059  67.614  1.00  0.00    -0.342 OA 
HETATM   10  C   UNL     1     -12.916  15.635  71.566  1.00  0.00    -0.549 A  
HETATM   11  C   UNL     1     -12.310  13.050  70.561  1.00  0.00    -0.287 A  
HETATM   12  C   UNL     1     -12.705  13.239  71.896  1.00  0.00    -0.254 A  
HETATM   13  C   UNL     1     -13.006  14.514  72.378  1.00  0.00    -0.386 A  
ENDROOT
BRANCH   4  14
HETATM   14  S   UNL     1     -11.258  12.407  66.081  1.00  0.00    -0.340 S  
HETATM   15  C   UNL     1     -10.528  10.760  66.212  1.00  0.00    -0.226 C  
HETATM   16  O   UNL     1     -12.587  12.264  65.394  1.00  0.00    -0.572 OA 
ENDBRANCH   4  14
TORSDOF 1
ENDMDL
MODEL        8
REMARK 921   NORMALIZED FREE ENERGY PREDICTED BY IDOCK:   -5.66 KCAL/MOL
REMARK 922        TOTAL FREE ENERGY PREDICTED BY IDOCK:   -6.07 KCAL/MOL
REMARK 923 INTER-LIGAND FREE ENERGY PREDICTED BY IDOCK:   -5.98 KCAL/MOL
REMARK 924 INTRA-LIGAND FREE ENERGY PREDICTED BY IDOCK:   -0.09 KCAL/MOL
REMARK 927      BINDING AFFINITY PREDICTED BY RF-SCORE:    0.00 PKD
ROOT
HETATM    1  C   UNL     1     -13.587  14.100  72.580  1.00  0.00    -0.541 C  
HETATM    2  N   UNL     1     -13.029  13.071  71.699  1.00  0.00    -0.360 NA 
HETATM    3  C   UNL     1     -13.212  11.720  71.954  1.00  0.00    -0.362 C  
HETATM    4  C   UNL     1     -12.783  10.706  71.193  1.00  0.00    -0.422 C  
HETATM    5  C   UNL     1     -12.051  11.045  69.948  1.00  0.00    -0.361 C  
HETATM    6  C   UNL     1     -11.296  12.832  68.392  1.00  0.00    -0.331 A  
HETATM    7  F   UNL     1     -11.518  16.438  68.572  1.00  0.00    -0.355 F  
HETATM    8  C   UNL     1     -11.907  12.485  69.610  1.00  0.00    -0.382 A  
HETATM    9  O   UNL     1     -11.594  10.179  69.210  1.00  0.00    -0.169 OA 
HETATM   10  C   UNL     1     -11.167  14.172  68.040  1.00  0.00    -0.302 A  
HETATM   11  C   UNL     1     -12.400  13.468  70.498  1.00  0.00    -0.342 A  
HETATM   12  C   UNL     1     -12.239  14.812  70.121  1.00  0.00    -0.391 A  
HETATM   13  C   UNL     1     -11.637  15.147  68.907  1.00  0.00    -0.341 A  
ENDROOT
BRANCH   4  14
HETATM   14  S   UNL     1     -13.160   9.021  71.611  1.00  0.00    -0.374 S  
HETATM   15  C   UNL     1     -11.566   8.549  72.317  1.00  0.00    -0.374 C  
HETATM   16  O   UNL     1     -14.162   9.054  72.730  1.00  0.00    -0.572 OA 
ENDBRANCH   4  14
TORSDOF 1
ENDMDL
MODEL        9
REMARK 921   NORMALIZED FREE ENERGY PREDICTED BY IDOCK:   -5.66 KCAL/MOL
REMARK 922        TOTAL FREE ENERGY PREDICTED BY IDOCK:   -6.07 KCAL/MOL
REMARK 923 INTER-LIGAND FREE ENERGY PREDICTED BY IDOCK:   -5.97 KCAL/MOL
REMARK 924 INTRA-LIGAND FREE ENERGY PREDICTED BY IDOCK:   -0.10 KCAL/MOL
REMARK 927      BINDING AFFINITY PREDICTED BY RF-SCORE:    0.00 PKD
ROOT
HETATM    1  C   UNL     1     -11.876  12.227  67.873  1.00  0.00    -0.293 C  
HETATM    2  N   UNL     1     -11.521  13.609  68.207  1.00  0.00    -0.292 NA 
HETATM    3  C   UNL     1     -11.023  14.482  67.252  1.00  0.00    -0.305 C  
HETATM    4  C   UNL     1     -10.710  15.770  67.442  1.00  0.00    -0.317 C  
HETATM    5  C   UNL     1     -10.924  16.332  68.798  1.00  0.00    -0.343 C  
HETATM    6  C   UNL     1     -11.822  15.975  71.089  1.00  0.00    -0.465 A  
HETATM    7  F   UNL     1     -13.248  13.063  72.692  1.00  0.00    -0.568 F  
HETATM    8  C   UNL     1     -11.528  15.441  69.823  1.00  0.00    -0.338 A  
HETATM    9  O   UNL     1     -10.632  17.493  69.070  1.00  0.00    -0.306 OA 
HETATM   10  C   UNL     1     -12.408  15.169  72.060  1.00  0.00    -0.429 A  
HETATM   11  C   UNL     1     -11.812  14.094  69.501  1.00  0.00    -0.322 A  
HETATM   12  C   UNL     1     -12.388  13.303  70.509  1.00  0.00    -0.389 A  
HETATM   13  C   UNL     1     -12.682  13.843  71.762  1.00  0.00    -0.304 A  
ENDROOT
BRANCH   4  14
HETATM   14  S   UNL     1     -10.151  16.787  66.098  1.00  0.00    -0.339 S  
HETATM   15  C   UNL     1      -8.371  16.580  66.317  1.00  0.00    -0.329 C  
HETATM   16  O   UNL     1     -10.538  16.093  64.823  1.00  0.00    -0.630 OA 
ENDBRANCH   4  14
TORSDOF 1
ENDMDL
MODEL       10
REMARK 921   NORMALIZED FREE ENERGY PREDICTED BY IDOCK:   -5.64 KCAL/MOL
REMARK 922        TOTAL FREE ENERGY PREDICTED BY IDOCK:   -6.05 KCAL/MOL
REMARK 923 INTER-LIGAND FREE ENERGY PREDICTED BY IDOCK:   -5.97 KCAL/MOL
REMARK 924 INTRA-LIGAND FREE ENERGY PREDICTED BY IDOCK:   -0.08 KCAL/MOL
REMARK 927      BINDING AFFINITY PREDICTED BY RF-SCORE:    0.00 PKD
ROOT
HETATM    1  C   UNL     1     -11.980  11.604  68.725  1.00  0.00    -0.264 C  
HETATM    2  N   UNL     1     -11.695  12.621  67.709  1.00  0.00    -0.350 NA 
HETATM    3  C   UNL     1     -11.783  12.339  66.355  1.00  0.00    -0.365 C  
HETATM    4  C   UNL     1     -11.586  13.204  65.352  1.00  0.00    -0.333 C  
HETATM    5  C   UNL     1     -11.252  14.604  65.711  1.00  0.00    -0.336 C  
HETATM    6  C   UNL     1     -10.999  16.292  67.520  1.00  0.00    -0.207 A  
HETATM    7  F   UNL     1     -11.189  16.013  71.121  1.00  0.00    -0.347 F  
HETATM    8  C   UNL     1     -11.225  14.954  67.155  1.00  0.00    -0.345 A  
HETATM    9  O   UNL     1     -11.022  15.454  64.856  1.00  0.00    -0.417 OA 
HETATM   10  C   UNL     1     -10.990  16.651  68.864  1.00  0.00    -0.294 A  
HETATM   11  C   UNL     1     -11.447  13.948  68.124  1.00  0.00    -0.312 A  
HETATM   12  C   UNL     1     -11.414  14.340  69.473  1.00  0.00    -0.336 A  
HETATM   13  C   UNL     1     -11.195  15.673  69.826  1.00  0.00    -0.321 A  
ENDROOT
BRANCH   4  14
HETATM   14  S   UNL     1     -11.810  12.714  63.660  1.00  0.00    -0.560 S  
HETATM   15  C   UNL     1     -10.475  11.503  63.544  1.00  0.00    -0.428 C  
HETATM   16  O   UNL     1     -13.112  11.968  63.581  1.00  0.00    -0.756 OA 
ENDBRANCH   4  14
TORSDOF 1
ENDMDL
MODEL       11
REMARK 921   NORMALIZED FREE ENERGY PREDICTED BY IDOCK:   -5.62 KCAL/MOL
REMARK 922        TOTAL FREE ENERGY PREDICTED BY IDOCK:   -6.03 KCAL/MOL
REMARK 923 INTER-LIGAND FREE ENERGY PREDICTED BY IDOCK:   -5.93 KCAL/MOL
REMARK 924 INTRA-LIGAND FREE ENERGY PREDICTED BY IDOCK:   -0.10 KCAL/MOL
REMARK 927      BINDING AFFINITY PREDICTED BY RF-SCORE:    0.00 PKD
ROOT
HETATM    1  C   UNL     1     -10.649  16.689  69.322  1.00  0.00    -0.343 C  
HETATM    2  N   UNL     1     -11.078  15.291  69.408  1.00  0.00    -0.262 NA 
HETATM    3  C   UNL     1     -10.563  14.320  68.562  1.00  0.00    -0.257 C  
HETATM    4  C   UNL     1     -10.855  13.014  68.586  1.00  0.00    -0.259 C  
HETATM    5  C   UNL     1     -11.809  12.544  69.619  1.00  0.00    -0.314 C  
HETATM    6  C   UNL     1     -13.155  13.114  71.632  1.00  0.00    -0.444 A  
HETATM    7  F   UNL     1     -13.726  16.251  73.341  1.00  0.00    -0.662 F  
HETATM    8  C   UNL     1     -12.319  13.549  70.589  1.00  0.00    -0.432 A  
HETATM    9  O   UNL     1     -12.158  11.370  69.692  1.00  0.00    -0.308 OA 
HETATM   10  C   UNL     1     -13.629  14.030  72.566  1.00  0.00    -0.670 A  
HETATM   11  C   UNL     1     -11.941  14.905  70.458  1.00  0.00    -0.309 A  
HETATM   12  C   UNL     1     -12.450  15.807  71.407  1.00  0.00    -0.513 A  
HETATM   13  C   UNL     1     -13.274  15.365  72.443  1.00  0.00    -0.426 A  
ENDROOT
BRANCH   4  14
HETATM   14  S   UNL     1     -10.055  11.875  67.483  1.00  0.00    -0.195 S  
HETATM   15  C   UNL     1     -11.284  11.863  66.159  1.00  0.00    -0.333 C  
HETATM   16  O   UNL     1      -8.823  12.555  66.956  1.00  0.00    -0.200 OA 
ENDBRANCH   4  14
TORSDOF 1
ENDMDL
MODEL       12
REMARK 921   NORMALIZED FREE ENERGY PREDICTED BY IDOCK:   -5.58 KCAL/MOL
REMARK 922        TOTAL FREE ENERGY PREDICTED BY IDOCK:   -5.99 KCAL/MOL
REMARK 923 INTER-LIGAND FREE ENERGY PREDICTED BY IDOCK:   -5.92 KCAL/MOL
REMARK 924 INTRA-LIGAND FREE ENERGY PREDICTED BY IDOCK:   -0.07 KCAL/MOL
REMARK 927      BINDING AFFINITY PREDICTED BY RF-SCORE:    0.00 PKD
ROOT
HETATM    1  C   UNL     1     -12.055  15.735  70.146  1.00  0.00    -0.333 C  
HETATM    2  N   UNL     1     -11.858  14.731  69.097  1.00  0.00    -0.304 NA 
HETATM    3  C   UNL     1     -11.404  15.079  67.835  1.00  0.00    -0.333 C  
HETATM    4  C   UNL     1     -11.151  14.237  66.825  1.00  0.00    -0.314 C  
HETATM    5  C   UNL     1     -11.363  12.789  67.071  1.00  0.00    -0.314 C  
HETATM    6  C   UNL     1     -11.899  11.009  68.723  1.00  0.00    -0.352 A  
HETATM    7  F   UNL     1     -12.863  11.162  72.205  1.00  0.00    -0.506 F  
HETATM    8  C   UNL     1     -11.777  12.380  68.438  1.00  0.00    -0.386 A  
HETATM    9  O   UNL     1     -11.189  11.951  66.192  1.00  0.00    -0.319 OA 
HETATM   10  C   UNL     1     -12.264  10.597  70.000  1.00  0.00    -0.373 A  
HETATM   11  C   UNL     1     -12.018  13.365  69.423  1.00  0.00    -0.315 A  
HETATM   12  C   UNL     1     -12.401  12.917  70.698  1.00  0.00    -0.385 A  
HETATM   13  C   UNL     1     -12.513  11.553  70.973  1.00  0.00    -0.356 A  
ENDROOT
BRANCH   4  14
HETATM   14  S   UNL     1     -10.497  14.824  65.282  1.00  0.00    -0.422 S  
HETATM   15  C   UNL     1     -11.988  14.670  64.273  1.00  0.00    -0.386 C  
HETATM   16  O   UNL     1     -10.209  16.289  65.449  1.00  0.00    -0.518 OA 
ENDBRANCH   4  14
TORSDOF 1
ENDMDL
MODEL       13
REMARK 921   NORMALIZED FREE ENERGY PREDICTED BY IDOCK:   -5.50 KCAL/MOL
REMARK 922        TOTAL FREE ENERGY PREDICTED BY IDOCK:   -5.90 KCAL/MOL
REMARK 923 INTER-LIGAND FREE ENERGY PREDICTED BY IDOCK:   -5.82 KCAL/MOL
REMARK 924 INTRA-LIGAND FREE ENERGY PREDICTED BY IDOCK:   -0.08 KCAL/MOL
REMARK 927      BINDING AFFINITY PREDICTED BY RF-SCORE:    0.00 PKD
ROOT
HETATM    1  C   UNL     1     -11.069  16.876  68.679  1.00  0.00    -0.194 C  
HETATM    2  N   UNL     1     -11.386  15.547  69.207  1.00  0.00    -0.300 NA 
HETATM    3  C   UNL     1     -11.879  15.374  70.492  1.00  0.00    -0.339 C  
HETATM    4  C   UNL     1     -12.239  14.213  71.053  1.00  0.00    -0.358 C  
HETATM    5  C   UNL     1     -12.115  12.987  70.228  1.00  0.00    -0.314 C  
HETATM    6  C   UNL     1     -11.620  12.016  67.992  1.00  0.00    -0.407 A  
HETATM    7  F   UNL     1     -10.474  13.522  64.910  1.00  0.00    -0.318 F  
HETATM    8  C   UNL     1     -11.661  13.150  68.822  1.00  0.00    -0.363 A  
HETATM    9  O   UNL     1     -12.389  11.877  70.673  1.00  0.00    -0.356 OA 
HETATM   10  C   UNL     1     -11.220  12.143  66.666  1.00  0.00    -0.375 A  
HETATM   11  C   UNL     1     -11.305  14.432  68.344  1.00  0.00    -0.287 A  
HETATM   12  C   UNL     1     -10.889  14.524  67.004  1.00  0.00    -0.297 A  
HETATM   13  C   UNL     1     -10.857  13.393  66.187  1.00  0.00    -0.281 A  
ENDROOT
BRANCH   4  14
HETATM   14  S   UNL     1     -12.927  14.159  72.689  1.00  0.00    -0.384 S  
HETATM   15  C   UNL     1     -13.043  15.934  73.000  1.00  0.00    -0.541 C  
HETATM   16  O   UNL     1     -14.326  13.625  72.566  1.00  0.00    -0.707 OA 
ENDBRANCH   4  14
TORSDOF 1
ENDMDL
MODEL       14
REMARK 921   NORMALIZED FREE ENERGY PREDICTED BY IDOCK:   -5.50 KCAL/MOL
REMARK 922        TOTAL FREE ENERGY PREDICTED BY IDOCK:   -5.90 KCAL/MOL
REMARK 923 INTER-LIGAND FREE ENERGY PREDICTED BY IDOCK:   -5.80 KCAL/MOL
REMARK 924 INTRA-LIGAND FREE ENERGY PREDICTED BY IDOCK:   -0.10 KCAL/MOL
REMARK 927      BINDING AFFINITY PREDICTED BY RF-SCORE:    0.00 PKD
ROOT
HETATM    1  C   UNL     1     -12.486  15.821  71.272  1.00  0.00    -0.448 C  
HETATM    2  N   UNL     1     -12.087  15.108  70.056  1.00  0.00    -0.326 NA 
HETATM    3  C   UNL     1     -11.531  15.772  68.974  1.00  0.00    -0.391 C  
HETATM    4  C   UNL     1     -11.095  15.211  67.839  1.00  0.00    -0.321 C  
HETATM    5  C   UNL     1     -11.202  13.736  67.720  1.00  0.00    -0.288 C  
HETATM    6  C   UNL     1     -11.754  11.585  68.841  1.00  0.00    -0.403 A  
HETATM    7  F   UNL     1     -13.102  10.850  72.115  1.00  0.00    -0.557 F  
HETATM    8  C   UNL     1     -11.725  12.990  68.894  1.00  0.00    -0.371 A  
HETATM    9  O   UNL     1     -10.860  13.143  66.702  1.00  0.00    -0.276 OA 
HETATM   10  C   UNL     1     -12.218  10.861  69.934  1.00  0.00    -0.408 A  
HETATM   11  C   UNL     1     -12.158  13.697  70.039  1.00  0.00    -0.348 A  
HETATM   12  C   UNL     1     -12.637  12.936  71.119  1.00  0.00    -0.373 A  
HETATM   13  C   UNL     1     -12.656  11.542  71.059  1.00  0.00    -0.357 A  
ENDROOT
BRANCH   4  14
HETATM   14  S   UNL     1     -10.332  16.186  66.566  1.00  0.00    -0.309 S  
HETATM   15  C   UNL     1     -10.381  17.795  67.384  1.00  0.00    -0.369 C  
HETATM   16  O   UNL     1      -8.894  15.760  66.481  1.00  0.00    -0.254 OA 
ENDBRANCH   4  14
TORSDOF 1
ENDMDL
MODEL       15
REMARK 921   NORMALIZED FREE ENERGY PREDICTED BY IDOCK:   -5.50 KCAL/MOL
REMARK 922        TOTAL FREE ENERGY PREDICTED BY IDOCK:   -5.90 KCAL/MOL
REMARK 923 INTER-LIGAND FREE ENERGY PREDICTED BY IDOCK:   -5.79 KCAL/MOL
REMARK 924 INTRA-LIGAND FREE ENERGY PREDICTED BY IDOCK:   -0.11 KCAL/MOL
REMARK 927      BINDING AFFINITY PREDICTED BY RF-SCORE:    0.00 PKD
ROOT
HETATM    1  C   UNL     1     -10.419  12.473  68.532  1.00  0.00    -0.231 C  
HETATM    2  N   UNL     1     -11.245  11.812  69.546  1.00  0.00    -0.228 NA 
HETATM    3  C   UNL     1     -11.138  10.452  69.795  1.00  0.00    -0.295 C  
HETATM    4  C   UNL     1     -11.812   9.763  70.725  1.00  0.00    -0.319 C  
HETATM    5  C   UNL     1     -12.757  10.517  71.584  1.00  0.00    -0.445 C  
HETATM    6  C   UNL     1     -13.658  12.737  72.251  1.00  0.00    -0.563 A  
HETATM    7  F   UNL     1     -13.069  16.064  70.959  1.00  0.00    -0.505 F  
HETATM    8  C   UNL     1     -12.836  11.988  71.390  1.00  0.00    -0.391 A  
HETATM    9  O   UNL     1     -13.441   9.959  72.438  1.00  0.00    -0.391 OA 
HETATM   10  C   UNL     1     -13.734  14.119  72.106  1.00  0.00    -0.587 A  
HETATM   11  C   UNL     1     -12.076  12.603  70.370  1.00  0.00    -0.300 A  
HETATM   12  C   UNL     1     -12.188  13.998  70.239  1.00  0.00    -0.430 A  
HETATM   13  C   UNL     1     -13.001  14.734  71.102  1.00  0.00    -0.359 A  
ENDROOT
BRANCH   4  14
HETATM   14  S   UNL     1     -11.513   8.031  70.979  1.00  0.00    -0.277 S  
HETATM   15  C   UNL     1     -10.442   7.724  69.558  1.00  0.00    -0.225 C  
HETATM   16  O   UNL     1     -10.675   7.902  72.220  1.00  0.00    -0.241 OA 
ENDBRANCH   4  14
TORSDOF 1
ENDMDL
MODEL       16
REMARK 921   NORMALIZED FREE ENERGY PREDICTED BY IDOCK:   -5.48 KCAL/MOL
REMARK 922        TOTAL FREE ENERGY PREDICTED BY IDOCK:   -5.88 KCAL/MOL
REMARK 923 INTER-LIGAND FREE ENERGY PREDICTED BY IDOCK:   -5.77 KCAL/MOL
REMARK 924 INTRA-LIGAND FREE ENERGY PREDICTED BY IDOCK:   -0.11 KCAL/MOL
REMARK 927      BINDING AFFINITY PREDICTED BY RF-SCORE:    0.00 PKD
ROOT
HETATM    1  C   UNL     1     -11.498  15.871  68.631  1.00  0.00    -0.391 C  
HETATM    2  N   UNL     1     -11.716  14.525  69.168  1.00  0.00    -0.296 NA 
HETATM    3  C   UNL     1     -11.107  13.412  68.608  1.00  0.00    -0.263 C  
HETATM    4  C   UNL     1     -11.206  12.151  69.047  1.00  0.00    -0.260 C  
HETATM    5  C   UNL     1     -12.033  11.909  70.254  1.00  0.00    -0.330 C  
HETATM    6  C   UNL     1     -13.350  12.901  72.116  1.00  0.00    -0.615 A  
HETATM    7  F   UNL     1     -14.286  16.316  72.854  1.00  0.00    -0.603 F  
HETATM    8  C   UNL     1     -12.635  13.093  70.921  1.00  0.00    -0.377 A  
HETATM    9  O   UNL     1     -12.205  10.781  70.705  1.00  0.00    -0.314 OA 
HETATM   10  C   UNL     1     -13.906  13.994  72.772  1.00  0.00    -0.341 A  
HETATM   11  C   UNL     1     -12.463  14.378  70.358  1.00  0.00    -0.357 A  
HETATM   12  C   UNL     1     -13.052  15.459  71.036  1.00  0.00    -0.565 A  
HETATM   13  C   UNL     1     -13.754  15.260  72.225  1.00  0.00    -0.510 A  
ENDROOT
BRANCH   4  14
HETATM   14  S   UNL     1     -10.303  10.835  68.268  1.00  0.00    -0.184 S  
HETATM   15  C   UNL     1      -9.909  11.655  66.708  1.00  0.00    -0.200 C  
HETATM   16  O   UNL     1      -9.020  10.663  69.030  1.00  0.00    -0.167 OA 
ENDBRANCH   4  14
TORSDOF 1
ENDMDL
MODEL       17
REMARK 921   NORMALIZED FREE ENERGY PREDICTED BY IDOCK:   -5.46 KCAL/MOL
REMARK 922        TOTAL FREE ENERGY PREDICTED BY IDOCK:   -5.86 KCAL/MOL
REMARK 923 INTER-LIGAND FREE ENERGY PREDICTED BY IDOCK:   -5.77 KCAL/MOL
REMARK 924 INTRA-LIGAND FREE ENERGY PREDICTED BY IDOCK:   -0.10 KCAL/MOL
REMARK 927      BINDING AFFINITY PREDICTED BY RF-SCORE:    0.00 PKD
ROOT
HETATM    1  C   UNL     1     -11.036  10.404  67.857  1.00  0.00    -0.299 C  
HETATM    2  N   UNL     1     -11.185  11.827  68.172  1.00  0.00    -0.239 NA 
HETATM    3  C   UNL     1     -10.847  12.812  67.257  1.00  0.00    -0.251 C  
HETATM    4  C   UNL     1     -10.985  14.133  67.429  1.00  0.00    -0.299 C  
HETATM    5  C   UNL     1     -11.563  14.599  68.713  1.00  0.00    -0.317 C  
HETATM    6  C   UNL     1     -12.636  13.976  70.869  1.00  0.00    -0.431 A  
HETATM    7  F   UNL     1     -13.303  10.763  72.389  1.00  0.00    -0.527 F  
HETATM    8  C   UNL     1     -12.004  13.563  69.683  1.00  0.00    -0.397 A  
HETATM    9  O   UNL     1     -11.692  15.793  68.969  1.00  0.00    -0.379 OA 
HETATM   10  C   UNL     1     -13.078  13.027  71.784  1.00  0.00    -0.469 A  
HETATM   11  C   UNL     1     -11.802  12.195  69.389  1.00  0.00    -0.309 A  
HETATM   12  C   UNL     1     -12.245  11.262  70.341  1.00  0.00    -0.453 A  
HETATM   13  C   UNL     1     -12.876  11.682  71.513  1.00  0.00    -0.364 A  
ENDROOT
BRANCH   4  14
HETATM   14  S   UNL     1     -10.578  15.275  66.132  1.00  0.00    -0.323 S  
HETATM   15  C   UNL     1      -8.824  15.499  66.500  1.00  0.00    -0.313 C  
HETATM   16  O   UNL     1     -10.680  14.528  64.833  1.00  0.00    -0.396 OA 
ENDBRANCH   4  14
TORSDOF 1
ENDMDL
MODEL       18
REMARK 921   NORMALIZED FREE ENERGY PREDICTED BY IDOCK:   -5.43 KCAL/MOL
REMARK 922        TOTAL FREE ENERGY PREDICTED BY IDOCK:   -5.83 KCAL/MOL
REMARK 923 INTER-LIGAND FREE ENERGY PREDICTED BY IDOCK:   -5.72 KCAL/MOL
REMARK 924 INTRA-LIGAND FREE ENERGY PREDICTED BY IDOCK:   -0.11 KCAL/MOL
REMARK 927      BINDING AFFINITY PREDICTED BY RF-SCORE:    0.00 PKD
ROOT
HETATM    1  C   UNL     1     -10.314   9.008  67.161  1.00  0.00    -0.272 C  
HETATM    2  N   UNL     1     -10.726  10.412  67.242  1.00  0.00    -0.272 NA 
HETATM    3  C   UNL     1     -10.724  11.235  66.126  1.00  0.00    -0.250 C  
HETATM    4  C   UNL     1     -11.121  12.513  66.084  1.00  0.00    -0.298 C  
HETATM    5  C   UNL     1     -11.625  13.115  67.343  1.00  0.00    -0.356 C  
HETATM    6  C   UNL     1     -12.268  12.755  69.718  1.00  0.00    -0.213 A  
HETATM    7  F   UNL     1     -12.036   9.854  71.865  1.00  0.00    -0.445 F  
HETATM    8  C   UNL     1     -11.711  12.234  68.537  1.00  0.00    -0.381 A  
HETATM    9  O   UNL     1     -11.977  14.288  67.403  1.00  0.00    -0.395 OA 
HETATM   10  C   UNL     1     -12.380  11.947  70.845  1.00  0.00    -0.400 A  
HETATM   11  C   UNL     1     -11.256  10.898  68.458  1.00  0.00    -0.274 A  
HETATM   12  C   UNL     1     -11.368  10.113  69.618  1.00  0.00    -0.289 A  
HETATM   13  C   UNL     1     -11.928  10.637  70.784  1.00  0.00    -0.374 A  
ENDROOT
BRANCH   4  14
HETATM   14  S   UNL     1     -11.131  13.421  64.558  1.00  0.00    -0.392 S  
HETATM   15  C   UNL     1     -10.490  12.134  63.466  1.00  0.00    -0.454 C  
HETATM   16  O   UNL     1     -12.568  13.657  64.191  1.00  0.00    -0.655 OA 
ENDBRANCH   4  14
TORSDOF 1
ENDMDL
MODEL       19
REMARK 921   NORMALIZED FREE ENERGY PREDICTED BY IDOCK:   -5.38 KCAL/MOL
REMARK 922        TOTAL FREE ENERGY PREDICTED BY IDOCK:   -5.78 KCAL/MOL
REMARK 923 INTER-LIGAND FREE ENERGY PREDICTED BY IDOCK:   -5.67 KCAL/MOL
REMARK 924 INTRA-LIGAND FREE ENERGY PREDICTED BY IDOCK:   -0.11 KCAL/MOL
REMARK 927      BINDING AFFINITY PREDICTED BY RF-SCORE:    0.00 PKD
ROOT
HETATM    1  C   UNL     1     -10.974  15.669  70.281  1.00  0.00    -0.348 C  
HETATM    2  N   UNL     1     -10.841  15.472  68.836  1.00  0.00    -0.241 NA 
HETATM    3  C   UNL     1     -11.029  14.228  68.252  1.00  0.00    -0.247 C  
HETATM    4  C   UNL     1     -10.973  13.952  66.943  1.00  0.00    -0.295 C  
HETATM    5  C   UNL     1     -10.696  15.077  66.017  1.00  0.00    -0.326 C  
HETATM    6  C   UNL     1     -10.391  17.530  65.744  1.00  0.00    -0.217 A  
HETATM    7  F   UNL     1     -10.251  20.224  68.153  1.00  0.00    -0.516 F  
HETATM    8  C   UNL     1     -10.565  16.435  66.607  1.00  0.00    -0.239 A  
HETATM    9  O   UNL     1     -10.594  14.908  64.806  1.00  0.00    -0.407 OA 
HETATM   10  C   UNL     1     -10.288  18.814  66.268  1.00  0.00    -0.497 A  
HETATM   11  C   UNL     1     -10.639  16.600  68.009  1.00  0.00    -0.338 A  
HETATM   12  C   UNL     1     -10.515  17.908  68.508  1.00  0.00    -0.312 A  
HETATM   13  C   UNL     1     -10.348  18.990  67.643  1.00  0.00    -0.423 A  
ENDROOT
BRANCH   4  14
HETATM   14  S   UNL     1     -11.312  12.318  66.335  1.00  0.00    -0.370 S  
HETATM   15  C   UNL     1     -11.654  11.502  67.909  1.00  0.00    -0.282 C  
HETATM   16  O   UNL     1     -12.601  12.388  65.567  1.00  0.00    -0.616 OA 
ENDBRANCH   4  14
TORSDOF 1
ENDMDL
MODEL       20
REMARK 921   NORMALIZED FREE ENERGY PREDICTED BY IDOCK:   -5.34 KCAL/MOL
REMARK 922        TOTAL FREE ENERGY PREDICTED BY IDOCK:   -5.74 KCAL/MOL
REMARK 923 INTER-LIGAND FREE ENERGY PREDICTED BY IDOCK:   -5.91 KCAL/MOL
REMARK 924 INTRA-LIGAND FREE ENERGY PREDICTED BY IDOCK:    0.17 KCAL/MOL
REMARK 927      BINDING AFFINITY PREDICTED BY RF-SCORE:    0.00 PKD
ROOT
HETATM    1  C   UNL     1     -12.118  14.610  69.732  1.00  0.00    -0.324 C  
HETATM    2  N   UNL     1     -11.524  15.433  68.675  1.00  0.00    -0.329 NA 
HETATM    3  C   UNL     1     -10.856  16.613  68.963  1.00  0.00    -0.314 C  
HETATM    4  C   UNL     1     -10.244  17.412  68.081  1.00  0.00    -0.350 C  
HETATM    5  C   UNL     1     -10.263  17.000  66.656  1.00  0.00    -0.310 C  
HETATM    6  C   UNL     1     -10.859  15.244  64.998  1.00  0.00    -0.457 A  
HETATM    7  F   UNL     1     -12.606  12.096  65.344  1.00  0.00    -0.392 F  
HETATM    8  C   UNL     1     -10.905  15.700  66.327  1.00  0.00    -0.262 A  
HETATM    9  O   UNL     1      -9.756  17.689  65.776  1.00  0.00    -0.537 OA 
HETATM   10  C   UNL     1     -11.433  14.021  64.667  1.00  0.00    -0.389 A  
HETATM   11  C   UNL     1     -11.524  14.945  67.349  1.00  0.00    -0.343 A  
HETATM   12  C   UNL     1     -12.109  13.723  66.978  1.00  0.00    -0.436 A  
HETATM   13  C   UNL     1     -12.053  13.275  65.657  1.00  0.00    -0.441 A  
ENDROOT
BRANCH   4  14
HETATM   14  S   UNL     1      -9.361  18.859  68.611  1.00  0.00    -0.361 S  
HETATM   15  C   UNL     1      -7.699  18.372  68.100  1.00  0.00    -0.290 C  
HETATM   16  O   UNL     1      -9.796  19.994  67.727  1.00  0.00    -0.371 OA 
ENDBRANCH   4  14
TORSDOF 1
ENDMDL
MODEL       21
REMARK 921   NORMALIZED FREE ENERGY PREDICTED BY IDOCK:   -5.33 KCAL/MOL
REMARK 922        TOTAL FREE ENERGY PREDICTED BY IDOCK:   -5.72 KCAL/MOL
REMARK 923 INTER-LIGAND FREE ENERGY PREDICTED BY IDOCK:   -5.67 KCAL/MOL
REMARK 924 INTRA-LIGAND FREE ENERGY PREDICTED BY IDOCK:   -0.05 KCAL/MOL
REMARK 927      BINDING AFFINITY PREDICTED BY RF-SCORE:    0.00 PKD
ROOT
HETATM    1  C   UNL     1     -11.758  15.649  69.728  1.00  0.00    -0.357 C  
HETATM    2  N   UNL     1     -11.710  14.280  69.208  1.00  0.00    -0.299 NA 
HETATM    3  C   UNL     1     -12.058  13.192  69.993  1.00  0.00    -0.305 C  
HETATM    4  C   UNL     1     -12.089  11.912  69.603  1.00  0.00    -0.239 C  
HETATM    5  C   UNL     1     -11.730  11.616  68.194  1.00  0.00    -0.295 C  
HETATM    6  C   UNL     1     -11.170  12.525  65.948  1.00  0.00    -0.356 A  
HETATM    7  F   UNL     1     -10.631  15.905  64.781  1.00  0.00    -0.424 F  
HETATM    8  C   UNL     1     -11.426  12.770  67.308  1.00  0.00    -0.393 A  
HETATM    9  O   UNL     1     -11.699  10.468  67.762  1.00  0.00    -0.438 OA 
HETATM   10  C   UNL     1     -10.903  13.588  65.092  1.00  0.00    -0.336 A  
HETATM   11  C   UNL     1     -11.421  14.080  67.839  1.00  0.00    -0.316 A  
HETATM   12  C   UNL     1     -11.132  15.130  66.951  1.00  0.00    -0.314 A  
HETATM   13  C   UNL     1     -10.885  14.878  65.601  1.00  0.00    -0.341 A  
ENDROOT
BRANCH   4  14
HETATM   14  S   UNL     1     -12.632  10.629  70.705  1.00  0.00    -0.397 S  
HETATM   15  C   UNL     1     -11.040   9.830  71.004  1.00  0.00    -0.361 C  
HETATM   16  O   UNL     1     -13.057  11.292  71.985  1.00  0.00    -0.495 OA 
ENDBRANCH   4  14
TORSDOF 1
ENDMDL
MODEL       22
REMARK 921   NORMALIZED FREE ENERGY PREDICTED BY IDOCK:   -5.32 KCAL/MOL
REMARK 922        TOTAL FREE ENERGY PREDICTED BY IDOCK:   -5.71 KCAL/MOL
REMARK 923 INTER-LIGAND FREE ENERGY PREDICTED BY IDOCK:   -5.63 KCAL/MOL
REMARK 924 INTRA-LIGAND FREE ENERGY PREDICTED BY IDOCK:   -0.09 KCAL/MOL
REMARK 927      BINDING AFFINITY PREDICTED BY RF-SCORE:    0.00 PKD
ROOT
HETATM    1  C   UNL     1     -10.968  14.235  64.760  1.00  0.00    -0.398 C  
HETATM    2  N   UNL     1     -10.831  15.063  65.960  1.00  0.00    -0.327 NA 
HETATM    3  C   UNL     1     -10.511  16.410  65.881  1.00  0.00    -0.337 C  
HETATM    4  C   UNL     1     -10.404  17.260  66.909  1.00  0.00    -0.310 C  
HETATM    5  C   UNL     1     -10.662  16.726  68.269  1.00  0.00    -0.364 C  
HETATM    6  C   UNL     1     -11.417  14.797  69.646  1.00  0.00    -0.327 A  
HETATM    7  F   UNL     1     -12.302  11.404  68.761  1.00  0.00    -0.372 F  
HETATM    8  C   UNL     1     -11.081  15.304  68.378  1.00  0.00    -0.289 A  
HETATM    9  O   UNL     1     -10.553  17.426  69.271  1.00  0.00    -0.302 OA 
HETATM   10  C   UNL     1     -11.834  13.476  69.774  1.00  0.00    -0.395 A  
HETATM   11  C   UNL     1     -11.154  14.503  67.216  1.00  0.00    -0.312 A  
HETATM   12  C   UNL     1     -11.562  13.169  67.382  1.00  0.00    -0.403 A  
HETATM   13  C   UNL     1     -11.900  12.676  68.644  1.00  0.00    -0.302 A  
ENDROOT
BRANCH   4  14
HETATM   14  S   UNL     1     -10.060  18.982  66.645  1.00  0.00    -0.424 S  
HETATM   15  C   UNL     1      -8.285  18.865  66.333  1.00  0.00    -0.294 C  
HETATM   16  O   UNL     1     -10.725  19.376  65.357  1.00  0.00    -0.468 OA 
ENDBRANCH   4  14
TORSDOF 1
ENDMDL
MODEL       23
REMARK 921   NORMALIZED FREE ENERGY PREDICTED BY IDOCK:   -5.30 KCAL/MOL
REMARK 922        TOTAL FREE ENERGY PREDICTED BY IDOCK:   -5.69 KCAL/MOL
REMARK 923 INTER-LIGAND FREE ENERGY PREDICTED BY IDOCK:   -5.58 KCAL/MOL
REMARK 924 INTRA-LIGAND FREE ENERGY PREDICTED BY IDOCK:   -0.11 KCAL/MOL
REMARK 927      BINDING AFFINITY PREDICTED BY RF-SCORE:    0.00 PKD
ROOT
HETATM    1  C   UNL     1     -10.427   9.098  67.321  1.00  0.00    -0.265 C  
HETATM    2  N   UNL     1     -10.904  10.437  67.677  1.00  0.00    -0.287 NA 
HETATM    3  C   UNL     1     -11.002  11.448  66.733  1.00  0.00    -0.291 C  
HETATM    4  C   UNL     1     -11.463  12.686  66.944  1.00  0.00    -0.343 C  
HETATM    5  C   UNL     1     -11.928  13.019  68.313  1.00  0.00    -0.267 C  
HETATM    6  C   UNL     1     -12.424  12.197  70.607  1.00  0.00    -0.330 A  
HETATM    7  F   UNL     1     -11.933   8.973  72.171  1.00  0.00    -0.397 F  
HETATM    8  C   UNL     1     -11.906  11.933  69.327  1.00  0.00    -0.379 A  
HETATM    9  O   UNL     1     -12.334  14.140  68.604  1.00  0.00    -0.257 OA 
HETATM   10  C   UNL     1     -12.435  11.193  71.570  1.00  0.00    -0.356 A  
HETATM   11  C   UNL     1     -11.390  10.663  68.984  1.00  0.00    -0.277 A  
HETATM   12  C   UNL     1     -11.401   9.675  69.983  1.00  0.00    -0.239 A  
HETATM   13  C   UNL     1     -11.922   9.945  71.249  1.00  0.00    -0.402 A  
ENDROOT
BRANCH   4  14
HETATM   14  S   UNL     1     -11.601  13.855  65.614  1.00  0.00    -0.346 S  
HETATM   15  C   UNL     1     -10.599  12.992  64.384  1.00  0.00    -0.409 C  
HETATM   16  O   UNL     1     -13.027  13.826  65.142  1.00  0.00    -0.738 OA 
ENDBRANCH   4  14
TORSDOF 1
ENDMDL
MODEL       24
REMARK 921   NORMALIZED FREE ENERGY PREDICTED BY IDOCK:   -5.27 KCAL/MOL
REMARK 922        TOTAL FREE ENERGY PREDICTED BY IDOCK:   -5.66 KCAL/MOL
REMARK 923 INTER-LIGAND FREE ENERGY PREDICTED BY IDOCK:   -5.68 KCAL/MOL
REMARK 924 INTRA-LIGAND FREE ENERGY PREDICTED BY IDOCK:    0.02 KCAL/MOL
REMARK 927      BINDING AFFINITY PREDICTED BY RF-SCORE:    0.00 PKD
ROOT
HETATM    1  C   UNL     1     -13.710  14.003  72.257  1.00  0.00    -0.548 C  
HETATM    2  N   UNL     1     -12.939  13.469  71.131  1.00  0.00    -0.296 NA 
HETATM    3  C   UNL     1     -12.383  14.303  70.173  1.00  0.00    -0.353 C  
HETATM    4  C   UNL     1     -11.629  13.921  69.134  1.00  0.00    -0.313 C  
HETATM    5  C   UNL     1     -11.345  12.473  68.990  1.00  0.00    -0.290 C  
HETATM    6  C   UNL     1     -11.535  10.199  69.980  1.00  0.00    -0.344 A  
HETATM    7  F   UNL     1     -13.215   8.995  72.948  1.00  0.00    -0.485 F  
HETATM    8  C   UNL     1     -11.865  11.564  70.045  1.00  0.00    -0.435 A  
HETATM    9  O   UNL     1     -10.691  12.032  68.049  1.00  0.00    -0.199 OA 
HETATM   10  C   UNL     1     -11.990   9.329  70.965  1.00  0.00    -0.369 A  
HETATM   11  C   UNL     1     -12.655  12.086  71.094  1.00  0.00    -0.271 A  
HETATM   12  C   UNL     1     -13.113  11.179  72.064  1.00  0.00    -0.433 A  
HETATM   13  C   UNL     1     -12.775   9.827  71.994  1.00  0.00    -0.376 A  
ENDROOT
BRANCH   4  14
HETATM   14  S   UNL     1     -10.919  15.115  68.028  1.00  0.00    -0.307 S  
HETATM   15  C   UNL     1     -11.816  14.668  66.526  1.00  0.00    -0.304 C  
HETATM   16  O   UNL     1     -11.404  16.469  68.463  1.00  0.00    -0.356 OA 
ENDBRANCH   4  14
TORSDOF 1
ENDMDL
MODEL       25
REMARK 921   NORMALIZED FREE ENERGY PREDICTED BY IDOCK:   -5.18 KCAL/MOL
REMARK 922        TOTAL FREE ENERGY PREDICTED BY IDOCK:   -5.56 KCAL/MOL
REMARK 923 INTER-LIGAND FREE ENERGY PREDICTED BY IDOCK:   -5.50 KCAL/MOL
REMARK 924 INTRA-LIGAND FREE ENERGY PREDICTED BY IDOCK:   -0.07 KCAL/MOL
REMARK 927      BINDING AFFINITY PREDICTED BY RF-SCORE:    0.00 PKD
ROOT
HETATM    1  C   UNL     1     -10.440  11.226  68.607  1.00  0.00    -0.203 C  
HETATM    2  N   UNL     1     -11.318  11.677  69.690  1.00  0.00    -0.258 NA 
HETATM    3  C   UNL     1     -11.666  13.011  69.835  1.00  0.00    -0.256 C  
HETATM    4  C   UNL     1     -12.491  13.518  70.759  1.00  0.00    -0.353 C  
HETATM    5  C   UNL     1     -13.109  12.570  71.719  1.00  0.00    -0.347 C  
HETATM    6  C   UNL     1     -13.456  10.198  72.381  1.00  0.00    -0.164 A  
HETATM    7  F   UNL     1     -12.098   7.109  71.078  1.00  0.00    -0.330 F  
HETATM    8  C   UNL     1     -12.814  11.124  71.541  1.00  0.00    -0.542 A  
HETATM    9  O   UNL     1     -13.849  12.952  72.620  1.00  0.00    -0.596 OA 
HETATM   10  C   UNL     1     -13.215   8.837  72.221  1.00  0.00    -0.456 A  
HETATM   11  C   UNL     1     -11.920  10.711  70.526  1.00  0.00    -0.352 A  
HETATM   12  C   UNL     1     -11.686   9.331  70.403  1.00  0.00    -0.157 A  
HETATM   13  C   UNL     1     -12.332   8.418  71.238  1.00  0.00    -0.266 A  
ENDROOT
BRANCH   4  14
HETATM   14  S   UNL     1     -12.903  15.245  70.774  1.00  0.00    -0.429 S  
HETATM   15  C   UNL     1     -11.936  15.748  72.214  1.00  0.00    -0.493 C  
HETATM   16  O   UNL     1     -12.270  15.864  69.560  1.00  0.00    -0.294 OA 
ENDBRANCH   4  14
TORSDOF 1
ENDMDL
MODEL       26
REMARK 921   NORMALIZED FREE ENERGY PREDICTED BY IDOCK:   -5.18 KCAL/MOL
REMARK 922        TOTAL FREE ENERGY PREDICTED BY IDOCK:   -5.56 KCAL/MOL
REMARK 923 INTER-LIGAND FREE ENERGY PREDICTED BY IDOCK:   -5.48 KCAL/MOL
REMARK 924 INTRA-LIGAND FREE ENERGY PREDICTED BY IDOCK:   -0.09 KCAL/MOL
REMARK 927      BINDING AFFINITY PREDICTED BY RF-SCORE:    0.00 PKD
ROOT
HETATM    1  C   UNL     1      -9.109  10.520  63.024  1.00  0.00    -0.275 C  
HETATM    2  N   UNL     1      -9.851  11.004  64.191  1.00  0.00    -0.279 NA 
HETATM    3  C   UNL     1     -10.603  12.168  64.142  1.00  0.00    -0.365 C  
HETATM    4  C   UNL     1     -11.349  12.671  65.134  1.00  0.00    -0.308 C  
HETATM    5  C   UNL     1     -11.392  11.914  66.409  1.00  0.00    -0.339 C  
HETATM    6  C   UNL     1     -10.754   9.845  67.632  1.00  0.00    -0.339 A  
HETATM    7  F   UNL     1      -8.702   7.021  66.684  1.00  0.00    -0.112 F  
HETATM    8  C   UNL     1     -10.657  10.624  66.466  1.00  0.00    -0.257 A  
HETATM    9  O   UNL     1     -12.022  12.320  67.381  1.00  0.00    -0.530 OA 
HETATM   10  C   UNL     1     -10.094   8.622  67.704  1.00  0.00    -0.271 A  
HETATM   11  C   UNL     1      -9.899  10.199  65.351  1.00  0.00    -0.307 A  
HETATM   12  C   UNL     1      -9.231   8.968  65.462  1.00  0.00    -0.262 A  
HETATM   13  C   UNL     1      -9.338   8.198  66.621  1.00  0.00    -0.197 A  
ENDROOT
BRANCH   4  14
HETATM   14  S   UNL     1     -12.322  14.137  64.897  1.00  0.00    -0.407 S  
HETATM   15  C   UNL     1     -11.012  15.369  65.065  1.00  0.00    -0.436 C  
HETATM   16  O   UNL     1     -12.775  14.145  63.465  1.00  0.00    -0.794 OA 
ENDBRANCH   4  14
TORSDOF 1
ENDMDL
MODEL       27
REMARK 921   NORMALIZED FREE ENERGY PREDICTED BY IDOCK:   -5.09 KCAL/MOL
REMARK 922        TOTAL FREE ENERGY PREDICTED BY IDOCK:   -5.47 KCAL/MOL
REMARK 923 INTER-LIGAND FREE ENERGY PREDICTED BY IDOCK:   -5.36 KCAL/MOL
REMARK 924 INTRA-LIGAND FREE ENERGY PREDICTED BY IDOCK:   -0.11 KCAL/MOL
REMARK 927      BINDING AFFINITY PREDICTED BY RF-SCORE:    0.00 PKD
ROOT
HETATM    1  C   UNL     1     -11.928  10.322  70.535  1.00  0.00    -0.323 C  
HETATM    2  N   UNL     1     -11.970  11.599  69.818  1.00  0.00    -0.327 NA 
HETATM    3  C   UNL     1     -12.312  12.781  70.458  1.00  0.00    -0.275 C  
HETATM    4  C   UNL     1     -12.338  14.000  69.907  1.00  0.00    -0.310 C  
HETATM    5  C   UNL     1     -11.956  14.114  68.478  1.00  0.00    -0.332 C  
HETATM    6  C   UNL     1     -11.059  12.972  66.459  1.00  0.00    -0.315 A  
HETATM    7  F   UNL     1     -10.214   9.513  65.822  1.00  0.00    -0.365 F  
HETATM    8  C   UNL     1     -11.511  12.876  67.787  1.00  0.00    -0.369 A  
HETATM    9  O   UNL     1     -11.985  15.188  67.884  1.00  0.00    -0.268 OA 
HETATM   10  C   UNL     1     -10.617  11.832  65.795  1.00  0.00    -0.312 A  
HETATM   11  C   UNL     1     -11.530  11.642  68.476  1.00  0.00    -0.298 A  
HETATM   12  C   UNL     1     -11.093  10.508  67.772  1.00  0.00    -0.382 A  
HETATM   13  C   UNL     1     -10.641  10.614  66.456  1.00  0.00    -0.193 A  
ENDROOT
BRANCH   4  14
HETATM   14  S   UNL     1     -12.725  15.437  70.876  1.00  0.00    -0.474 S  
HETATM   15  C   UNL     1     -13.454  14.616  72.310  1.00  0.00    -0.408 C  
HETATM   16  O   UNL     1     -11.421  16.044  71.311  1.00  0.00    -0.407 OA 
ENDBRANCH   4  14
TORSDOF 1
ENDMDL
MODEL       28
REMARK 921   NORMALIZED FREE ENERGY PREDICTED BY IDOCK:   -5.08 KCAL/MOL
REMARK 922        TOTAL FREE ENERGY PREDICTED BY IDOCK:   -5.46 KCAL/MOL
REMARK 923 INTER-LIGAND FREE ENERGY PREDICTED BY IDOCK:   -5.36 KCAL/MOL
REMARK 924 INTRA-LIGAND FREE ENERGY PREDICTED BY IDOCK:   -0.10 KCAL/MOL
REMARK 927      BINDING AFFINITY PREDICTED BY RF-SCORE:    0.00 PKD
ROOT
HETATM    1  C   UNL     1     -12.126  14.620  69.152  1.00  0.00    -0.248 C  
HETATM    2  N   UNL     1     -11.762  13.338  68.542  1.00  0.00    -0.332 NA 
HETATM    3  C   UNL     1     -11.513  12.212  69.311  1.00  0.00    -0.302 C  
HETATM    4  C   UNL     1     -11.217  10.990  68.852  1.00  0.00    -0.265 C  
HETATM    5  C   UNL     1     -11.159  10.806  67.381  1.00  0.00    -0.296 C  
HETATM    6  C   UNL     1     -11.535  11.807  65.136  1.00  0.00    -0.248 A  
HETATM    7  F   UNL     1     -12.472  15.147  64.111  1.00  0.00    -0.518 F  
HETATM    8  C   UNL     1     -11.496  11.977  66.531  1.00  0.00    -0.413 A  
HETATM    9  O   UNL     1     -10.862   9.728  66.875  1.00  0.00    -0.170 OA 
HETATM   10  C   UNL     1     -11.868  12.881  64.317  1.00  0.00    -0.457 A  
HETATM   11  C   UNL     1     -11.789  13.221  67.134  1.00  0.00    -0.374 A  
HETATM   12  C   UNL     1     -12.106  14.290  66.278  1.00  0.00    -0.433 A  
HETATM   13  C   UNL     1     -12.148  14.110  64.895  1.00  0.00    -0.428 A  
ENDROOT
BRANCH   4  14
HETATM   14  S   UNL     1     -10.997   9.621  69.962  1.00  0.00    -0.270 S  
HETATM   15  C   UNL     1      -9.192   9.602  70.023  1.00  0.00    -0.241 C  
HETATM   16  O   UNL     1     -11.495  10.057  71.311  1.00  0.00    -0.364 OA 
ENDBRANCH   4  14
TORSDOF 1
ENDMDL
MODEL       29
REMARK 921   NORMALIZED FREE ENERGY PREDICTED BY IDOCK:   -5.05 KCAL/MOL
REMARK 922        TOTAL FREE ENERGY PREDICTED BY IDOCK:   -5.43 KCAL/MOL
REMARK 923 INTER-LIGAND FREE ENERGY PREDICTED BY IDOCK:   -5.36 KCAL/MOL
REMARK 924 INTRA-LIGAND FREE ENERGY PREDICTED BY IDOCK:   -0.07 KCAL/MOL
REMARK 927      BINDING AFFINITY PREDICTED BY RF-SCORE:    0.00 PKD
ROOT
HETATM    1  C   UNL     1     -12.428  14.389  69.626  1.00  0.00    -0.165 C  
HETATM    2  N   UNL     1     -11.941  13.487  68.579  1.00  0.00    -0.363 NA 
HETATM    3  C   UNL     1     -11.664  13.943  67.299  1.00  0.00    -0.386 C  
HETATM    4  C   UNL     1     -11.176  13.213  66.288  1.00  0.00    -0.301 C  
HETATM    5  C   UNL     1     -10.890  11.782  66.552  1.00  0.00    -0.282 C  
HETATM    6  C   UNL     1     -10.758   9.954  68.233  1.00  0.00    -0.276 A  
HETATM    7  F   UNL     1     -11.617   9.844  71.745  1.00  0.00    -0.435 F  
HETATM    8  C   UNL     1     -11.105  11.284  67.935  1.00  0.00    -0.325 A  
HETATM    9  O   UNL     1     -10.474  11.033  65.673  1.00  0.00    -0.254 OA 
HETATM   10  C   UNL     1     -10.929   9.468  69.525  1.00  0.00    -0.217 A  
HETATM   11  C   UNL     1     -11.630  12.152  68.920  1.00  0.00    -0.324 A  
HETATM   12  C   UNL     1     -11.806  11.625  70.210  1.00  0.00    -0.414 A  
HETATM   13  C   UNL     1     -11.453  10.306  70.499  1.00  0.00    -0.343 A  
ENDROOT
BRANCH   4  14
HETATM   14  S   UNL     1     -10.799  13.956  64.719  1.00  0.00    -0.421 S  
HETATM   15  C   UNL     1     -12.180  13.296  63.761  1.00  0.00    -0.439 C  
HETATM   16  O   UNL     1     -11.011  15.436  64.865  1.00  0.00    -0.417 OA 
ENDBRANCH   4  14
TORSDOF 1
ENDMDL
MODEL       30
REMARK 921   NORMALIZED FREE ENERGY PREDICTED BY IDOCK:   -5.05 KCAL/MOL
REMARK 922        TOTAL FREE ENERGY PREDICTED BY IDOCK:   -5.43 KCAL/MOL
REMARK 923 INTER-LIGAND FREE ENERGY PREDICTED BY IDOCK:   -5.31 KCAL/MOL
REMARK 924 INTRA-LIGAND FREE ENERGY PREDICTED BY IDOCK:   -0.11 KCAL/MOL
REMARK 927      BINDING AFFINITY PREDICTED BY RF-SCORE:    0.00 PKD
ROOT
HETATM    1  C   UNL     1      -8.464  13.304  67.547  1.00  0.00    -0.202 C  
HETATM    2  N   UNL     1      -9.115  14.470  66.945  1.00  0.00    -0.244 NA 
HETATM    3  C   UNL     1      -8.672  15.760  67.197  1.00  0.00    -0.205 C  
HETATM    4  C   UNL     1      -9.167  16.885  66.666  1.00  0.00    -0.256 C  
HETATM    5  C   UNL     1     -10.289  16.752  65.705  1.00  0.00    -0.305 C  
HETATM    6  C   UNL     1     -11.736  15.221  64.383  1.00  0.00    -0.289 A  
HETATM    7  F   UNL     1     -11.985  11.614  64.299  1.00  0.00    -0.376 F  
HETATM    8  C   UNL     1     -10.735  15.377  65.358  1.00  0.00    -0.416 A  
HETATM    9  O   UNL     1     -10.825  17.732  65.198  1.00  0.00    -0.671 OA 
HETATM   10  C   UNL     1     -12.157  13.945  64.023  1.00  0.00    -0.437 A  
HETATM   11  C   UNL     1     -10.135  14.264  65.990  1.00  0.00    -0.318 A  
HETATM   12  C   UNL     1     -10.595  12.990  65.616  1.00  0.00    -0.297 A  
HETATM   13  C   UNL     1     -11.585  12.845  64.643  1.00  0.00    -0.346 A  
ENDROOT
BRANCH   4  14
HETATM   14  S   UNL     1      -8.444  18.466  67.027  1.00  0.00    -0.260 S  
HETATM   15  C   UNL     1      -7.279  17.951  68.308  1.00  0.00    -0.236 C  
HETATM   16  O   UNL     1      -7.646  18.876  65.822  1.00  0.00    -0.456 OA 
ENDBRANCH   4  14
TORSDOF 1
ENDMDL
MODEL       31
REMARK 921   NORMALIZED FREE ENERGY PREDICTED BY IDOCK:   -5.03 KCAL/MOL
REMARK 922        TOTAL FREE ENERGY PREDICTED BY IDOCK:   -5.41 KCAL/MOL
REMARK 923 INTER-LIGAND FREE ENERGY PREDICTED BY IDOCK:   -5.30 KCAL/MOL
REMARK 924 INTRA-LIGAND FREE ENERGY PREDICTED BY IDOCK:   -0.11 KCAL/MOL
REMARK 927      BINDING AFFINITY PREDICTED BY RF-SCORE:    0.00 PKD
ROOT
HETATM    1  C   UNL     1     -10.555  13.837  68.353  1.00  0.00    -0.253 C  
HETATM    2  N   UNL     1     -11.116  12.742  69.149  1.00  0.00    -0.223 NA 
HETATM    3  C   UNL     1     -10.723  11.427  68.954  1.00  0.00    -0.210 C  
HETATM    4  C   UNL     1     -11.139  10.364  69.653  1.00  0.00    -0.276 C  
HETATM    5  C   UNL     1     -12.105  10.604  70.753  1.00  0.00    -0.374 C  
HETATM    6  C   UNL     1     -13.331  12.275  72.127  1.00  0.00    -0.473 A  
HETATM    7  F   UNL     1     -13.545  15.879  71.916  1.00  0.00    -0.520 F  
HETATM    8  C   UNL     1     -12.487  12.013  71.035  1.00  0.00    -0.376 A  
HETATM    9  O   UNL     1     -12.565   9.684  71.422  1.00  0.00    -0.324 OA 
HETATM   10  C   UNL     1     -13.687  13.586  72.427  1.00  0.00    -0.704 A  
HETATM   11  C   UNL     1     -11.982  13.052  70.221  1.00  0.00    -0.285 A  
HETATM   12  C   UNL     1     -12.374  14.363  70.540  1.00  0.00    -0.413 A  
HETATM   13  C   UNL     1     -13.208  14.615  71.631  1.00  0.00    -0.349 A  
ENDROOT
BRANCH   4  14
HETATM   14  S   UNL     1     -10.486   8.743  69.336  1.00  0.00    -0.209 S  
HETATM   15  C   UNL     1      -9.455   9.135  67.906  1.00  0.00    -0.141 C  
HETATM   16  O   UNL     1      -9.572   8.400  70.478  1.00  0.00    -0.165 OA 
ENDBRANCH   4  14
TORSDOF 1
ENDMDL
MODEL       32
REMARK 921   NORMALIZED FREE ENERGY PREDICTED BY IDOCK:   -5.03 KCAL/MOL
REMARK 922        TOTAL FREE ENERGY PREDICTED BY IDOCK:   -5.40 KCAL/MOL
REMARK 923 INTER-LIGAND FREE ENERGY PREDICTED BY IDOCK:   -5.34 KCAL/MOL
REMARK 924 INTRA-LIGAND FREE ENERGY PREDICTED BY IDOCK:   -0.06 KCAL/MOL
REMARK 927      BINDING AFFINITY PREDICTED BY RF-SCORE:    0.00 PKD
ROOT
HETATM    1  C   UNL     1     -10.630  11.530  67.660  1.00  0.00    -0.199 C  
HETATM    2  N   UNL     1     -11.388  11.620  68.910  1.00  0.00    -0.241 NA 
HETATM    3  C   UNL     1     -11.619  10.505  69.701  1.00  0.00    -0.271 C  
HETATM    4  C   UNL     1     -12.259  10.487  70.877  1.00  0.00    -0.388 C  
HETATM    5  C   UNL     1     -12.764  11.780  71.401  1.00  0.00    -0.308 C  
HETATM    6  C   UNL     1     -12.855  14.250  71.129  1.00  0.00    -0.429 A  
HETATM    7  F   UNL     1     -11.629  16.435  68.521  1.00  0.00    -0.359 F  
HETATM    8  C   UNL     1     -12.465  13.003  70.611  1.00  0.00    -0.347 A  
HETATM    9  O   UNL     1     -13.391  11.851  72.453  1.00  0.00    -0.370 OA 
HETATM   10  C   UNL     1     -12.569  15.413  70.421  1.00  0.00    -0.433 A  
HETATM   11  C   UNL     1     -11.782  12.893  69.378  1.00  0.00    -0.321 A  
HETATM   12  C   UNL     1     -11.524  14.084  68.680  1.00  0.00    -0.337 A  
HETATM   13  C   UNL     1     -11.910  15.319  69.205  1.00  0.00    -0.329 A  
ENDROOT
BRANCH   4  14
HETATM   14  S   UNL     1     -12.412   8.988  71.817  1.00  0.00    -0.396 S  
HETATM   15  C   UNL     1     -14.169   8.671  71.547  1.00  0.00    -0.339 C  
HETATM   16  O   UNL     1     -11.639   7.925  71.088  1.00  0.00    -0.274 OA 
ENDBRANCH   4  14
TORSDOF 1
ENDMDL
MODEL       33
REMARK 921   NORMALIZED FREE ENERGY PREDICTED BY IDOCK:   -5.02 KCAL/MOL
REMARK 922        TOTAL FREE ENERGY PREDICTED BY IDOCK:   -5.39 KCAL/MOL
REMARK 923 INTER-LIGAND FREE ENERGY PREDICTED BY IDOCK:   -5.31 KCAL/MOL
REMARK 924 INTRA-LIGAND FREE ENERGY PREDICTED BY IDOCK:   -0.08 KCAL/MOL
REMARK 927      BINDING AFFINITY PREDICTED BY RF-SCORE:    0.00 PKD
ROOT
HETATM    1  C   UNL     1     -10.356  19.905  66.872  1.00  0.00    -0.468 C  
HETATM    2  N   UNL     1      -9.976  18.490  66.852  1.00  0.00    -0.329 NA 
HETATM    3  C   UNL     1     -10.610  17.579  66.021  1.00  0.00    -0.217 C  
HETATM    4  C   UNL     1     -10.312  16.280  65.896  1.00  0.00    -0.365 C  
HETATM    5  C   UNL     1      -9.189  15.755  66.710  1.00  0.00    -0.243 C  
HETATM    6  C   UNL     1      -7.318  16.269  68.266  1.00  0.00    -0.146 A  
HETATM    7  F   UNL     1      -6.287  19.347  69.862  1.00  0.00    -0.297 F  
HETATM    8  C   UNL     1      -8.441  16.724  67.553  1.00  0.00    -0.203 A  
HETATM    9  O   UNL     1      -8.869  14.570  66.683  1.00  0.00    -0.243 OA 
HETATM   10  C   UNL     1      -6.587  17.159  69.045  1.00  0.00    -0.218 A  
HETATM   11  C   UNL     1      -8.855  18.074  67.605  1.00  0.00    -0.254 A  
HETATM   12  C   UNL     1      -8.106  18.944  68.415  1.00  0.00    -0.376 A  
HETATM   13  C   UNL     1      -6.989  18.485  69.114  1.00  0.00    -0.242 A  
ENDROOT
BRANCH   4  14
HETATM   14  S   UNL     1     -11.167  15.250  64.729  1.00  0.00    -0.349 S  
HETATM   15  C   UNL     1     -12.213  14.335  65.883  1.00  0.00    -0.407 C  
HETATM   16  O   UNL     1     -12.059  16.144  63.916  1.00  0.00    -0.956 OA 
ENDBRANCH   4  14
TORSDOF 1
ENDMDL
MODEL       34
REMARK 921   NORMALIZED FREE ENERGY PREDICTED BY IDOCK:   -4.95 KCAL/MOL
REMARK 922        TOTAL FREE ENERGY PREDICTED BY IDOCK:   -5.32 KCAL/MOL
REMARK 923 INTER-LIGAND FREE ENERGY PREDICTED BY IDOCK:   -5.49 KCAL/MOL
REMARK 924 INTRA-LIGAND FREE ENERGY PREDICTED BY IDOCK:    0.17 KCAL/MOL
REMARK 927      BINDING AFFINITY PREDICTED BY RF-SCORE:    0.00 PKD
ROOT
HETATM    1  C   UNL     1     -13.140   9.577  72.119  1.00  0.00    -0.436 C  
HETATM    2  N   UNL     1     -12.873  10.863  71.470  1.00  0.00    -0.441 NA 
HETATM    3  C   UNL     1     -13.369  12.052  71.982  1.00  0.00    -0.341 C  
HETATM    4  C   UNL     1     -13.149  13.278  71.492  1.00  0.00    -0.328 C  
HETATM    5  C   UNL     1     -12.283  13.391  70.293  1.00  0.00    -0.335 C  
HETATM    6  C   UNL     1     -10.780  12.231  68.686  1.00  0.00    -0.261 A  
HETATM    7  F   UNL     1      -9.910   8.743  68.288  1.00  0.00    -0.155 F  
HETATM    8  C   UNL     1     -11.675  12.141  69.767  1.00  0.00    -0.381 A  
HETATM    9  O   UNL     1     -12.056  14.471  69.758  1.00  0.00    -0.303 OA 
HETATM   10  C   UNL     1     -10.180  11.079  68.188  1.00  0.00    -0.201 A  
HETATM   11  C   UNL     1     -11.988  10.901  70.370  1.00  0.00    -0.362 A  
HETATM   12  C   UNL     1     -11.378   9.755  69.832  1.00  0.00    -0.238 A  
HETATM   13  C   UNL     1     -10.486   9.855  68.762  1.00  0.00    -0.213 A  
ENDROOT
BRANCH   4  14
HETATM   14  S   UNL     1     -13.793  14.720  72.304  1.00  0.00    -0.516 S  
HETATM   15  C   UNL     1     -12.270  15.301  73.083  1.00  0.00    -0.438 C  
HETATM   16  O   UNL     1     -14.162  15.707  71.233  1.00  0.00    -0.540 OA 
ENDBRANCH   4  14
TORSDOF 1
ENDMDL
MODEL       35
REMARK 921   NORMALIZED FREE ENERGY PREDICTED BY IDOCK:   -4.91 KCAL/MOL
REMARK 922        TOTAL FREE ENERGY PREDICTED BY IDOCK:   -5.28 KCAL/MOL
REMARK 923 INTER-LIGAND FREE ENERGY PREDICTED BY IDOCK:   -5.18 KCAL/MOL
REMARK 924 INTRA-LIGAND FREE ENERGY PREDICTED BY IDOCK:   -0.10 KCAL/MOL
REMARK 927      BINDING AFFINITY PREDICTED BY RF-SCORE:    0.00 PKD
ROOT
HETATM    1  C   UNL     1     -11.383  12.638  68.555  1.00  0.00    -0.296 C  
HETATM    2  N   UNL     1     -11.082  13.783  67.691  1.00  0.00    -0.267 NA 
HETATM    3  C   UNL     1     -10.317  14.849  68.139  1.00  0.00    -0.237 C  
HETATM    4  C   UNL     1      -9.950  15.917  67.420  1.00  0.00    -0.239 C  
HETATM    5  C   UNL     1     -10.389  15.973  66.005  1.00  0.00    -0.351 C  
HETATM    6  C   UNL     1     -11.498  14.797  64.114  1.00  0.00    -0.014 A  
HETATM    7  F   UNL     1     -13.192  11.608  63.921  1.00  0.00    -0.478 F  
HETATM    8  C   UNL     1     -11.147  14.809  65.475  1.00  0.00    -0.346 A  
HETATM    9  O   UNL     1     -10.128  16.931  65.283  1.00  0.00    -0.577 OA 
HETATM   10  C   UNL     1     -12.189  13.711  63.588  1.00  0.00    -0.376 A  
HETATM   11  C   UNL     1     -11.478  13.738  66.336  1.00  0.00    -0.336 A  
HETATM   12  C   UNL     1     -12.191  12.663  65.777  1.00  0.00    -0.427 A  
HETATM   13  C   UNL     1     -12.530  12.658  64.423  1.00  0.00    -0.428 A  
ENDROOT
BRANCH   4  14
HETATM   14  S   UNL     1      -8.900  17.172  68.111  1.00  0.00    -0.243 S  
HETATM   15  C   UNL     1     -10.175  18.306  68.701  1.00  0.00    -0.353 C  
HETATM   16  O   UNL     1      -8.226  16.576  69.314  1.00  0.00    -0.208 OA 
ENDBRANCH   4  14
TORSDOF 1
ENDMDL
MODEL       36
REMARK 921   NORMALIZED FREE ENERGY PREDICTED BY IDOCK:   -4.90 KCAL/MOL
REMARK 922        TOTAL FREE ENERGY PREDICTED BY IDOCK:   -5.26 KCAL/MOL
REMARK 923 INTER-LIGAND FREE ENERGY PREDICTED BY IDOCK:   -5.19 KCAL/MOL
REMARK 924 INTRA-LIGAND FREE ENERGY PREDICTED BY IDOCK:   -0.08 KCAL/MOL
REMARK 927      BINDING AFFINITY PREDICTED BY RF-SCORE:    0.00 PKD
ROOT
HETATM    1  C   UNL     1      -9.974  11.012  63.087  1.00  0.00    -0.340 C  
HETATM    2  N   UNL     1     -10.385  11.003  64.493  1.00  0.00    -0.337 NA 
HETATM    3  C   UNL     1      -9.994   9.992  65.358  1.00  0.00    -0.294 C  
HETATM    4  C   UNL     1     -10.278   9.913  66.664  1.00  0.00    -0.226 C  
HETATM    5  C   UNL     1     -11.077  11.012  67.258  1.00  0.00    -0.294 C  
HETATM    6  C   UNL     1     -12.126  13.243  66.932  1.00  0.00    -0.389 A  
HETATM    7  F   UNL     1     -12.454  15.349  64.010  1.00  0.00    -0.474 F  
HETATM    8  C   UNL     1     -11.446  12.148  66.373  1.00  0.00    -0.430 A  
HETATM    9  O   UNL     1     -11.411  11.004  68.439  1.00  0.00    -0.270 OA 
HETATM   10  C   UNL     1     -12.465  14.329  66.131  1.00  0.00    -0.362 A  
HETATM   11  C   UNL     1     -11.091  12.115  65.005  1.00  0.00    -0.320 A  
HETATM   12  C   UNL     1     -11.462  13.219  64.220  1.00  0.00    -0.435 A  
HETATM   13  C   UNL     1     -12.132  14.305  64.785  1.00  0.00    -0.446 A  
ENDROOT
BRANCH   4  14
HETATM   14  S   UNL     1      -9.640   8.591  67.663  1.00  0.00    -0.159 S  
HETATM   15  C   UNL     1     -10.500   7.211  66.877  1.00  0.00    -0.294 C  
HETATM   16  O   UNL     1      -8.178   8.458  67.346  1.00  0.00    -0.118 OA 
ENDBRANCH   4  14
TORSDOF 1
ENDMDL
MODEL       37
REMARK 921   NORMALIZED FREE ENERGY PREDICTED BY IDOCK:   -4.86 KCAL/MOL
REMARK 922        TOTAL FREE ENERGY PREDICTED BY IDOCK:   -5.23 KCAL/MOL
REMARK 923 INTER-LIGAND FREE ENERGY PREDICTED BY IDOCK:   -5.12 KCAL/MOL
REMARK 924 INTRA-LIGAND FREE ENERGY PREDICTED BY IDOCK:   -0.11 KCAL/MOL
REMARK 927      BINDING AFFINITY PREDICTED BY RF-SCORE:    0.00 PKD
ROOT
HETATM    1  C   UNL     1     -12.829   8.963  72.451  1.00  0.00    -0.380 C  
HETATM    2  N   UNL     1     -12.129   9.652  71.364  1.00  0.00    -0.361 NA 
HETATM    3  C   UNL     1     -11.361   8.959  70.441  1.00  0.00    -0.202 C  
HETATM    4  C   UNL     1     -10.719   9.485  69.390  1.00  0.00    -0.225 C  
HETATM    5  C   UNL     1     -10.843  10.948  69.175  1.00  0.00    -0.235 C  
HETATM    6  C   UNL     1     -11.926  13.076  69.870  1.00  0.00    -0.381 A  
HETATM    7  F   UNL     1     -14.176  13.859  72.591  1.00  0.00    -0.554 F  
HETATM    8  C   UNL     1     -11.722  11.705  70.104  1.00  0.00    -0.381 A  
HETATM    9  O   UNL     1     -10.261  11.518  68.258  1.00  0.00    -0.183 OA 
HETATM   10  C   UNL     1     -12.761  13.805  70.711  1.00  0.00    -0.361 A  
HETATM   11  C   UNL     1     -12.345  11.036  71.183  1.00  0.00    -0.359 A  
HETATM   12  C   UNL     1     -13.167  11.804  72.024  1.00  0.00    -0.460 A  
HETATM   13  C   UNL     1     -13.370  13.163  71.779  1.00  0.00    -0.389 A  
ENDROOT
BRANCH   4  14
HETATM   14  S   UNL     1      -9.833   8.456  68.246  1.00  0.00    -0.174 S  
HETATM   15  C   UNL     1      -9.712   6.963  69.254  1.00  0.00    -0.156 C  
HETATM   16  O   UNL     1     -10.761   8.161  67.102  1.00  0.00    -0.316 OA 
ENDBRANCH   4  14
TORSDOF 1
ENDMDL
MODEL       38
REMARK 921   NORMALIZED FREE ENERGY PREDICTED BY IDOCK:   -4.84 KCAL/MOL
REMARK 922        TOTAL FREE ENERGY PREDICTED BY IDOCK:   -5.20 KCAL/MOL
REMARK 923 INTER-LIGAND FREE ENERGY PREDICTED BY IDOCK:   -5.41 KCAL/MOL
REMARK 924 INTRA-LIGAND FREE ENERGY PREDICTED BY IDOCK:    0.21 KCAL/MOL
REMARK 927      BINDING AFFINITY PREDICTED BY RF-SCORE:    0.00 PKD
ROOT
HETATM    1  C   UNL     1     -11.616  16.071  69.253  1.00  0.00    -0.331 C  
HETATM    2  N   UNL     1     -11.641  14.661  68.856  1.00  0.00    -0.294 NA 
HETATM    3  C   UNL     1     -11.123  14.240  67.641  1.00  0.00    -0.292 C  
HETATM    4  C   UNL     1     -11.058  12.976  67.204  1.00  0.00    -0.273 C  
HETATM    5  C   UNL     1     -11.577  11.914  68.100  1.00  0.00    -0.334 C  
HETATM    6  C   UNL     1     -12.482  11.333  70.343  1.00  0.00    -0.355 A  
HETATM    7  F   UNL     1     -13.389  13.382  73.181  1.00  0.00    -0.451 F  
HETATM    8  C   UNL     1     -12.069  12.328  69.440  1.00  0.00    -0.234 A  
HETATM    9  O   UNL     1     -11.588  10.734  67.766  1.00  0.00    -0.521 OA 
HETATM   10  C   UNL     1     -12.927  11.691  71.611  1.00  0.00    -0.483 A  
HETATM   11  C   UNL     1     -12.091  13.699  69.787  1.00  0.00    -0.334 A  
HETATM   12  C   UNL     1     -12.561  14.028  71.069  1.00  0.00    -0.437 A  
HETATM   13  C   UNL     1     -12.964  13.032  71.960  1.00  0.00    -0.291 A  
ENDROOT
BRANCH   4  14
HETATM   14  S   UNL     1     -10.294  12.580  65.650  1.00  0.00    -0.275 S  
HETATM   15  C   UNL     1      -9.018  11.452  66.250  1.00  0.00    -0.200 C  
HETATM   16  O   UNL     1     -11.284  11.771  64.861  1.00  0.00    -0.309 OA 
ENDBRANCH   4  14
TORSDOF 1
ENDMDL
MODEL       39
REMARK 921   NORMALIZED FREE ENERGY PREDICTED BY IDOCK:   -4.81 KCAL/MOL
REMARK 922        TOTAL FREE ENERGY PREDICTED BY IDOCK:   -5.17 KCAL/MOL
REMARK 923 INTER-LIGAND FREE ENERGY PREDICTED BY IDOCK:   -5.10 KCAL/MOL
REMARK 924 INTRA-LIGAND FREE ENERGY PREDICTED BY IDOCK:   -0.08 KCAL/MOL
REMARK 927      BINDING AFFINITY PREDICTED BY RF-SCORE:    0.00 PKD
ROOT
HETATM    1  C   UNL     1     -10.145   9.500  66.101  1.00  0.00    -0.256 C  
HETATM    2  N   UNL     1     -10.670  10.177  67.290  1.00  0.00    -0.266 NA 
HETATM    3  C   UNL     1     -10.621   9.586  68.544  1.00  0.00    -0.212 C  
HETATM    4  C   UNL     1     -11.032  10.134  69.694  1.00  0.00    -0.264 C  
HETATM    5  C   UNL     1     -11.583  11.510  69.638  1.00  0.00    -0.333 C  
HETATM    6  C   UNL     1     -12.014  13.532  68.256  1.00  0.00    -0.377 A  
HETATM    7  F   UNL     1     -11.546  14.186  64.729  1.00  0.00    -0.336 F  
HETATM    8  C   UNL     1     -11.579  12.197  68.320  1.00  0.00    -0.382 A  
HETATM    9  O   UNL     1     -12.014  12.075  70.638  1.00  0.00    -0.331 OA 
HETATM   10  C   UNL     1     -12.000  14.206  67.039  1.00  0.00    -0.471 A  
HETATM   11  C   UNL     1     -11.122  11.510  67.172  1.00  0.00    -0.297 A  
HETATM   12  C   UNL     1     -11.136  12.214  65.956  1.00  0.00    -0.354 A  
HETATM   13  C   UNL     1     -11.564  13.541  65.903  1.00  0.00    -0.335 A  
ENDROOT
BRANCH   4  14
HETATM   14  S   UNL     1     -10.834   9.281  71.239  1.00  0.00    -0.366 S  
HETATM   15  C   UNL     1     -11.591   7.706  70.784  1.00  0.00    -0.265 C  
HETATM   16  O   UNL     1      -9.363   9.042  71.431  1.00  0.00    -0.251 OA 
ENDBRANCH   4  14
TORSDOF 1
ENDMDL
MODEL       40
REMARK 921   NORMALIZED FREE ENERGY PREDICTED BY IDOCK:   -4.80 KCAL/MOL
REMARK 922        TOTAL FREE ENERGY PREDICTED BY IDOCK:   -5.16 KCAL/MOL
REMARK 923 INTER-LIGAND FREE ENERGY PREDICTED BY IDOCK:   -5.05 KCAL/MOL
REMARK 924 INTRA-LIGAND FREE ENERGY PREDICTED BY IDOCK:   -0.11 KCAL/MOL
REMARK 927      BINDING AFFINITY PREDICTED BY RF-SCORE:    0.00 PKD
ROOT
HETATM    1  C   UNL     1     -11.982  14.114  67.009  1.00  0.00    -0.439 C  
HETATM    2  N   UNL     1     -11.572  12.797  67.503  1.00  0.00    -0.335 NA 
HETATM    3  C   UNL     1     -11.903  12.365  68.778  1.00  0.00    -0.311 C  
HETATM    4  C   UNL     1     -11.615  11.170  69.308  1.00  0.00    -0.318 C  
HETATM    5  C   UNL     1     -10.883  10.201  68.456  1.00  0.00    -0.237 C  
HETATM    6  C   UNL     1      -9.968   9.677  66.203  1.00  0.00    -0.346 A  
HETATM    7  F   UNL     1      -9.766  11.634  63.169  1.00  0.00    -0.325 F  
HETATM    8  C   UNL     1     -10.582  10.609  67.059  1.00  0.00    -0.317 A  
HETATM    9  O   UNL     1     -10.549   9.097  68.872  1.00  0.00    -0.222 OA 
HETATM   10  C   UNL     1      -9.695  10.024  64.884  1.00  0.00    -0.377 A  
HETATM   11  C   UNL     1     -10.934  11.904  66.614  1.00  0.00    -0.291 A  
HETATM   12  C   UNL     1     -10.629  12.229  65.282  1.00  0.00    -0.322 A  
HETATM   13  C   UNL     1     -10.025  11.295  64.438  1.00  0.00    -0.288 A  
ENDROOT
BRANCH   4  14
HETATM   14  S   UNL     1     -12.173  10.729  70.936  1.00  0.00    -0.393 S  
HETATM   15  C   UNL     1     -12.822  12.334  71.450  1.00  0.00    -0.271 C  
HETATM   16  O   UNL     1     -13.339   9.797  70.769  1.00  0.00    -0.260 OA 
ENDBRANCH   4  14
TORSDOF 1
ENDMDL
MODEL       41
REMARK 921   NORMALIZED FREE ENERGY PREDICTED BY IDOCK:   -4.71 KCAL/MOL
REMARK 922        TOTAL FREE ENERGY PREDICTED BY IDOCK:   -5.07 KCAL/MOL
REMARK 923 INTER-LIGAND FREE ENERGY PREDICTED BY IDOCK:   -4.97 KCAL/MOL
REMARK 924 INTRA-LIGAND FREE ENERGY PREDICTED BY IDOCK:   -0.10 KCAL/MOL
REMARK 927      BINDING AFFINITY PREDICTED BY RF-SCORE:    0.00 PKD
ROOT
HETATM    1  C   UNL     1     -11.213  16.075  64.513  1.00  0.00    -0.297 C  
HETATM    2  N   UNL     1     -10.971  15.933  65.952  1.00  0.00    -0.214 NA 
HETATM    3  C   UNL     1     -10.941  14.689  66.563  1.00  0.00    -0.318 C  
HETATM    4  C   UNL     1     -10.686  14.449  67.856  1.00  0.00    -0.244 C  
HETATM    5  C   UNL     1     -10.396  15.615  68.725  1.00  0.00    -0.218 C  
HETATM    6  C   UNL     1      -9.988  18.065  68.865  1.00  0.00    -0.347 A  
HETATM    7  F   UNL     1     -10.134  20.679  66.370  1.00  0.00    -0.509 F  
HETATM    8  C   UNL     1     -10.347  16.954  68.081  1.00  0.00    -0.336 A  
HETATM    9  O   UNL     1     -10.187  15.490  69.927  1.00  0.00    -0.287 OA 
HETATM   10  C   UNL     1      -9.913  19.326  68.283  1.00  0.00    -0.497 A  
HETATM   11  C   UNL     1     -10.639  17.082  66.704  1.00  0.00    -0.182 A  
HETATM   12  C   UNL     1     -10.571  18.372  66.151  1.00  0.00    -0.346 A  
HETATM   13  C   UNL     1     -10.207  19.467  66.935  1.00  0.00    -0.426 A  
ENDROOT
BRANCH   4  14
HETATM   14  S   UNL     1     -10.607  12.789  68.482  1.00  0.00    -0.238 S  
HETATM   15  C   UNL     1     -11.607  11.969  67.222  1.00  0.00    -0.313 C  
HETATM   16  O   UNL     1      -9.189  12.319  68.317  1.00  0.00    -0.196 OA 
ENDBRANCH   4  14
TORSDOF 1
ENDMDL
MODEL       42
REMARK 921   NORMALIZED FREE ENERGY PREDICTED BY IDOCK:   -4.67 KCAL/MOL
REMARK 922        TOTAL FREE ENERGY PREDICTED BY IDOCK:   -5.02 KCAL/MOL
REMARK 923 INTER-LIGAND FREE ENERGY PREDICTED BY IDOCK:   -4.95 KCAL/MOL
REMARK 924 INTRA-LIGAND FREE ENERGY PREDICTED BY IDOCK:   -0.07 KCAL/MOL
REMARK 927      BINDING AFFINITY PREDICTED BY RF-SCORE:    0.00 PKD
ROOT
HETATM    1  C   UNL     1     -11.562  13.005  63.842  1.00  0.00    -0.449 C  
HETATM    2  N   UNL     1     -11.070  13.615  65.081  1.00  0.00    -0.308 NA 
HETATM    3  C   UNL     1     -10.876  14.984  65.189  1.00  0.00    -0.407 C  
HETATM    4  C   UNL     1     -10.474  15.642  66.283  1.00  0.00    -0.306 C  
HETATM    5  C   UNL     1     -10.219  14.845  67.507  1.00  0.00    -0.233 C  
HETATM    6  C   UNL     1     -10.343  12.621  68.613  1.00  0.00    -0.192 A  
HETATM    7  F   UNL     1     -11.276   9.357  67.365  1.00  0.00    -0.278 F  
HETATM    8  C   UNL     1     -10.492  13.385  67.443  1.00  0.00    -0.243 A  
HETATM    9  O   UNL     1      -9.816  15.362  68.544  1.00  0.00    -0.200 OA 
HETATM   10  C   UNL     1     -10.612  11.256  68.587  1.00  0.00    -0.231 A  
HETATM   11  C   UNL     1     -10.911  12.802  66.225  1.00  0.00    -0.275 A  
HETATM   12  C   UNL     1     -11.158  11.419  66.228  1.00  0.00    -0.281 A  
HETATM   13  C   UNL     1     -11.013  10.670  67.396  1.00  0.00    -0.298 A  
ENDROOT
BRANCH   4  14
HETATM   14  S   UNL     1     -10.344  17.414  66.292  1.00  0.00    -0.283 S  
HETATM   15  C   UNL     1      -8.544  17.558  66.252  1.00  0.00    -0.199 C  
HETATM   16  O   UNL     1     -10.871  17.906  64.974  1.00  0.00    -0.767 OA 
ENDBRANCH   4  14
TORSDOF 1
ENDMDL
MODEL       43
REMARK 921   NORMALIZED FREE ENERGY PREDICTED BY IDOCK:   -4.64 KCAL/MOL
REMARK 922        TOTAL FREE ENERGY PREDICTED BY IDOCK:   -4.99 KCAL/MOL
REMARK 923 INTER-LIGAND FREE ENERGY PREDICTED BY IDOCK:   -4.90 KCAL/MOL
REMARK 924 INTRA-LIGAND FREE ENERGY PREDICTED BY IDOCK:   -0.09 KCAL/MOL
REMARK 927      BINDING AFFINITY PREDICTED BY RF-SCORE:    0.00 PKD
ROOT
HETATM    1  C   UNL     1     -12.234  14.677  64.258  1.00  0.00    -0.408 C  
HETATM    2  N   UNL     1     -11.500  14.017  65.341  1.00  0.00    -0.308 NA 
HETATM    3  C   UNL     1     -11.559  14.480  66.646  1.00  0.00    -0.375 C  
HETATM    4  C   UNL     1     -10.964  13.926  67.710  1.00  0.00    -0.256 C  
HETATM    5  C   UNL     1     -10.172  12.692  67.487  1.00  0.00    -0.215 C  
HETATM    6  C   UNL     1      -9.484  10.914  65.890  1.00  0.00    -0.241 A  
HETATM    7  F   UNL     1     -10.100  10.480  62.353  1.00  0.00    -0.200 F  
HETATM    8  C   UNL     1     -10.153  12.130  66.111  1.00  0.00    -0.251 A  
HETATM    9  O   UNL     1      -9.566  12.139  68.398  1.00  0.00    -0.209 OA 
HETATM   10  C   UNL     1      -9.469  10.354  64.617  1.00  0.00    -0.336 A  
HETATM   11  C   UNL     1     -10.819  12.810  65.066  1.00  0.00    -0.292 A  
HETATM   12  C   UNL     1     -10.771  12.226  63.789  1.00  0.00    -0.494 A  
HETATM   13  C   UNL     1     -10.109  11.016  63.580  1.00  0.00    -0.371 A  
ENDROOT
BRANCH   4  14
HETATM   14  S   UNL     1     -11.193  14.592  69.340  1.00  0.00    -0.290 S  
HETATM   15  C   UNL     1     -11.354  16.338  68.906  1.00  0.00    -0.317 C  
HETATM   16  O   UNL     1     -12.532  14.119  69.830  1.00  0.00    -0.341 OA 
ENDBRANCH   4  14
TORSDOF 1
ENDMDL
MODEL       44
REMARK 921   NORMALIZED FREE ENERGY PREDICTED BY IDOCK:   -4.57 KCAL/MOL
REMARK 922        TOTAL FREE ENERGY PREDICTED BY IDOCK:   -4.92 KCAL/MOL
REMARK 923 INTER-LIGAND FREE ENERGY PREDICTED BY IDOCK:   -4.81 KCAL/MOL
REMARK 924 INTRA-LIGAND FREE ENERGY PREDICTED BY IDOCK:   -0.11 KCAL/MOL
REMARK 927      BINDING AFFINITY PREDICTED BY RF-SCORE:    0.00 PKD
ROOT
HETATM    1  C   UNL     1     -10.411  19.258  66.353  1.00  0.00    -0.474 C  
HETATM    2  N   UNL     1      -9.385  18.647  67.202  1.00  0.00    -0.285 NA 
HETATM    3  C   UNL     1      -8.262  19.353  67.606  1.00  0.00    -0.294 C  
HETATM    4  C   UNL     1      -7.292  18.904  68.412  1.00  0.00    -0.288 C  
HETATM    5  C   UNL     1      -7.425  17.524  68.940  1.00  0.00    -0.234 C  
HETATM    6  C   UNL     1      -8.849  15.495  69.144  1.00  0.00    -0.253 A  
HETATM    7  F   UNL     1     -12.054  14.644  67.700  1.00  0.00    -0.386 F  
HETATM    8  C   UNL     1      -8.656  16.770  68.585  1.00  0.00    -0.263 A  
HETATM    9  O   UNL     1      -6.567  17.020  69.657  1.00  0.00    -0.234 OA 
HETATM   10  C   UNL     1     -10.002  14.776  68.846  1.00  0.00    -0.233 A  
HETATM   11  C   UNL     1      -9.610  17.352  67.719  1.00  0.00    -0.264 A  
HETATM   12  C   UNL     1     -10.755  16.594  67.425  1.00  0.00    -0.253 A  
HETATM   13  C   UNL     1     -10.941  15.331  67.989  1.00  0.00    -0.299 A  
ENDROOT
BRANCH   4  14
HETATM   14  S   UNL     1      -5.948  19.955  68.905  1.00  0.00    -0.278 S  
HETATM   15  C   UNL     1      -6.115  21.230  67.637  1.00  0.00    -0.354 C  
HETATM   16  O   UNL     1      -6.324  20.569  70.223  1.00  0.00    -0.423 OA 
ENDBRANCH   4  14
TORSDOF 1
ENDMDL
MODEL       45
REMARK 921   NORMALIZED FREE ENERGY PREDICTED BY IDOCK:   -4.57 KCAL/MOL
REMARK 922        TOTAL FREE ENERGY PREDICTED BY IDOCK:   -4.92 KCAL/MOL
REMARK 923 INTER-LIGAND FREE ENERGY PREDICTED BY IDOCK:   -4.83 KCAL/MOL
REMARK 924 INTRA-LIGAND FREE ENERGY PREDICTED BY IDOCK:   -0.08 KCAL/MOL
REMARK 927      BINDING AFFINITY PREDICTED BY RF-SCORE:    0.00 PKD
ROOT
HETATM    1  C   UNL     1     -10.199   8.853  67.390  1.00  0.00    -0.249 C  
HETATM    2  N   UNL     1     -10.864   9.476  68.537  1.00  0.00    -0.175 NA 
HETATM    3  C   UNL     1     -11.069   8.786  69.721  1.00  0.00    -0.073 C  
HETATM    4  C   UNL     1     -11.624   9.275  70.837  1.00  0.00    -0.301 C  
HETATM    5  C   UNL     1     -12.055  10.694  70.822  1.00  0.00    -0.374 C  
HETATM    6  C   UNL     1     -12.096  12.850  69.583  1.00  0.00    -0.290 A  
HETATM    7  F   UNL     1     -10.998  13.739  66.254  1.00  0.00    -0.292 F  
HETATM    8  C   UNL     1     -11.778  11.481  69.591  1.00  0.00    -0.419 A  
HETATM    9  O   UNL     1     -12.604  11.214  71.788  1.00  0.00    -0.308 OA 
HETATM   10  C   UNL     1     -11.828  13.616  68.453  1.00  0.00    -0.407 A  
HETATM   11  C   UNL     1     -11.188  10.850  68.473  1.00  0.00    -0.274 A  
HETATM   12  C   UNL     1     -10.946  11.647  67.341  1.00  0.00    -0.313 A  
HETATM   13  C   UNL     1     -11.260  13.007  67.344  1.00  0.00    -0.288 A  
ENDROOT
BRANCH   4  14
HETATM   14  S   UNL     1     -11.752   8.287  72.308  1.00  0.00    -0.398 S  
HETATM   15  C   UNL     1     -12.107   6.692  71.540  1.00  0.00    -0.355 C  
HETATM   16  O   UNL     1     -10.378   8.208  72.911  1.00  0.00    -0.318 OA 
ENDBRANCH   4  14
TORSDOF 1
ENDMDL
MODEL       46
REMARK 921   NORMALIZED FREE ENERGY PREDICTED BY IDOCK:   -4.56 KCAL/MOL
REMARK 922        TOTAL FREE ENERGY PREDICTED BY IDOCK:   -4.91 KCAL/MOL
REMARK 923 INTER-LIGAND FREE ENERGY PREDICTED BY IDOCK:   -5.06 KCAL/MOL
REMARK 924 INTRA-LIGAND FREE ENERGY PREDICTED BY IDOCK:    0.15 KCAL/MOL
REMARK 927      BINDING AFFINITY PREDICTED BY RF-SCORE:    0.00 PKD
ROOT
HETATM    1  C   UNL     1      -9.859   9.641  67.786  1.00  0.00    -0.159 C  
HETATM    2  N   UNL     1     -10.254  10.460  66.637  1.00  0.00    -0.227 NA 
HETATM    3  C   UNL     1     -10.987  11.626  66.795  1.00  0.00    -0.290 C  
HETATM    4  C   UNL     1     -11.360  12.464  65.820  1.00  0.00    -0.352 C  
HETATM    5  C   UNL     1     -10.947  12.131  64.435  1.00  0.00    -0.326 C  
HETATM    6  C   UNL     1      -9.617  10.639  62.955  1.00  0.00    -0.358 A  
HETATM    7  F   UNL     1      -7.696   7.653  63.641  1.00  0.00    -0.096 F  
HETATM    8  C   UNL     1     -10.096  10.927  64.245  1.00  0.00    -0.413 A  
HETATM    9  O   UNL     1     -11.274  12.825  63.477  1.00  0.00    -0.450 OA 
HETATM   10  C   UNL     1      -8.802   9.530  62.752  1.00  0.00    -0.244 A  
HETATM   11  C   UNL     1      -9.770  10.116  65.355  1.00  0.00    -0.291 A  
HETATM   12  C   UNL     1      -8.959   8.995  65.114  1.00  0.00    -0.216 A  
HETATM   13  C   UNL     1      -8.483   8.720  63.831  1.00  0.00    -0.098 A  
ENDROOT
BRANCH   4  14
HETATM   14  S   UNL     1     -12.235  13.966  66.185  1.00  0.00    -0.460 S  
HETATM   15  C   UNL     1     -10.908  15.146  65.858  1.00  0.00    -0.339 C  
HETATM   16  O   UNL     1     -13.278  14.145  65.118  1.00  0.00    -0.743 OA 
ENDBRANCH   4  14
TORSDOF 1
ENDMDL
MODEL       47
REMARK 921   NORMALIZED FREE ENERGY PREDICTED BY IDOCK:   -4.55 KCAL/MOL
REMARK 922        TOTAL FREE ENERGY PREDICTED BY IDOCK:   -4.90 KCAL/MOL
REMARK 923 INTER-LIGAND FREE ENERGY PREDICTED BY IDOCK:   -4.80 KCAL/MOL
REMARK 924 INTRA-LIGAND FREE ENERGY PREDICTED BY IDOCK:   -0.10 KCAL/MOL
REMARK 927      BINDING AFFINITY PREDICTED BY RF-SCORE:    0.00 PKD
ROOT
HETATM    1  C   UNL     1     -11.510  16.461  64.373  1.00  0.00     0.003 C  
HETATM    2  N   UNL     1     -10.718  15.518  65.167  1.00  0.00    -0.418 NA 
HETATM    3  C   UNL     1      -9.881  15.949  66.184  1.00  0.00    -0.317 C  
HETATM    4  C   UNL     1      -9.151  15.170  66.993  1.00  0.00    -0.230 C  
HETATM    5  C   UNL     1      -9.248  13.703  66.800  1.00  0.00    -0.241 C  
HETATM    6  C   UNL     1     -10.373  11.821  65.625  1.00  0.00    -0.293 A  
HETATM    7  F   UNL     1     -12.836  11.760  62.977  1.00  0.00    -0.698 F  
HETATM    8  C   UNL     1     -10.196  13.208  65.767  1.00  0.00    -0.294 A  
HETATM    9  O   UNL     1      -8.589  12.917  67.473  1.00  0.00    -0.166 OA 
HETATM   10  C   UNL     1     -11.270  11.331  64.681  1.00  0.00    -0.152 A  
HETATM   11  C   UNL     1     -10.910  14.132  64.971  1.00  0.00    -0.398 A  
HETATM   12  C   UNL     1     -11.796  13.605  64.015  1.00  0.00    -0.444 A  
HETATM   13  C   UNL     1     -11.969  12.226  63.886  1.00  0.00    -0.491 A  
ENDROOT
BRANCH   4  14
HETATM   14  S   UNL     1      -8.179  15.866  68.306  1.00  0.00    -0.157 S  
HETATM   15  C   UNL     1      -8.587  17.608  68.059  1.00  0.00    -0.248 C  
HETATM   16  O   UNL     1      -8.804  15.430  69.601  1.00  0.00    -0.256 OA 
ENDBRANCH   4  14
TORSDOF 1
ENDMDL
MODEL       48
REMARK 921   NORMALIZED FREE ENERGY PREDICTED BY IDOCK:   -4.54 KCAL/MOL
REMARK 922        TOTAL FREE ENERGY PREDICTED BY IDOCK:   -4.89 KCAL/MOL
REMARK 923 INTER-LIGAND FREE ENERGY PREDICTED BY IDOCK:   -5.08 KCAL/MOL
REMARK 924 INTRA-LIGAND FREE ENERGY PREDICTED BY IDOCK:    0.19 KCAL/MOL
REMARK 927      BINDING AFFINITY PREDICTED BY RF-SCORE:    0.00 PKD
ROOT
HETATM    1  C   UNL     1     -11.788  11.167  70.519  1.00  0.00    -0.351 C  
HETATM    2  N   UNL     1     -11.580  11.253  69.071  1.00  0.00    -0.289 NA 
HETATM    3  C   UNL     1     -11.904  12.396  68.357  1.00  0.00    -0.309 C  
HETATM    4  C   UNL     1     -11.715  12.592  67.046  1.00  0.00    -0.367 C  
HETATM    5  C   UNL     1     -11.087  11.492  66.274  1.00  0.00    -0.263 C  
HETATM    6  C   UNL     1      -9.982   9.264  66.334  1.00  0.00    -0.356 A  
HETATM    7  F   UNL     1      -9.394   6.938  69.041  1.00  0.00    -0.137 F  
HETATM    8  C   UNL     1     -10.659  10.283  67.027  1.00  0.00    -0.302 A  
HETATM    9  O   UNL     1     -10.907  11.572  65.063  1.00  0.00    -0.296 OA 
HETATM   10  C   UNL     1      -9.552   8.132  67.018  1.00  0.00    -0.253 A  
HETATM   11  C   UNL     1     -10.919  10.192  68.413  1.00  0.00    -0.244 A  
HETATM   12  C   UNL     1     -10.486   9.028  69.071  1.00  0.00    -0.235 A  
HETATM   13  C   UNL     1      -9.809   8.024  68.377  1.00  0.00    -0.171 A  
ENDROOT
BRANCH   4  14
HETATM   14  S   UNL     1     -12.112  14.145  66.282  1.00  0.00    -0.429 S  
HETATM   15  C   UNL     1     -10.468  14.586  65.680  1.00  0.00    -0.336 C  
HETATM   16  O   UNL     1     -12.972  13.845  65.087  1.00  0.00    -0.744 OA 
ENDBRANCH   4  14
TORSDOF 1
ENDMDL
MODEL       49
REMARK 921   NORMALIZED FREE ENERGY PREDICTED BY IDOCK:   -4.53 KCAL/MOL
REMARK 922        TOTAL FREE ENERGY PREDICTED BY IDOCK:   -4.88 KCAL/MOL
REMARK 923 INTER-LIGAND FREE ENERGY PREDICTED BY IDOCK:   -4.77 KCAL/MOL
REMARK 924 INTRA-LIGAND FREE ENERGY PREDICTED BY IDOCK:   -0.11 KCAL/MOL
REMARK 927      BINDING AFFINITY PREDICTED BY RF-SCORE:    0.00 PKD
ROOT
HETATM    1  C   UNL     1     -12.260  15.620  70.452  1.00  0.00    -0.395 C  
HETATM    2  N   UNL     1     -11.415  14.983  69.439  1.00  0.00    -0.281 NA 
HETATM    3  C   UNL     1     -11.302  13.603  69.351  1.00  0.00    -0.245 C  
HETATM    4  C   UNL     1     -10.595  12.924  68.440  1.00  0.00    -0.253 C  
HETATM    5  C   UNL     1      -9.866  13.709  67.414  1.00  0.00    -0.234 C  
HETATM    6  C   UNL     1      -9.423  15.946  66.422  1.00  0.00    -0.324 A  
HETATM    7  F   UNL     1     -10.479  19.266  67.395  1.00  0.00    -0.410 F  
HETATM    8  C   UNL     1     -10.030  15.186  67.437  1.00  0.00    -0.226 A  
HETATM    9  O   UNL     1      -9.167  13.169  66.563  1.00  0.00    -0.241 OA 
HETATM   10  C   UNL     1      -9.578  17.329  66.407  1.00  0.00    -0.290 A  
HETATM   11  C   UNL     1     -10.803  15.790  68.455  1.00  0.00    -0.297 A  
HETATM   12  C   UNL     1     -10.926  17.189  68.421  1.00  0.00    -0.221 A  
HETATM   13  C   UNL     1     -10.325  17.935  67.406  1.00  0.00    -0.378 A  
ENDROOT
BRANCH   4  14
HETATM   14  S   UNL     1     -10.606  11.148  68.407  1.00  0.00    -0.207 S  
HETATM   15  C   UNL     1     -11.419  10.847  69.992  1.00  0.00    -0.329 C  
HETATM   16  O   UNL     1     -11.555  10.729  67.320  1.00  0.00    -0.439 OA 
ENDBRANCH   4  14
TORSDOF 1
ENDMDL
MODEL       50
REMARK 921   NORMALIZED FREE ENERGY PREDICTED BY IDOCK:   -4.52 KCAL/MOL
REMARK 922        TOTAL FREE ENERGY PREDICTED BY IDOCK:   -4.86 KCAL/MOL
REMARK 923 INTER-LIGAND FREE ENERGY PREDICTED BY IDOCK:   -4.79 KCAL/MOL
REMARK 924 INTRA-LIGAND FREE ENERGY PREDICTED BY IDOCK:   -0.08 KCAL/MOL
REMARK 927      BINDING AFFINITY PREDICTED BY RF-SCORE:    0.00 PKD
ROOT
HETATM    1  C   UNL     1     -11.438   9.942  71.318  1.00  0.00    -0.361 C  
HETATM    2  N   UNL     1     -11.135  10.162  69.901  1.00  0.00    -0.273 NA 
HETATM    3  C   UNL     1     -10.694   9.131  69.085  1.00  0.00    -0.172 C  
HETATM    4  C   UNL     1     -10.433   9.216  67.775  1.00  0.00    -0.247 C  
HETATM    5  C   UNL     1     -10.643  10.530  67.118  1.00  0.00    -0.264 C  
HETATM    6  C   UNL     1     -11.478  12.862  67.335  1.00  0.00    -0.388 A  
HETATM    7  F   UNL     1     -12.745  14.715  70.171  1.00  0.00    -0.368 F  
HETATM    8  C   UNL     1     -11.187  11.633  67.952  1.00  0.00    -0.334 A  
HETATM    9  O   UNL     1     -10.396  10.706  65.929  1.00  0.00    -0.255 OA 
HETATM   10  C   UNL     1     -12.009  13.905  68.087  1.00  0.00    -0.385 A  
HETATM   11  C   UNL     1     -11.420  11.422  69.330  1.00  0.00    -0.310 A  
HETATM   12  C   UNL     1     -11.941  12.501  70.065  1.00  0.00    -0.372 A  
HETATM   13  C   UNL     1     -12.232  13.715  69.443  1.00  0.00    -0.259 A  
ENDROOT
BRANCH   4  14
HETATM   14  S   UNL     1      -9.946   7.786  66.841  1.00  0.00    -0.274 S  
HETATM   15  C   UNL     1      -8.689   7.138  67.964  1.00  0.00    -0.127 C  
HETATM   16  O   UNL     1     -11.105   6.830  66.854  1.00  0.00    -0.397 OA 
ENDBRANCH   4  14
TORSDOF 1
ENDMDL
MODEL       51
REMARK 921   NORMALIZED FREE ENERGY PREDICTED BY IDOCK:   -4.48 KCAL/MOL
REMARK 922        TOTAL FREE ENERGY PREDICTED BY IDOCK:   -4.83 KCAL/MOL
REMARK 923 INTER-LIGAND FREE ENERGY PREDICTED BY IDOCK:   -4.72 KCAL/MOL
REMARK 924 INTRA-LIGAND FREE ENERGY PREDICTED BY IDOCK:   -0.10 KCAL/MOL
REMARK 927      BINDING AFFINITY PREDICTED BY RF-SCORE:    0.00 PKD
ROOT
HETATM    1  C   UNL     1     -10.783  19.458  65.730  1.00  0.00    -0.365 C  
HETATM    2  N   UNL     1      -9.857  18.438  66.228  1.00  0.00    -0.441 NA 
HETATM    3  C   UNL     1      -8.837  18.753  67.113  1.00  0.00    -0.278 C  
HETATM    4  C   UNL     1      -7.968  17.893  67.658  1.00  0.00    -0.219 C  
HETATM    5  C   UNL     1      -8.106  16.460  67.298  1.00  0.00    -0.171 C  
HETATM    6  C   UNL     1      -9.444  14.721  66.126  1.00  0.00    -0.324 A  
HETATM    7  F   UNL     1     -12.371  14.948  64.015  1.00  0.00    -0.509 F  
HETATM    8  C   UNL     1      -9.238  16.082  66.411  1.00  0.00    -0.339 A  
HETATM    9  O   UNL     1      -7.332  15.609  67.724  1.00  0.00    -0.126 OA 
HETATM   10  C   UNL     1     -10.508  14.337  65.316  1.00  0.00    -0.408 A  
HETATM   11  C   UNL     1     -10.088  17.085  65.893  1.00  0.00    -0.263 A  
HETATM   12  C   UNL     1     -11.143  16.666  65.065  1.00  0.00    -0.121 A  
HETATM   13  C   UNL     1     -11.344  15.312  64.793  1.00  0.00    -0.391 A  
ENDROOT
BRANCH   4  14
HETATM   14  S   UNL     1      -6.758  18.435  68.840  1.00  0.00    -0.262 S  
HETATM   15  C   UNL     1      -5.370  18.693  67.714  1.00  0.00    -0.168 C  
HETATM   16  O   UNL     1      -7.197  19.781  69.340  1.00  0.00    -0.338 OA 
ENDBRANCH   4  14
TORSDOF 1
ENDMDL
MODEL       52
REMARK 921   NORMALIZED FREE ENERGY PREDICTED BY IDOCK:   -4.48 KCAL/MOL
REMARK 922        TOTAL FREE ENERGY PREDICTED BY IDOCK:   -4.82 KCAL/MOL
REMARK 923 INTER-LIGAND FREE ENERGY PREDICTED BY IDOCK:   -4.74 KCAL/MOL
REMARK 924 INTRA-LIGAND FREE ENERGY PREDICTED BY IDOCK:   -0.08 KCAL/MOL
REMARK 927      BINDING AFFINITY PREDICTED BY RF-SCORE:    0.00 PKD
ROOT
HETATM    1  C   UNL     1     -12.233  12.224  63.511  1.00  0.00    -0.568 C  
HETATM    2  N   UNL     1     -11.272  12.267  64.616  1.00  0.00    -0.305 NA 
HETATM    3  C   UNL     1     -10.695  11.112  65.122  1.00  0.00    -0.210 C  
HETATM    4  C   UNL     1      -9.779  11.046  66.096  1.00  0.00    -0.217 C  
HETATM    5  C   UNL     1      -9.319  12.324  66.691  1.00  0.00    -0.228 C  
HETATM    6  C   UNL     1      -9.378  14.809  66.603  1.00  0.00    -0.291 A  
HETATM    7  F   UNL     1     -11.273  17.104  64.548  1.00  0.00    -0.374 F  
HETATM    8  C   UNL     1      -9.863  13.583  66.117  1.00  0.00    -0.292 A  
HETATM    9  O   UNL     1      -8.508  12.354  67.611  1.00  0.00    -0.149 OA 
HETATM   10  C   UNL     1      -9.854  16.002  66.069  1.00  0.00    -0.365 A  
HETATM   11  C   UNL     1     -10.832  13.523  65.090  1.00  0.00    -0.330 A  
HETATM   12  C   UNL     1     -11.305  14.746  64.583  1.00  0.00    -0.370 A  
HETATM   13  C   UNL     1     -10.813  15.958  65.068  1.00  0.00    -0.426 A  
ENDROOT
BRANCH   4  14
HETATM   14  S   UNL     1      -9.073   9.492  66.588  1.00  0.00    -0.154 S  
HETATM   15  C   UNL     1     -10.501   8.800  67.449  1.00  0.00    -0.279 C  
HETATM   16  O   UNL     1      -8.858   8.685  65.339  1.00  0.00    -0.183 OA 
ENDBRANCH   4  14
TORSDOF 1
ENDMDL
MODEL       53
REMARK 921   NORMALIZED FREE ENERGY PREDICTED BY IDOCK:   -4.47 KCAL/MOL
REMARK 922        TOTAL FREE ENERGY PREDICTED BY IDOCK:   -4.82 KCAL/MOL
REMARK 923 INTER-LIGAND FREE ENERGY PREDICTED BY IDOCK:   -4.72 KCAL/MOL
REMARK 924 INTRA-LIGAND FREE ENERGY PREDICTED BY IDOCK:   -0.10 KCAL/MOL
REMARK 927      BINDING AFFINITY PREDICTED BY RF-SCORE:    0.00 PKD
ROOT
HETATM    1  C   UNL     1     -10.095  11.372  68.283  1.00  0.00    -0.196 C  
HETATM    2  N   UNL     1      -9.871  10.990  66.886  1.00  0.00    -0.188 NA 
HETATM    3  C   UNL     1      -8.992   9.975  66.542  1.00  0.00    -0.143 C  
HETATM    4  C   UNL     1      -8.749   9.523  65.306  1.00  0.00    -0.166 C  
HETATM    5  C   UNL     1      -9.494  10.152  64.188  1.00  0.00    -0.293 C  
HETATM    6  C   UNL     1     -11.282  11.740  63.503  1.00  0.00    -0.494 A  
HETATM    7  F   UNL     1     -13.336  14.026  65.409  1.00  0.00    -0.478 F  
HETATM    8  C   UNL     1     -10.500  11.191  64.534  1.00  0.00    -0.415 A  
HETATM    9  O   UNL     1      -9.309   9.823  63.021  1.00  0.00    -0.268 OA 
HETATM   10  C   UNL     1     -12.245  12.698  63.801  1.00  0.00    -0.600 A  
HETATM   11  C   UNL     1     -10.663  11.588  65.880  1.00  0.00    -0.272 A  
HETATM   12  C   UNL     1     -11.633  12.570  66.145  1.00  0.00    -0.448 A  
HETATM   13  C   UNL     1     -12.409  13.105  65.116  1.00  0.00    -0.473 A  
ENDROOT
BRANCH   4  14
HETATM   14  S   UNL     1      -7.647   8.158  65.027  1.00  0.00    -0.103 S  
HETATM   15  C   UNL     1      -6.694   8.256  66.558  1.00  0.00    -0.063 C  
HETATM   16  O   UNL     1      -8.471   6.903  65.082  1.00  0.00    -0.116 OA 
ENDBRANCH   4  14
TORSDOF 1
ENDMDL
MODEL       54
REMARK 921   NORMALIZED FREE ENERGY PREDICTED BY IDOCK:   -4.47 KCAL/MOL
REMARK 922        TOTAL FREE ENERGY PREDICTED BY IDOCK:   -4.82 KCAL/MOL
REMARK 923 INTER-LIGAND FREE ENERGY PREDICTED BY IDOCK:   -4.71 KCAL/MOL
REMARK 924 INTRA-LIGAND FREE ENERGY PREDICTED BY IDOCK:   -0.11 KCAL/MOL
REMARK 927      BINDING AFFINITY PREDICTED BY RF-SCORE:    0.00 PKD
ROOT
HETATM    1  C   UNL     1     -10.130  11.361  68.647  1.00  0.00    -0.210 C  
HETATM    2  N   UNL     1     -10.441  12.461  67.731  1.00  0.00    -0.214 NA 
HETATM    3  C   UNL     1     -10.650  13.752  68.192  1.00  0.00    -0.253 C  
HETATM    4  C   UNL     1     -10.896  14.831  67.439  1.00  0.00    -0.300 C  
HETATM    5  C   UNL     1     -10.941  14.644  65.968  1.00  0.00    -0.325 C  
HETATM    6  C   UNL     1     -10.593  13.101  64.048  1.00  0.00    -0.303 A  
HETATM    7  F   UNL     1      -9.781   9.580  63.902  1.00  0.00    -0.174 F  
HETATM    8  C   UNL     1     -10.645  13.286  65.441  1.00  0.00    -0.304 A  
HETATM    9  O   UNL     1     -11.193  15.571  65.205  1.00  0.00    -0.358 OA 
HETATM   10  C   UNL     1     -10.297  11.846  63.528  1.00  0.00    -0.495 A  
HETATM   11  C   UNL     1     -10.403  12.222  66.339  1.00  0.00    -0.225 A  
HETATM   12  C   UNL     1     -10.124  10.963  65.782  1.00  0.00    -0.308 A  
HETATM   13  C   UNL     1     -10.068  10.790  64.398  1.00  0.00    -0.353 A  
ENDROOT
BRANCH   4  14
HETATM   14  S   UNL     1     -11.069  16.441  68.169  1.00  0.00    -0.270 S  
HETATM   15  C   UNL     1     -10.852  15.982  69.903  1.00  0.00    -0.351 C  
HETATM   16  O   UNL     1      -9.870  17.247  67.757  1.00  0.00    -0.266 OA 
ENDBRANCH   4  14
TORSDOF 1
ENDMDL
MODEL       55
REMARK 921   NORMALIZED FREE ENERGY PREDICTED BY IDOCK:   -4.47 KCAL/MOL
REMARK 922        TOTAL FREE ENERGY PREDICTED BY IDOCK:   -4.81 KCAL/MOL
REMARK 923 INTER-LIGAND FREE ENERGY PREDICTED BY IDOCK:   -4.74 KCAL/MOL
REMARK 924 INTRA-LIGAND FREE ENERGY PREDICTED BY IDOCK:   -0.08 KCAL/MOL
REMARK 927      BINDING AFFINITY PREDICTED BY RF-SCORE:    0.00 PKD
ROOT
HETATM    1  C   UNL     1      -7.512   9.099  70.260  1.00  0.00    -0.099 C  
HETATM    2  N   UNL     1      -8.770   9.741  69.872  1.00  0.00    -0.209 NA 
HETATM    3  C   UNL     1      -8.863  10.529  68.736  1.00  0.00    -0.158 C  
HETATM    4  C   UNL     1      -9.970  11.122  68.272  1.00  0.00    -0.187 C  
HETATM    5  C   UNL     1     -11.228  10.914  69.031  1.00  0.00    -0.266 C  
HETATM    6  C   UNL     1     -12.369   9.727  70.895  1.00  0.00    -0.379 A  
HETATM    7  F   UNL     1     -11.125   7.485  73.446  1.00  0.00    -0.410 F  
HETATM    8  C   UNL     1     -11.174  10.012  70.211  1.00  0.00    -0.379 A  
HETATM    9  O   UNL     1     -12.281  11.448  68.697  1.00  0.00    -0.532 OA 
HETATM   10  C   UNL     1     -12.352   8.869  71.989  1.00  0.00    -0.460 A  
HETATM   11  C   UNL     1      -9.941   9.445  70.606  1.00  0.00    -0.284 A  
HETATM   12  C   UNL     1      -9.955   8.596  71.725  1.00  0.00    -0.371 A  
HETATM   13  C   UNL     1     -11.147   8.314  72.394  1.00  0.00    -0.377 A  
ENDROOT
BRANCH   4  14
HETATM   14  S   UNL     1      -9.951  12.044  66.754  1.00  0.00    -0.204 S  
HETATM   15  C   UNL     1      -8.800  13.349  67.238  1.00  0.00    -0.220 C  
HETATM   16  O   UNL     1      -9.267  11.191  65.724  1.00  0.00    -0.205 OA 
ENDBRANCH   4  14
TORSDOF 1
ENDMDL
MODEL       56
REMARK 921   NORMALIZED FREE ENERGY PREDICTED BY IDOCK:   -4.46 KCAL/MOL
REMARK 922        TOTAL FREE ENERGY PREDICTED BY IDOCK:   -4.80 KCAL/MOL
REMARK 923 INTER-LIGAND FREE ENERGY PREDICTED BY IDOCK:   -4.71 KCAL/MOL
REMARK 924 INTRA-LIGAND FREE ENERGY PREDICTED BY IDOCK:   -0.09 KCAL/MOL
REMARK 927      BINDING AFFINITY PREDICTED BY RF-SCORE:    0.00 PKD
ROOT
HETATM    1  C   UNL     1     -13.069  11.502  71.675  1.00  0.00    -0.373 C  
HETATM    2  N   UNL     1     -12.178  10.775  70.766  1.00  0.00    -0.348 NA 
HETATM    3  C   UNL     1     -11.849   9.446  70.981  1.00  0.00    -0.322 C  
HETATM    4  C   UNL     1     -11.082   8.683  70.192  1.00  0.00    -0.192 C  
HETATM    5  C   UNL     1     -10.536   9.304  68.961  1.00  0.00    -0.216 C  
HETATM    6  C   UNL     1     -10.503  11.287  67.461  1.00  0.00    -0.234 A  
HETATM    7  F   UNL     1     -12.035  14.551  67.746  1.00  0.00    -0.365 F  
HETATM    8  C   UNL     1     -10.934  10.705  68.665  1.00  0.00    -0.291 A  
HETATM    9  O   UNL     1      -9.797   8.688  68.199  1.00  0.00    -0.155 OA 
HETATM   10  C   UNL     1     -10.879  12.590  67.149  1.00  0.00    -0.282 A  
HETATM   11  C   UNL     1     -11.748  11.411  69.580  1.00  0.00    -0.345 A  
HETATM   12  C   UNL     1     -12.096  12.730  69.243  1.00  0.00    -0.224 A  
HETATM   13  C   UNL     1     -11.668  13.298  68.043  1.00  0.00    -0.359 A  
ENDROOT
BRANCH   4  14
HETATM   14  S   UNL     1     -10.809   6.967  70.559  1.00  0.00    -0.267 S  
HETATM   15  C   UNL     1     -11.895   6.815  71.994  1.00  0.00    -0.314 C  
HETATM   16  O   UNL     1     -11.417   6.170  69.440  1.00  0.00    -0.423 OA 
ENDBRANCH   4  14
TORSDOF 1
ENDMDL
MODEL       57
REMARK 921   NORMALIZED FREE ENERGY PREDICTED BY IDOCK:   -4.44 KCAL/MOL
REMARK 922        TOTAL FREE ENERGY PREDICTED BY IDOCK:   -4.78 KCAL/MOL
REMARK 923 INTER-LIGAND FREE ENERGY PREDICTED BY IDOCK:   -4.70 KCAL/MOL
REMARK 924 INTRA-LIGAND FREE ENERGY PREDICTED BY IDOCK:   -0.08 KCAL/MOL
REMARK 927      BINDING AFFINITY PREDICTED BY RF-SCORE:    0.00 PKD
ROOT
HETATM    1  C   UNL     1      -9.113   8.177  66.501  1.00  0.00    -0.176 C  
HETATM    2  N   UNL     1      -9.943   9.106  67.273  1.00  0.00    -0.195 NA 
HETATM    3  C   UNL     1     -10.138   8.944  68.636  1.00  0.00    -0.188 C  
HETATM    4  C   UNL     1     -10.839   9.756  69.437  1.00  0.00    -0.232 C  
HETATM    5  C   UNL     1     -11.462  10.954  68.823  1.00  0.00    -0.308 C  
HETATM    6  C   UNL     1     -11.711  12.368  66.791  1.00  0.00    -0.430 A  
HETATM    7  F   UNL     1     -10.500  11.960  63.408  1.00  0.00    -0.354 F  
HETATM    8  C   UNL     1     -11.207  11.194  67.378  1.00  0.00    -0.363 A  
HETATM    9  O   UNL     1     -12.149  11.733  69.475  1.00  0.00    -0.295 OA 
HETATM   10  C   UNL     1     -11.469  12.628  65.447  1.00  0.00    -0.373 A  
HETATM   11  C   UNL     1     -10.451  10.259  66.634  1.00  0.00    -0.194 A  
HETATM   12  C   UNL     1     -10.239  10.543  65.275  1.00  0.00    -0.352 A  
HETATM   13  C   UNL     1     -10.739  11.713  64.703  1.00  0.00    -0.315 A  
ENDROOT
BRANCH   4  14
HETATM   14  S   UNL     1     -10.938   9.460  71.186  1.00  0.00    -0.384 S  
HETATM   15  C   UNL     1     -12.098   8.075  71.166  1.00  0.00    -0.265 C  
HETATM   16  O   UNL     1      -9.602   8.930  71.624  1.00  0.00    -0.275 OA 
ENDBRANCH   4  14
TORSDOF 1
ENDMDL
MODEL       58
REMARK 921   NORMALIZED FREE ENERGY PREDICTED BY IDOCK:   -4.43 KCAL/MOL
REMARK 922        TOTAL FREE ENERGY PREDICTED BY IDOCK:   -4.77 KCAL/MOL
REMARK 923 INTER-LIGAND FREE ENERGY PREDICTED BY IDOCK:   -4.69 KCAL/MOL
REMARK 924 INTRA-LIGAND FREE ENERGY PREDICTED BY IDOCK:   -0.09 KCAL/MOL
REMARK 927      BINDING AFFINITY PREDICTED BY RF-SCORE:    0.00 PKD
ROOT
HETATM    1  C   UNL     1      -9.686   8.466  68.170  1.00  0.00    -0.155 C  
HETATM    2  N   UNL     1     -10.523   8.543  69.371  1.00  0.00    -0.220 NA 
HETATM    3  C   UNL     1     -10.653   7.466  70.234  1.00  0.00    -0.231 C  
HETATM    4  C   UNL     1     -11.355   7.446  71.374  1.00  0.00    -0.256 C  
HETATM    5  C   UNL     1     -12.055   8.693  71.769  1.00  0.00    -0.340 C  
HETATM    6  C   UNL     1     -12.451  11.104  71.300  1.00  0.00    -0.466 A  
HETATM    7  F   UNL     1     -11.365  13.242  68.593  1.00  0.00    -0.250 F  
HETATM    8  C   UNL     1     -11.871   9.886  70.902  1.00  0.00    -0.443 A  
HETATM    9  O   UNL     1     -12.748   8.754  72.780  1.00  0.00    -0.331 OA 
HETATM   10  C   UNL     1     -12.276  12.241  70.519  1.00  0.00    -0.387 A  
HETATM   11  C   UNL     1     -11.107   9.781  69.717  1.00  0.00    -0.237 A  
HETATM   12  C   UNL     1     -10.964  10.944  68.942  1.00  0.00    -0.278 A  
HETATM   13  C   UNL     1     -11.538  12.150  69.348  1.00  0.00    -0.317 A  
ENDROOT
BRANCH   4  14
HETATM   14  S   UNL     1     -11.368   6.011  72.420  1.00  0.00    -0.303 S  
HETATM   15  C   UNL     1     -10.168   5.004  71.522  1.00  0.00    -0.204 C  
HETATM   16  O   UNL     1     -10.743   6.407  73.728  1.00  0.00    -0.270 OA 
ENDBRANCH   4  14
TORSDOF 1
ENDMDL
MODEL       59
REMARK 921   NORMALIZED FREE ENERGY PREDICTED BY IDOCK:   -4.43 KCAL/MOL
REMARK 922        TOTAL FREE ENERGY PREDICTED BY IDOCK:   -4.77 KCAL/MOL
REMARK 923 INTER-LIGAND FREE ENERGY PREDICTED BY IDOCK:   -4.71 KCAL/MOL
REMARK 924 INTRA-LIGAND FREE ENERGY PREDICTED BY IDOCK:   -0.06 KCAL/MOL
REMARK 927      BINDING AFFINITY PREDICTED BY RF-SCORE:    0.00 PKD
ROOT
HETATM    1  C   UNL     1     -12.622  14.707  70.155  1.00  0.00    -0.283 C  
HETATM    2  N   UNL     1     -11.634  14.890  69.088  1.00  0.00    -0.290 NA 
HETATM    3  C   UNL     1     -11.055  16.125  68.839  1.00  0.00    -0.347 C  
HETATM    4  C   UNL     1     -10.116  16.389  67.921  1.00  0.00    -0.250 C  
HETATM    5  C   UNL     1      -9.632  15.257  67.093  1.00  0.00    -0.217 C  
HETATM    6  C   UNL     1      -9.674  12.805  66.679  1.00  0.00    -0.252 A  
HETATM    7  F   UNL     1     -11.599  10.139  68.183  1.00  0.00    -0.294 F  
HETATM    8  C   UNL     1     -10.180  13.908  67.389  1.00  0.00    -0.252 A  
HETATM    9  O   UNL     1      -8.799  15.415  66.206  1.00  0.00    -0.304 OA 
HETATM   10  C   UNL     1     -10.153  11.528  66.950  1.00  0.00    -0.241 A  
HETATM   11  C   UNL     1     -11.174  13.756  68.383  1.00  0.00    -0.272 A  
HETATM   12  C   UNL     1     -11.649  12.456  68.621  1.00  0.00    -0.365 A  
HETATM   13  C   UNL     1     -11.136  11.367  67.915  1.00  0.00    -0.261 A  
ENDROOT
BRANCH   4  14
HETATM   14  S   UNL     1      -9.411  18.011  67.769  1.00  0.00    -0.270 S  
HETATM   15  C   UNL     1     -10.183  18.503  66.212  1.00  0.00    -0.418 C  
HETATM   16  O   UNL     1     -10.004  18.858  68.859  1.00  0.00    -0.400 OA 
ENDBRANCH   4  14
TORSDOF 1
ENDMDL
MODEL       60
REMARK 921   NORMALIZED FREE ENERGY PREDICTED BY IDOCK:   -4.38 KCAL/MOL
REMARK 922        TOTAL FREE ENERGY PREDICTED BY IDOCK:   -4.71 KCAL/MOL
REMARK 923 INTER-LIGAND FREE ENERGY PREDICTED BY IDOCK:   -4.60 KCAL/MOL
REMARK 924 INTRA-LIGAND FREE ENERGY PREDICTED BY IDOCK:   -0.11 KCAL/MOL
REMARK 927      BINDING AFFINITY PREDICTED BY RF-SCORE:    0.00 PKD
ROOT
HETATM    1  C   UNL     1     -12.170  14.825  64.316  1.00  0.00    -0.379 C  
HETATM    2  N   UNL     1     -11.054  15.059  65.236  1.00  0.00    -0.367 NA 
HETATM    3  C   UNL     1     -10.761  16.327  65.715  1.00  0.00    -0.255 C  
HETATM    4  C   UNL     1      -9.795  16.640  66.587  1.00  0.00    -0.274 C  
HETATM    5  C   UNL     1      -8.958  15.532  67.109  1.00  0.00    -0.214 C  
HETATM    6  C   UNL     1      -8.578  13.076  67.220  1.00  0.00    -0.206 A  
HETATM    7  F   UNL     1     -10.209  10.307  65.561  1.00  0.00    -0.325 F  
HETATM    8  C   UNL     1      -9.298  14.152  66.672  1.00  0.00    -0.299 A  
HETATM    9  O   UNL     1      -8.030  15.732  67.886  1.00  0.00    -0.133 OA 
HETATM   10  C   UNL     1      -8.890  11.773  66.845  1.00  0.00    -0.191 A  
HETATM   11  C   UNL     1     -10.341  13.948  65.740  1.00  0.00    -0.316 A  
HETATM   12  C   UNL     1     -10.619  12.622  65.370  1.00  0.00    -0.307 A  
HETATM   13  C   UNL     1      -9.903  11.560  65.924  1.00  0.00    -0.231 A  
ENDROOT
BRANCH   4  14
HETATM   14  S   UNL     1      -9.587  18.305  67.169  1.00  0.00    -0.290 S  
HETATM   15  C   UNL     1     -10.653  19.148  65.979  1.00  0.00    -0.442 C  
HETATM   16  O   UNL     1     -10.249  18.392  68.515  1.00  0.00    -0.375 OA 
ENDBRANCH   4  14
TORSDOF 1
ENDMDL
MODEL       61
REMARK 921   NORMALIZED FREE ENERGY PREDICTED BY IDOCK:   -4.37 KCAL/MOL
REMARK 922        TOTAL FREE ENERGY PREDICTED BY IDOCK:   -4.71 KCAL/MOL
REMARK 923 INTER-LIGAND FREE ENERGY PREDICTED BY IDOCK:   -4.87 KCAL/MOL
REMARK 924 INTRA-LIGAND FREE ENERGY PREDICTED BY IDOCK:    0.16 KCAL/MOL
REMARK 927      BINDING AFFINITY PREDICTED BY RF-SCORE:    0.00 PKD
ROOT
HETATM    1  C   UNL     1     -11.332  12.716  68.755  1.00  0.00    -0.289 C  
HETATM    2  N   UNL     1     -10.828  11.882  67.661  1.00  0.00    -0.217 NA 
HETATM    3  C   UNL     1     -10.199  10.670  67.902  1.00  0.00    -0.177 C  
HETATM    4  C   UNL     1      -9.743   9.818  66.976  1.00  0.00    -0.183 C  
HETATM    5  C   UNL     1      -9.932  10.187  65.552  1.00  0.00    -0.293 C  
HETATM    6  C   UNL     1     -10.942  11.772  63.923  1.00  0.00    -0.476 A  
HETATM    7  F   UNL     1     -12.753  14.869  64.379  1.00  0.00    -0.460 F  
HETATM    8  C   UNL     1     -10.671  11.444  65.263  1.00  0.00    -0.326 A  
HETATM    9  O   UNL     1      -9.515   9.481  64.640  1.00  0.00    -0.228 OA 
HETATM   10  C   UNL     1     -11.650  12.931  63.624  1.00  0.00    -0.547 A  
HETATM   11  C   UNL     1     -11.101  12.266  66.329  1.00  0.00    -0.302 A  
HETATM   12  C   UNL     1     -11.799  13.438  65.993  1.00  0.00    -0.423 A  
HETATM   13  C   UNL     1     -12.069  13.753  64.660  1.00  0.00    -0.421 A  
ENDROOT
BRANCH   4  14
HETATM   14  S   UNL     1      -9.024   8.260  67.438  1.00  0.00    -0.135 S  
HETATM   15  C   UNL     1     -10.386   7.175  66.962  1.00  0.00    -0.298 C  
HETATM   16  O   UNL     1      -7.883   8.000  66.495  1.00  0.00    -0.094 OA 
ENDBRANCH   4  14
TORSDOF 1
ENDMDL
MODEL       62
REMARK 921   NORMALIZED FREE ENERGY PREDICTED BY IDOCK:   -4.37 KCAL/MOL
REMARK 922        TOTAL FREE ENERGY PREDICTED BY IDOCK:   -4.71 KCAL/MOL
REMARK 923 INTER-LIGAND FREE ENERGY PREDICTED BY IDOCK:   -4.59 KCAL/MOL
REMARK 924 INTRA-LIGAND FREE ENERGY PREDICTED BY IDOCK:   -0.11 KCAL/MOL
REMARK 927      BINDING AFFINITY PREDICTED BY RF-SCORE:    0.00 PKD
ROOT
HETATM    1  C   UNL     1     -10.818   6.425  70.014  1.00  0.00    -0.307 C  
HETATM    2  N   UNL     1     -10.732   7.838  69.636  1.00  0.00    -0.242 NA 
HETATM    3  C   UNL     1     -10.040   8.246  68.506  1.00  0.00    -0.197 C  
HETATM    4  C   UNL     1      -9.937   9.501  68.052  1.00  0.00    -0.167 C  
HETATM    5  C   UNL     1     -10.636  10.565  68.814  1.00  0.00    -0.207 C  
HETATM    6  C   UNL     1     -12.192  11.122  70.673  1.00  0.00    -0.492 A  
HETATM    7  F   UNL     1     -13.762   9.067  73.201  1.00  0.00    -0.398 F  
HETATM    8  C   UNL     1     -11.449  10.146  69.986  1.00  0.00    -0.344 A  
HETATM    9  O   UNL     1     -10.568  11.746  68.488  1.00  0.00    -0.203 OA 
HETATM   10  C   UNL     1     -12.978  10.755  71.760  1.00  0.00    -0.568 A  
HETATM   11  C   UNL     1     -11.476   8.787  70.372  1.00  0.00    -0.144 A  
HETATM   12  C   UNL     1     -12.266   8.452  71.484  1.00  0.00    -0.340 A  
HETATM   13  C   UNL     1     -13.005   9.426  72.156  1.00  0.00    -0.421 A  
ENDROOT
BRANCH   4  14
HETATM   14  S   UNL     1      -9.076   9.863  66.541  1.00  0.00    -0.156 S  
HETATM   15  C   UNL     1      -8.283   8.262  66.285  1.00  0.00    -0.112 C  
HETATM   16  O   UNL     1     -10.113  10.036  65.468  1.00  0.00    -0.298 OA 
ENDBRANCH   4  14
TORSDOF 1
ENDMDL
MODEL       63
REMARK 921   NORMALIZED FREE ENERGY PREDICTED BY IDOCK:   -4.36 KCAL/MOL
REMARK 922        TOTAL FREE ENERGY PREDICTED BY IDOCK:   -4.70 KCAL/MOL
REMARK 923 INTER-LIGAND FREE ENERGY PREDICTED BY IDOCK:   -4.60 KCAL/MOL
REMARK 924 INTRA-LIGAND FREE ENERGY PREDICTED BY IDOCK:   -0.10 KCAL/MOL
REMARK 927      BINDING AFFINITY PREDICTED BY RF-SCORE:    0.00 PKD
ROOT
HETATM    1  C   UNL     1     -13.764   9.768  71.360  1.00  0.00    -0.170 C  
HETATM    2  N   UNL     1     -12.403   9.918  70.839  1.00  0.00    -0.309 NA 
HETATM    3  C   UNL     1     -12.106  10.823  69.831  1.00  0.00    -0.337 C  
HETATM    4  C   UNL     1     -10.894  11.066  69.317  1.00  0.00    -0.238 C  
HETATM    5  C   UNL     1      -9.748  10.310  69.879  1.00  0.00    -0.072 C  
HETATM    6  C   UNL     1      -8.943   8.727  71.620  1.00  0.00    -0.301 A  
HETATM    7  F   UNL     1     -10.693   6.869  74.183  1.00  0.00    -0.378 F  
HETATM    8  C   UNL     1     -10.024   9.389  71.012  1.00  0.00    -0.334 A  
HETATM    9  O   UNL     1      -8.609  10.445  69.444  1.00  0.00    -0.165 OA 
HETATM   10  C   UNL     1      -9.170   7.876  72.697  1.00  0.00    -0.269 A  
HETATM   11  C   UNL     1     -11.351   9.213  71.466  1.00  0.00    -0.368 A  
HETATM   12  C   UNL     1     -11.549   8.333  72.544  1.00  0.00    -0.454 A  
HETATM   13  C   UNL     1     -10.469   7.686  73.145  1.00  0.00    -0.374 A  
ENDROOT
BRANCH   4  14
HETATM   14  S   UNL     1     -10.657  12.314  68.077  1.00  0.00    -0.224 S  
HETATM   15  C   UNL     1     -10.566  11.246  66.623  1.00  0.00    -0.262 C  
HETATM   16  O   UNL     1     -11.934  13.100  67.986  1.00  0.00    -0.351 OA 
ENDBRANCH   4  14
TORSDOF 1
ENDMDL
MODEL       64
REMARK 921   NORMALIZED FREE ENERGY PREDICTED BY IDOCK:   -4.32 KCAL/MOL
REMARK 922        TOTAL FREE ENERGY PREDICTED BY IDOCK:   -4.65 KCAL/MOL
REMARK 923 INTER-LIGAND FREE ENERGY PREDICTED BY IDOCK:   -4.57 KCAL/MOL
REMARK 924 INTRA-LIGAND FREE ENERGY PREDICTED BY IDOCK:   -0.08 KCAL/MOL
REMARK 927      BINDING AFFINITY PREDICTED BY RF-SCORE:    0.00 PKD
ROOT
HETATM    1  C   UNL     1      -9.886  10.276  64.774  1.00  0.00    -0.334 C  
HETATM    2  N   UNL     1     -10.255  10.183  66.189  1.00  0.00    -0.235 NA 
HETATM    3  C   UNL     1      -9.921   9.077  66.955  1.00  0.00    -0.230 C  
HETATM    4  C   UNL     1     -10.172   8.912  68.260  1.00  0.00    -0.201 C  
HETATM    5  C   UNL     1     -10.864  10.017  68.969  1.00  0.00    -0.222 C  
HETATM    6  C   UNL     1     -11.741  12.341  68.859  1.00  0.00    -0.380 A  
HETATM    7  F   UNL     1     -11.985  14.700  66.128  1.00  0.00    -0.369 F  
HETATM    8  C   UNL     1     -11.167  11.246  68.190  1.00  0.00    -0.351 A  
HETATM    9  O   UNL     1     -11.164   9.936  70.156  1.00  0.00    -0.255 OA 
HETATM   10  C   UNL     1     -12.015  13.512  68.160  1.00  0.00    -0.376 A  
HETATM   11  C   UNL     1     -10.855  11.299  66.813  1.00  0.00    -0.282 A  
HETATM   12  C   UNL     1     -11.160  12.490  66.132  1.00  0.00    -0.336 A  
HETATM   13  C   UNL     1     -11.725  13.574  66.806  1.00  0.00    -0.391 A  
ENDROOT
BRANCH   4  14
HETATM   14  S   UNL     1      -9.613   7.467  69.128  1.00  0.00    -0.157 S  
HETATM   15  C   UNL     1     -11.188   6.591  69.248  1.00  0.00    -0.328 C  
HETATM   16  O   UNL     1      -8.733   6.695  68.186  1.00  0.00    -0.119 OA 
ENDBRANCH   4  14
TORSDOF 1
ENDMDL
MODEL       65
REMARK 921   NORMALIZED FREE ENERGY PREDICTED BY IDOCK:   -4.31 KCAL/MOL
REMARK 922        TOTAL FREE ENERGY PREDICTED BY IDOCK:   -4.65 KCAL/MOL
REMARK 923 INTER-LIGAND FREE ENERGY PREDICTED BY IDOCK:   -4.55 KCAL/MOL
REMARK 924 INTRA-LIGAND FREE ENERGY PREDICTED BY IDOCK:   -0.10 KCAL/MOL
REMARK 927      BINDING AFFINITY PREDICTED BY RF-SCORE:    0.00 PKD
ROOT
HETATM    1  C   UNL     1      -9.208  10.104  69.332  1.00  0.00    -0.214 C  
HETATM    2  N   UNL     1      -9.883   9.019  70.049  1.00  0.00    -0.176 NA 
HETATM    3  C   UNL     1      -9.312   7.761  70.168  1.00  0.00    -0.153 C  
HETATM    4  C   UNL     1      -9.823   6.719  70.835  1.00  0.00    -0.186 C  
HETATM    5  C   UNL     1     -11.119   6.919  71.528  1.00  0.00    -0.244 C  
HETATM    6  C   UNL     1     -12.901   8.518  72.204  1.00  0.00    -0.413 A  
HETATM    7  F   UNL     1     -13.408  12.020  71.453  1.00  0.00    -0.406 F  
HETATM    8  C   UNL     1     -11.718   8.279  71.482  1.00  0.00    -0.337 A  
HETATM    9  O   UNL     1     -11.676   6.009  72.134  1.00  0.00    -0.311 OA 
HETATM   10  C   UNL     1     -13.471   9.787  72.196  1.00  0.00    -0.491 A  
HETATM   11  C   UNL     1     -11.084   9.300  70.739  1.00  0.00    -0.285 A  
HETATM   12  C   UNL     1     -11.694  10.566  70.737  1.00  0.00    -0.454 A  
HETATM   13  C   UNL     1     -12.865  10.796  71.462  1.00  0.00    -0.462 A  
ENDROOT
BRANCH   4  14
HETATM   14  S   UNL     1      -8.936   5.186  70.963  1.00  0.00    -0.135 S  
HETATM   15  C   UNL     1      -9.681   4.318  69.565  1.00  0.00    -0.201 C  
HETATM   16  O   UNL     1      -7.503   5.471  70.613  1.00  0.00    -0.079 OA 
ENDBRANCH   4  14
TORSDOF 1
ENDMDL
MODEL       66
REMARK 921   NORMALIZED FREE ENERGY PREDICTED BY IDOCK:   -4.28 KCAL/MOL
REMARK 922        TOTAL FREE ENERGY PREDICTED BY IDOCK:   -4.61 KCAL/MOL
REMARK 923 INTER-LIGAND FREE ENERGY PREDICTED BY IDOCK:   -4.53 KCAL/MOL
REMARK 924 INTRA-LIGAND FREE ENERGY PREDICTED BY IDOCK:   -0.08 KCAL/MOL
REMARK 927      BINDING AFFINITY PREDICTED BY RF-SCORE:    0.00 PKD
ROOT
HETATM    1  C   UNL     1     -10.319  12.302  68.430  1.00  0.00    -0.224 C  
HETATM    2  N   UNL     1     -10.539  10.930  68.896  1.00  0.00    -0.198 NA 
HETATM    3  C   UNL     1      -9.797   9.868  68.402  1.00  0.00    -0.151 C  
HETATM    4  C   UNL     1      -9.889   8.590  68.790  1.00  0.00    -0.173 C  
HETATM    5  C   UNL     1     -10.866   8.268  69.859  1.00  0.00    -0.213 C  
HETATM    6  C   UNL     1     -12.488   9.132  71.535  1.00  0.00    -0.418 A  
HETATM    7  F   UNL     1     -13.703  12.470  72.215  1.00  0.00    -0.579 F  
HETATM    8  C   UNL     1     -11.621   9.398  70.461  1.00  0.00    -0.291 A  
HETATM    9  O   UNL     1     -11.040   7.118  70.252  1.00  0.00    -0.259 OA 
HETATM   10  C   UNL     1     -13.191  10.174  72.131  1.00  0.00    -0.463 A  
HETATM   11  C   UNL     1     -11.440  10.708  69.961  1.00  0.00    -0.325 A  
HETATM   12  C   UNL     1     -12.177  11.735  70.573  1.00  0.00    -0.438 A  
HETATM   13  C   UNL     1     -13.030  11.463  71.643  1.00  0.00    -0.418 A  
ENDROOT
BRANCH   4  14
HETATM   14  S   UNL     1      -8.815   7.346  68.117  1.00  0.00    -0.126 S  
HETATM   15  C   UNL     1      -8.840   7.866  66.388  1.00  0.00    -0.158 C  
HETATM   16  O   UNL     1      -7.437   7.611  68.654  1.00  0.00    -0.098 OA 
ENDBRANCH   4  14
TORSDOF 1
ENDMDL
MODEL       67
REMARK 921   NORMALIZED FREE ENERGY PREDICTED BY IDOCK:   -4.28 KCAL/MOL
REMARK 922        TOTAL FREE ENERGY PREDICTED BY IDOCK:   -4.61 KCAL/MOL
REMARK 923 INTER-LIGAND FREE ENERGY PREDICTED BY IDOCK:   -4.50 KCAL/MOL
REMARK 924 INTRA-LIGAND FREE ENERGY PREDICTED BY IDOCK:   -0.11 KCAL/MOL
REMARK 927      BINDING AFFINITY PREDICTED BY RF-SCORE:    0.00 PKD
ROOT
HETATM    1  C   UNL     1     -13.769   9.157  72.489  1.00  0.00    -0.435 C  
HETATM    2  N   UNL     1     -12.489   8.896  71.826  1.00  0.00    -0.339 NA 
HETATM    3  C   UNL     1     -11.856   7.667  71.927  1.00  0.00    -0.294 C  
HETATM    4  C   UNL     1     -10.711   7.314  71.328  1.00  0.00    -0.225 C  
HETATM    5  C   UNL     1     -10.054   8.322  70.461  1.00  0.00    -0.195 C  
HETATM    6  C   UNL     1     -10.191  10.561  69.387  1.00  0.00    -0.245 A  
HETATM    7  F   UNL     1     -12.632  13.216  69.655  1.00  0.00    -0.218 F  
HETATM    8  C   UNL     1     -10.748   9.622  70.273  1.00  0.00    -0.335 A  
HETATM    9  O   UNL     1      -8.985   8.095  69.902  1.00  0.00    -0.142 OA 
HETATM   10  C   UNL     1     -10.832  11.778  69.176  1.00  0.00    -0.221 A  
HETATM   11  C   UNL     1     -11.954   9.880  70.965  1.00  0.00    -0.365 A  
HETATM   12  C   UNL     1     -12.567  11.124  70.743  1.00  0.00    -0.445 A  
HETATM   13  C   UNL     1     -12.010  12.048  69.856  1.00  0.00    -0.318 A  
ENDROOT
BRANCH   4  14
HETATM   14  S   UNL     1     -10.058   5.671  71.492  1.00  0.00    -0.208 S  
HETATM   15  C   UNL     1     -11.103   5.091  72.846  1.00  0.00    -0.279 C  
HETATM   16  O   UNL     1     -10.450   4.911  70.256  1.00  0.00    -0.234 OA 
ENDBRANCH   4  14
TORSDOF 1
ENDMDL
MODEL       68
REMARK 921   NORMALIZED FREE ENERGY PREDICTED BY IDOCK:   -4.27 KCAL/MOL
REMARK 922        TOTAL FREE ENERGY PREDICTED BY IDOCK:   -4.60 KCAL/MOL
REMARK 923 INTER-LIGAND FREE ENERGY PREDICTED BY IDOCK:   -4.50 KCAL/MOL
REMARK 924 INTRA-LIGAND FREE ENERGY PREDICTED BY IDOCK:   -0.10 KCAL/MOL
REMARK 927      BINDING AFFINITY PREDICTED BY RF-SCORE:    0.00 PKD
ROOT
HETATM    1  C   UNL     1     -10.105  15.062  65.626  1.00  0.00    -0.362 C  
HETATM    2  N   UNL     1      -9.122  15.773  66.449  1.00  0.00    -0.293 NA 
HETATM    3  C   UNL     1      -8.029  15.121  67.000  1.00  0.00    -0.188 C  
HETATM    4  C   UNL     1      -7.057  15.684  67.727  1.00  0.00    -0.153 C  
HETATM    5  C   UNL     1      -7.137  17.146  67.964  1.00  0.00    -0.175 C  
HETATM    6  C   UNL     1      -8.306  19.282  67.457  1.00  0.00    -0.322 A  
HETATM    7  F   UNL     1     -11.284  20.003  65.535  1.00  0.00    -0.408 F  
HETATM    8  C   UNL     1      -8.257  17.884  67.322  1.00  0.00    -0.225 A  
HETATM    9  O   UNL     1      -6.307  17.737  68.647  1.00  0.00    -0.184 OA 
HETATM   10  C   UNL     1      -9.331  20.000  66.849  1.00  0.00    -0.515 A  
HETATM   11  C   UNL     1      -9.228  17.176  66.578  1.00  0.00    -0.266 A  
HETATM   12  C   UNL     1     -10.259  17.928  65.990  1.00  0.00    -0.297 A  
HETATM   13  C   UNL     1     -10.297  19.317  66.125  1.00  0.00    -0.494 A  
ENDROOT
BRANCH   4  14
HETATM   14  S   UNL     1      -5.674  14.731  68.304  1.00  0.00    -0.125 S  
HETATM   15  C   UNL     1      -6.361  14.171  69.878  1.00  0.00    -0.141 C  
HETATM   16  O   UNL     1      -5.554  13.532  67.407  1.00  0.00    -0.351 OA 
ENDBRANCH   4  14
TORSDOF 1
ENDMDL
MODEL       69
REMARK 921   NORMALIZED FREE ENERGY PREDICTED BY IDOCK:   -4.20 KCAL/MOL
REMARK 922        TOTAL FREE ENERGY PREDICTED BY IDOCK:   -4.53 KCAL/MOL
REMARK 923 INTER-LIGAND FREE ENERGY PREDICTED BY IDOCK:   -4.68 KCAL/MOL
REMARK 924 INTRA-LIGAND FREE ENERGY PREDICTED BY IDOCK:    0.15 KCAL/MOL
REMARK 927      BINDING AFFINITY PREDICTED BY RF-SCORE:    0.00 PKD
ROOT
HETATM    1  C   UNL     1     -11.608  13.323  69.527  1.00  0.00    -0.286 C  
HETATM    2  N   UNL     1     -11.233  13.577  68.133  1.00  0.00    -0.259 NA 
HETATM    3  C   UNL     1     -11.315  12.586  67.167  1.00  0.00    -0.324 C  
HETATM    4  C   UNL     1     -11.040  12.726  65.865  1.00  0.00    -0.287 C  
HETATM    5  C   UNL     1     -10.615  14.067  65.395  1.00  0.00    -0.341 C  
HETATM    6  C   UNL     1     -10.278  16.467  65.957  1.00  0.00    -0.373 A  
HETATM    7  F   UNL     1     -10.556  18.273  69.078  1.00  0.00    -0.282 F  
HETATM    8  C   UNL     1     -10.591  15.167  66.394  1.00  0.00    -0.305 A  
HETATM    9  O   UNL     1     -10.310  14.276  64.225  1.00  0.00    -0.134 OA 
HETATM   10  C   UNL     1     -10.270  17.519  66.867  1.00  0.00    -0.329 A  
HETATM   11  C   UNL     1     -10.900  14.894  67.746  1.00  0.00    -0.286 A  
HETATM   12  C   UNL     1     -10.866  15.976  68.642  1.00  0.00    -0.301 A  
HETATM   13  C   UNL     1     -10.560  17.263  68.198  1.00  0.00    -0.386 A  
ENDROOT
BRANCH   4  14
HETATM   14  S   UNL     1     -11.265  11.379  64.729  1.00  0.00    -0.048 S  
HETATM   15  C   UNL     1     -12.652  12.045  63.783  1.00  0.00    -0.454 C  
HETATM   16  O   UNL     1     -10.066  11.354  63.824  1.00  0.00    -0.289 OA 
ENDBRANCH   4  14
TORSDOF 1
ENDMDL
MODEL       70
REMARK 921   NORMALIZED FREE ENERGY PREDICTED BY IDOCK:   -4.15 KCAL/MOL
REMARK 922        TOTAL FREE ENERGY PREDICTED BY IDOCK:   -4.47 KCAL/MOL
REMARK 923 INTER-LIGAND FREE ENERGY PREDICTED BY IDOCK:   -4.41 KCAL/MOL
REMARK 924 INTRA-LIGAND FREE ENERGY PREDICTED BY IDOCK:   -0.06 KCAL/MOL
REMARK 927      BINDING AFFINITY PREDICTED BY RF-SCORE:    0.00 PKD
ROOT
HETATM    1  C   UNL     1      -9.994  10.354  65.534  1.00  0.00    -0.282 C  
HETATM    2  N   UNL     1     -10.484  11.348  66.492  1.00  0.00    -0.240 NA 
HETATM    3  C   UNL     1     -10.718  12.663  66.119  1.00  0.00    -0.267 C  
HETATM    4  C   UNL     1     -11.205  13.633  66.903  1.00  0.00    -0.312 C  
HETATM    5  C   UNL     1     -11.540  13.278  68.303  1.00  0.00    -0.334 C  
HETATM    6  C   UNL     1     -11.766  11.478  70.005  1.00  0.00    -0.414 A  
HETATM    7  F   UNL     1     -10.991   7.947  69.895  1.00  0.00    -0.245 F  
HETATM    8  C   UNL     1     -11.372  11.859  68.710  1.00  0.00    -0.330 A  
HETATM    9  O   UNL     1     -11.958  14.113  69.100  1.00  0.00    -0.324 OA 
HETATM   10  C   UNL     1     -11.639  10.152  70.404  1.00  0.00    -0.396 A  
HETATM   11  C   UNL     1     -10.844  10.924  67.791  1.00  0.00    -0.259 A  
HETATM   12  C   UNL     1     -10.713   9.596  68.231  1.00  0.00    -0.262 A  
HETATM   13  C   UNL     1     -11.113   9.226  69.516  1.00  0.00    -0.080 A  
ENDROOT
BRANCH   4  14
HETATM   14  S   UNL     1     -11.523  15.258  66.261  1.00  0.00     0.020 S  
HETATM   15  C   UNL     1     -10.164  16.141  67.058  1.00  0.00    -0.285 C  
HETATM   16  O   UNL     1     -11.239  15.218  64.786  1.00  0.00    -0.405 OA 
ENDBRANCH   4  14
TORSDOF 1
ENDMDL
MODEL       71
REMARK 921   NORMALIZED FREE ENERGY PREDICTED BY IDOCK:   -4.13 KCAL/MOL
REMARK 922        TOTAL FREE ENERGY PREDICTED BY IDOCK:   -4.45 KCAL/MOL
REMARK 923 INTER-LIGAND FREE ENERGY PREDICTED BY IDOCK:   -4.36 KCAL/MOL
REMARK 924 INTRA-LIGAND FREE ENERGY PREDICTED BY IDOCK:   -0.09 KCAL/MOL
REMARK 927      BINDING AFFINITY PREDICTED BY RF-SCORE:    0.00 PKD
ROOT
HETATM    1  C   UNL     1      -8.404  14.036  68.276  1.00  0.00    -0.162 C  
HETATM    2  N   UNL     1      -9.121  13.754  67.030  1.00  0.00    -0.238 NA 
HETATM    3  C   UNL     1      -9.289  12.459  66.566  1.00  0.00    -0.233 C  
HETATM    4  C   UNL     1      -9.961  12.092  65.468  1.00  0.00    -0.246 C  
HETATM    5  C   UNL     1     -10.603  13.164  64.668  1.00  0.00    -0.392 C  
HETATM    6  C   UNL     1     -11.179  15.578  64.493  1.00  0.00    -0.327 A  
HETATM    7  F   UNL     1     -10.330  18.415  66.568  1.00  0.00    -0.327 F  
HETATM    8  C   UNL     1     -10.505  14.555  65.183  1.00  0.00    -0.439 A  
HETATM    9  O   UNL     1     -11.210  12.922  63.630  1.00  0.00    -0.430 OA 
HETATM   10  C   UNL     1     -11.121  16.885  64.965  1.00  0.00     0.004 A  
HETATM   11  C   UNL     1      -9.761  14.818  66.356  1.00  0.00    -0.291 A  
HETATM   12  C   UNL     1      -9.709  16.152  66.797  1.00  0.00    -0.255 A  
HETATM   13  C   UNL     1     -10.386  17.159  66.108  1.00  0.00    -0.322 A  
ENDROOT
BRANCH   4  14
HETATM   14  S   UNL     1     -10.155  10.380  65.039  1.00  0.00    -0.256 S  
HETATM   15  C   UNL     1      -8.569  10.119  64.216  1.00  0.00    -0.193 C  
HETATM   16  O   UNL     1     -10.139   9.596  66.320  1.00  0.00    -0.258 OA 
ENDBRANCH   4  14
TORSDOF 1
ENDMDL
MODEL       72
REMARK 921   NORMALIZED FREE ENERGY PREDICTED BY IDOCK:   -4.13 KCAL/MOL
REMARK 922        TOTAL FREE ENERGY PREDICTED BY IDOCK:   -4.45 KCAL/MOL
REMARK 923 INTER-LIGAND FREE ENERGY PREDICTED BY IDOCK:   -4.61 KCAL/MOL
REMARK 924 INTRA-LIGAND FREE ENERGY PREDICTED BY IDOCK:    0.15 KCAL/MOL
REMARK 927      BINDING AFFINITY PREDICTED BY RF-SCORE:    0.00 PKD
ROOT
HETATM    1  C   UNL     1     -11.576  13.756  64.034  1.00  0.00    -0.275 C  
HETATM    2  N   UNL     1     -10.965  12.464  64.356  1.00  0.00    -0.312 NA 
HETATM    3  C   UNL     1     -10.204  11.769  63.429  1.00  0.00    -0.449 C  
HETATM    4  C   UNL     1      -9.570  10.608  63.635  1.00  0.00    -0.314 C  
HETATM    5  C   UNL     1      -9.674  10.003  64.985  1.00  0.00    -0.317 C  
HETATM    6  C   UNL     1     -10.457  10.255  67.332  1.00  0.00    -0.303 A  
HETATM    7  F   UNL     1     -12.410  12.829  68.958  1.00  0.00    -0.270 F  
HETATM    8  C   UNL     1     -10.419  10.763  66.022  1.00  0.00    -0.273 A  
HETATM    9  O   UNL     1      -9.153   8.924  65.252  1.00  0.00    -0.203 OA 
HETATM   10  C   UNL     1     -11.130  10.957  68.327  1.00  0.00    -0.324 A  
HETATM   11  C   UNL     1     -11.051  11.980  65.681  1.00  0.00    -0.313 A  
HETATM   12  C   UNL     1     -11.736  12.656  66.705  1.00  0.00    -0.464 A  
HETATM   13  C   UNL     1     -11.763  12.147  68.004  1.00  0.00    -0.344 A  
ENDROOT
BRANCH   4  14
HETATM   14  S   UNL     1      -8.567   9.872  62.368  1.00  0.00    -0.212 S  
HETATM   15  C   UNL     1      -6.948  10.087  63.138  1.00  0.00    -0.132 C  
HETATM   16  O   UNL     1      -8.875   8.401  62.356  1.00  0.00    -0.099 OA 
ENDBRANCH   4  14
TORSDOF 1
ENDMDL
MODEL       73
REMARK 921   NORMALIZED FREE ENERGY PREDICTED BY IDOCK:   -4.13 KCAL/MOL
REMARK 922        TOTAL FREE ENERGY PREDICTED BY IDOCK:   -4.45 KCAL/MOL
REMARK 923 INTER-LIGAND FREE ENERGY PREDICTED BY IDOCK:   -4.63 KCAL/MOL
REMARK 924 INTRA-LIGAND FREE ENERGY PREDICTED BY IDOCK:    0.18 KCAL/MOL
REMARK 927      BINDING AFFINITY PREDICTED BY RF-SCORE:    0.00 PKD
ROOT
HETATM    1  C   UNL     1     -10.756  19.388  67.257  1.00  0.00    -0.490 C  
HETATM    2  N   UNL     1     -10.100  18.164  67.724  1.00  0.00    -0.344 NA 
HETATM    3  C   UNL     1     -10.665  16.914  67.521  1.00  0.00    -0.270 C  
HETATM    4  C   UNL     1     -10.130  15.737  67.868  1.00  0.00    -0.230 C  
HETATM    5  C   UNL     1      -8.800  15.757  68.524  1.00  0.00    -0.193 C  
HETATM    6  C   UNL     1      -6.837  17.115  69.223  1.00  0.00    -0.209 A  
HETATM    7  F   UNL     1      -6.208  20.676  69.117  1.00  0.00    -0.356 F  
HETATM    8  C   UNL     1      -8.135  17.077  68.686  1.00  0.00    -0.254 A  
HETATM    9  O   UNL     1      -8.251  14.728  68.906  1.00  0.00    -0.159 OA 
HETATM   10  C   UNL     1      -6.183  18.335  69.366  1.00  0.00    -0.261 A  
HETATM   11  C   UNL     1      -8.806  18.254  68.282  1.00  0.00    -0.287 A  
HETATM   12  C   UNL     1      -8.125  19.471  68.455  1.00  0.00    -0.376 A  
HETATM   13  C   UNL     1      -6.833  19.499  68.984  1.00  0.00    -0.349 A  
ENDROOT
BRANCH   4  14
HETATM   14  S   UNL     1     -10.940  14.207  67.473  1.00  0.00    -0.290 S  
HETATM   15  C   UNL     1      -9.938  13.723  66.051  1.00  0.00    -0.306 C  
HETATM   16  O   UNL     1     -10.645  13.246  68.588  1.00  0.00    -0.253 OA 
ENDBRANCH   4  14
TORSDOF 1
ENDMDL
MODEL       74
REMARK 921   NORMALIZED FREE ENERGY PREDICTED BY IDOCK:   -4.12 KCAL/MOL
REMARK 922        TOTAL FREE ENERGY PREDICTED BY IDOCK:   -4.45 KCAL/MOL
REMARK 923 INTER-LIGAND FREE ENERGY PREDICTED BY IDOCK:   -4.37 KCAL/MOL
REMARK 924 INTRA-LIGAND FREE ENERGY PREDICTED BY IDOCK:   -0.07 KCAL/MOL
REMARK 927      BINDING AFFINITY PREDICTED BY RF-SCORE:    0.00 PKD
ROOT
HETATM    1  C   UNL     1     -13.349   9.935  72.037  1.00  0.00    -0.432 C  
HETATM    2  N   UNL     1     -12.392  10.043  70.933  1.00  0.00    -0.325 NA 
HETATM    3  C   UNL     1     -12.161  11.249  70.288  1.00  0.00    -0.373 C  
HETATM    4  C   UNL     1     -11.282  11.463  69.302  1.00  0.00    -0.277 C  
HETATM    5  C   UNL     1     -10.462  10.311  68.853  1.00  0.00    -0.211 C  
HETATM    6  C   UNL     1      -9.807   7.941  69.232  1.00  0.00    -0.177 A  
HETATM    7  F   UNL     1     -11.007   5.452  71.564  1.00  0.00    -0.301 F  
HETATM    8  C   UNL     1     -10.634   9.024  69.577  1.00  0.00    -0.231 A  
HETATM    9  O   UNL     1      -9.656  10.409  67.933  1.00  0.00    -0.141 OA 
HETATM   10  C   UNL     1      -9.932   6.732  69.907  1.00  0.00    -0.184 A  
HETATM   11  C   UNL     1     -11.601   8.920  70.603  1.00  0.00    -0.215 A  
HETATM   12  C   UNL     1     -11.714   7.681  71.255  1.00  0.00    -0.308 A  
HETATM   13  C   UNL     1     -10.884   6.613  70.909  1.00  0.00    -0.252 A  
ENDROOT
BRANCH   4  14
HETATM   14  S   UNL     1     -11.041  13.086  68.622  1.00  0.00    -0.282 S  
HETATM   15  C   UNL     1     -11.887  12.853  67.044  1.00  0.00    -0.374 C  
HETATM   16  O   UNL     1     -11.862  14.038  69.444  1.00  0.00    -0.289 OA 
ENDBRANCH   4  14
TORSDOF 1
ENDMDL
MODEL       75
REMARK 921   NORMALIZED FREE ENERGY PREDICTED BY IDOCK:   -4.10 KCAL/MOL
REMARK 922        TOTAL FREE ENERGY PREDICTED BY IDOCK:   -4.42 KCAL/MOL
REMARK 923 INTER-LIGAND FREE ENERGY PREDICTED BY IDOCK:   -4.34 KCAL/MOL
REMARK 924 INTRA-LIGAND FREE ENERGY PREDICTED BY IDOCK:   -0.08 KCAL/MOL
REMARK 927      BINDING AFFINITY PREDICTED BY RF-SCORE:    0.00 PKD
ROOT
HETATM    1  C   UNL     1      -5.844  15.940  67.564  1.00  0.00    -0.124 C  
HETATM    2  N   UNL     1      -6.784  17.053  67.410  1.00  0.00    -0.139 NA 
HETATM    3  C   UNL     1      -6.407  18.363  67.665  1.00  0.00    -0.191 C  
HETATM    4  C   UNL     1      -7.172  19.451  67.515  1.00  0.00    -0.219 C  
HETATM    5  C   UNL     1      -8.555  19.251  67.016  1.00  0.00    -0.285 C  
HETATM    6  C   UNL     1     -10.237  17.662  66.104  1.00  0.00    -0.345 A  
HETATM    7  F   UNL     1     -10.145  14.081  65.604  1.00  0.00    -0.293 F  
HETATM    8  C   UNL     1      -8.962  17.866  66.662  1.00  0.00    -0.282 A  
HETATM    9  O   UNL     1      -9.336  20.188  66.881  1.00  0.00    -0.358 OA 
HETATM   10  C   UNL     1     -10.635  16.379  65.743  1.00  0.00    -0.327 A  
HETATM   11  C   UNL     1      -8.063  16.796  66.870  1.00  0.00    -0.211 A  
HETATM   12  C   UNL     1      -8.503  15.510  66.510  1.00  0.00    -0.283 A  
HETATM   13  C   UNL     1      -9.767  15.318  65.952  1.00  0.00    -0.355 A  
ENDROOT
BRANCH   4  14
HETATM   14  S   UNL     1      -6.524  21.078  67.810  1.00  0.00    -0.309 S  
HETATM   15  C   UNL     1      -5.639  20.747  69.349  1.00  0.00    -0.373 C  
HETATM   16  O   UNL     1      -5.501  21.350  66.744  1.00  0.00    -0.244 OA 
ENDBRANCH   4  14
TORSDOF 1
ENDMDL
MODEL       76
REMARK 921   NORMALIZED FREE ENERGY PREDICTED BY IDOCK:   -4.06 KCAL/MOL
REMARK 922        TOTAL FREE ENERGY PREDICTED BY IDOCK:   -4.38 KCAL/MOL
REMARK 923 INTER-LIGAND FREE ENERGY PREDICTED BY IDOCK:   -4.28 KCAL/MOL
REMARK 924 INTRA-LIGAND FREE ENERGY PREDICTED BY IDOCK:   -0.10 KCAL/MOL
REMARK 927      BINDING AFFINITY PREDICTED BY RF-SCORE:    0.00 PKD
ROOT
HETATM    1  C   UNL     1      -9.999   5.825  67.934  1.00  0.00    -0.137 C  
HETATM    2  N   UNL     1     -10.426   7.027  68.655  1.00  0.00    -0.197 NA 
HETATM    3  C   UNL     1     -10.727   6.994  70.008  1.00  0.00    -0.242 C  
HETATM    4  C   UNL     1     -11.083   8.039  70.765  1.00  0.00    -0.259 C  
HETATM    5  C   UNL     1     -11.155   9.367  70.109  1.00  0.00    -0.242 C  
HETATM    6  C   UNL     1     -10.737  10.707  68.056  1.00  0.00    -0.275 A  
HETATM    7  F   UNL     1      -9.642   9.761  64.741  1.00  0.00    -0.316 F  
HETATM    8  C   UNL     1     -10.764   9.447  68.677  1.00  0.00    -0.196 A  
HETATM    9  O   UNL     1     -11.505  10.372  70.720  1.00  0.00    -0.328 OA 
HETATM   10  C   UNL     1     -10.354  10.813  66.723  1.00  0.00    -0.294 A  
HETATM   11  C   UNL     1     -10.409   8.269  67.981  1.00  0.00    -0.213 A  
HETATM   12  C   UNL     1     -10.043   8.408  66.631  1.00  0.00    -0.358 A  
HETATM   13  C   UNL     1     -10.014   9.664  66.025  1.00  0.00    -0.274 A  
ENDROOT
BRANCH   4  14
HETATM   14  S   UNL     1     -11.366   7.854  72.509  1.00  0.00    -0.406 S  
HETATM   15  C   UNL     1     -11.709   6.082  72.547  1.00  0.00    -0.232 C  
HETATM   16  O   UNL     1     -10.051   8.080  73.199  1.00  0.00    -0.307 OA 
ENDBRANCH   4  14
TORSDOF 1
ENDMDL
MODEL       77
REMARK 921   NORMALIZED FREE ENERGY PREDICTED BY IDOCK:   -4.05 KCAL/MOL
REMARK 922        TOTAL FREE ENERGY PREDICTED BY IDOCK:   -4.37 KCAL/MOL
REMARK 923 INTER-LIGAND FREE ENERGY PREDICTED BY IDOCK:   -4.28 KCAL/MOL
REMARK 924 INTRA-LIGAND FREE ENERGY PREDICTED BY IDOCK:   -0.10 KCAL/MOL
REMARK 927      BINDING AFFINITY PREDICTED BY RF-SCORE:    0.00 PKD
ROOT
HETATM    1  C   UNL     1     -12.747  13.942  65.642  1.00  0.00    -0.495 C  
HETATM    2  N   UNL     1     -11.443  13.444  66.086  1.00  0.00    -0.318 NA 
HETATM    3  C   UNL     1     -10.880  12.299  65.544  1.00  0.00    -0.282 C  
HETATM    4  C   UNL     1      -9.681  11.786  65.847  1.00  0.00    -0.237 C  
HETATM    5  C   UNL     1      -8.860  12.510  66.848  1.00  0.00    -0.203 C  
HETATM    6  C   UNL     1      -8.610  14.533  68.273  1.00  0.00    -0.171 A  
HETATM    7  F   UNL     1     -10.812  17.335  68.890  1.00  0.00    -0.311 F  
HETATM    8  C   UNL     1      -9.405  13.783  67.390  1.00  0.00    -0.226 A  
HETATM    9  O   UNL     1      -7.764  12.093  67.210  1.00  0.00    -0.154 OA 
HETATM   10  C   UNL     1      -9.086  15.739  68.779  1.00  0.00    -0.213 A  
HETATM   11  C   UNL     1     -10.690  14.220  66.995  1.00  0.00    -0.290 A  
HETATM   12  C   UNL     1     -11.149  15.433  67.537  1.00  0.00    -0.315 A  
HETATM   13  C   UNL     1     -10.349  16.174  68.408  1.00  0.00    -0.257 A  
ENDROOT
BRANCH   4  14
HETATM   14  S   UNL     1      -9.059  10.348  65.011  1.00  0.00    -0.221 S  
HETATM   15  C   UNL     1      -9.766   9.078  66.083  1.00  0.00    -0.283 C  
HETATM   16  O   UNL     1      -9.760  10.267  63.684  1.00  0.00    -0.301 OA 
ENDBRANCH   4  14
TORSDOF 1
ENDMDL
MODEL       78
REMARK 921   NORMALIZED FREE ENERGY PREDICTED BY IDOCK:   -4.02 KCAL/MOL
REMARK 922        TOTAL FREE ENERGY PREDICTED BY IDOCK:   -4.33 KCAL/MOL
REMARK 923 INTER-LIGAND FREE ENERGY PREDICTED BY IDOCK:   -4.38 KCAL/MOL
REMARK 924 INTRA-LIGAND FREE ENERGY PREDICTED BY IDOCK:    0.04 KCAL/MOL
REMARK 927      BINDING AFFINITY PREDICTED BY RF-SCORE:    0.00 PKD
ROOT
HETATM    1  C   UNL     1     -10.682  12.908  64.271  1.00  0.00    -0.406 C  
HETATM    2  N   UNL     1     -10.669  11.976  65.401  1.00  0.00    -0.278 NA 
HETATM    3  C   UNL     1     -10.134  10.702  65.286  1.00  0.00    -0.297 C  
HETATM    4  C   UNL     1     -10.035   9.794  66.265  1.00  0.00    -0.262 C  
HETATM    5  C   UNL     1     -10.530  10.179  67.609  1.00  0.00    -0.245 C  
HETATM    6  C   UNL     1     -11.431  11.984  69.064  1.00  0.00    -0.357 A  
HETATM    7  F   UNL     1     -12.403  15.394  68.352  1.00  0.00    -0.221 F  
HETATM    8  C   UNL     1     -11.038  11.565  67.781  1.00  0.00    -0.319 A  
HETATM    9  O   UNL     1     -10.509   9.398  68.555  1.00  0.00    -0.200 OA 
HETATM   10  C   UNL     1     -11.890  13.283  69.258  1.00  0.00    -0.383 A  
HETATM   11  C   UNL     1     -11.098  12.434  66.667  1.00  0.00    -0.289 A  
HETATM   12  C   UNL     1     -11.582  13.733  66.893  1.00  0.00    -0.394 A  
HETATM   13  C   UNL     1     -11.964  14.142  68.172  1.00  0.00    -0.332 A  
ENDROOT
BRANCH   4  14
HETATM   14  S   UNL     1      -9.254   8.224  65.985  1.00  0.00    -0.127 S  
HETATM   15  C   UNL     1      -8.292   8.652  64.517  1.00  0.00    -0.147 C  
HETATM   16  O   UNL     1      -8.288   7.999  67.114  1.00  0.00    -0.118 OA 
ENDBRANCH   4  14
TORSDOF 1
ENDMDL
MODEL       79
REMARK 921   NORMALIZED FREE ENERGY PREDICTED BY IDOCK:   -4.00 KCAL/MOL
REMARK 922        TOTAL FREE ENERGY PREDICTED BY IDOCK:   -4.32 KCAL/MOL
REMARK 923 INTER-LIGAND FREE ENERGY PREDICTED BY IDOCK:   -4.21 KCAL/MOL
REMARK 924 INTRA-LIGAND FREE ENERGY PREDICTED BY IDOCK:   -0.11 KCAL/MOL
REMARK 927      BINDING AFFINITY PREDICTED BY RF-SCORE:    0.00 PKD
ROOT
HETATM    1  C   UNL     1      -9.193   6.863  66.440  1.00  0.00    -0.152 C  
HETATM    2  N   UNL     1      -9.632   8.256  66.553  1.00  0.00    -0.228 NA 
HETATM    3  C   UNL     1      -9.617   9.113  65.463  1.00  0.00    -0.169 C  
HETATM    4  C   UNL     1     -10.036  10.384  65.450  1.00  0.00    -0.295 C  
HETATM    5  C   UNL     1     -10.581  10.938  66.713  1.00  0.00    -0.259 C  
HETATM    6  C   UNL     1     -11.275  10.495  69.060  1.00  0.00    -0.316 A  
HETATM    7  F   UNL     1     -11.043   7.533  71.123  1.00  0.00    -0.240 F  
HETATM    8  C   UNL     1     -10.680  10.020  67.878  1.00  0.00    -0.322 A  
HETATM    9  O   UNL     1     -10.956  12.104  66.800  1.00  0.00    -0.254 OA 
HETATM   10  C   UNL     1     -11.400   9.650  70.158  1.00  0.00    -0.275 A  
HETATM   11  C   UNL     1     -10.200   8.695  67.770  1.00  0.00    -0.225 A  
HETATM   12  C   UNL     1     -10.326   7.873  68.902  1.00  0.00    -0.225 A  
HETATM   13  C   UNL     1     -10.923   8.351  70.069  1.00  0.00    -0.194 A  
ENDROOT
BRANCH   4  14
HETATM   14  S   UNL     1     -10.025  11.339  63.953  1.00  0.00    -0.357 S  
HETATM   15  C   UNL     1      -9.336  10.097  62.837  1.00  0.00    -0.292 C  
HETATM   16  O   UNL     1     -11.457  11.563  63.558  1.00  0.00    -0.404 OA 
ENDBRANCH   4  14
TORSDOF 1
ENDMDL
MODEL       80
REMARK 921   NORMALIZED FREE ENERGY PREDICTED BY IDOCK:   -3.99 KCAL/MOL
REMARK 922        TOTAL FREE ENERGY PREDICTED BY IDOCK:   -4.31 KCAL/MOL
REMARK 923 INTER-LIGAND FREE ENERGY PREDICTED BY IDOCK:   -4.23 KCAL/MOL
REMARK 924 INTRA-LIGAND FREE ENERGY PREDICTED BY IDOCK:   -0.08 KCAL/MOL
REMARK 927      BINDING AFFINITY PREDICTED BY RF-SCORE:    0.00 PKD
ROOT
HETATM    1  C   UNL     1      -7.341  12.677  67.259  1.00  0.00    -0.104 C  
HETATM    2  N   UNL     1      -8.458  13.532  67.668  1.00  0.00    -0.170 NA 
HETATM    3  C   UNL     1      -8.458  14.896  67.418  1.00  0.00    -0.195 C  
HETATM    4  C   UNL     1      -9.443  15.754  67.711  1.00  0.00    -0.212 C  
HETATM    5  C   UNL     1     -10.662  15.205  68.353  1.00  0.00    -0.248 C  
HETATM    6  C   UNL     1     -11.901  13.178  69.089  1.00  0.00    -0.364 A  
HETATM    7  F   UNL     1     -10.991   9.678  69.126  1.00  0.00    -0.231 F  
HETATM    8  C   UNL     1     -10.722  13.735  68.564  1.00  0.00    -0.274 A  
HETATM    9  O   UNL     1     -11.598  15.924  68.686  1.00  0.00    -0.382 OA 
HETATM   10  C   UNL     1     -11.992  11.803  69.277  1.00  0.00    -0.354 A  
HETATM   11  C   UNL     1      -9.613  12.930  68.216  1.00  0.00    -0.212 A  
HETATM   12  C   UNL     1      -9.731  11.547  68.434  1.00  0.00    -0.202 A  
HETATM   13  C   UNL     1     -10.908  11.003  68.950  1.00  0.00    -0.217 A  
ENDROOT
BRANCH   4  14
HETATM   14  S   UNL     1      -9.331  17.468  67.259  1.00  0.00    -0.248 S  
HETATM   15  C   UNL     1      -7.949  17.944  68.320  1.00  0.00    -0.291 C  
HETATM   16  O   UNL     1      -8.854  17.524  65.836  1.00  0.00    -0.525 OA 
ENDBRANCH   4  14
TORSDOF 1
ENDMDL
MODEL       81
REMARK 921   NORMALIZED FREE ENERGY PREDICTED BY IDOCK:   -3.98 KCAL/MOL
REMARK 922        TOTAL FREE ENERGY PREDICTED BY IDOCK:   -4.30 KCAL/MOL
REMARK 923 INTER-LIGAND FREE ENERGY PREDICTED BY IDOCK:   -4.19 KCAL/MOL
REMARK 924 INTRA-LIGAND FREE ENERGY PREDICTED BY IDOCK:   -0.11 KCAL/MOL
REMARK 927      BINDING AFFINITY PREDICTED BY RF-SCORE:    0.00 PKD
ROOT
HETATM    1  C   UNL     1     -12.585  10.895  71.315  1.00  0.00    -0.421 C  
HETATM    2  N   UNL     1     -11.939  10.406  70.094  1.00  0.00    -0.280 NA 
HETATM    3  C   UNL     1     -11.728  11.234  69.002  1.00  0.00    -0.342 C  
HETATM    4  C   UNL     1     -11.111  10.898  67.862  1.00  0.00    -0.302 C  
HETATM    5  C   UNL     1     -10.588   9.515  67.748  1.00  0.00    -0.261 C  
HETATM    6  C   UNL     1     -10.167   7.341  68.881  1.00  0.00    -0.196 A  
HETATM    7  F   UNL     1     -11.037   6.134  72.177  1.00  0.00    -0.259 F  
HETATM    8  C   UNL     1     -10.732   8.628  68.931  1.00  0.00    -0.109 A  
HETATM    9  O   UNL     1     -10.040   9.113  66.726  1.00  0.00    -0.232 OA 
HETATM   10  C   UNL     1     -10.268   6.498  69.983  1.00  0.00    -0.219 A  
HETATM   11  C   UNL     1     -11.409   9.096  70.081  1.00  0.00    -0.142 A  
HETATM   12  C   UNL     1     -11.508   8.214  71.170  1.00  0.00    -0.304 A  
HETATM   13  C   UNL     1     -10.939   6.941  71.113  1.00  0.00    -0.251 A  
ENDROOT
BRANCH   4  14
HETATM   14  S   UNL     1     -10.847  12.094  66.576  1.00  0.00    -0.283 S  
HETATM   15  C   UNL     1     -11.974  13.380  67.158  1.00  0.00    -0.366 C  
HETATM   16  O   UNL     1      -9.445  12.611  66.730  1.00  0.00    -0.224 OA 
ENDBRANCH   4  14
TORSDOF 1
ENDMDL
MODEL       82
REMARK 921   NORMALIZED FREE ENERGY PREDICTED BY IDOCK:   -3.97 KCAL/MOL
REMARK 922        TOTAL FREE ENERGY PREDICTED BY IDOCK:   -4.29 KCAL/MOL
REMARK 923 INTER-LIGAND FREE ENERGY PREDICTED BY IDOCK:   -4.19 KCAL/MOL
REMARK 924 INTRA-LIGAND FREE ENERGY PREDICTED BY IDOCK:   -0.10 KCAL/MOL
REMARK 927      BINDING AFFINITY PREDICTED BY RF-SCORE:    0.00 PKD
ROOT
HETATM    1  C   UNL     1     -10.476  10.560  67.869  1.00  0.00    -0.210 C  
HETATM    2  N   UNL     1     -10.607   9.240  68.491  1.00  0.00    -0.206 NA 
HETATM    3  C   UNL     1      -9.995   8.119  67.952  1.00  0.00    -0.182 C  
HETATM    4  C   UNL     1     -10.017   6.882  68.465  1.00  0.00    -0.148 C  
HETATM    5  C   UNL     1     -10.753   6.680  69.736  1.00  0.00    -0.257 C  
HETATM    6  C   UNL     1     -11.983   7.731  71.626  1.00  0.00    -0.330 A  
HETATM    7  F   UNL     1     -12.997  11.148  72.240  1.00  0.00    -0.540 F  
HETATM    8  C   UNL     1     -11.356   7.879  70.377  1.00  0.00    -0.201 A  
HETATM    9  O   UNL     1     -10.854   5.574  70.258  1.00  0.00    -0.289 OA 
HETATM   10  C   UNL     1     -12.536   8.839  72.258  1.00  0.00    -0.460 A  
HETATM   11  C   UNL     1     -11.269   9.135  69.735  1.00  0.00    -0.056 A  
HETATM   12  C   UNL     1     -11.853  10.232  70.391  1.00  0.00    -0.396 A  
HETATM   13  C   UNL     1     -12.468  10.076  71.634  1.00  0.00    -0.418 A  
ENDROOT
BRANCH   4  14
HETATM   14  S   UNL     1      -9.118   5.555  67.699  1.00  0.00    -0.107 S  
HETATM   15  C   UNL     1     -10.389   4.989  66.547  1.00  0.00    -0.284 C  
HETATM   16  O   UNL     1      -8.013   6.174  66.891  1.00  0.00    -0.103 OA 
ENDBRANCH   4  14
TORSDOF 1
ENDMDL
MODEL       83
REMARK 921   NORMALIZED FREE ENERGY PREDICTED BY IDOCK:   -3.95 KCAL/MOL
REMARK 922        TOTAL FREE ENERGY PREDICTED BY IDOCK:   -4.26 KCAL/MOL
REMARK 923 INTER-LIGAND FREE ENERGY PREDICTED BY IDOCK:   -4.16 KCAL/MOL
REMARK 924 INTRA-LIGAND FREE ENERGY PREDICTED BY IDOCK:   -0.10 KCAL/MOL
REMARK 927      BINDING AFFINITY PREDICTED BY RF-SCORE:    0.00 PKD
ROOT
HETATM    1  C   UNL     1     -10.348   9.355  67.005  1.00  0.00    -0.252 C  
HETATM    2  N   UNL     1     -10.144  10.767  66.673  1.00  0.00    -0.210 NA 
HETATM    3  C   UNL     1     -10.960  11.426  65.766  1.00  0.00    -0.194 C  
HETATM    4  C   UNL     1     -10.885  12.719  65.428  1.00  0.00    -0.286 C  
HETATM    5  C   UNL     1      -9.841  13.540  66.088  1.00  0.00    -0.283 C  
HETATM    6  C   UNL     1      -8.064  13.656  67.825  1.00  0.00    -0.173 A  
HETATM    7  F   UNL     1      -6.678  11.144  70.027  1.00  0.00    -0.135 F  
HETATM    8  C   UNL     1      -9.001  12.879  67.121  1.00  0.00    -0.219 A  
HETATM    9  O   UNL     1      -9.679  14.725  65.813  1.00  0.00    -0.325 OA 
HETATM   10  C   UNL     1      -7.279  13.068  68.811  1.00  0.00    -0.082 A  
HETATM   11  C   UNL     1      -9.172  11.502  67.389  1.00  0.00    -0.166 A  
HETATM   12  C   UNL     1      -8.353  10.934  68.379  1.00  0.00    -0.136 A  
HETATM   13  C   UNL     1      -7.429  11.715  69.077  1.00  0.00    -0.051 A  
ENDROOT
BRANCH   4  14
HETATM   14  S   UNL     1     -12.053  13.443  64.303  1.00  0.00    -0.420 S  
HETATM   15  C   UNL     1     -12.525  11.953  63.398  1.00  0.00    -0.463 C  
HETATM   16  O   UNL     1     -13.240  13.879  65.114  1.00  0.00    -0.768 OA 
ENDBRANCH   4  14
TORSDOF 1
ENDMDL
MODEL       84
REMARK 921   NORMALIZED FREE ENERGY PREDICTED BY IDOCK:   -3.95 KCAL/MOL
REMARK 922        TOTAL FREE ENERGY PREDICTED BY IDOCK:   -4.26 KCAL/MOL
REMARK 923 INTER-LIGAND FREE ENERGY PREDICTED BY IDOCK:   -4.18 KCAL/MOL
REMARK 924 INTRA-LIGAND FREE ENERGY PREDICTED BY IDOCK:   -0.08 KCAL/MOL
REMARK 927      BINDING AFFINITY PREDICTED BY RF-SCORE:    0.00 PKD
ROOT
HETATM    1  C   UNL     1     -10.183  10.305  67.999  1.00  0.00    -0.169 C  
HETATM    2  N   UNL     1     -10.611   9.283  68.958  1.00  0.00    -0.219 NA 
HETATM    3  C   UNL     1     -11.394   9.601  70.057  1.00  0.00    -0.195 C  
HETATM    4  C   UNL     1     -11.872   8.741  70.964  1.00  0.00    -0.271 C  
HETATM    5  C   UNL     1     -11.549   7.304  70.782  1.00  0.00    -0.302 C  
HETATM    6  C   UNL     1     -10.532   5.561  69.329  1.00  0.00    -0.336 A  
HETATM    7  F   UNL     1      -8.691   5.785  66.223  1.00  0.00    -0.118 F  
HETATM    8  C   UNL     1     -10.775   6.924  69.572  1.00  0.00    -0.276 A  
HETATM    9  O   UNL     1     -11.917   6.452  71.584  1.00  0.00    -0.323 OA 
HETATM   10  C   UNL     1      -9.828   5.176  68.192  1.00  0.00    -0.204 A  
HETATM   11  C   UNL     1     -10.321   7.928  68.686  1.00  0.00    -0.201 A  
HETATM   12  C   UNL     1      -9.599   7.507  67.556  1.00  0.00    -0.175 A  
HETATM   13  C   UNL     1      -9.367   6.151  67.320  1.00  0.00    -0.114 A  
ENDROOT
BRANCH   4  14
HETATM   14  S   UNL     1     -12.930   9.288  72.281  1.00  0.00    -0.394 S  
HETATM   15  C   UNL     1     -13.132  11.011  71.776  1.00  0.00    -0.449 C  
HETATM   16  O   UNL     1     -14.255   8.602  72.103  1.00  0.00    -0.431 OA 
ENDBRANCH   4  14
TORSDOF 1
ENDMDL
MODEL       85
REMARK 921   NORMALIZED FREE ENERGY PREDICTED BY IDOCK:   -3.94 KCAL/MOL
REMARK 922        TOTAL FREE ENERGY PREDICTED BY IDOCK:   -4.25 KCAL/MOL
REMARK 923 INTER-LIGAND FREE ENERGY PREDICTED BY IDOCK:   -4.14 KCAL/MOL
REMARK 924 INTRA-LIGAND FREE ENERGY PREDICTED BY IDOCK:   -0.11 KCAL/MOL
REMARK 927      BINDING AFFINITY PREDICTED BY RF-SCORE:    0.00 PKD
ROOT
HETATM    1  C   UNL     1     -10.215   6.575  74.114  1.00  0.00    -0.358 C  
HETATM    2  N   UNL     1     -10.299   7.533  73.009  1.00  0.00    -0.289 NA 
HETATM    3  C   UNL     1     -11.496   8.144  72.667  1.00  0.00    -0.387 C  
HETATM    4  C   UNL     1     -11.670   9.061  71.707  1.00  0.00    -0.369 C  
HETATM    5  C   UNL     1     -10.475   9.482  70.937  1.00  0.00    -0.312 C  
HETATM    6  C   UNL     1      -8.004   9.348  70.677  1.00  0.00    -0.189 A  
HETATM    7  F   UNL     1      -5.502   7.386  72.400  1.00  0.00    -0.036 F  
HETATM    8  C   UNL     1      -9.165   8.900  71.332  1.00  0.00    -0.328 A  
HETATM    9  O   UNL     1     -10.549  10.291  70.017  1.00  0.00    -0.271 OA 
HETATM   10  C   UNL     1      -6.763   8.836  71.041  1.00  0.00    -0.070 A  
HETATM   11  C   UNL     1      -9.109   7.934  72.362  1.00  0.00    -0.172 A  
HETATM   12  C   UNL     1      -7.842   7.425  72.695  1.00  0.00    -0.110 A  
HETATM   13  C   UNL     1      -6.695   7.880  72.043  1.00  0.00    -0.061 A  
ENDROOT
BRANCH   4  14
HETATM   14  S   UNL     1     -13.255   9.813  71.434  1.00  0.00    -0.379 S  
HETATM   15  C   UNL     1     -14.238   8.809  72.569  1.00  0.00    -0.314 C  
HETATM   16  O   UNL     1     -13.191  11.205  71.995  1.00  0.00    -0.493 OA 
ENDBRANCH   4  14
TORSDOF 1
ENDMDL
MODEL       86
REMARK 921   NORMALIZED FREE ENERGY PREDICTED BY IDOCK:   -3.92 KCAL/MOL
REMARK 922        TOTAL FREE ENERGY PREDICTED BY IDOCK:   -4.23 KCAL/MOL
REMARK 923 INTER-LIGAND FREE ENERGY PREDICTED BY IDOCK:   -4.39 KCAL/MOL
REMARK 924 INTRA-LIGAND FREE ENERGY PREDICTED BY IDOCK:    0.16 KCAL/MOL
REMARK 927      BINDING AFFINITY PREDICTED BY RF-SCORE:    0.00 PKD
ROOT
HETATM    1  C   UNL     1     -12.728  13.302  65.083  1.00  0.00    -0.402 C  
HETATM    2  N   UNL     1     -11.620  13.597  65.996  1.00  0.00    -0.326 NA 
HETATM    3  C   UNL     1     -11.643  14.703  66.831  1.00  0.00    -0.362 C  
HETATM    4  C   UNL     1     -10.706  15.037  67.728  1.00  0.00    -0.278 C  
HETATM    5  C   UNL     1      -9.532  14.139  67.859  1.00  0.00    -0.211 C  
HETATM    6  C   UNL     1      -8.461  11.994  67.199  1.00  0.00    -0.180 A  
HETATM    7  F   UNL     1      -9.430   9.447  64.821  1.00  0.00    -0.305 F  
HETATM    8  C   UNL     1      -9.518  12.905  67.030  1.00  0.00    -0.235 A  
HETATM    9  O   UNL     1      -8.611  14.387  68.630  1.00  0.00    -0.171 OA 
HETATM   10  C   UNL     1      -8.433  10.821  66.452  1.00  0.00    -0.158 A  
HETATM   11  C   UNL     1     -10.566  12.664  66.113  1.00  0.00    -0.258 A  
HETATM   12  C   UNL     1     -10.500  11.478  65.362  1.00  0.00    -0.333 A  
HETATM   13  C   UNL     1      -9.450  10.576  65.541  1.00  0.00    -0.216 A  
ENDROOT
BRANCH   4  14
HETATM   14  S   UNL     1     -10.910  16.449  68.786  1.00  0.00    -0.349 S  
HETATM   15  C   UNL     1     -11.060  15.590  70.367  1.00  0.00    -0.337 C  
HETATM   16  O   UNL     1      -9.604  17.192  68.792  1.00  0.00    -0.266 OA 
ENDBRANCH   4  14
TORSDOF 1
ENDMDL
MODEL       87
REMARK 921   NORMALIZED FREE ENERGY PREDICTED BY IDOCK:   -3.91 KCAL/MOL
REMARK 922        TOTAL FREE ENERGY PREDICTED BY IDOCK:   -4.22 KCAL/MOL
REMARK 923 INTER-LIGAND FREE ENERGY PREDICTED BY IDOCK:   -4.38 KCAL/MOL
REMARK 924 INTRA-LIGAND FREE ENERGY PREDICTED BY IDOCK:    0.16 KCAL/MOL
REMARK 927      BINDING AFFINITY PREDICTED BY RF-SCORE:    0.00 PKD
ROOT
HETATM    1  C   UNL     1     -12.099   6.781  71.936  1.00  0.00    -0.334 C  
HETATM    2  N   UNL     1     -11.357   7.591  70.966  1.00  0.00    -0.268 NA 
HETATM    3  C   UNL     1     -10.476   7.016  70.063  1.00  0.00    -0.215 C  
HETATM    4  C   UNL     1      -9.785   7.658  69.113  1.00  0.00    -0.164 C  
HETATM    5  C   UNL     1      -9.982   9.124  68.996  1.00  0.00    -0.184 C  
HETATM    6  C   UNL     1     -11.248  11.127  69.751  1.00  0.00    -0.318 A  
HETATM    7  F   UNL     1     -13.755  11.568  72.320  1.00  0.00    -0.453 F  
HETATM    8  C   UNL     1     -10.978   9.756  69.900  1.00  0.00    -0.299 A  
HETATM    9  O   UNL     1      -9.364   9.796  68.177  1.00  0.00    -0.129 OA 
HETATM   10  C   UNL     1     -12.191  11.740  70.569  1.00  0.00    -0.438 A  
HETATM   11  C   UNL     1     -11.644   8.971  70.869  1.00  0.00    -0.290 A  
HETATM   12  C   UNL     1     -12.578   9.623  71.691  1.00  0.00    -0.493 A  
HETATM   13  C   UNL     1     -12.844  10.984  71.531  1.00  0.00    -0.450 A  
ENDROOT
BRANCH   4  14
HETATM   14  S   UNL     1      -8.747   6.773  67.976  1.00  0.00    -0.116 S  
HETATM   15  C   UNL     1      -9.783   6.898  66.501  1.00  0.00    -0.124 C  
HETATM   16  O   UNL     1      -7.523   7.613  67.745  1.00  0.00    -0.102 OA 
ENDBRANCH   4  14
TORSDOF 1
ENDMDL
MODEL       88
REMARK 921   NORMALIZED FREE ENERGY PREDICTED BY IDOCK:   -3.89 KCAL/MOL
REMARK 922        TOTAL FREE ENERGY PREDICTED BY IDOCK:   -4.20 KCAL/MOL
REMARK 923 INTER-LIGAND FREE ENERGY PREDICTED BY IDOCK:   -4.36 KCAL/MOL
REMARK 924 INTRA-LIGAND FREE ENERGY PREDICTED BY IDOCK:    0.16 KCAL/MOL
REMARK 927      BINDING AFFINITY PREDICTED BY RF-SCORE:    0.00 PKD
ROOT
HETATM    1  C   UNL     1     -10.453  16.886  65.584  1.00  0.00    -0.238 C  
HETATM    2  N   UNL     1      -9.676  15.743  66.069  1.00  0.00    -0.318 NA 
HETATM    3  C   UNL     1      -8.452  15.911  66.698  1.00  0.00    -0.287 C  
HETATM    4  C   UNL     1      -7.687  14.941  67.214  1.00  0.00    -0.197 C  
HETATM    5  C   UNL     1      -8.192  13.549  67.122  1.00  0.00    -0.112 C  
HETATM    6  C   UNL     1     -10.076  12.048  66.503  1.00  0.00    -0.224 A  
HETATM    7  F   UNL     1     -13.267  12.707  64.932  1.00  0.00    -0.487 F  
HETATM    8  C   UNL     1      -9.537  13.346  66.522  1.00  0.00    -0.277 A  
HETATM    9  O   UNL     1      -7.541  12.596  67.538  1.00  0.00    -0.137 OA 
HETATM   10  C   UNL     1     -11.342  11.833  65.967  1.00  0.00    -0.335 A  
HETATM   11  C   UNL     1     -10.249  14.453  66.006  1.00  0.00    -0.315 A  
HETATM   12  C   UNL     1     -11.517  14.199  65.456  1.00  0.00    -0.324 A  
HETATM   13  C   UNL     1     -12.047  12.908  65.448  1.00  0.00    -0.454 A  
ENDROOT
BRANCH   4  14
HETATM   14  S   UNL     1      -6.172  15.318  68.060  1.00  0.00    -0.156 S  
HETATM   15  C   UNL     1      -6.642  14.785  69.720  1.00  0.00    -0.169 C  
HETATM   16  O   UNL     1      -5.129  14.364  67.552  1.00  0.00    -0.327 OA 
ENDBRANCH   4  14
TORSDOF 1
ENDMDL
MODEL       89
REMARK 921   NORMALIZED FREE ENERGY PREDICTED BY IDOCK:   -3.89 KCAL/MOL
REMARK 922        TOTAL FREE ENERGY PREDICTED BY IDOCK:   -4.20 KCAL/MOL
REMARK 923 INTER-LIGAND FREE ENERGY PREDICTED BY IDOCK:   -4.09 KCAL/MOL
REMARK 924 INTRA-LIGAND FREE ENERGY PREDICTED BY IDOCK:   -0.11 KCAL/MOL
REMARK 927      BINDING AFFINITY PREDICTED BY RF-SCORE:    0.00 PKD
ROOT
HETATM    1  C   UNL     1     -11.619   8.791  72.078  1.00  0.00    -0.366 C  
HETATM    2  N   UNL     1     -11.482   9.356  70.733  1.00  0.00    -0.283 NA 
HETATM    3  C   UNL     1     -11.730  10.696  70.480  1.00  0.00    -0.356 C  
HETATM    4  C   UNL     1     -11.593  11.318  69.302  1.00  0.00    -0.322 C  
HETATM    5  C   UNL     1     -11.120  10.509  68.152  1.00  0.00    -0.287 C  
HETATM    6  C   UNL     1     -10.240   8.323  67.359  1.00  0.00    -0.326 A  
HETATM    7  F   UNL     1      -9.739   5.167  69.054  1.00  0.00    -0.157 F  
HETATM    8  C   UNL     1     -10.774   9.087  68.411  1.00  0.00    -0.145 A  
HETATM    9  O   UNL     1     -10.999  10.990  67.030  1.00  0.00    -0.277 OA 
HETATM   10  C   UNL     1      -9.887   6.995  67.578  1.00  0.00    -0.186 A  
HETATM   11  C   UNL     1     -10.966   8.542  69.700  1.00  0.00    -0.086 A  
HETATM   12  C   UNL     1     -10.615   7.194  69.885  1.00  0.00    -0.246 A  
HETATM   13  C   UNL     1     -10.080   6.444  68.836  1.00  0.00    -0.162 A  
ENDROOT
BRANCH   4  14
HETATM   14  S   UNL     1     -11.876  13.064  69.148  1.00  0.00    -0.289 S  
HETATM   15  C   UNL     1     -12.355  13.419  70.852  1.00  0.00    -0.353 C  
HETATM   16  O   UNL     1     -10.542  13.712  68.905  1.00  0.00    -0.245 OA 
ENDBRANCH   4  14
TORSDOF 1
ENDMDL
MODEL       90
REMARK 921   NORMALIZED FREE ENERGY PREDICTED BY IDOCK:   -3.87 KCAL/MOL
REMARK 922        TOTAL FREE ENERGY PREDICTED BY IDOCK:   -4.18 KCAL/MOL
REMARK 923 INTER-LIGAND FREE ENERGY PREDICTED BY IDOCK:   -4.11 KCAL/MOL
REMARK 924 INTRA-LIGAND FREE ENERGY PREDICTED BY IDOCK:   -0.06 KCAL/MOL
REMARK 927      BINDING AFFINITY PREDICTED BY RF-SCORE:    0.00 PKD
ROOT
HETATM    1  C   UNL     1      -7.922  12.450  68.051  1.00  0.00    -0.155 C  
HETATM    2  N   UNL     1      -8.716  12.178  66.850  1.00  0.00    -0.192 NA 
HETATM    3  C   UNL     1      -8.353  11.191  65.947  1.00  0.00    -0.076 C  
HETATM    4  C   UNL     1      -9.029  10.836  64.848  1.00  0.00    -0.184 C  
HETATM    5  C   UNL     1     -10.296  11.553  64.562  1.00  0.00    -0.302 C  
HETATM    6  C   UNL     1     -11.991  13.193  65.352  1.00  0.00    -0.448 A  
HETATM    7  F   UNL     1     -12.102  15.328  68.269  1.00  0.00    -0.329 F  
HETATM    8  C   UNL     1     -10.750  12.564  65.553  1.00  0.00    -0.303 A  
HETATM    9  O   UNL     1     -10.962  11.316  63.559  1.00  0.00    -0.381 OA 
HETATM   10  C   UNL     1     -12.450  14.128  66.274  1.00  0.00    -0.395 A  
HETATM   11  C   UNL     1      -9.944  12.855  66.677  1.00  0.00    -0.251 A  
HETATM   12  C   UNL     1     -10.429  13.815  67.581  1.00  0.00    -0.242 A  
HETATM   13  C   UNL     1     -11.664  14.431  67.377  1.00  0.00    -0.397 A  
ENDROOT
BRANCH   4  14
HETATM   14  S   UNL     1      -8.477   9.495  63.823  1.00  0.00    -0.209 S  
HETATM   15  C   UNL     1      -7.876  10.452  62.414  1.00  0.00    -0.156 C  
HETATM   16  O   UNL     1      -7.284   8.880  64.499  1.00  0.00    -0.094 OA 
ENDBRANCH   4  14
TORSDOF 1
ENDMDL
MODEL       91
REMARK 921   NORMALIZED FREE ENERGY PREDICTED BY IDOCK:   -3.84 KCAL/MOL
REMARK 922        TOTAL FREE ENERGY PREDICTED BY IDOCK:   -4.15 KCAL/MOL
REMARK 923 INTER-LIGAND FREE ENERGY PREDICTED BY IDOCK:   -4.12 KCAL/MOL
REMARK 924 INTRA-LIGAND FREE ENERGY PREDICTED BY IDOCK:   -0.03 KCAL/MOL
REMARK 927      BINDING AFFINITY PREDICTED BY RF-SCORE:    0.00 PKD
ROOT
HETATM    1  C   UNL     1     -10.559  18.111  67.032  1.00  0.00    -0.328 C  
HETATM    2  N   UNL     1     -10.083  16.726  67.016  1.00  0.00    -0.270 NA 
HETATM    3  C   UNL     1     -10.900  15.682  66.610  1.00  0.00    -0.266 C  
HETATM    4  C   UNL     1     -10.550  14.393  66.517  1.00  0.00    -0.296 C  
HETATM    5  C   UNL     1      -9.155  14.035  66.870  1.00  0.00    -0.248 C  
HETATM    6  C   UNL     1      -6.885  14.843  67.489  1.00  0.00    -0.189 A  
HETATM    7  F   UNL     1      -5.616  18.154  68.201  1.00  0.00    -0.153 F  
HETATM    8  C   UNL     1      -8.235  15.144  67.236  1.00  0.00    -0.234 A  
HETATM    9  O   UNL     1      -8.759  12.874  66.847  1.00  0.00    -0.209 OA 
HETATM   10  C   UNL     1      -5.997  15.864  67.813  1.00  0.00    -0.167 A  
HETATM   11  C   UNL     1      -8.724  16.468  67.303  1.00  0.00    -0.188 A  
HETATM   12  C   UNL     1      -7.806  17.474  67.649  1.00  0.00    -0.207 A  
HETATM   13  C   UNL     1      -6.466  17.166  67.892  1.00  0.00    -0.148 A  
ENDROOT
BRANCH   4  14
HETATM   14  S   UNL     1     -11.688  13.174  65.905  1.00  0.00    -0.406 S  
HETATM   15  C   UNL     1     -11.978  12.270  67.442  1.00  0.00    -0.133 C  
HETATM   16  O   UNL     1     -12.960  13.892  65.551  1.00  0.00    -0.673 OA 
ENDBRANCH   4  14
TORSDOF 1
ENDMDL
MODEL       92
REMARK 921   NORMALIZED FREE ENERGY PREDICTED BY IDOCK:   -3.76 KCAL/MOL
REMARK 922        TOTAL FREE ENERGY PREDICTED BY IDOCK:   -4.07 KCAL/MOL
REMARK 923 INTER-LIGAND FREE ENERGY PREDICTED BY IDOCK:   -3.97 KCAL/MOL
REMARK 924 INTRA-LIGAND FREE ENERGY PREDICTED BY IDOCK:   -0.10 KCAL/MOL
REMARK 927      BINDING AFFINITY PREDICTED BY RF-SCORE:    0.00 PKD
ROOT
HETATM    1  C   UNL     1      -9.728  15.367  68.594  1.00  0.00    -0.210 C  
HETATM    2  N   UNL     1      -9.432  14.124  67.878  1.00  0.00    -0.205 NA 
HETATM    3  C   UNL     1      -8.323  13.353  68.189  1.00  0.00    -0.164 C  
HETATM    4  C   UNL     1      -7.987  12.185  67.627  1.00  0.00    -0.157 C  
HETATM    5  C   UNL     1      -8.887  11.648  66.577  1.00  0.00    -0.188 C  
HETATM    6  C   UNL     1     -11.037  11.882  65.349  1.00  0.00    -0.360 A  
HETATM    7  F   UNL     1     -13.591  14.442  65.427  1.00  0.00    -0.311 F  
HETATM    8  C   UNL     1     -10.124  12.415  66.276  1.00  0.00    -0.257 A  
HETATM    9  O   UNL     1      -8.638  10.602  65.986  1.00  0.00    -0.160 OA 
HETATM   10  C   UNL     1     -12.213  12.568  65.064  1.00  0.00    -0.519 A  
HETATM   11  C   UNL     1     -10.367  13.641  66.935  1.00  0.00    -0.262 A  
HETATM   12  C   UNL     1     -11.555  14.317  66.613  1.00  0.00    -0.397 A  
HETATM   13  C   UNL     1     -12.459  13.778  65.696  1.00  0.00    -0.503 A  
ENDROOT
BRANCH   4  14
HETATM   14  S   UNL     1      -6.571  11.271  68.185  1.00  0.00    -0.059 S  
HETATM   15  C   UNL     1      -5.375  11.836  66.956  1.00  0.00    -0.122 C  
HETATM   16  O   UNL     1      -6.166  11.845  69.513  1.00  0.00    -0.093 OA 
ENDBRANCH   4  14
TORSDOF 1
ENDMDL
MODEL       93
REMARK 921   NORMALIZED FREE ENERGY PREDICTED BY IDOCK:   -3.75 KCAL/MOL
REMARK 922        TOTAL FREE ENERGY PREDICTED BY IDOCK:   -4.05 KCAL/MOL
REMARK 923 INTER-LIGAND FREE ENERGY PREDICTED BY IDOCK:   -3.94 KCAL/MOL
REMARK 924 INTRA-LIGAND FREE ENERGY PREDICTED BY IDOCK:   -0.11 KCAL/MOL
REMARK 927      BINDING AFFINITY PREDICTED BY RF-SCORE:    0.00 PKD
ROOT
HETATM    1  C   UNL     1     -11.837  14.165  68.668  1.00  0.00    -0.348 C  
HETATM    2  N   UNL     1     -10.418  14.313  68.335  1.00  0.00    -0.242 NA 
HETATM    3  C   UNL     1      -9.557  13.226  68.325  1.00  0.00    -0.221 C  
HETATM    4  C   UNL     1      -8.260  13.246  67.994  1.00  0.00    -0.162 C  
HETATM    5  C   UNL     1      -7.678  14.548  67.586  1.00  0.00    -0.179 C  
HETATM    6  C   UNL     1      -8.088  16.941  67.045  1.00  0.00    -0.228 A  
HETATM    7  F   UNL     1     -11.071  18.977  67.231  1.00  0.00    -0.517 F  
HETATM    8  C   UNL     1      -8.594  15.716  67.514  1.00  0.00    -0.185 A  
HETATM    9  O   UNL     1      -6.490  14.665  67.300  1.00  0.00    -0.298 OA 
HETATM   10  C   UNL     1      -8.929  18.045  66.947  1.00  0.00    -0.268 A  
HETATM   11  C   UNL     1      -9.948  15.570  67.893  1.00  0.00    -0.218 A  
HETATM   12  C   UNL     1     -10.767  16.708  67.798  1.00  0.00    -0.327 A  
HETATM   13  C   UNL     1     -10.257  17.918  67.326  1.00  0.00    -0.358 A  
ENDROOT
BRANCH   4  14
HETATM   14  S   UNL     1      -7.299  11.754  67.955  1.00  0.00    -0.100 S  
HETATM   15  C   UNL     1      -8.471  10.648  68.771  1.00  0.00    -0.149 C  
HETATM   16  O   UNL     1      -7.195  11.328  66.518  1.00  0.00    -0.139 OA 
ENDBRANCH   4  14
TORSDOF 1
ENDMDL
MODEL       94
REMARK 921   NORMALIZED FREE ENERGY PREDICTED BY IDOCK:   -3.74 KCAL/MOL
REMARK 922        TOTAL FREE ENERGY PREDICTED BY IDOCK:   -4.05 KCAL/MOL
REMARK 923 INTER-LIGAND FREE ENERGY PREDICTED BY IDOCK:   -3.95 KCAL/MOL
REMARK 924 INTRA-LIGAND FREE ENERGY PREDICTED BY IDOCK:   -0.09 KCAL/MOL
REMARK 927      BINDING AFFINITY PREDICTED BY RF-SCORE:    0.00 PKD
ROOT
HETATM    1  C   UNL     1     -12.150  15.365  69.060  1.00  0.00    -0.226 C  
HETATM    2  N   UNL     1     -10.877  15.642  68.389  1.00  0.00    -0.277 NA 
HETATM    3  C   UNL     1     -10.463  16.938  68.122  1.00  0.00    -0.350 C  
HETATM    4  C   UNL     1      -9.305  17.298  67.555  1.00  0.00    -0.236 C  
HETATM    5  C   UNL     1      -8.360  16.217  67.183  1.00  0.00    -0.191 C  
HETATM    6  C   UNL     1      -7.827  13.789  67.266  1.00  0.00    -0.115 A  
HETATM    7  F   UNL     1      -9.701  10.951  68.495  1.00  0.00    -0.155 F  
HETATM    8  C   UNL     1      -8.743  14.823  67.527  1.00  0.00    -0.195 A  
HETATM    9  O   UNL     1      -7.291  16.455  66.629  1.00  0.00    -0.229 OA 
HETATM   10  C   UNL     1      -8.151  12.477  67.597  1.00  0.00    -0.171 A  
HETATM   11  C   UNL     1      -9.999  14.567  68.123  1.00  0.00    -0.220 A  
HETATM   12  C   UNL     1     -10.303  13.230  68.429  1.00  0.00    -0.254 A  
HETATM   13  C   UNL     1      -9.385  12.211  68.172  1.00  0.00    -0.204 A  
ENDROOT
BRANCH   4  14
HETATM   14  S   UNL     1      -8.879  19.009  67.345  1.00  0.00    -0.291 S  
HETATM   15  C   UNL     1     -10.543  19.689  67.168  1.00  0.00    -0.487 C  
HETATM   16  O   UNL     1      -8.325  19.494  68.654  1.00  0.00    -0.354 OA 
ENDBRANCH   4  14
TORSDOF 1
ENDMDL
MODEL       95
REMARK 921   NORMALIZED FREE ENERGY PREDICTED BY IDOCK:   -3.74 KCAL/MOL
REMARK 922        TOTAL FREE ENERGY PREDICTED BY IDOCK:   -4.04 KCAL/MOL
REMARK 923 INTER-LIGAND FREE ENERGY PREDICTED BY IDOCK:   -3.93 KCAL/MOL
REMARK 924 INTRA-LIGAND FREE ENERGY PREDICTED BY IDOCK:   -0.11 KCAL/MOL
REMARK 927      BINDING AFFINITY PREDICTED BY RF-SCORE:    0.00 PKD
ROOT
HETATM    1  C   UNL     1     -13.251  10.276  71.456  1.00  0.00    -0.386 C  
HETATM    2  N   UNL     1     -12.104   9.820  70.667  1.00  0.00    -0.259 NA 
HETATM    3  C   UNL     1     -11.406  10.682  69.835  1.00  0.00    -0.313 C  
HETATM    4  C   UNL     1     -10.323  10.378  69.109  1.00  0.00    -0.222 C  
HETATM    5  C   UNL     1      -9.803   8.992  69.203  1.00  0.00    -0.175 C  
HETATM    6  C   UNL     1      -9.959   6.774  70.318  1.00  0.00    -0.192 A  
HETATM    7  F   UNL     1     -12.277   5.466  72.767  1.00  0.00    -0.333 F  
HETATM    8  C   UNL     1     -10.486   8.066  70.144  1.00  0.00    -0.225 A  
HETATM    9  O   UNL     1      -8.837   8.617  68.546  1.00  0.00    -0.140 OA 
HETATM   10  C   UNL     1     -10.565   5.895  71.209  1.00  0.00    -0.311 A  
HETATM   11  C   UNL     1     -11.626   8.504  70.856  1.00  0.00    -0.263 A  
HETATM   12  C   UNL     1     -12.224   7.586  71.735  1.00  0.00    -0.345 A  
HETATM   13  C   UNL     1     -11.691   6.308  71.906  1.00  0.00    -0.316 A  
ENDROOT
BRANCH   4  14
HETATM   14  S   UNL     1      -9.488  11.613  68.145  1.00  0.00    -0.195 S  
HETATM   15  C   UNL     1     -10.736  12.916  68.222  1.00  0.00    -0.244 C  
HETATM   16  O   UNL     1      -8.300  12.072  68.942  1.00  0.00    -0.012 OA 
ENDBRANCH   4  14
TORSDOF 1
ENDMDL
MODEL       96
REMARK 921   NORMALIZED FREE ENERGY PREDICTED BY IDOCK:   -3.70 KCAL/MOL
REMARK 922        TOTAL FREE ENERGY PREDICTED BY IDOCK:   -4.00 KCAL/MOL
REMARK 923 INTER-LIGAND FREE ENERGY PREDICTED BY IDOCK:   -4.19 KCAL/MOL
REMARK 924 INTRA-LIGAND FREE ENERGY PREDICTED BY IDOCK:    0.20 KCAL/MOL
REMARK 927      BINDING AFFINITY PREDICTED BY RF-SCORE:    0.00 PKD
ROOT
HETATM    1  C   UNL     1     -11.681  15.507  64.288  1.00  0.00    -0.190 C  
HETATM    2  N   UNL     1     -10.905  15.253  65.505  1.00  0.00    -0.352 NA 
HETATM    3  C   UNL     1     -10.555  13.967  65.888  1.00  0.00    -0.301 C  
HETATM    4  C   UNL     1      -9.816  13.632  66.952  1.00  0.00    -0.261 C  
HETATM    5  C   UNL     1      -9.306  14.733  67.805  1.00  0.00    -0.199 C  
HETATM    6  C   UNL     1      -9.055  17.188  68.118  1.00  0.00    -0.247 A  
HETATM    7  F   UNL     1     -10.322  20.000  66.230  1.00  0.00    -0.498 F  
HETATM    8  C   UNL     1      -9.601  16.125  67.377  1.00  0.00    -0.229 A  
HETATM    9  O   UNL     1      -8.649  14.515  68.819  1.00  0.00    -0.168 OA 
HETATM   10  C   UNL     1      -9.297  18.500  67.727  1.00  0.00    -0.308 A  
HETATM   11  C   UNL     1     -10.399  16.353  66.233  1.00  0.00    -0.329 A  
HETATM   12  C   UNL     1     -10.639  17.690  65.874  1.00  0.00    -0.203 A  
HETATM   13  C   UNL     1     -10.087  18.738  66.613  1.00  0.00    -0.378 A  
ENDROOT
BRANCH   4  14
HETATM   14  S   UNL     1      -9.385  11.940  67.274  1.00  0.00    -0.181 S  
HETATM   15  C   UNL     1      -7.587  12.095  67.208  1.00  0.00    -0.156 C  
HETATM   16  O   UNL     1      -9.765  11.646  68.698  1.00  0.00    -0.192 OA 
ENDBRANCH   4  14
TORSDOF 1
ENDMDL
MODEL       97
REMARK 921   NORMALIZED FREE ENERGY PREDICTED BY IDOCK:   -3.70 KCAL/MOL
REMARK 922        TOTAL FREE ENERGY PREDICTED BY IDOCK:   -4.00 KCAL/MOL
REMARK 923 INTER-LIGAND FREE ENERGY PREDICTED BY IDOCK:   -3.88 KCAL/MOL
REMARK 924 INTRA-LIGAND FREE ENERGY PREDICTED BY IDOCK:   -0.11 KCAL/MOL
REMARK 927      BINDING AFFINITY PREDICTED BY RF-SCORE:    0.00 PKD
ROOT
HETATM    1  C   UNL     1      -8.723  12.486  66.923  1.00  0.00    -0.182 C  
HETATM    2  N   UNL     1      -9.618  11.827  67.878  1.00  0.00    -0.181 NA 
HETATM    3  C   UNL     1      -9.529  10.468  68.138  1.00  0.00    -0.151 C  
HETATM    4  C   UNL     1     -10.266   9.781  69.019  1.00  0.00    -0.203 C  
HETATM    5  C   UNL     1     -11.269  10.536  69.809  1.00  0.00    -0.298 C  
HETATM    6  C   UNL     1     -12.214  12.758  70.406  1.00  0.00    -0.371 A  
HETATM    7  F   UNL     1     -11.537  16.082  69.151  1.00  0.00    -0.314 F  
HETATM    8  C   UNL     1     -11.334  12.007  69.607  1.00  0.00    -0.249 A  
HETATM    9  O   UNL     1     -12.010   9.981  70.614  1.00  0.00    -0.285 OA 
HETATM   10  C   UNL     1     -12.280  14.139  70.253  1.00  0.00    -0.416 A  
HETATM   11  C   UNL     1     -10.504  12.620  68.641  1.00  0.00    -0.205 A  
HETATM   12  C   UNL     1     -10.607  14.014  68.499  1.00  0.00    -0.260 A  
HETATM   13  C   UNL     1     -11.479  14.752  69.301  1.00  0.00    -0.296 A  
ENDROOT
BRANCH   4  14
HETATM   14  S   UNL     1      -9.985   8.050  69.299  1.00  0.00    -0.196 S  
HETATM   15  C   UNL     1      -8.895   7.717  67.898  1.00  0.00    -0.123 C  
HETATM   16  O   UNL     1      -9.167   7.928  70.553  1.00  0.00    -0.156 OA 
ENDBRANCH   4  14
TORSDOF 1
ENDMDL
MODEL       98
REMARK 921   NORMALIZED FREE ENERGY PREDICTED BY IDOCK:   -3.70 KCAL/MOL
REMARK 922        TOTAL FREE ENERGY PREDICTED BY IDOCK:   -3.99 KCAL/MOL
REMARK 923 INTER-LIGAND FREE ENERGY PREDICTED BY IDOCK:   -4.09 KCAL/MOL
REMARK 924 INTRA-LIGAND FREE ENERGY PREDICTED BY IDOCK:    0.09 KCAL/MOL
REMARK 927      BINDING AFFINITY PREDICTED BY RF-SCORE:    0.00 PKD
ROOT
HETATM    1  C   UNL     1      -6.724  14.565  67.709  1.00  0.00    -0.174 C  
HETATM    2  N   UNL     1      -7.687  15.628  68.010  1.00  0.00    -0.123 NA 
HETATM    3  C   UNL     1      -7.328  16.967  67.965  1.00  0.00    -0.171 C  
HETATM    4  C   UNL     1      -8.138  18.011  68.179  1.00  0.00    -0.273 C  
HETATM    5  C   UNL     1      -9.561  17.722  68.483  1.00  0.00    -0.322 C  
HETATM    6  C   UNL     1     -11.352  16.005  68.661  1.00  0.00    -0.383 A  
HETATM    7  F   UNL     1     -11.272  12.401  68.369  1.00  0.00    -0.233 F  
HETATM    8  C   UNL     1      -9.991  16.299  68.464  1.00  0.00    -0.234 A  
HETATM    9  O   UNL     1     -10.365  18.616  68.727  1.00  0.00    -0.334 OA 
HETATM   10  C   UNL     1     -11.785  14.683  68.626  1.00  0.00    -0.362 A  
HETATM   11  C   UNL     1      -9.039  15.282  68.228  1.00  0.00    -0.181 A  
HETATM   12  C   UNL     1      -9.506  13.957  68.216  1.00  0.00    -0.217 A  
HETATM   13  C   UNL     1     -10.859  13.674  68.406  1.00  0.00    -0.256 A  
ENDROOT
BRANCH   4  14
HETATM   14  S   UNL     1      -7.551  19.678  68.012  1.00  0.00    -0.304 S  
HETATM   15  C   UNL     1      -6.182  19.376  66.874  1.00  0.00    -0.180 C  
HETATM   16  O   UNL     1      -8.603  20.448  67.265  1.00  0.00    -0.341 OA 
ENDBRANCH   4  14
TORSDOF 1
ENDMDL
MODEL       99
REMARK 921   NORMALIZED FREE ENERGY PREDICTED BY IDOCK:   -3.69 KCAL/MOL
REMARK 922        TOTAL FREE ENERGY PREDICTED BY IDOCK:   -3.99 KCAL/MOL
REMARK 923 INTER-LIGAND FREE ENERGY PREDICTED BY IDOCK:   -3.90 KCAL/MOL
REMARK 924 INTRA-LIGAND FREE ENERGY PREDICTED BY IDOCK:   -0.08 KCAL/MOL
REMARK 927      BINDING AFFINITY PREDICTED BY RF-SCORE:    0.00 PKD
ROOT
HETATM    1  C   UNL     1      -8.680   8.422  72.220  1.00  0.00    -0.209 C  
HETATM    2  N   UNL     1      -9.541   9.051  71.216  1.00  0.00    -0.284 NA 
HETATM    3  C   UNL     1     -10.873   9.337  71.477  1.00  0.00    -0.372 C  
HETATM    4  C   UNL     1     -11.729   9.946  70.648  1.00  0.00    -0.323 C  
HETATM    5  C   UNL     1     -11.214  10.371  69.323  1.00  0.00    -0.248 C  
HETATM    6  C   UNL     1      -9.239  10.619  67.832  1.00  0.00    -0.150 A  
HETATM    7  F   UNL     1      -5.786   9.614  68.219  1.00  0.00    -0.043 F  
HETATM    8  C   UNL     1      -9.772  10.146  69.044  1.00  0.00    -0.212 A  
HETATM    9  O   UNL     1     -11.938  10.905  68.489  1.00  0.00    -0.520 OA 
HETATM   10  C   UNL     1      -7.887  10.441  67.555  1.00  0.00    -0.106 A  
HETATM   11  C   UNL     1      -8.967   9.487  70.001  1.00  0.00    -0.223 A  
HETATM   12  C   UNL     1      -7.610   9.308  69.683  1.00  0.00    -0.084 A  
HETATM   13  C   UNL     1      -7.088   9.786  68.480  1.00  0.00    -0.068 A  
ENDROOT
BRANCH   4  14
HETATM   14  S   UNL     1     -13.391  10.315  71.153  1.00  0.00    -0.148 S  
HETATM   15  C   UNL     1     -13.744   8.800  72.071  1.00  0.00    -0.443 C  
HETATM   16  O   UNL     1     -13.316  11.442  72.144  1.00  0.00    -0.469 OA 
ENDBRANCH   4  14
TORSDOF 1
ENDMDL
MODEL      100
REMARK 921   NORMALIZED FREE ENERGY PREDICTED BY IDOCK:   -3.65 KCAL/MOL
REMARK 922        TOTAL FREE ENERGY PREDICTED BY IDOCK:   -3.95 KCAL/MOL
REMARK 923 INTER-LIGAND FREE ENERGY PREDICTED BY IDOCK:   -3.85 KCAL/MOL
REMARK 924 INTRA-LIGAND FREE ENERGY PREDICTED BY IDOCK:   -0.10 KCAL/MOL
REMARK 927      BINDING AFFINITY PREDICTED BY RF-SCORE:    0.00 PKD
ROOT
HETATM    1  C   UNL     1      -8.225  13.887  68.409  1.00  0.00    -0.153 C  
HETATM    2  N   UNL     1      -8.701  12.715  67.670  1.00  0.00    -0.168 NA 
HETATM    3  C   UNL     1      -8.479  11.426  68.131  1.00  0.00    -0.152 C  
HETATM    4  C   UNL     1      -8.907  10.295  67.556  1.00  0.00    -0.128 C  
HETATM    5  C   UNL     1      -9.707  10.419  66.313  1.00  0.00    -0.205 C  
HETATM    6  C   UNL     1     -10.855  11.937  64.711  1.00  0.00    -0.359 A  
HETATM    7  F   UNL     1     -10.998  15.544  64.489  1.00  0.00    -0.397 F  
HETATM    8  C   UNL     1     -10.025  11.791  65.837  1.00  0.00    -0.266 A  
HETATM    9  O   UNL     1     -10.110   9.435  65.702  1.00  0.00    -0.261 OA 
HETATM   10  C   UNL     1     -11.187  13.209  64.257  1.00  0.00    -0.422 A  
HETATM   11  C   UNL     1      -9.511  12.911  66.529  1.00  0.00    -0.251 A  
HETATM   12  C   UNL     1      -9.851  14.181  66.035  1.00  0.00    -0.329 A  
HETATM   13  C   UNL     1     -10.680  14.317  64.921  1.00  0.00    -0.432 A  
ENDROOT
BRANCH   4  14
HETATM   14  S   UNL     1      -8.609   8.714  68.307  1.00  0.00    -0.139 S  
HETATM   15  C   UNL     1      -7.097   8.270  67.424  1.00  0.00    -0.080 C  
HETATM   16  O   UNL     1      -8.242   8.965  69.742  1.00  0.00    -0.108 OA 
ENDBRANCH   4  14
TORSDOF 1
ENDMDL
MODEL      101
REMARK 921   NORMALIZED FREE ENERGY PREDICTED BY IDOCK:   -3.65 KCAL/MOL
REMARK 922        TOTAL FREE ENERGY PREDICTED BY IDOCK:   -3.95 KCAL/MOL
REMARK 923 INTER-LIGAND FREE ENERGY PREDICTED BY IDOCK:   -4.00 KCAL/MOL
REMARK 924 INTRA-LIGAND FREE ENERGY PREDICTED BY IDOCK:    0.05 KCAL/MOL
REMARK 927      BINDING AFFINITY PREDICTED BY RF-SCORE:    0.00 PKD
ROOT
HETATM    1  C   UNL     1     -10.860  10.049  70.169  1.00  0.00    -0.311 C  
HETATM    2  N   UNL     1     -10.385   9.727  68.821  1.00  0.00    -0.200 NA 
HETATM    3  C   UNL     1      -9.739   8.532  68.544  1.00  0.00    -0.163 C  
HETATM    4  C   UNL     1      -9.307   8.125  67.344  1.00  0.00    -0.141 C  
HETATM    5  C   UNL     1      -9.546   9.025  66.189  1.00  0.00    -0.272 C  
HETATM    6  C   UNL     1     -10.620  11.106  65.351  1.00  0.00    -0.291 A  
HETATM    7  F   UNL     1     -12.439  13.732  67.047  1.00  0.00    -0.418 F  
HETATM    8  C   UNL     1     -10.303  10.279  66.443  1.00  0.00    -0.262 A  
HETATM    9  O   UNL     1      -9.154   8.747  65.060  1.00  0.00    -0.130 OA 
HETATM   10  C   UNL     1     -11.347  12.274  65.556  1.00  0.00    -0.394 A  
HETATM   11  C   UNL     1     -10.705  10.602  67.759  1.00  0.00    -0.257 A  
HETATM   12  C   UNL     1     -11.422  11.797  67.935  1.00  0.00    -0.387 A  
HETATM   13  C   UNL     1     -11.737  12.609  66.844  1.00  0.00    -0.383 A  
ENDROOT
BRANCH   4  14
HETATM   14  S   UNL     1      -8.562   6.528  67.130  1.00  0.00    -0.112 S  
HETATM   15  C   UNL     1      -9.224   5.714  68.600  1.00  0.00    -0.122 C  
HETATM   16  O   UNL     1      -9.204   5.894  65.929  1.00  0.00    -0.157 OA 
ENDBRANCH   4  14
TORSDOF 1
ENDMDL
MODEL      102
REMARK 921   NORMALIZED FREE ENERGY PREDICTED BY IDOCK:   -3.57 KCAL/MOL
REMARK 922        TOTAL FREE ENERGY PREDICTED BY IDOCK:   -3.86 KCAL/MOL
REMARK 923 INTER-LIGAND FREE ENERGY PREDICTED BY IDOCK:   -3.75 KCAL/MOL
REMARK 924 INTRA-LIGAND FREE ENERGY PREDICTED BY IDOCK:   -0.11 KCAL/MOL
REMARK 927      BINDING AFFINITY PREDICTED BY RF-SCORE:    0.00 PKD
ROOT
HETATM    1  C   UNL     1      -9.434   2.851  70.920  1.00  0.00    -0.157 C  
HETATM    2  N   UNL     1      -9.951   4.206  70.712  1.00  0.00    -0.173 NA 
HETATM    3  C   UNL     1     -10.170   5.071  71.774  1.00  0.00    -0.207 C  
HETATM    4  C   UNL     1     -10.597   6.336  71.689  1.00  0.00    -0.227 C  
HETATM    5  C   UNL     1     -10.853   6.883  70.334  1.00  0.00    -0.261 C  
HETATM    6  C   UNL     1     -10.705   6.528  67.877  1.00  0.00    -0.357 A  
HETATM    7  F   UNL     1      -9.700   3.663  65.912  1.00  0.00    -0.175 F  
HETATM    8  C   UNL     1     -10.555   6.004  69.173  1.00  0.00    -0.362 A  
HETATM    9  O   UNL     1     -11.279   8.022  70.166  1.00  0.00    -0.238 OA 
HETATM   10  C   UNL     1     -10.412   5.735  66.773  1.00  0.00    -0.350 A  
HETATM   11  C   UNL     1     -10.111   4.680  69.391  1.00  0.00    -0.124 A  
HETATM   12  C   UNL     1      -9.840   3.900  68.255  1.00  0.00    -0.028 A  
HETATM   13  C   UNL     1      -9.986   4.430  66.972  1.00  0.00    -0.157 A  
ENDROOT
BRANCH   4  14
HETATM   14  S   UNL     1     -10.758   7.350  73.139  1.00  0.00    -0.381 S  
HETATM   15  C   UNL     1     -10.253   6.140  74.380  1.00  0.00    -0.316 C  
HETATM   16  O   UNL     1      -9.689   8.403  73.066  1.00  0.00    -0.241 OA 
ENDBRANCH   4  14
TORSDOF 1
ENDMDL
MODEL      103
REMARK 921   NORMALIZED FREE ENERGY PREDICTED BY IDOCK:   -3.57 KCAL/MOL
REMARK 922        TOTAL FREE ENERGY PREDICTED BY IDOCK:   -3.86 KCAL/MOL
REMARK 923 INTER-LIGAND FREE ENERGY PREDICTED BY IDOCK:   -3.75 KCAL/MOL
REMARK 924 INTRA-LIGAND FREE ENERGY PREDICTED BY IDOCK:   -0.10 KCAL/MOL
REMARK 927      BINDING AFFINITY PREDICTED BY RF-SCORE:    0.00 PKD
ROOT
HETATM    1  C   UNL     1      -9.604   8.821  67.586  1.00  0.00    -0.144 C  
HETATM    2  N   UNL     1     -10.120   8.102  68.753  1.00  0.00    -0.194 NA 
HETATM    3  C   UNL     1     -10.971   8.710  69.663  1.00  0.00    -0.091 C  
HETATM    4  C   UNL     1     -11.530   8.131  70.733  1.00  0.00    -0.261 C  
HETATM    5  C   UNL     1     -11.228   6.699  70.973  1.00  0.00    -0.300 C  
HETATM    6  C   UNL     1     -10.152   4.622  70.127  1.00  0.00    -0.283 A  
HETATM    7  F   UNL     1      -8.096   3.984  67.221  1.00  0.00    -0.092 F  
HETATM    8  C   UNL     1     -10.380   6.000  69.971  1.00  0.00    -0.290 A  
HETATM    9  O   UNL     1     -11.669   6.099  71.948  1.00  0.00    -0.309 OA 
HETATM   10  C   UNL     1      -9.380   3.939  69.193  1.00  0.00    -0.240 A  
HETATM   11  C   UNL     1      -9.843   6.722  68.881  1.00  0.00    -0.145 A  
HETATM   12  C   UNL     1      -9.054   6.007  67.965  1.00  0.00    -0.117 A  
HETATM   13  C   UNL     1      -8.837   4.637  68.125  1.00  0.00    -0.106 A  
ENDROOT
BRANCH   4  14
HETATM   14  S   UNL     1     -12.664   9.021  71.771  1.00  0.00    -0.393 S  
HETATM   15  C   UNL     1     -12.674  10.594  70.884  1.00  0.00    -0.404 C  
HETATM   16  O   UNL     1     -14.016   8.389  71.596  1.00  0.00    -0.385 OA 
ENDBRANCH   4  14
TORSDOF 1
ENDMDL
MODEL      104
REMARK 921   NORMALIZED FREE ENERGY PREDICTED BY IDOCK:   -3.56 KCAL/MOL
REMARK 922        TOTAL FREE ENERGY PREDICTED BY IDOCK:   -3.85 KCAL/MOL
REMARK 923 INTER-LIGAND FREE ENERGY PREDICTED BY IDOCK:   -3.74 KCAL/MOL
REMARK 924 INTRA-LIGAND FREE ENERGY PREDICTED BY IDOCK:   -0.11 KCAL/MOL
REMARK 927      BINDING AFFINITY PREDICTED BY RF-SCORE:    0.00 PKD
ROOT
HETATM    1  C   UNL     1      -6.260  16.356  68.830  1.00  0.00    -0.132 C  
HETATM    2  N   UNL     1      -7.588  16.132  68.254  1.00  0.00    -0.142 NA 
HETATM    3  C   UNL     1      -8.456  17.184  68.002  1.00  0.00    -0.219 C  
HETATM    4  C   UNL     1      -9.669  17.092  67.442  1.00  0.00    -0.253 C  
HETATM    5  C   UNL     1     -10.136  15.744  67.037  1.00  0.00    -0.261 C  
HETATM    6  C   UNL     1      -9.579  13.335  66.769  1.00  0.00    -0.258 A  
HETATM    7  F   UNL     1      -6.638  11.427  67.658  1.00  0.00    -0.062 F  
HETATM    8  C   UNL     1      -9.196  14.608  67.226  1.00  0.00    -0.212 A  
HETATM    9  O   UNL     1     -11.247  15.564  66.548  1.00  0.00    -0.243 OA 
HETATM   10  C   UNL     1      -8.711  12.258  66.913  1.00  0.00    -0.197 A  
HETATM   11  C   UNL     1      -7.940  14.830  67.834  1.00  0.00    -0.140 A  
HETATM   12  C   UNL     1      -7.093  13.719  67.980  1.00  0.00    -0.133 A  
HETATM   13  C   UNL     1      -7.479  12.460  67.518  1.00  0.00    -0.150 A  
ENDROOT
BRANCH   4  14
HETATM   14  S   UNL     1     -10.639  18.543  67.111  1.00  0.00    -0.362 S  
HETATM   15  C   UNL     1      -9.638  19.754  68.000  1.00  0.00    -0.383 C  
HETATM   16  O   UNL     1     -10.514  18.836  65.643  1.00  0.00    -0.594 OA 
ENDBRANCH   4  14
TORSDOF 1
ENDMDL
MODEL      105
REMARK 921   NORMALIZED FREE ENERGY PREDICTED BY IDOCK:   -3.55 KCAL/MOL
REMARK 922        TOTAL FREE ENERGY PREDICTED BY IDOCK:   -3.84 KCAL/MOL
REMARK 923 INTER-LIGAND FREE ENERGY PREDICTED BY IDOCK:   -4.39 KCAL/MOL
REMARK 924 INTRA-LIGAND FREE ENERGY PREDICTED BY IDOCK:    0.55 KCAL/MOL
REMARK 927      BINDING AFFINITY PREDICTED BY RF-SCORE:    0.00 PKD
ROOT
HETATM    1  C   UNL     1      -9.889  15.522  68.107  1.00  0.00    -0.216 C  
HETATM    2  N   UNL     1     -10.674  14.813  69.120  1.00  0.00    -0.249 NA 
HETATM    3  C   UNL     1     -11.176  15.464  70.237  1.00  0.00    -0.309 C  
HETATM    4  C   UNL     1     -11.937  14.920  71.194  1.00  0.00    -0.335 C  
HETATM    5  C   UNL     1     -12.295  13.487  71.054  1.00  0.00    -0.338 C  
HETATM    6  C   UNL     1     -12.234  11.450  69.628  1.00  0.00    -0.316 A  
HETATM    7  F   UNL     1     -10.652  10.782  66.445  1.00  0.00    -0.285 F  
HETATM    8  C   UNL     1     -11.835  12.783  69.829  1.00  0.00    -0.380 A  
HETATM    9  O   UNL     1     -12.960  12.900  71.902  1.00  0.00    -0.348 OA 
HETATM   10  C   UNL     1     -11.836  10.774  68.480  1.00  0.00    -0.168 A  
HETATM   11  C   UNL     1     -11.030  13.465  68.888  1.00  0.00    -0.248 A  
HETATM   12  C   UNL     1     -10.630  12.749  67.747  1.00  0.00    -0.231 A  
HETATM   13  C   UNL     1     -11.037  11.428  67.554  1.00  0.00    -0.281 A  
ENDROOT
BRANCH   4  14
HETATM   14  S   UNL     1     -12.572  15.902  72.531  1.00  0.00    -0.464 S  
HETATM   15  C   UNL     1     -12.368  14.710  73.872  1.00  0.00    -0.086 C  
HETATM   16  O   UNL     1     -11.597  17.021  72.763  1.00  0.00    -0.140 OA 
ENDBRANCH   4  14
TORSDOF 1
ENDMDL
MODEL      106
REMARK 921   NORMALIZED FREE ENERGY PREDICTED BY IDOCK:   -3.55 KCAL/MOL
REMARK 922        TOTAL FREE ENERGY PREDICTED BY IDOCK:   -3.84 KCAL/MOL
REMARK 923 INTER-LIGAND FREE ENERGY PREDICTED BY IDOCK:   -3.74 KCAL/MOL
REMARK 924 INTRA-LIGAND FREE ENERGY PREDICTED BY IDOCK:   -0.10 KCAL/MOL
REMARK 927      BINDING AFFINITY PREDICTED BY RF-SCORE:    0.00 PKD
ROOT
HETATM    1  C   UNL     1      -6.649  12.260  67.342  1.00  0.00    -0.154 C  
HETATM    2  N   UNL     1      -8.101  12.111  67.466  1.00  0.00    -0.153 NA 
HETATM    3  C   UNL     1      -8.956  13.194  67.327  1.00  0.00    -0.216 C  
HETATM    4  C   UNL     1     -10.294  13.157  67.380  1.00  0.00    -0.239 C  
HETATM    5  C   UNL     1     -10.935  11.837  67.594  1.00  0.00    -0.233 C  
HETATM    6  C   UNL     1     -10.633   9.376  67.785  1.00  0.00    -0.317 A  
HETATM    7  F   UNL     1      -7.666   7.307  67.832  1.00  0.00    -0.102 F  
HETATM    8  C   UNL     1     -10.046  10.648  67.671  1.00  0.00    -0.208 A  
HETATM    9  O   UNL     1     -12.152  11.717  67.690  1.00  0.00    -0.615 OA 
HETATM   10  C   UNL     1      -9.826   8.244  67.837  1.00  0.00    -0.207 A  
HETATM   11  C   UNL     1      -8.644  10.815  67.606  1.00  0.00    -0.123 A  
HETATM   12  C   UNL     1      -7.857   9.653  67.678  1.00  0.00    -0.095 A  
HETATM   13  C   UNL     1      -8.448   8.394  67.785  1.00  0.00    -0.131 A  
ENDROOT
BRANCH   4  14
HETATM   14  S   UNL     1     -11.263  14.620  67.107  1.00  0.00    -0.354 S  
HETATM   15  C   UNL     1     -11.424  15.168  68.821  1.00  0.00    -0.319 C  
HETATM   16  O   UNL     1     -10.386  15.609  66.392  1.00  0.00    -0.276 OA 
ENDBRANCH   4  14
TORSDOF 1
ENDMDL
MODEL      107
REMARK 921   NORMALIZED FREE ENERGY PREDICTED BY IDOCK:   -3.53 KCAL/MOL
REMARK 922        TOTAL FREE ENERGY PREDICTED BY IDOCK:   -3.82 KCAL/MOL
REMARK 923 INTER-LIGAND FREE ENERGY PREDICTED BY IDOCK:   -3.78 KCAL/MOL
REMARK 924 INTRA-LIGAND FREE ENERGY PREDICTED BY IDOCK:   -0.04 KCAL/MOL
REMARK 927      BINDING AFFINITY PREDICTED BY RF-SCORE:    0.00 PKD
ROOT
HETATM    1  C   UNL     1      -7.081  13.639  67.581  1.00  0.00    -0.170 C  
HETATM    2  N   UNL     1      -8.472  13.515  68.027  1.00  0.00    -0.165 NA 
HETATM    3  C   UNL     1      -9.166  14.597  68.546  1.00  0.00    -0.193 C  
HETATM    4  C   UNL     1     -10.446  14.600  68.940  1.00  0.00    -0.248 C  
HETATM    5  C   UNL     1     -11.208  13.335  68.803  1.00  0.00    -0.276 C  
HETATM    6  C   UNL     1     -11.237  10.997  67.956  1.00  0.00    -0.372 A  
HETATM    7  F   UNL     1      -8.678   8.961  66.411  1.00  0.00    -0.115 F  
HETATM    8  C   UNL     1     -10.511  12.180  68.179  1.00  0.00    -0.225 A  
HETATM    9  O   UNL     1     -12.375  13.239  69.171  1.00  0.00    -0.197 OA 
HETATM   10  C   UNL     1     -10.616   9.907  67.354  1.00  0.00    -0.338 A  
HETATM   11  C   UNL     1      -9.153  12.298  67.806  1.00  0.00    -0.191 A  
HETATM   12  C   UNL     1      -8.551  11.174  67.216  1.00  0.00    -0.140 A  
HETATM   13  C   UNL     1      -9.281  10.006  66.993  1.00  0.00    -0.146 A  
ENDROOT
BRANCH   4  14
HETATM   14  S   UNL     1     -11.225  16.089  69.516  1.00  0.00    -0.353 S  
HETATM   15  C   UNL     1     -11.392  15.655  71.262  1.00  0.00    -0.390 C  
HETATM   16  O   UNL     1     -10.209  17.191  69.415  1.00  0.00    -0.262 OA 
ENDBRANCH   4  14
TORSDOF 1
ENDMDL
MODEL      108
REMARK 921   NORMALIZED FREE ENERGY PREDICTED BY IDOCK:   -3.39 KCAL/MOL
REMARK 922        TOTAL FREE ENERGY PREDICTED BY IDOCK:   -3.67 KCAL/MOL
REMARK 923 INTER-LIGAND FREE ENERGY PREDICTED BY IDOCK:   -3.83 KCAL/MOL
REMARK 924 INTRA-LIGAND FREE ENERGY PREDICTED BY IDOCK:    0.16 KCAL/MOL
REMARK 927      BINDING AFFINITY PREDICTED BY RF-SCORE:    0.00 PKD
ROOT
HETATM    1  C   UNL     1     -10.235  10.388  66.449  1.00  0.00    -0.230 C  
HETATM    2  N   UNL     1     -10.311   9.418  67.544  1.00  0.00    -0.238 NA 
HETATM    3  C   UNL     1      -9.721   8.166  67.447  1.00  0.00    -0.170 C  
HETATM    4  C   UNL     1      -9.695   7.228  68.400  1.00  0.00    -0.148 C  
HETATM    5  C   UNL     1     -10.345   7.548  69.694  1.00  0.00    -0.225 C  
HETATM    6  C   UNL     1     -11.463   9.269  71.100  1.00  0.00    -0.403 A  
HETATM    7  F   UNL     1     -12.475  12.669  70.397  1.00  0.00    -0.361 F  
HETATM    8  C   UNL     1     -10.919   8.910  69.854  1.00  0.00    -0.190 A  
HETATM    9  O   UNL     1     -10.398   6.734  70.611  1.00  0.00    -0.198 OA 
HETATM   10  C   UNL     1     -11.987  10.544  71.284  1.00  0.00    -0.386 A  
HETATM   11  C   UNL     1     -10.890   9.815  68.769  1.00  0.00    -0.188 A  
HETATM   12  C   UNL     1     -11.442  11.089  68.983  1.00  0.00    -0.368 A  
HETATM   13  C   UNL     1     -11.974  11.439  70.225  1.00  0.00    -0.373 A  
ENDROOT
BRANCH   4  14
HETATM   14  S   UNL     1      -8.832   5.695  68.156  1.00  0.00    -0.107 S  
HETATM   15  C   UNL     1      -7.556   5.892  69.419  1.00  0.00    -0.092 C  
HETATM   16  O   UNL     1      -9.749   4.592  68.602  1.00  0.00    -0.157 OA 
ENDBRANCH   4  14
TORSDOF 1
ENDMDL
MODEL      109
REMARK 921   NORMALIZED FREE ENERGY PREDICTED BY IDOCK:   -3.37 KCAL/MOL
REMARK 922        TOTAL FREE ENERGY PREDICTED BY IDOCK:   -3.65 KCAL/MOL
REMARK 923 INTER-LIGAND FREE ENERGY PREDICTED BY IDOCK:   -3.56 KCAL/MOL
REMARK 924 INTRA-LIGAND FREE ENERGY PREDICTED BY IDOCK:   -0.09 KCAL/MOL
REMARK 927      BINDING AFFINITY PREDICTED BY RF-SCORE:    0.00 PKD
ROOT
HETATM    1  C   UNL     1     -10.067  12.566  67.928  1.00  0.00    -0.214 C  
HETATM    2  N   UNL     1     -10.121  11.131  68.219  1.00  0.00    -0.178 NA 
HETATM    3  C   UNL     1     -10.743  10.643  69.358  1.00  0.00    -0.244 C  
HETATM    4  C   UNL     1     -10.884   9.355  69.693  1.00  0.00    -0.228 C  
HETATM    5  C   UNL     1     -10.337   8.341  68.758  1.00  0.00    -0.205 C  
HETATM    6  C   UNL     1      -9.286   7.888  66.550  1.00  0.00    -0.255 A  
HETATM    7  F   UNL     1      -8.099  10.101  63.947  1.00  0.00    -0.141 F  
HETATM    8  C   UNL     1      -9.732   8.831  67.492  1.00  0.00    -0.214 A  
HETATM    9  O   UNL     1     -10.392   7.139  69.003  1.00  0.00    -0.188 OA 
HETATM   10  C   UNL     1      -8.736   8.319  65.347  1.00  0.00    -0.147 A  
HETATM   11  C   UNL     1      -9.636  10.221  67.253  1.00  0.00    -0.159 A  
HETATM   12  C   UNL     1      -9.060  10.623  66.036  1.00  0.00    -0.201 A  
HETATM   13  C   UNL     1      -8.626   9.680  65.104  1.00  0.00    -0.157 A  
ENDROOT
BRANCH   4  14
HETATM   14  S   UNL     1     -11.775   8.878  71.153  1.00  0.00    -0.308 S  
HETATM   15  C   UNL     1     -10.371   8.464  72.211  1.00  0.00    -0.333 C  
HETATM   16  O   UNL     1     -12.416  10.118  71.709  1.00  0.00    -0.394 OA 
ENDBRANCH   4  14
TORSDOF 1
ENDMDL
MODEL      110
REMARK 921   NORMALIZED FREE ENERGY PREDICTED BY IDOCK:   -3.37 KCAL/MOL
REMARK 922        TOTAL FREE ENERGY PREDICTED BY IDOCK:   -3.64 KCAL/MOL
REMARK 923 INTER-LIGAND FREE ENERGY PREDICTED BY IDOCK:   -3.57 KCAL/MOL
REMARK 924 INTRA-LIGAND FREE ENERGY PREDICTED BY IDOCK:   -0.08 KCAL/MOL
REMARK 927      BINDING AFFINITY PREDICTED BY RF-SCORE:    0.00 PKD
ROOT
HETATM    1  C   UNL     1      -9.744   8.254  72.609  1.00  0.00    -0.287 C  
HETATM    2  N   UNL     1     -10.035   8.263  71.173  1.00  0.00    -0.180 NA 
HETATM    3  C   UNL     1     -10.227   9.447  70.478  1.00  0.00    -0.271 C  
HETATM    4  C   UNL     1     -10.454   9.566  69.164  1.00  0.00    -0.210 C  
HETATM    5  C   UNL     1     -10.495   8.320  68.361  1.00  0.00    -0.162 C  
HETATM    6  C   UNL     1     -10.164   5.855  68.312  1.00  0.00    -0.226 A  
HETATM    7  F   UNL     1      -9.404   3.473  70.925  1.00  0.00    -0.159 F  
HETATM    8  C   UNL     1     -10.218   7.041  69.065  1.00  0.00    -0.191 A  
HETATM    9  O   UNL     1     -10.731   8.333  67.156  1.00  0.00    -0.302 OA 
HETATM   10  C   UNL     1      -9.885   4.647  68.942  1.00  0.00    -0.211 A  
HETATM   11  C   UNL     1      -9.995   7.043  70.461  1.00  0.00    -0.183 A  
HETATM   12  C   UNL     1      -9.733   5.804  71.070  1.00  0.00    -0.213 A  
HETATM   13  C   UNL     1      -9.675   4.633  70.313  1.00  0.00    -0.225 A  
ENDROOT
BRANCH   4  14
HETATM   14  S   UNL     1     -10.605  11.162  68.399  1.00  0.00    -0.207 S  
HETATM   15  C   UNL     1     -11.694  11.945  69.607  1.00  0.00    -0.343 C  
HETATM   16  O   UNL     1      -9.262  11.829  68.494  1.00  0.00    -0.196 OA 
ENDBRANCH   4  14
TORSDOF 1
ENDMDL
MODEL      111
REMARK 921   NORMALIZED FREE ENERGY PREDICTED BY IDOCK:   -3.33 KCAL/MOL
REMARK 922        TOTAL FREE ENERGY PREDICTED BY IDOCK:   -3.61 KCAL/MOL
REMARK 923 INTER-LIGAND FREE ENERGY PREDICTED BY IDOCK:   -3.51 KCAL/MOL
REMARK 924 INTRA-LIGAND FREE ENERGY PREDICTED BY IDOCK:   -0.10 KCAL/MOL
REMARK 927      BINDING AFFINITY PREDICTED BY RF-SCORE:    0.00 PKD
ROOT
HETATM    1  C   UNL     1      -8.816  10.246  67.498  1.00  0.00    -0.128 C  
HETATM    2  N   UNL     1      -9.467   9.105  68.146  1.00  0.00    -0.141 NA 
HETATM    3  C   UNL     1     -10.180   9.250  69.327  1.00  0.00    -0.206 C  
HETATM    4  C   UNL     1     -10.844   8.284  69.974  1.00  0.00    -0.232 C  
HETATM    5  C   UNL     1     -10.835   6.927  69.375  1.00  0.00    -0.249 C  
HETATM    6  C   UNL     1     -10.195   5.504  67.438  1.00  0.00    -0.253 A  
HETATM    7  F   UNL     1      -8.305   6.222  64.440  1.00  0.00    -0.131 F  
HETATM    8  C   UNL     1     -10.143   6.759  68.070  1.00  0.00    -0.183 A  
HETATM    9  O   UNL     1     -11.389   5.977  69.918  1.00  0.00    -0.400 OA 
HETATM   10  C   UNL     1      -9.574   5.324  66.206  1.00  0.00    -0.175 A  
HETATM   11  C   UNL     1      -9.471   7.856  67.486  1.00  0.00    -0.145 A  
HETATM   12  C   UNL     1      -8.840   7.637  66.249  1.00  0.00    -0.182 A  
HETATM   13  C   UNL     1      -8.902   6.389  65.627  1.00  0.00    -0.058 A  
ENDROOT
BRANCH   4  14
HETATM   14  S   UNL     1     -11.779   8.638  71.442  1.00  0.00    -0.314 S  
HETATM   15  C   UNL     1     -10.581   8.082  72.673  1.00  0.00    -0.350 C  
HETATM   16  O   UNL     1     -11.886  10.133  71.552  1.00  0.00    -0.362 OA 
ENDBRANCH   4  14
TORSDOF 1
ENDMDL
MODEL      112
REMARK 921   NORMALIZED FREE ENERGY PREDICTED BY IDOCK:   -3.27 KCAL/MOL
REMARK 922        TOTAL FREE ENERGY PREDICTED BY IDOCK:   -3.55 KCAL/MOL
REMARK 923 INTER-LIGAND FREE ENERGY PREDICTED BY IDOCK:   -3.49 KCAL/MOL
REMARK 924 INTRA-LIGAND FREE ENERGY PREDICTED BY IDOCK:   -0.06 KCAL/MOL
REMARK 927      BINDING AFFINITY PREDICTED BY RF-SCORE:    0.00 PKD
ROOT
HETATM    1  C   UNL     1     -11.337  14.569  69.995  1.00  0.00    -0.224 C  
HETATM    2  N   UNL     1     -10.852  14.670  68.616  1.00  0.00    -0.247 NA 
HETATM    3  C   UNL     1     -11.694  14.466  67.533  1.00  0.00    -0.387 C  
HETATM    4  C   UNL     1     -11.362  14.577  66.241  1.00  0.00    -0.352 C  
HETATM    5  C   UNL     1      -9.966  14.965  65.923  1.00  0.00    -0.331 C  
HETATM    6  C   UNL     1      -7.760  15.720  66.790  1.00  0.00    -0.216 A  
HETATM    7  F   UNL     1      -6.517  16.165  70.157  1.00  0.00    -0.183 F  
HETATM    8  C   UNL     1      -9.062  15.264  67.064  1.00  0.00    -0.245 A  
HETATM    9  O   UNL     1      -9.567  15.057  64.766  1.00  0.00     0.152 OA 
HETATM   10  C   UNL     1      -6.900  16.028  67.838  1.00  0.00    -0.158 A  
HETATM   11  C   UNL     1      -9.528  15.107  68.389  1.00  0.00    -0.208 A  
HETATM   12  C   UNL     1      -8.629  15.410  69.425  1.00  0.00    -0.249 A  
HETATM   13  C   UNL     1      -7.341  15.868  69.143  1.00  0.00    -0.198 A  
ENDROOT
BRANCH   4  14
HETATM   14  S   UNL     1     -12.573  14.359  64.960  1.00  0.00    -0.191 S  
HETATM   15  C   UNL     1     -12.027  12.756  64.333  1.00  0.00    -0.399 C  
HETATM   16  O   UNL     1     -13.901  14.157  65.633  1.00  0.00    -0.050 OA 
ENDBRANCH   4  14
TORSDOF 1
ENDMDL
MODEL      113
REMARK 921   NORMALIZED FREE ENERGY PREDICTED BY IDOCK:   -3.21 KCAL/MOL
REMARK 922        TOTAL FREE ENERGY PREDICTED BY IDOCK:   -3.48 KCAL/MOL
REMARK 923 INTER-LIGAND FREE ENERGY PREDICTED BY IDOCK:   -3.54 KCAL/MOL
REMARK 924 INTRA-LIGAND FREE ENERGY PREDICTED BY IDOCK:    0.07 KCAL/MOL
REMARK 927      BINDING AFFINITY PREDICTED BY RF-SCORE:    0.00 PKD
ROOT
HETATM    1  C   UNL     1      -8.386  10.040  69.091  1.00  0.00    -0.146 C  
HETATM    2  N   UNL     1      -8.842   9.222  70.217  1.00  0.00    -0.204 NA 
HETATM    3  C   UNL     1      -7.986   8.353  70.876  1.00  0.00    -0.108 C  
HETATM    4  C   UNL     1      -8.289   7.597  71.938  1.00  0.00    -0.109 C  
HETATM    5  C   UNL     1      -9.667   7.697  72.479  1.00  0.00    -0.184 C  
HETATM    6  C   UNL     1     -11.866   8.854  72.389  1.00  0.00    -0.292 A  
HETATM    7  F   UNL     1     -13.161  11.400  70.170  1.00  0.00    -0.080 F  
HETATM    8  C   UNL     1     -10.584   8.676  71.840  1.00  0.00    -0.411 A  
HETATM    9  O   UNL     1     -10.041   7.015  73.428  1.00  0.00    -0.220 OA 
HETATM   10  C   UNL     1     -12.738   9.780  71.824  1.00  0.00    -0.519 A  
HETATM   11  C   UNL     1     -10.148   9.417  70.718  1.00  0.00    -0.298 A  
HETATM   12  C   UNL     1     -11.058  10.331  70.161  1.00  0.00    -0.385 A  
HETATM   13  C   UNL     1     -12.327  10.506  70.716  1.00  0.00    -0.378 A  
ENDROOT
BRANCH   4  14
HETATM   14  S   UNL     1      -7.060   6.584  72.726  1.00  0.00    -0.081 S  
HETATM   15  C   UNL     1      -5.582   7.461  72.170  1.00  0.00    -0.037 C  
HETATM   16  O   UNL     1      -7.189   6.800  74.207  1.00  0.00    -0.093 OA 
ENDBRANCH   4  14
TORSDOF 1
ENDMDL
MODEL      114
REMARK 921   NORMALIZED FREE ENERGY PREDICTED BY IDOCK:   -3.17 KCAL/MOL
REMARK 922        TOTAL FREE ENERGY PREDICTED BY IDOCK:   -3.44 KCAL/MOL
REMARK 923 INTER-LIGAND FREE ENERGY PREDICTED BY IDOCK:   -3.36 KCAL/MOL
REMARK 924 INTRA-LIGAND FREE ENERGY PREDICTED BY IDOCK:   -0.08 KCAL/MOL
REMARK 927      BINDING AFFINITY PREDICTED BY RF-SCORE:    0.00 PKD
ROOT
HETATM    1  C   UNL     1      -7.121   8.455  67.324  1.00  0.00    -0.079 C  
HETATM    2  N   UNL     1      -8.241   8.796  68.204  1.00  0.00    -0.114 NA 
HETATM    3  C   UNL     1      -8.267   8.399  69.532  1.00  0.00    -0.118 C  
HETATM    4  C   UNL     1      -9.218   8.693  70.428  1.00  0.00    -0.170 C  
HETATM    5  C   UNL     1     -10.352   9.534  69.971  1.00  0.00    -0.247 C  
HETATM    6  C   UNL     1     -11.328  10.908  68.142  1.00  0.00    -0.383 A  
HETATM    7  F   UNL     1     -10.247  11.518  64.745  1.00  0.00    -0.260 F  
HETATM    8  C   UNL     1     -10.312  10.038  68.573  1.00  0.00    -0.217 A  
HETATM    9  O   UNL     1     -11.284   9.823  70.715  1.00  0.00    -0.293 OA 
HETATM   10  C   UNL     1     -11.304  11.412  66.846  1.00  0.00    -0.284 A  
HETATM   11  C   UNL     1      -9.253   9.653  67.719  1.00  0.00    -0.124 A  
HETATM   12  C   UNL     1      -9.267  10.166  66.411  1.00  0.00    -0.190 A  
HETATM   13  C   UNL     1     -10.277  11.034  65.994  1.00  0.00    -0.252 A  
ENDROOT
BRANCH   4  14
HETATM   14  S   UNL     1      -9.077   8.175  72.121  1.00  0.00    -0.208 S  
HETATM   15  C   UNL     1      -9.060   6.388  71.862  1.00  0.00    -0.145 C  
HETATM   16  O   UNL     1      -7.711   8.580  72.598  1.00  0.00    -0.280 OA 
ENDBRANCH   4  14
TORSDOF 1
ENDMDL
MODEL      115
REMARK 921   NORMALIZED FREE ENERGY PREDICTED BY IDOCK:   -3.16 KCAL/MOL
REMARK 922        TOTAL FREE ENERGY PREDICTED BY IDOCK:   -3.43 KCAL/MOL
REMARK 923 INTER-LIGAND FREE ENERGY PREDICTED BY IDOCK:   -3.35 KCAL/MOL
REMARK 924 INTRA-LIGAND FREE ENERGY PREDICTED BY IDOCK:   -0.08 KCAL/MOL
REMARK 927      BINDING AFFINITY PREDICTED BY RF-SCORE:    0.00 PKD
ROOT
HETATM    1  C   UNL     1      -9.253   4.564  69.007  1.00  0.00    -0.134 C  
HETATM    2  N   UNL     1      -9.375   5.994  69.304  1.00  0.00    -0.132 NA 
HETATM    3  C   UNL     1      -8.968   6.961  68.398  1.00  0.00    -0.121 C  
HETATM    4  C   UNL     1      -9.075   8.286  68.554  1.00  0.00    -0.136 C  
HETATM    5  C   UNL     1      -9.698   8.780  69.807  1.00  0.00    -0.177 C  
HETATM    6  C   UNL     1     -10.887   8.206  71.915  1.00  0.00    -0.333 A  
HETATM    7  F   UNL     1     -11.714   5.026  73.426  1.00  0.00    -0.375 F  
HETATM    8  C   UNL     1     -10.213   7.765  70.763  1.00  0.00    -0.200 A  
HETATM    9  O   UNL     1      -9.805   9.979  70.047  1.00  0.00    -0.241 OA 
HETATM   10  C   UNL     1     -11.398   7.278  72.816  1.00  0.00    -0.318 A  
HETATM   11  C   UNL     1     -10.036   6.390  70.488  1.00  0.00    -0.186 A  
HETATM   12  C   UNL     1     -10.549   5.478  71.426  1.00  0.00    -0.310 A  
HETATM   13  C   UNL     1     -11.222   5.925  72.564  1.00  0.00    -0.294 A  
ENDROOT
BRANCH   4  14
HETATM   14  S   UNL     1      -8.577   9.406  67.268  1.00  0.00    -0.128 S  
HETATM   15  C   UNL     1      -6.842   8.920  67.137  1.00  0.00    -0.074 C  
HETATM   16  O   UNL     1      -9.269   8.972  66.008  1.00  0.00    -0.192 OA 
ENDBRANCH   4  14
TORSDOF 1
ENDMDL
MODEL      116
REMARK 921   NORMALIZED FREE ENERGY PREDICTED BY IDOCK:   -3.11 KCAL/MOL
REMARK 922        TOTAL FREE ENERGY PREDICTED BY IDOCK:   -3.38 KCAL/MOL
REMARK 923 INTER-LIGAND FREE ENERGY PREDICTED BY IDOCK:   -3.30 KCAL/MOL
REMARK 924 INTRA-LIGAND FREE ENERGY PREDICTED BY IDOCK:   -0.08 KCAL/MOL
REMARK 927      BINDING AFFINITY PREDICTED BY RF-SCORE:    0.00 PKD
ROOT
HETATM    1  C   UNL     1     -11.699  12.944  67.525  1.00  0.00    -0.367 C  
HETATM    2  N   UNL     1     -10.372  13.551  67.396  1.00  0.00    -0.236 NA 
HETATM    3  C   UNL     1     -10.207  14.925  67.312  1.00  0.00    -0.241 C  
HETATM    4  C   UNL     1      -9.042  15.580  67.236  1.00  0.00    -0.203 C  
HETATM    5  C   UNL     1      -7.799  14.770  67.255  1.00  0.00    -0.194 C  
HETATM    6  C   UNL     1      -6.779  12.519  67.531  1.00  0.00    -0.151 A  
HETATM    7  F   UNL     1      -8.248   9.239  67.938  1.00  0.00    -0.111 F  
HETATM    8  C   UNL     1      -7.942  13.300  67.421  1.00  0.00    -0.175 A  
HETATM    9  O   UNL     1      -6.690  15.284  67.155  1.00  0.00    -0.276 OA 
HETATM   10  C   UNL     1      -6.883  11.143  67.710  1.00  0.00    -0.073 A  
HETATM   11  C   UNL     1      -9.231  12.723  67.487  1.00  0.00    -0.191 A  
HETATM   12  C   UNL     1      -9.302  11.329  67.650  1.00  0.00    -0.162 A  
HETATM   13  C   UNL     1      -8.141  10.563  67.764  1.00  0.00    -0.106 A  
ENDROOT
BRANCH   4  14
HETATM   14  S   UNL     1      -8.986  17.355  67.209  1.00  0.00    -0.240 S  
HETATM   15  C   UNL     1     -10.737  17.691  67.493  1.00  0.00    -0.290 C  
HETATM   16  O   UNL     1      -8.232  17.794  68.433  1.00  0.00    -0.281 OA 
ENDBRANCH   4  14
TORSDOF 1
ENDMDL
MODEL      117
REMARK 921   NORMALIZED FREE ENERGY PREDICTED BY IDOCK:   -3.08 KCAL/MOL
REMARK 922        TOTAL FREE ENERGY PREDICTED BY IDOCK:   -3.34 KCAL/MOL
REMARK 923 INTER-LIGAND FREE ENERGY PREDICTED BY IDOCK:   -3.23 KCAL/MOL
REMARK 924 INTRA-LIGAND FREE ENERGY PREDICTED BY IDOCK:   -0.11 KCAL/MOL
REMARK 927      BINDING AFFINITY PREDICTED BY RF-SCORE:    0.00 PKD
ROOT
HETATM    1  C   UNL     1      -9.541   9.091  67.433  1.00  0.00    -0.152 C  
HETATM    2  N   UNL     1      -9.672   7.859  68.216  1.00  0.00    -0.156 NA 
HETATM    3  C   UNL     1     -10.090   7.880  69.538  1.00  0.00    -0.195 C  
HETATM    4  C   UNL     1     -10.282   6.813  70.323  1.00  0.00    -0.195 C  
HETATM    5  C   UNL     1     -10.041   5.474  69.731  1.00  0.00    -0.232 C  
HETATM    6  C   UNL     1      -9.519   4.159  67.686  1.00  0.00    -0.225 A  
HETATM    7  F   UNL     1      -8.687   5.173  64.315  1.00  0.00    -0.140 F  
HETATM    8  C   UNL     1      -9.667   5.418  68.294  1.00  0.00    -0.175 A  
HETATM    9  O   UNL     1     -10.160   4.445  70.389  1.00  0.00    -0.209 OA 
HETATM   10  C   UNL     1      -9.190   4.077  66.337  1.00  0.00    -0.169 A  
HETATM   11  C   UNL     1      -9.489   6.617  67.568  1.00  0.00    -0.126 A  
HETATM   12  C   UNL     1      -9.140   6.500  66.212  1.00  0.00    -0.168 A  
HETATM   13  C   UNL     1      -9.002   5.246  65.615  1.00  0.00    -0.158 A  
ENDROOT
BRANCH   4  14
HETATM   14  S   UNL     1     -10.894   6.992  71.981  1.00  0.00    -0.229 S  
HETATM   15  C   UNL     1     -10.970   8.795  72.054  1.00  0.00    -0.368 C  
HETATM   16  O   UNL     1     -12.305   6.475  71.992  1.00  0.00    -0.336 OA 
ENDBRANCH   4  14
TORSDOF 1
ENDMDL
MODEL      118
REMARK 921   NORMALIZED FREE ENERGY PREDICTED BY IDOCK:   -3.07 KCAL/MOL
REMARK 922        TOTAL FREE ENERGY PREDICTED BY IDOCK:   -3.33 KCAL/MOL
REMARK 923 INTER-LIGAND FREE ENERGY PREDICTED BY IDOCK:   -3.28 KCAL/MOL
REMARK 924 INTRA-LIGAND FREE ENERGY PREDICTED BY IDOCK:   -0.06 KCAL/MOL
REMARK 927      BINDING AFFINITY PREDICTED BY RF-SCORE:    0.00 PKD
ROOT
HETATM    1  C   UNL     1      -8.126   5.420  66.241  1.00  0.00    -0.105 C  
HETATM    2  N   UNL     1      -8.743   6.651  66.743  1.00  0.00    -0.117 NA 
HETATM    3  C   UNL     1      -8.748   7.818  65.994  1.00  0.00    -0.161 C  
HETATM    4  C   UNL     1      -9.319   8.978  66.341  1.00  0.00    -0.206 C  
HETATM    5  C   UNL     1     -10.027   9.031  67.643  1.00  0.00    -0.201 C  
HETATM    6  C   UNL     1     -10.844   7.773  69.628  1.00  0.00    -0.185 A  
HETATM    7  F   UNL     1     -10.409   4.330  70.646  1.00  0.00    -0.251 F  
HETATM    8  C   UNL     1     -10.103   7.774  68.433  1.00  0.00    -0.215 A  
HETATM    9  O   UNL     1     -10.549  10.062  68.055  1.00  0.00    -0.203 OA 
HETATM   10  C   UNL     1     -10.949   6.605  70.375  1.00  0.00    -0.341 A  
HETATM   11  C   UNL     1      -9.454   6.609  67.962  1.00  0.00    -0.118 A  
HETATM   12  C   UNL     1      -9.567   5.451  68.749  1.00  0.00    -0.182 A  
HETATM   13  C   UNL     1     -10.309   5.458  69.931  1.00  0.00    -0.307 A  
ENDROOT
BRANCH   4  14
HETATM   14  S   UNL     1      -9.309  10.372  65.240  1.00  0.00    -0.237 S  
HETATM   15  C   UNL     1      -8.680   9.550  63.759  1.00  0.00    -0.217 C  
HETATM   16  O   UNL     1     -10.741  10.745  64.982  1.00  0.00    -0.229 OA 
ENDBRANCH   4  14
TORSDOF 1
ENDMDL
MODEL      119
REMARK 921   NORMALIZED FREE ENERGY PREDICTED BY IDOCK:   -3.02 KCAL/MOL
REMARK 922        TOTAL FREE ENERGY PREDICTED BY IDOCK:   -3.27 KCAL/MOL
REMARK 923 INTER-LIGAND FREE ENERGY PREDICTED BY IDOCK:   -3.17 KCAL/MOL
REMARK 924 INTRA-LIGAND FREE ENERGY PREDICTED BY IDOCK:   -0.10 KCAL/MOL
REMARK 927      BINDING AFFINITY PREDICTED BY RF-SCORE:    0.00 PKD
ROOT
HETATM    1  C   UNL     1      -9.607   8.942  69.357  1.00  0.00    -0.163 C  
HETATM    2  N   UNL     1      -9.646   7.478  69.312  1.00  0.00    -0.158 NA 
HETATM    3  C   UNL     1      -9.267   6.776  68.177  1.00  0.00    -0.121 C  
HETATM    4  C   UNL     1      -9.225   5.444  68.048  1.00  0.00    -0.110 C  
HETATM    5  C   UNL     1      -9.606   4.629  69.227  1.00  0.00    -0.181 C  
HETATM    6  C   UNL     1     -10.221   4.604  71.637  1.00  0.00    -0.233 A  
HETATM    7  F   UNL     1     -10.830   7.276  73.998  1.00  0.00    -0.378 F  
HETATM    8  C   UNL     1      -9.943   5.353  70.481  1.00  0.00    -0.288 A  
HETATM    9  O   UNL     1      -9.628   3.403  69.187  1.00  0.00    -0.167 OA 
HETATM   10  C   UNL     1     -10.519   5.256  72.829  1.00  0.00    -0.262 A  
HETATM   11  C   UNL     1      -9.957   6.767  70.492  1.00  0.00    -0.183 A  
HETATM   12  C   UNL     1     -10.277   7.395  71.708  1.00  0.00    -0.212 A  
HETATM   13  C   UNL     1     -10.546   6.642  72.852  1.00  0.00    -0.245 A  
ENDROOT
BRANCH   4  14
HETATM   14  S   UNL     1      -8.644   4.685  66.551  1.00  0.00    -0.111 S  
HETATM   15  C   UNL     1     -10.229   4.486  65.709  1.00  0.00    -0.265 C  
HETATM   16  O   UNL     1      -7.857   5.723  65.802  1.00  0.00    -0.096 OA 
ENDBRANCH   4  14
TORSDOF 1
ENDMDL
MODEL      120
REMARK 921   NORMALIZED FREE ENERGY PREDICTED BY IDOCK:   -2.98 KCAL/MOL
REMARK 922        TOTAL FREE ENERGY PREDICTED BY IDOCK:   -3.24 KCAL/MOL
REMARK 923 INTER-LIGAND FREE ENERGY PREDICTED BY IDOCK:   -3.49 KCAL/MOL
REMARK 924 INTRA-LIGAND FREE ENERGY PREDICTED BY IDOCK:    0.26 KCAL/MOL
REMARK 927      BINDING AFFINITY PREDICTED BY RF-SCORE:    0.00 PKD
ROOT
HETATM    1  C   UNL     1     -10.297   6.160  67.915  1.00  0.00    -0.203 C  
HETATM    2  N   UNL     1     -10.232   7.513  68.475  1.00  0.00    -0.192 NA 
HETATM    3  C   UNL     1      -9.730   8.578  67.743  1.00  0.00    -0.162 C  
HETATM    4  C   UNL     1      -9.667   9.853  68.144  1.00  0.00    -0.144 C  
HETATM    5  C   UNL     1     -10.192  10.174  69.493  1.00  0.00    -0.236 C  
HETATM    6  C   UNL     1     -11.391   9.360  71.514  1.00  0.00    -0.464 A  
HETATM    7  F   UNL     1     -12.573   6.074  72.456  1.00  0.00    -0.262 F  
HETATM    8  C   UNL     1     -10.806   9.066  70.270  1.00  0.00    -0.269 A  
HETATM    9  O   UNL     1     -10.143  11.310  69.954  1.00  0.00     0.387 OA 
HETATM   10  C   UNL     1     -11.992   8.346  72.253  1.00  0.00    -0.455 A  
HETATM   11  C   UNL     1     -10.810   7.755  69.741  1.00  0.00    -0.209 A  
HETATM   12  C   UNL     1     -11.410   6.751  70.519  1.00  0.00    -0.394 A  
HETATM   13  C   UNL     1     -11.993   7.054  71.750  1.00  0.00    -0.326 A  
ENDROOT
BRANCH   4  14
HETATM   14  S   UNL     1      -9.064  11.127  67.062  1.00  0.00    -0.155 S  
HETATM   15  C   UNL     1     -10.640  11.670  66.369  1.00  0.00    -0.258 C  
HETATM   16  O   UNL     1      -8.539  12.236  67.929  1.00  0.00    -0.152 OA 
ENDBRANCH   4  14
TORSDOF 1
ENDMDL
MODEL      121
REMARK 921   NORMALIZED FREE ENERGY PREDICTED BY IDOCK:   -2.96 KCAL/MOL
REMARK 922        TOTAL FREE ENERGY PREDICTED BY IDOCK:   -3.22 KCAL/MOL
REMARK 923 INTER-LIGAND FREE ENERGY PREDICTED BY IDOCK:   -3.13 KCAL/MOL
REMARK 924 INTRA-LIGAND FREE ENERGY PREDICTED BY IDOCK:   -0.09 KCAL/MOL
REMARK 927      BINDING AFFINITY PREDICTED BY RF-SCORE:    0.00 PKD
ROOT
HETATM    1  C   UNL     1     -11.760  10.976  67.865  1.00  0.00    -0.135 C  
HETATM    2  N   UNL     1     -10.517  11.745  67.955  1.00  0.00    -0.193 NA 
HETATM    3  C   UNL     1      -9.331  11.274  67.413  1.00  0.00    -0.162 C  
HETATM    4  C   UNL     1      -8.155  11.914  67.403  1.00  0.00    -0.165 C  
HETATM    5  C   UNL     1      -8.106  13.263  68.018  1.00  0.00    -0.157 C  
HETATM    6  C   UNL     1      -9.377  15.137  69.047  1.00  0.00    -0.219 A  
HETATM    7  F   UNL     1     -12.863  15.476  69.949  1.00  0.00    -0.319 F  
HETATM    8  C   UNL     1      -9.379  13.826  68.540  1.00  0.00    -0.144 A  
HETATM    9  O   UNL     1      -7.063  13.907  68.083  1.00  0.00    -0.090 OA 
HETATM   10  C   UNL     1     -10.559  15.697  69.522  1.00  0.00    -0.266 A  
HETATM   11  C   UNL     1     -10.559  13.049  68.497  1.00  0.00    -0.258 A  
HETATM   12  C   UNL     1     -11.732  13.637  69.000  1.00  0.00    -0.375 A  
HETATM   13  C   UNL     1     -11.722  14.941  69.496  1.00  0.00    -0.320 A  
ENDROOT
BRANCH   4  14
HETATM   14  S   UNL     1      -6.735  11.214  66.600  1.00  0.00    -0.126 S  
HETATM   15  C   UNL     1      -6.234  10.051  67.888  1.00  0.00    -0.057 C  
HETATM   16  O   UNL     1      -7.234  10.413  65.431  1.00  0.00    -0.143 OA 
ENDBRANCH   4  14
TORSDOF 1
ENDMDL
MODEL      122
REMARK 921   NORMALIZED FREE ENERGY PREDICTED BY IDOCK:   -2.95 KCAL/MOL
REMARK 922        TOTAL FREE ENERGY PREDICTED BY IDOCK:   -3.20 KCAL/MOL
REMARK 923 INTER-LIGAND FREE ENERGY PREDICTED BY IDOCK:   -3.12 KCAL/MOL
REMARK 924 INTRA-LIGAND FREE ENERGY PREDICTED BY IDOCK:   -0.08 KCAL/MOL
REMARK 927      BINDING AFFINITY PREDICTED BY RF-SCORE:    0.00 PKD
ROOT
HETATM    1  C   UNL     1     -11.824  13.723  68.261  1.00  0.00    -0.378 C  
HETATM    2  N   UNL     1     -10.428  13.281  68.217  1.00  0.00    -0.245 NA 
HETATM    3  C   UNL     1     -10.086  11.943  68.339  1.00  0.00    -0.206 C  
HETATM    4  C   UNL     1      -8.850  11.432  68.270  1.00  0.00    -0.167 C  
HETATM    5  C   UNL     1      -7.732  12.376  68.028  1.00  0.00    -0.135 C  
HETATM    6  C   UNL     1      -7.045  14.707  67.499  1.00  0.00    -0.203 A  
HETATM    7  F   UNL     1      -8.948  17.765  67.167  1.00  0.00    -0.232 F  
HETATM    8  C   UNL     1      -8.076  13.807  67.818  1.00  0.00    -0.176 A  
HETATM    9  O   UNL     1      -6.565  11.999  67.984  1.00  0.00    -0.061 OA 
HETATM   10  C   UNL     1      -7.341  16.048  67.276  1.00  0.00    -0.243 A  
HETATM   11  C   UNL     1      -9.422  14.227  67.919  1.00  0.00    -0.212 A  
HETATM   12  C   UNL     1      -9.686  15.590  67.705  1.00  0.00    -0.212 A  
HETATM   13  C   UNL     1      -8.656  16.475  67.383  1.00  0.00    -0.178 A  
ENDROOT
BRANCH   4  14
HETATM   14  S   UNL     1      -8.574   9.680  68.369  1.00  0.00    -0.120 S  
HETATM   15  C   UNL     1      -9.117   9.411  70.070  1.00  0.00    -0.220 C  
HETATM   16  O   UNL     1      -9.573   9.020  67.461  1.00  0.00    -0.137 OA 
ENDBRANCH   4  14
TORSDOF 1
ENDMDL
MODEL      123
REMARK 921   NORMALIZED FREE ENERGY PREDICTED BY IDOCK:   -2.93 KCAL/MOL
REMARK 922        TOTAL FREE ENERGY PREDICTED BY IDOCK:   -3.18 KCAL/MOL
REMARK 923 INTER-LIGAND FREE ENERGY PREDICTED BY IDOCK:   -3.11 KCAL/MOL
REMARK 924 INTRA-LIGAND FREE ENERGY PREDICTED BY IDOCK:   -0.07 KCAL/MOL
REMARK 927      BINDING AFFINITY PREDICTED BY RF-SCORE:    0.00 PKD
ROOT
HETATM    1  C   UNL     1     -10.170   9.884  67.460  1.00  0.00    -0.216 C  
HETATM    2  N   UNL     1      -9.569  11.220  67.455  1.00  0.00    -0.169 NA 
HETATM    3  C   UNL     1     -10.189  12.292  66.830  1.00  0.00    -0.213 C  
HETATM    4  C   UNL     1      -9.747  13.556  66.805  1.00  0.00    -0.271 C  
HETATM    5  C   UNL     1      -8.482  13.854  67.518  1.00  0.00    -0.196 C  
HETATM    6  C   UNL     1      -6.683  13.015  69.017  1.00  0.00    -0.099 A  
HETATM    7  F   UNL     1      -6.018   9.733  70.384  1.00  0.00    -0.044 F  
HETATM    8  C   UNL     1      -7.835  12.740  68.260  1.00  0.00    -0.141 A  
HETATM    9  O   UNL     1      -7.987  14.977  67.517  1.00  0.00    -0.148 OA 
HETATM   10  C   UNL     1      -6.069  11.996  69.739  1.00  0.00    -0.145 A  
HETATM   11  C   UNL     1      -8.396  11.444  68.209  1.00  0.00    -0.152 A  
HETATM   12  C   UNL     1      -7.743  10.433  68.935  1.00  0.00    -0.111 A  
HETATM   13  C   UNL     1      -6.603  10.718  69.689  1.00  0.00    -0.114 A  
ENDROOT
BRANCH   4  14
HETATM   14  S   UNL     1     -10.692  14.842  66.026  1.00  0.00    -0.335 S  
HETATM   15  C   UNL     1     -12.191  13.903  65.662  1.00  0.00    -0.452 C  
HETATM   16  O   UNL     1     -11.031  15.850  67.087  1.00  0.00    -0.304 OA 
ENDBRANCH   4  14
TORSDOF 1
ENDMDL
MODEL      124
REMARK 921   NORMALIZED FREE ENERGY PREDICTED BY IDOCK:   -2.88 KCAL/MOL
REMARK 922        TOTAL FREE ENERGY PREDICTED BY IDOCK:   -3.13 KCAL/MOL
REMARK 923 INTER-LIGAND FREE ENERGY PREDICTED BY IDOCK:   -3.13 KCAL/MOL
REMARK 924 INTRA-LIGAND FREE ENERGY PREDICTED BY IDOCK:   -0.00 KCAL/MOL
REMARK 927      BINDING AFFINITY PREDICTED BY RF-SCORE:    0.00 PKD
ROOT
HETATM    1  C   UNL     1      -7.008  14.683  68.519  1.00  0.00    -0.110 C  
HETATM    2  N   UNL     1      -8.233  13.972  68.144  1.00  0.00    -0.145 NA 
HETATM    3  C   UNL     1      -8.541  12.728  68.673  1.00  0.00     0.054 C  
HETATM    4  C   UNL     1      -9.649  12.017  68.431  1.00  0.00    -0.190 C  
HETATM    5  C   UNL     1     -10.658  12.610  67.519  1.00  0.00    -0.221 C  
HETATM    6  C   UNL     1     -11.369  14.596  66.201  1.00  0.00    -0.350 A  
HETATM    7  F   UNL     1      -9.752  17.767  65.557  1.00  0.00    -0.036 F  
HETATM    8  C   UNL     1     -10.390  13.976  66.996  1.00  0.00    -0.267 A  
HETATM    9  O   UNL     1     -11.686  12.014  67.215  1.00  0.00    -0.481 OA 
HETATM   10  C   UNL     1     -11.153  15.882  65.716  1.00  0.00    -0.076 A  
HETATM   11  C   UNL     1      -9.177  14.626  67.321  1.00  0.00    -0.205 A  
HETATM   12  C   UNL     1      -8.983  15.917  66.802  1.00  0.00    -0.280 A  
HETATM   13  C   UNL     1      -9.964  16.527  66.019  1.00  0.00    -0.337 A  
ENDROOT
BRANCH   4  14
HETATM   14  S   UNL     1      -9.942  10.466  69.245  1.00  0.00    -0.219 S  
HETATM   15  C   UNL     1      -9.839   9.376  67.809  1.00  0.00    -0.170 C  
HETATM   16  O   UNL     1      -8.749  10.188  70.115  1.00  0.00    -0.100 OA 
ENDBRANCH   4  14
TORSDOF 1
ENDMDL
MODEL      125
REMARK 921   NORMALIZED FREE ENERGY PREDICTED BY IDOCK:   -2.83 KCAL/MOL
REMARK 922        TOTAL FREE ENERGY PREDICTED BY IDOCK:   -3.08 KCAL/MOL
REMARK 923 INTER-LIGAND FREE ENERGY PREDICTED BY IDOCK:   -2.98 KCAL/MOL
REMARK 924 INTRA-LIGAND FREE ENERGY PREDICTED BY IDOCK:   -0.10 KCAL/MOL
REMARK 927      BINDING AFFINITY PREDICTED BY RF-SCORE:    0.00 PKD
ROOT
HETATM    1  C   UNL     1      -9.893   6.522  67.693  1.00  0.00    -0.125 C  
HETATM    2  N   UNL     1     -10.022   5.842  68.984  1.00  0.00    -0.156 NA 
HETATM    3  C   UNL     1      -9.421   4.615  69.222  1.00  0.00    -0.162 C  
HETATM    4  C   UNL     1      -9.442   3.934  70.374  1.00  0.00    -0.181 C  
HETATM    5  C   UNL     1     -10.163   4.544  71.518  1.00  0.00    -0.125 C  
HETATM    6  C   UNL     1     -11.365   6.532  72.407  1.00  0.00    -0.314 A  
HETATM    7  F   UNL     1     -12.358   9.643  70.853  1.00  0.00    -0.332 F  
HETATM    8  C   UNL     1     -10.753   5.893  71.314  1.00  0.00    -0.325 A  
HETATM    9  O   UNL     1     -10.261   3.974  72.600  1.00  0.00    -0.158 OA 
HETATM   10  C   UNL     1     -11.907   7.804  72.250  1.00  0.00    -0.378 A  
HETATM   11  C   UNL     1     -10.670   6.512  70.046  1.00  0.00    -0.249 A  
HETATM   12  C   UNL     1     -11.241   7.789  69.917  1.00  0.00    -0.070 A  
HETATM   13  C   UNL     1     -11.841   8.417  71.009  1.00  0.00    -0.252 A  
ENDROOT
BRANCH   4  14
HETATM   14  S   UNL     1      -8.558   2.404  70.552  1.00  0.00    -0.058 S  
HETATM   15  C   UNL     1      -8.567   1.877  68.825  1.00  0.00    -0.064 C  
HETATM   16  O   UNL     1      -7.141   2.748  70.916  1.00  0.00    -0.033 OA 
ENDBRANCH   4  14
TORSDOF 1
ENDMDL
MODEL      126
REMARK 921   NORMALIZED FREE ENERGY PREDICTED BY IDOCK:   -2.79 KCAL/MOL
REMARK 922        TOTAL FREE ENERGY PREDICTED BY IDOCK:   -3.04 KCAL/MOL
REMARK 923 INTER-LIGAND FREE ENERGY PREDICTED BY IDOCK:   -2.96 KCAL/MOL
REMARK 924 INTRA-LIGAND FREE ENERGY PREDICTED BY IDOCK:   -0.08 KCAL/MOL
REMARK 927      BINDING AFFINITY PREDICTED BY RF-SCORE:    0.00 PKD
ROOT
HETATM    1  C   UNL     1      -6.752  11.926  66.861  1.00  0.00    -0.076 C  
HETATM    2  N   UNL     1      -7.838  10.949  66.974  1.00  0.00    -0.126 NA 
HETATM    3  C   UNL     1      -7.595   9.584  66.924  1.00  0.00    -0.095 C  
HETATM    4  C   UNL     1      -8.506   8.613  67.060  1.00  0.00    -0.110 C  
HETATM    5  C   UNL     1      -9.912   9.021  67.299  1.00  0.00    -0.216 C  
HETATM    6  C   UNL     1     -11.498  10.884  67.747  1.00  0.00    -0.323 A  
HETATM    7  F   UNL     1     -11.032  14.468  67.875  1.00  0.00    -0.249 F  
HETATM    8  C   UNL     1     -10.190  10.475  67.433  1.00  0.00    -0.253 A  
HETATM    9  O   UNL     1     -10.816   8.198  67.401  1.00  0.00    -0.226 OA 
HETATM   10  C   UNL     1     -11.782  12.237  67.900  1.00  0.00    -0.410 A  
HETATM   11  C   UNL     1      -9.142  11.408  67.265  1.00  0.00    -0.162 A  
HETATM   12  C   UNL     1      -9.465  12.768  67.409  1.00  0.00    -0.190 A  
HETATM   13  C   UNL     1     -10.765  13.164  67.727  1.00  0.00    -0.240 A  
ENDROOT
BRANCH   4  14
HETATM   14  S   UNL     1      -8.032   6.901  67.049  1.00  0.00    -0.117 S  
HETATM   15  C   UNL     1      -6.238   7.112  67.002  1.00  0.00    -0.049 C  
HETATM   16  O   UNL     1      -8.389   6.332  68.393  1.00  0.00    -0.114 OA 
ENDBRANCH   4  14
TORSDOF 1
ENDMDL
MODEL      127
REMARK 921   NORMALIZED FREE ENERGY PREDICTED BY IDOCK:   -2.78 KCAL/MOL
REMARK 922        TOTAL FREE ENERGY PREDICTED BY IDOCK:   -3.02 KCAL/MOL
REMARK 923 INTER-LIGAND FREE ENERGY PREDICTED BY IDOCK:   -2.91 KCAL/MOL
REMARK 924 INTRA-LIGAND FREE ENERGY PREDICTED BY IDOCK:   -0.11 KCAL/MOL
REMARK 927      BINDING AFFINITY PREDICTED BY RF-SCORE:    0.00 PKD
ROOT
HETATM    1  C   UNL     1      -9.026   9.518  67.477  1.00  0.00    -0.124 C  
HETATM    2  N   UNL     1      -9.484   9.217  68.836  1.00  0.00    -0.152 NA 
HETATM    3  C   UNL     1     -10.384  10.038  69.498  1.00  0.00    -0.235 C  
HETATM    4  C   UNL     1     -10.895   9.832  70.718  1.00  0.00    -0.333 C  
HETATM    5  C   UNL     1     -10.477   8.604  71.436  1.00  0.00    -0.257 C  
HETATM    6  C   UNL     1      -9.230   6.453  71.345  1.00  0.00    -0.150 A  
HETATM    7  F   UNL     1      -7.122   4.996  68.793  1.00  0.00    -0.052 F  
HETATM    8  C   UNL     1      -9.572   7.666  70.722  1.00  0.00    -0.166 A  
HETATM    9  O   UNL     1     -10.869   8.353  72.572  1.00  0.00    -0.344 OA 
HETATM   10  C   UNL     1      -8.403   5.547  70.690  1.00  0.00    -0.117 A  
HETATM   11  C   UNL     1      -9.094   7.998  69.433  1.00  0.00    -0.148 A  
HETATM   12  C   UNL     1      -8.246   7.069  68.806  1.00  0.00    -0.122 A  
HETATM   13  C   UNL     1      -7.918   5.865  69.430  1.00  0.00    -0.102 A  
ENDROOT
BRANCH   4  14
HETATM   14  S   UNL     1     -12.102  10.938  71.407  1.00  0.00    -0.004 S  
HETATM   15  C   UNL     1     -12.059  12.220  70.136  1.00  0.00    -0.287 C  
HETATM   16  O   UNL     1     -13.436  10.252  71.319  1.00  0.00    -0.319 OA 
ENDBRANCH   4  14
TORSDOF 1
ENDMDL
MODEL      128
REMARK 921   NORMALIZED FREE ENERGY PREDICTED BY IDOCK:   -2.75 KCAL/MOL
REMARK 922        TOTAL FREE ENERGY PREDICTED BY IDOCK:   -2.99 KCAL/MOL
REMARK 923 INTER-LIGAND FREE ENERGY PREDICTED BY IDOCK:   -2.88 KCAL/MOL
REMARK 924 INTRA-LIGAND FREE ENERGY PREDICTED BY IDOCK:   -0.11 KCAL/MOL
REMARK 927      BINDING AFFINITY PREDICTED BY RF-SCORE:    0.00 PKD
ROOT
HETATM    1  C   UNL     1      -9.891  10.014  64.641  1.00  0.00    -0.218 C  
HETATM    2  N   UNL     1      -9.392  10.918  65.681  1.00  0.00    -0.198 NA 
HETATM    3  C   UNL     1      -9.708  12.268  65.681  1.00  0.00    -0.192 C  
HETATM    4  C   UNL     1      -9.341  13.166  66.604  1.00  0.00    -0.239 C  
HETATM    5  C   UNL     1      -8.529  12.682  67.747  1.00  0.00    -0.172 C  
HETATM    6  C   UNL     1      -7.548  10.726  68.931  1.00  0.00    -0.121 A  
HETATM    7  F   UNL     1      -7.449   7.208  68.100  1.00  0.00    -0.088 F  
HETATM    8  C   UNL     1      -8.240  11.225  67.813  1.00  0.00    -0.120 A  
HETATM    9  O   UNL     1      -8.120  13.442  68.619  1.00  0.00    -0.126 OA 
HETATM   10  C   UNL     1      -7.283   9.364  69.029  1.00  0.00    -0.071 A  
HETATM   11  C   UNL     1      -8.679  10.375  66.773  1.00  0.00    -0.127 A  
HETATM   12  C   UNL     1      -8.381   9.007  66.894  1.00  0.00    -0.119 A  
HETATM   13  C   UNL     1      -7.699   8.520  68.010  1.00  0.00    -0.103 A  
ENDROOT
BRANCH   4  14
HETATM   14  S   UNL     1      -9.886  14.854  66.510  1.00  0.00    -0.281 S  
HETATM   15  C   UNL     1     -10.690  14.795  64.894  1.00  0.00    -0.417 C  
HETATM   16  O   UNL     1     -10.959  15.033  67.547  1.00  0.00    -0.289 OA 
ENDBRANCH   4  14
TORSDOF 1
ENDMDL
MODEL      129
REMARK 921   NORMALIZED FREE ENERGY PREDICTED BY IDOCK:   -2.75 KCAL/MOL
REMARK 922        TOTAL FREE ENERGY PREDICTED BY IDOCK:   -2.99 KCAL/MOL
REMARK 923 INTER-LIGAND FREE ENERGY PREDICTED BY IDOCK:   -3.14 KCAL/MOL
REMARK 924 INTRA-LIGAND FREE ENERGY PREDICTED BY IDOCK:    0.15 KCAL/MOL
REMARK 927      BINDING AFFINITY PREDICTED BY RF-SCORE:    0.00 PKD
ROOT
HETATM    1  C   UNL     1     -10.775  11.090  67.022  1.00  0.00    -0.270 C  
HETATM    2  N   UNL     1     -10.150   9.843  67.468  1.00  0.00    -0.185 NA 
HETATM    3  C   UNL     1      -9.226   9.171  66.682  1.00  0.00    -0.164 C  
HETATM    4  C   UNL     1      -8.569   8.053  67.013  1.00  0.00    -0.127 C  
HETATM    5  C   UNL     1      -8.836   7.473  68.352  1.00  0.00    -0.126 C  
HETATM    6  C   UNL     1      -9.966   7.733  70.553  1.00  0.00    -0.187 A  
HETATM    7  F   UNL     1     -12.269  10.227  71.800  1.00  0.00    -0.448 F  
HETATM    8  C   UNL     1      -9.764   8.213  69.247  1.00  0.00    -0.170 A  
HETATM    9  O   UNL     1      -8.303   6.432  68.724  1.00  0.00    -0.119 OA 
HETATM   10  C   UNL     1     -10.812   8.418  71.418  1.00  0.00    -0.304 A  
HETATM   11  C   UNL     1     -10.403   9.384  68.781  1.00  0.00    -0.209 A  
HETATM   12  C   UNL     1     -11.265  10.043  69.674  1.00  0.00    -0.285 A  
HETATM   13  C   UNL     1     -11.454   9.563  70.970  1.00  0.00    -0.349 A  
ENDROOT
BRANCH   4  14
HETATM   14  S   UNL     1      -7.354   7.347  65.928  1.00  0.00    -0.076 S  
HETATM   15  C   UNL     1      -5.874   7.704  66.899  1.00  0.00    -0.039 C  
HETATM   16  O   UNL     1      -7.558   5.858  65.939  1.00  0.00    -0.083 OA 
ENDBRANCH   4  14
TORSDOF 1
ENDMDL
MODEL      130
REMARK 921   NORMALIZED FREE ENERGY PREDICTED BY IDOCK:   -2.71 KCAL/MOL
REMARK 922        TOTAL FREE ENERGY PREDICTED BY IDOCK:   -2.95 KCAL/MOL
REMARK 923 INTER-LIGAND FREE ENERGY PREDICTED BY IDOCK:   -2.83 KCAL/MOL
REMARK 924 INTRA-LIGAND FREE ENERGY PREDICTED BY IDOCK:   -0.11 KCAL/MOL
REMARK 927      BINDING AFFINITY PREDICTED BY RF-SCORE:    0.00 PKD
ROOT
HETATM    1  C   UNL     1      -7.097   9.261  65.250  1.00  0.00    -0.090 C  
HETATM    2  N   UNL     1      -8.182   9.209  66.233  1.00  0.00    -0.110 NA 
HETATM    3  C   UNL     1      -8.645  10.353  66.865  1.00  0.00    -0.127 C  
HETATM    4  C   UNL     1      -9.654  10.419  67.742  1.00  0.00    -0.152 C  
HETATM    5  C   UNL     1     -10.362   9.157  68.069  1.00  0.00    -0.222 C  
HETATM    6  C   UNL     1     -10.649   6.736  67.575  1.00  0.00    -0.348 A  
HETATM    7  F   UNL     1      -8.865   4.500  65.362  1.00  0.00    -0.121 F  
HETATM    8  C   UNL     1      -9.937   7.927  67.350  1.00  0.00    -0.261 A  
HETATM    9  O   UNL     1     -11.275   9.120  68.887  1.00  0.00     0.042 OA 
HETATM   10  C   UNL     1     -10.286   5.576  66.899  1.00  0.00    -0.315 A  
HETATM   11  C   UNL     1      -8.851   7.983  66.446  1.00  0.00    -0.157 A  
HETATM   12  C   UNL     1      -8.500   6.790  65.792  1.00  0.00    -0.150 A  
HETATM   13  C   UNL     1      -9.216   5.613  66.018  1.00  0.00    -0.152 A  
ENDROOT
BRANCH   4  14
HETATM   14  S   UNL     1     -10.186  11.975  68.415  1.00  0.00    -0.203 S  
HETATM   15  C   UNL     1      -8.871  13.024  67.756  1.00  0.00    -0.188 C  
HETATM   16  O   UNL     1     -11.462  12.349  67.716  1.00  0.00    -0.280 OA 
ENDBRANCH   4  14
TORSDOF 1
ENDMDL
MODEL      131
REMARK 921   NORMALIZED FREE ENERGY PREDICTED BY IDOCK:   -2.70 KCAL/MOL
REMARK 922        TOTAL FREE ENERGY PREDICTED BY IDOCK:   -2.94 KCAL/MOL
REMARK 923 INTER-LIGAND FREE ENERGY PREDICTED BY IDOCK:   -2.83 KCAL/MOL
REMARK 924 INTRA-LIGAND FREE ENERGY PREDICTED BY IDOCK:   -0.11 KCAL/MOL
REMARK 927      BINDING AFFINITY PREDICTED BY RF-SCORE:    0.00 PKD
ROOT
HETATM    1  C   UNL     1     -11.025   5.971  69.562  1.00  0.00    -0.397 C  
HETATM    2  N   UNL     1     -10.494   6.833  68.503  1.00  0.00    -0.190 NA 
HETATM    3  C   UNL     1     -10.520   8.215  68.611  1.00  0.00    -0.165 C  
HETATM    4  C   UNL     1     -10.025   9.087  67.724  1.00  0.00    -0.187 C  
HETATM    5  C   UNL     1      -9.373   8.535  66.511  1.00  0.00    -0.203 C  
HETATM    6  C   UNL     1      -8.572   6.510  65.309  1.00  0.00    -0.036 A  
HETATM    7  F   UNL     1      -8.866   2.985  66.064  1.00  0.00    -0.116 F  
HETATM    8  C   UNL     1      -9.263   7.057  66.405  1.00  0.00    -0.186 A  
HETATM    9  O   UNL     1      -8.923   9.262  65.631  1.00  0.00    -0.172 OA 
HETATM   10  C   UNL     1      -8.436   5.130  65.196  1.00  0.00    -0.147 A  
HETATM   11  C   UNL     1      -9.831   6.237  67.407  1.00  0.00    -0.131 A  
HETATM   12  C   UNL     1      -9.690   4.848  67.255  1.00  0.00    -0.194 A  
HETATM   13  C   UNL     1      -8.997   4.314  66.167  1.00  0.00    -0.123 A  
ENDROOT
BRANCH   4  14
HETATM   14  S   UNL     1     -10.064  10.835  68.035  1.00  0.00    -0.182 S  
HETATM   15  C   UNL     1     -10.933  10.814  69.619  1.00  0.00    -0.264 C  
HETATM   16  O   UNL     1      -8.650  11.272  68.296  1.00  0.00    -0.140 OA 
ENDBRANCH   4  14
TORSDOF 1
ENDMDL
MODEL      132
REMARK 921   NORMALIZED FREE ENERGY PREDICTED BY IDOCK:   -2.68 KCAL/MOL
REMARK 922        TOTAL FREE ENERGY PREDICTED BY IDOCK:   -2.91 KCAL/MOL
REMARK 923 INTER-LIGAND FREE ENERGY PREDICTED BY IDOCK:   -2.83 KCAL/MOL
REMARK 924 INTRA-LIGAND FREE ENERGY PREDICTED BY IDOCK:   -0.08 KCAL/MOL
REMARK 927      BINDING AFFINITY PREDICTED BY RF-SCORE:    0.00 PKD
ROOT
HETATM    1  C   UNL     1     -11.537   7.917  72.858  1.00  0.00    -0.243 C  
HETATM    2  N   UNL     1     -10.330   7.345  72.253  1.00  0.00    -0.206 NA 
HETATM    3  C   UNL     1      -9.334   8.149  71.721  1.00  0.00    -0.181 C  
HETATM    4  C   UNL     1      -8.180   7.731  71.188  1.00  0.00    -0.099 C  
HETATM    5  C   UNL     1      -7.924   6.270  71.169  1.00  0.00    -0.116 C  
HETATM    6  C   UNL     1      -8.681   4.008  71.875  1.00  0.00    -0.127 A  
HETATM    7  F   UNL     1     -11.669   2.890  73.579  1.00  0.00    -0.321 F  
HETATM    8  C   UNL     1      -8.940   5.388  71.801  1.00  0.00    -0.146 A  
HETATM    9  O   UNL     1      -6.908   5.797  70.669  1.00  0.00    -0.050 OA 
HETATM   10  C   UNL     1      -9.605   3.163  72.481  1.00  0.00    -0.190 A  
HETATM   11  C   UNL     1     -10.125   5.950  72.329  1.00  0.00    -0.182 A  
HETATM   12  C   UNL     1     -11.045   5.067  72.918  1.00  0.00    -0.348 A  
HETATM   13  C   UNL     1     -10.777   3.699  72.993  1.00  0.00    -0.142 A  
ENDROOT
BRANCH   4  14
HETATM   14  S   UNL     1      -6.961   8.888  70.613  1.00  0.00    -0.074 S  
HETATM   15  C   UNL     1      -8.069  10.132  69.915  1.00  0.00    -0.122 C  
HETATM   16  O   UNL     1      -6.308   9.487  71.826  1.00  0.00    -0.283 OA 
ENDBRANCH   4  14
TORSDOF 1
ENDMDL
MODEL      133
REMARK 921   NORMALIZED FREE ENERGY PREDICTED BY IDOCK:   -2.67 KCAL/MOL
REMARK 922        TOTAL FREE ENERGY PREDICTED BY IDOCK:   -2.91 KCAL/MOL
REMARK 923 INTER-LIGAND FREE ENERGY PREDICTED BY IDOCK:   -2.90 KCAL/MOL
REMARK 924 INTRA-LIGAND FREE ENERGY PREDICTED BY IDOCK:   -0.01 KCAL/MOL
REMARK 927      BINDING AFFINITY PREDICTED BY RF-SCORE:    0.00 PKD
ROOT
HETATM    1  C   UNL     1      -9.700   4.735  67.209  1.00  0.00    -0.182 C  
HETATM    2  N   UNL     1      -9.853   5.510  68.443  1.00  0.00    -0.134 NA 
HETATM    3  C   UNL     1      -9.883   4.898  69.687  1.00  0.00    -0.218 C  
HETATM    4  C   UNL     1      -9.975   5.515  70.871  1.00  0.00    -0.199 C  
HETATM    5  C   UNL     1     -10.042   6.997  70.867  1.00  0.00    -0.193 C  
HETATM    6  C   UNL     1      -9.907   9.090  69.530  1.00  0.00    -0.181 A  
HETATM    7  F   UNL     1      -9.590   9.661  65.973  1.00  0.00    -0.215 F  
HETATM    8  C   UNL     1      -9.936   7.684  69.554  1.00  0.00    -0.182 A  
HETATM    9  O   UNL     1     -10.162   7.642  71.904  1.00  0.00    -0.188 OA 
HETATM   10  C   UNL     1      -9.787   9.759  68.316  1.00  0.00    -0.167 A  
HETATM   11  C   UNL     1      -9.846   6.921  68.368  1.00  0.00    -0.143 A  
HETATM   12  C   UNL     1      -9.742   7.627  67.157  1.00  0.00    -0.239 A  
HETATM   13  C   UNL     1      -9.709   9.022  67.144  1.00  0.00    -0.181 A  
ENDROOT
BRANCH   4  14
HETATM   14  S   UNL     1      -9.924   4.598  72.391  1.00  0.00    -0.178 S  
HETATM   15  C   UNL     1     -11.624   4.873  72.937  1.00  0.00    -0.140 C  
HETATM   16  O   UNL     1      -9.791   3.145  72.030  1.00  0.00    -0.156 OA 
ENDBRANCH   4  14
TORSDOF 1
ENDMDL
MODEL      134
REMARK 921   NORMALIZED FREE ENERGY PREDICTED BY IDOCK:   -2.67 KCAL/MOL
REMARK 922        TOTAL FREE ENERGY PREDICTED BY IDOCK:   -2.91 KCAL/MOL
REMARK 923 INTER-LIGAND FREE ENERGY PREDICTED BY IDOCK:   -2.82 KCAL/MOL
REMARK 924 INTRA-LIGAND FREE ENERGY PREDICTED BY IDOCK:   -0.08 KCAL/MOL
REMARK 927      BINDING AFFINITY PREDICTED BY RF-SCORE:    0.00 PKD
ROOT
HETATM    1  C   UNL     1     -11.089   7.108  69.049  1.00  0.00    -0.015 C  
HETATM    2  N   UNL     1     -10.493   5.861  69.536  1.00  0.00    -0.248 NA 
HETATM    3  C   UNL     1     -10.491   5.535  70.884  1.00  0.00    -0.249 C  
HETATM    4  C   UNL     1     -10.014   4.407  71.424  1.00  0.00    -0.178 C  
HETATM    5  C   UNL     1      -9.441   3.395  70.503  1.00  0.00    -0.177 C  
HETATM    6  C   UNL     1      -9.045   2.704  68.147  1.00  0.00    -0.229 A  
HETATM    7  F   UNL     1      -9.676   4.379  65.004  1.00  0.00    -0.155 F  
HETATM    8  C   UNL     1      -9.499   3.684  69.046  1.00  0.00    -0.226 A  
HETATM    9  O   UNL     1      -8.951   2.349  70.915  1.00  0.00    -0.072 OA 
HETATM   10  C   UNL     1      -9.108   2.939  66.778  1.00  0.00    -0.171 A  
HETATM   11  C   UNL     1     -10.025   4.916  68.596  1.00  0.00    -0.125 A  
HETATM   12  C   UNL     1     -10.059   5.129  67.207  1.00  0.00    -0.235 A  
HETATM   13  C   UNL     1      -9.611   4.148  66.322  1.00  0.00    -0.199 A  
ENDROOT
BRANCH   4  14
HETATM   14  S   UNL     1     -10.149   4.096  73.167  1.00  0.00    -0.154 S  
HETATM   15  C   UNL     1      -8.845   5.202  73.748  1.00  0.00    -0.118 C  
HETATM   16  O   UNL     1     -11.464   4.664  73.620  1.00  0.00    -0.273 OA 
ENDBRANCH   4  14
TORSDOF 1
ENDMDL
MODEL      135
REMARK 921   NORMALIZED FREE ENERGY PREDICTED BY IDOCK:   -2.57 KCAL/MOL
REMARK 922        TOTAL FREE ENERGY PREDICTED BY IDOCK:   -2.80 KCAL/MOL
REMARK 923 INTER-LIGAND FREE ENERGY PREDICTED BY IDOCK:   -2.71 KCAL/MOL
REMARK 924 INTRA-LIGAND FREE ENERGY PREDICTED BY IDOCK:   -0.09 KCAL/MOL
REMARK 927      BINDING AFFINITY PREDICTED BY RF-SCORE:    0.00 PKD
ROOT
HETATM    1  C   UNL     1      -8.563   7.201  65.655  1.00  0.00    -0.107 C  
HETATM    2  N   UNL     1      -8.800   7.080  67.096  1.00  0.00    -0.119 NA 
HETATM    3  C   UNL     1      -8.932   8.197  67.907  1.00  0.00    -0.133 C  
HETATM    4  C   UNL     1      -9.191   8.196  69.220  1.00  0.00    -0.151 C  
HETATM    5  C   UNL     1      -9.368   6.881  69.882  1.00  0.00    -0.150 C  
HETATM    6  C   UNL     1      -9.559   4.416  69.611  1.00  0.00    -0.275 A  
HETATM    7  F   UNL     1      -9.214   2.276  66.716  1.00  0.00    -0.146 F  
HETATM    8  C   UNL     1      -9.307   5.668  69.024  1.00  0.00    -0.150 A  
HETATM    9  O   UNL     1      -9.574   6.786  71.088  1.00  0.00    -0.173 OA 
HETATM   10  C   UNL     1      -9.530   3.267  68.827  1.00  0.00    -0.198 A  
HETATM   11  C   UNL     1      -9.022   5.798  67.646  1.00  0.00    -0.107 A  
HETATM   12  C   UNL     1      -8.983   4.617  66.886  1.00  0.00    -0.113 A  
HETATM   13  C   UNL     1      -9.241   3.378  67.476  1.00  0.00    -0.192 A  
ENDROOT
BRANCH   4  14
HETATM   14  S   UNL     1      -9.408   9.716  70.114  1.00  0.00    -0.225 S  
HETATM   15  C   UNL     1      -9.298  10.870  68.729  1.00  0.00    -0.185 C  
HETATM   16  O   UNL     1     -10.824   9.738  70.616  1.00  0.00    -0.285 OA 
ENDBRANCH   4  14
TORSDOF 1
ENDMDL
MODEL      136
REMARK 921   NORMALIZED FREE ENERGY PREDICTED BY IDOCK:   -2.51 KCAL/MOL
REMARK 922        TOTAL FREE ENERGY PREDICTED BY IDOCK:   -2.74 KCAL/MOL
REMARK 923 INTER-LIGAND FREE ENERGY PREDICTED BY IDOCK:   -2.67 KCAL/MOL
REMARK 924 INTRA-LIGAND FREE ENERGY PREDICTED BY IDOCK:   -0.08 KCAL/MOL
REMARK 927      BINDING AFFINITY PREDICTED BY RF-SCORE:    0.00 PKD
ROOT
HETATM    1  C   UNL     1     -11.666   8.037  72.333  1.00  0.00    -0.386 C  
HETATM    2  N   UNL     1     -10.654   7.713  71.324  1.00  0.00    -0.218 NA 
HETATM    3  C   UNL     1     -10.348   8.590  70.295  1.00  0.00    -0.205 C  
HETATM    4  C   UNL     1      -9.414   8.409  69.352  1.00  0.00    -0.158 C  
HETATM    5  C   UNL     1      -8.616   7.160  69.410  1.00  0.00    -0.134 C  
HETATM    6  C   UNL     1      -8.067   5.090  70.675  1.00  0.00    -0.094 A  
HETATM    7  F   UNL     1      -9.469   3.662  73.688  1.00  0.00    -0.099 F  
HETATM    8  C   UNL     1      -8.870   6.236  70.547  1.00  0.00    -0.144 A  
HETATM    9  O   UNL     1      -7.764   6.897  68.568  1.00  0.00    -0.108 OA 
HETATM   10  C   UNL     1      -8.268   4.220  71.741  1.00  0.00    -0.096 A  
HETATM   11  C   UNL     1      -9.889   6.536  71.480  1.00  0.00    -0.168 A  
HETATM   12  C   UNL     1     -10.078   5.628  72.536  1.00  0.00    -0.208 A  
HETATM   13  C   UNL     1      -9.272   4.496  72.658  1.00  0.00    -0.126 A  
ENDROOT
BRANCH   4  14
HETATM   14  S   UNL     1      -9.082   9.660  68.137  1.00  0.00    -0.121 S  
HETATM   15  C   UNL     1     -10.701   9.706  67.338  1.00  0.00    -0.241 C  
HETATM   16  O   UNL     1      -8.898  10.957  68.872  1.00  0.00    -0.163 OA 
ENDBRANCH   4  14
TORSDOF 1
ENDMDL
MODEL      137
REMARK 921   NORMALIZED FREE ENERGY PREDICTED BY IDOCK:   -2.47 KCAL/MOL
REMARK 922        TOTAL FREE ENERGY PREDICTED BY IDOCK:   -2.70 KCAL/MOL
REMARK 923 INTER-LIGAND FREE ENERGY PREDICTED BY IDOCK:   -3.11 KCAL/MOL
REMARK 924 INTRA-LIGAND FREE ENERGY PREDICTED BY IDOCK:    0.41 KCAL/MOL
REMARK 927      BINDING AFFINITY PREDICTED BY RF-SCORE:    0.00 PKD
ROOT
HETATM    1  C   UNL     1      -7.995  10.305  69.236  1.00  0.00    -0.149 C  
HETATM    2  N   UNL     1      -8.543   9.004  68.845  1.00  0.00    -0.130 NA 
HETATM    3  C   UNL     1      -7.895   8.189  67.929  1.00  0.00    -0.122 C  
HETATM    4  C   UNL     1      -8.287   6.970  67.538  1.00  0.00    -0.119 C  
HETATM    5  C   UNL     1      -9.524   6.421  68.145  1.00  0.00    -0.114 C  
HETATM    6  C   UNL     1     -11.322   6.705  69.840  1.00  0.00    -0.422 A  
HETATM    7  F   UNL     1     -12.086   9.413  72.113  1.00  0.00    -0.424 F  
HETATM    8  C   UNL     1     -10.198   7.240  69.186  1.00  0.00    -0.197 A  
HETATM    9  O   UNL     1      -9.974   5.327  67.819  1.00  0.00    -0.147 OA 
HETATM   10  C   UNL     1     -11.959   7.441  70.834  1.00  0.00    -0.308 A  
HETATM   11  C   UNL     1      -9.690   8.518  69.511  1.00  0.00    -0.176 A  
HETATM   12  C   UNL     1     -10.366   9.242  70.507  1.00  0.00    -0.312 A  
HETATM   13  C   UNL     1     -11.477   8.701  71.155  1.00  0.00    -0.280 A  
ENDROOT
BRANCH   4  14
HETATM   14  S   UNL     1      -7.309   6.010  66.408  1.00  0.00    -0.082 S  
HETATM   15  C   UNL     1      -6.016   5.472  67.549  1.00  0.00    -0.022 C  
HETATM   16  O   UNL     1      -8.120   4.801  66.035  1.00  0.00    -0.105 OA 
ENDBRANCH   4  14
TORSDOF 1
ENDMDL
MODEL      138
REMARK 921   NORMALIZED FREE ENERGY PREDICTED BY IDOCK:   -2.43 KCAL/MOL
REMARK 922        TOTAL FREE ENERGY PREDICTED BY IDOCK:   -2.66 KCAL/MOL
REMARK 923 INTER-LIGAND FREE ENERGY PREDICTED BY IDOCK:   -2.81 KCAL/MOL
REMARK 924 INTRA-LIGAND FREE ENERGY PREDICTED BY IDOCK:    0.16 KCAL/MOL
REMARK 927      BINDING AFFINITY PREDICTED BY RF-SCORE:    0.00 PKD
ROOT
HETATM    1  C   UNL     1      -8.599   4.389  66.076  1.00  0.00    -0.113 C  
HETATM    2  N   UNL     1      -8.631   5.853  66.075  1.00  0.00    -0.136 NA 
HETATM    3  C   UNL     1      -8.064   6.592  65.047  1.00  0.00    -0.127 C  
HETATM    4  C   UNL     1      -8.077   7.925  64.931  1.00  0.00    -0.144 C  
HETATM    5  C   UNL     1      -8.771   8.699  65.989  1.00  0.00    -0.170 C  
HETATM    6  C   UNL     1     -10.194   8.636  68.028  1.00  0.00    -0.261 A  
HETATM    7  F   UNL     1     -11.416   5.883  70.030  1.00  0.00    -0.435 F  
HETATM    8  C   UNL     1      -9.454   7.931  67.063  1.00  0.00    -0.222 A  
HETATM    9  O   UNL     1      -8.802   9.925  65.979  1.00  0.00    -0.140 OA 
HETATM   10  C   UNL     1     -10.861   7.941  69.032  1.00  0.00    -0.029 A  
HETATM   11  C   UNL     1      -9.366   6.520  67.081  1.00  0.00    -0.126 A  
HETATM   12  C   UNL     1     -10.037   5.849  68.117  1.00  0.00    -0.199 A  
HETATM   13  C   UNL     1     -10.773   6.557  69.068  1.00  0.00    -0.278 A  
ENDROOT
BRANCH   4  14
HETATM   14  S   UNL     1      -7.371   8.729  63.513  1.00  0.00    -0.103 S  
HETATM   15  C   UNL     1      -8.898   9.221  62.685  1.00  0.00    -0.204 C  
HETATM   16  O   UNL     1      -6.693   9.978  64.001  1.00  0.00    -0.124 OA 
ENDBRANCH   4  14
TORSDOF 1
ENDMDL
MODEL      139
REMARK 921   NORMALIZED FREE ENERGY PREDICTED BY IDOCK:   -2.33 KCAL/MOL
REMARK 922        TOTAL FREE ENERGY PREDICTED BY IDOCK:   -2.54 KCAL/MOL
REMARK 923 INTER-LIGAND FREE ENERGY PREDICTED BY IDOCK:   -2.46 KCAL/MOL
REMARK 924 INTRA-LIGAND FREE ENERGY PREDICTED BY IDOCK:   -0.09 KCAL/MOL
REMARK 927      BINDING AFFINITY PREDICTED BY RF-SCORE:    0.00 PKD
ROOT
HETATM    1  C   UNL     1      -9.621   4.279  69.065  1.00  0.00    -0.170 C  
HETATM    2  N   UNL     1      -9.329   5.681  68.754  1.00  0.00    -0.121 NA 
HETATM    3  C   UNL     1      -9.400   6.670  69.723  1.00  0.00    -0.145 C  
HETATM    4  C   UNL     1      -9.112   7.967  69.553  1.00  0.00    -0.149 C  
HETATM    5  C   UNL     1      -8.662   8.397  68.207  1.00  0.00    -0.143 C  
HETATM    6  C   UNL     1      -7.994   7.713  65.910  1.00  0.00    -0.116 A  
HETATM    7  F   UNL     1      -7.983   4.494  64.262  1.00  0.00    -0.085 F  
HETATM    8  C   UNL     1      -8.504   7.346  67.168  1.00  0.00    -0.118 A  
HETATM    9  O   UNL     1      -8.411   9.571  67.953  1.00  0.00    -0.118 OA 
HETATM   10  C   UNL     1      -7.816   6.746  64.927  1.00  0.00    -0.119 A  
HETATM   11  C   UNL     1      -8.844   6.007  67.468  1.00  0.00    -0.109 A  
HETATM   12  C   UNL     1      -8.668   5.057  66.447  1.00  0.00    -0.114 A  
HETATM   13  C   UNL     1      -8.156   5.430  65.204  1.00  0.00    -0.121 A  
ENDROOT
BRANCH   4  14
HETATM   14  S   UNL     1      -9.177   9.107  70.912  1.00  0.00    -0.245 S  
HETATM   15  C   UNL     1     -10.571   8.390  71.809  1.00  0.00    -0.282 C  
HETATM   16  O   UNL     1      -7.941   8.886  71.738  1.00  0.00    -0.303 OA 
ENDBRANCH   4  14
TORSDOF 1
ENDMDL
MODEL      140
REMARK 921   NORMALIZED FREE ENERGY PREDICTED BY IDOCK:   -2.21 KCAL/MOL
REMARK 922        TOTAL FREE ENERGY PREDICTED BY IDOCK:   -2.43 KCAL/MOL
REMARK 923 INTER-LIGAND FREE ENERGY PREDICTED BY IDOCK:   -2.43 KCAL/MOL
REMARK 924 INTRA-LIGAND FREE ENERGY PREDICTED BY IDOCK:    0.00 KCAL/MOL
REMARK 927      BINDING AFFINITY PREDICTED BY RF-SCORE:    0.00 PKD
ROOT
HETATM    1  C   UNL     1      -6.206   3.571  68.220  1.00  0.00    -0.032 C  
HETATM    2  N   UNL     1      -7.485   4.139  67.784  1.00  0.00    -0.068 NA 
HETATM    3  C   UNL     1      -7.865   4.134  66.450  1.00  0.00    -0.094 C  
HETATM    4  C   UNL     1      -9.024   4.585  65.956  1.00  0.00    -0.122 C  
HETATM    5  C   UNL     1     -10.010   5.136  66.917  1.00  0.00    -0.201 C  
HETATM    6  C   UNL     1     -10.615   5.519  69.300  1.00  0.00    -0.325 A  
HETATM    7  F   UNL     1      -8.801   4.926  72.372  1.00  0.00    -0.119 F  
HETATM    8  C   UNL     1      -9.662   5.085  68.361  1.00  0.00    -0.209 A  
HETATM    9  O   UNL     1     -11.083   5.603  66.548  1.00  0.00    -0.194 OA 
HETATM   10  C   UNL     1     -10.323   5.462  70.658  1.00  0.00    -0.333 A  
HETATM   11  C   UNL     1      -8.401   4.587  68.762  1.00  0.00    -0.080 A  
HETATM   12  C   UNL     1      -8.131   4.558  70.140  1.00  0.00    -0.063 A  
HETATM   13  C   UNL     1      -9.086   4.985  71.064  1.00  0.00    -0.141 A  
ENDROOT
BRANCH   4  14
HETATM   14  S   UNL     1      -9.403   4.442  64.227  1.00  0.00    -0.085 S  
HETATM   15  C   UNL     1      -8.155   3.218  63.771  1.00  0.00    -0.085 C  
HETATM   16  O   UNL     1     -10.749   3.784  64.119  1.00  0.00    -0.276 OA 
ENDBRANCH   4  14
TORSDOF 1
ENDMDL
MODEL      141
REMARK 921   NORMALIZED FREE ENERGY PREDICTED BY IDOCK:   -2.21 KCAL/MOL
REMARK 922        TOTAL FREE ENERGY PREDICTED BY IDOCK:   -2.42 KCAL/MOL
REMARK 923 INTER-LIGAND FREE ENERGY PREDICTED BY IDOCK:   -2.33 KCAL/MOL
REMARK 924 INTRA-LIGAND FREE ENERGY PREDICTED BY IDOCK:   -0.09 KCAL/MOL
REMARK 927      BINDING AFFINITY PREDICTED BY RF-SCORE:    0.00 PKD
ROOT
HETATM    1  C   UNL     1      -8.156   5.636  72.187  1.00  0.00    -0.108 C  
HETATM    2  N   UNL     1      -8.459   6.239  70.887  1.00  0.00    -0.130 NA 
HETATM    3  C   UNL     1      -8.268   7.592  70.652  1.00  0.00    -0.113 C  
HETATM    4  C   UNL     1      -8.473   8.231  69.493  1.00  0.00    -0.125 C  
HETATM    5  C   UNL     1      -8.937   7.423  68.339  1.00  0.00    -0.134 C  
HETATM    6  C   UNL     1      -9.430   5.158  67.439  1.00  0.00    -0.144 A  
HETATM    7  F   UNL     1      -9.433   1.894  68.998  1.00  0.00    -0.173 F  
HETATM    8  C   UNL     1      -9.077   5.957  68.540  1.00  0.00    -0.111 A  
HETATM    9  O   UNL     1      -9.182   7.933  67.250  1.00  0.00    -0.137 OA 
HETATM   10  C   UNL     1      -9.548   3.780  67.594  1.00  0.00    -0.199 A  
HETATM   11  C   UNL     1      -8.836   5.398  69.816  1.00  0.00    -0.110 A  
HETATM   12  C   UNL     1      -8.979   4.006  69.943  1.00  0.00    -0.161 A  
HETATM   13  C   UNL     1      -9.324   3.220  68.843  1.00  0.00    -0.164 A  
ENDROOT
BRANCH   4  14
HETATM   14  S   UNL     1      -8.110   9.961  69.323  1.00  0.00    -0.141 S  
HETATM   15  C   UNL     1      -9.795  10.606  69.405  1.00  0.00    -0.139 C  
HETATM   16  O   UNL     1      -7.395  10.392  70.572  1.00  0.00    -0.240 OA 
ENDBRANCH   4  14
TORSDOF 1
ENDMDL
MODEL      142
REMARK 921   NORMALIZED FREE ENERGY PREDICTED BY IDOCK:   -2.16 KCAL/MOL
REMARK 922        TOTAL FREE ENERGY PREDICTED BY IDOCK:   -2.37 KCAL/MOL
REMARK 923 INTER-LIGAND FREE ENERGY PREDICTED BY IDOCK:   -2.30 KCAL/MOL
REMARK 924 INTRA-LIGAND FREE ENERGY PREDICTED BY IDOCK:   -0.07 KCAL/MOL
REMARK 927      BINDING AFFINITY PREDICTED BY RF-SCORE:    0.00 PKD
ROOT
HETATM    1  C   UNL     1      -9.415   1.983  69.116  1.00  0.00    -0.077 C  
HETATM    2  N   UNL     1      -9.053   3.384  68.887  1.00  0.00    -0.130 NA 
HETATM    3  C   UNL     1      -8.507   3.806  67.684  1.00  0.00    -0.095 C  
HETATM    4  C   UNL     1      -8.182   5.064  67.360  1.00  0.00    -0.106 C  
HETATM    5  C   UNL     1      -8.438   6.119  68.371  1.00  0.00    -0.114 C  
HETATM    6  C   UNL     1      -9.426   6.701  70.578  1.00  0.00    -0.171 A  
HETATM    7  F   UNL     1     -10.953   4.664  73.147  1.00  0.00    -0.254 F  
HETATM    8  C   UNL     1      -9.093   5.708  69.640  1.00  0.00    -0.148 A  
HETATM    9  O   UNL     1      -8.140   7.292  68.171  1.00  0.00    -0.121 OA 
HETATM   10  C   UNL     1     -10.060   6.347  71.765  1.00  0.00    -0.206 A  
HETATM   11  C   UNL     1      -9.384   4.344  69.869  1.00  0.00    -0.155 A  
HETATM   12  C   UNL     1     -10.009   4.017  71.085  1.00  0.00    -0.197 A  
HETATM   13  C   UNL     1     -10.342   5.011  72.007  1.00  0.00    -0.213 A  
ENDROOT
BRANCH   4  14
HETATM   14  S   UNL     1      -7.559   5.464  65.746  1.00  0.00    -0.084 S  
HETATM   15  C   UNL     1      -7.806   3.862  64.949  1.00  0.00    -0.085 C  
HETATM   16  O   UNL     1      -8.522   6.436  65.125  1.00  0.00    -0.140 OA 
ENDBRANCH   4  14
TORSDOF 1
ENDMDL
MODEL      143
REMARK 921   NORMALIZED FREE ENERGY PREDICTED BY IDOCK:   -1.96 KCAL/MOL
REMARK 922        TOTAL FREE ENERGY PREDICTED BY IDOCK:   -2.15 KCAL/MOL
REMARK 923 INTER-LIGAND FREE ENERGY PREDICTED BY IDOCK:   -2.06 KCAL/MOL
REMARK 924 INTRA-LIGAND FREE ENERGY PREDICTED BY IDOCK:   -0.10 KCAL/MOL
REMARK 927      BINDING AFFINITY PREDICTED BY RF-SCORE:    0.00 PKD
ROOT
HETATM    1  C   UNL     1      -7.038   4.618  70.011  1.00  0.00    -0.049 C  
HETATM    2  N   UNL     1      -7.488   5.665  69.089  1.00  0.00    -0.081 NA 
HETATM    3  C   UNL     1      -7.461   5.483  67.715  1.00  0.00    -0.080 C  
HETATM    4  C   UNL     1      -7.888   6.354  66.792  1.00  0.00    -0.104 C  
HETATM    5  C   UNL     1      -8.456   7.637  67.273  1.00  0.00    -0.121 C  
HETATM    6  C   UNL     1      -9.184   8.997  69.225  1.00  0.00    -0.145 A  
HETATM    7  F   UNL     1      -8.966   8.411  72.787  1.00  0.00    -0.256 F  
HETATM    8  C   UNL     1      -8.568   7.829  68.743  1.00  0.00    -0.129 A  
HETATM    9  O   UNL     1      -8.839   8.507  66.497  1.00  0.00    -0.127 OA 
HETATM   10  C   UNL     1      -9.321   9.192  70.595  1.00  0.00    -0.312 A  
HETATM   11  C   UNL     1      -8.077   6.834  69.620  1.00  0.00    -0.126 A  
HETATM   12  C   UNL     1      -8.216   7.069  70.998  1.00  0.00    -0.117 A  
HETATM   13  C   UNL     1      -8.835   8.229  71.466  1.00  0.00    -0.168 A  
ENDROOT
BRANCH   4  14
HETATM   14  S   UNL     1      -7.860   5.948  65.064  1.00  0.00    -0.112 S  
HETATM   15  C   UNL     1      -6.557   4.697  65.094  1.00  0.00    -0.044 C  
HETATM   16  O   UNL     1      -9.153   5.253  64.749  1.00  0.00    -0.083 OA 
ENDBRANCH   4  14
TORSDOF 1
ENDMDL
MODEL      144
REMARK 921   NORMALIZED FREE ENERGY PREDICTED BY IDOCK:   -1.80 KCAL/MOL
REMARK 922        TOTAL FREE ENERGY PREDICTED BY IDOCK:   -1.99 KCAL/MOL
REMARK 923 INTER-LIGAND FREE ENERGY PREDICTED BY IDOCK:   -1.89 KCAL/MOL
REMARK 924 INTRA-LIGAND FREE ENERGY PREDICTED BY IDOCK:   -0.10 KCAL/MOL
REMARK 927      BINDING AFFINITY PREDICTED BY RF-SCORE:    0.00 PKD
ROOT
HETATM    1  C   UNL     1      -8.203   7.560  67.847  1.00  0.00    -0.123 C  
HETATM    2  N   UNL     1      -8.229   6.495  66.842  1.00  0.00    -0.112 NA 
HETATM    3  C   UNL     1      -8.470   5.174  67.188  1.00  0.00    -0.106 C  
HETATM    4  C   UNL     1      -8.558   4.138  66.345  1.00  0.00    -0.113 C  
HETATM    5  C   UNL     1      -8.394   4.417  64.898  1.00  0.00    -0.118 C  
HETATM    6  C   UNL     1      -8.140   6.136  63.118  1.00  0.00    -0.078 A  
HETATM    7  F   UNL     1      -7.756   9.729  63.276  1.00  0.00    -0.120 F  
HETATM    8  C   UNL     1      -8.209   5.834  64.490  1.00  0.00    -0.122 A  
HETATM    9  O   UNL     1      -8.424   3.522  64.059  1.00  0.00    -0.090 OA 
HETATM   10  C   UNL     1      -7.989   7.457  62.708  1.00  0.00    -0.117 A  
HETATM   11  C   UNL     1      -8.129   6.844  65.476  1.00  0.00    -0.132 A  
HETATM   12  C   UNL     1      -7.960   8.165  65.029  1.00  0.00    -0.139 A  
HETATM   13  C   UNL     1      -7.898   8.456  63.665  1.00  0.00    -0.152 A  
ENDROOT
BRANCH   4  14
HETATM   14  S   UNL     1      -8.949   2.508  66.932  1.00  0.00    -0.119 S  
HETATM   15  C   UNL     1      -7.270   1.907  67.219  1.00  0.00    -0.054 C  
HETATM   16  O   UNL     1      -9.613   2.664  68.271  1.00  0.00    -0.192 OA 
ENDBRANCH   4  14
TORSDOF 1
ENDMDL
MODEL      145
REMARK 921   NORMALIZED FREE ENERGY PREDICTED BY IDOCK:    3.47 KCAL/MOL
REMARK 922        TOTAL FREE ENERGY PREDICTED BY IDOCK:    3.59 KCAL/MOL
REMARK 923 INTER-LIGAND FREE ENERGY PREDICTED BY IDOCK:    3.67 KCAL/MOL
REMARK 924 INTRA-LIGAND FREE ENERGY PREDICTED BY IDOCK:   -0.08 KCAL/MOL
REMARK 927      BINDING AFFINITY PREDICTED BY RF-SCORE:    0.00 PKD
ROOT
HETATM    1  C   UNL     1      -9.128   9.937  69.716  1.00  0.00    -0.225 C  
HETATM    2  N   UNL     1      -8.124  10.561  68.851  1.00  0.00    -0.129 NA 
HETATM    3  C   UNL     1      -8.196  10.467  67.470  1.00  0.00    -0.114 C  
HETATM    4  C   UNL     1      -7.358  11.033  66.593  1.00  0.00    -0.143 C  
HETATM    5  C   UNL     1      -6.249  11.854  67.138  1.00  0.00    -0.154 C  
HETATM    6  C   UNL     1      -5.203  12.881  69.147  1.00  0.00    -0.069 A  
HETATM    7  F   UNL     1      -5.996  12.637  72.667  1.00  0.00     0.847 F  
HETATM    8  C   UNL     1      -6.191  12.036  68.612  1.00  0.00    -0.055 A  
HETATM    9  O   UNL     1      -5.415  12.382  66.408  1.00  0.00    -0.049 OA 
HETATM   10  C   UNL     1      -5.140  13.086  70.521  1.00  0.00    -0.106 A  
HETATM   11  C   UNL     1      -7.133  11.381  69.437  1.00  0.00    -0.065 A  
HETATM   12  C   UNL     1      -7.032  11.596  70.822  1.00  0.00     2.231 A  
HETATM   13  C   UNL     1      -6.051  12.441  71.344  1.00  0.00     1.273 A  
ENDROOT
BRANCH   4  14
HETATM   14  S   UNL     1      -7.622  10.885  64.843  1.00  0.00     0.468 S  
HETATM   15  C   UNL     1      -7.780   9.089  64.738  1.00  0.00    -0.109 C  
HETATM   16  O   UNL     1      -8.969  11.480  64.544  1.00  0.00     0.069 OA 
ENDBRANCH   4  14
TORSDOF 1
ENDMDL
MODEL      146
REMARK 921   NORMALIZED FREE ENERGY PREDICTED BY IDOCK:    3.94 KCAL/MOL
REMARK 922        TOTAL FREE ENERGY PREDICTED BY IDOCK:    4.09 KCAL/MOL
REMARK 923 INTER-LIGAND FREE ENERGY PREDICTED BY IDOCK:    3.80 KCAL/MOL
REMARK 924 INTRA-LIGAND FREE ENERGY PREDICTED BY IDOCK:    0.29 KCAL/MOL
REMARK 927      BINDING AFFINITY PREDICTED BY RF-SCORE:    0.00 PKD
ROOT
HETATM    1  C   UNL     1      -9.236   9.903  69.617  1.00  0.00    -0.227 C  
HETATM    2  N   UNL     1      -8.858  10.351  68.274  1.00  0.00    -0.131 NA 
HETATM    3  C   UNL     1      -9.529   9.907  67.145  1.00  0.00    -0.158 C  
HETATM    4  C   UNL     1      -9.292  10.287  65.883  1.00  0.00    -0.180 C  
HETATM    5  C   UNL     1      -8.218  11.286  65.659  1.00  0.00     0.133 C  
HETATM    6  C   UNL     1      -6.574  12.848  66.679  1.00  0.00     1.299 A  
HETATM    7  F   UNL     1      -5.633  13.449  70.119  1.00  0.00    -0.091 F  
HETATM    8  C   UNL     1      -7.533  11.836  66.857  1.00  0.00    -0.106 A  
HETATM    9  O   UNL     1      -7.911  11.664  64.533  1.00  0.00     1.148 OA 
HETATM   10  C   UNL     1      -5.933  13.396  67.785  1.00  0.00    -0.141 A  
HETATM   11  C   UNL     1      -7.869  11.352  68.142  1.00  0.00    -0.130 A  
HETATM   12  C   UNL     1      -7.192  11.914  69.237  1.00  0.00     0.039 A  
HETATM   13  C   UNL     1      -6.246  12.923  69.050  1.00  0.00    -0.095 A  
ENDROOT
BRANCH   4  14
HETATM   14  S   UNL     1     -10.288   9.687  64.541  1.00  0.00     2.000 S  
HETATM   15  C   UNL     1     -11.550  10.980  64.534  1.00  0.00     0.655 C  
HETATM   16  O   UNL     1      -9.478   9.833  63.285  1.00  0.00    -0.213 OA 
ENDBRANCH   4  14
TORSDOF 1
ENDMDL
