MODEL        1
REMARK 921   NORMALIZED FREE ENERGY PREDICTED BY IDOCK:   -6.84 KCAL/MOL
REMARK 922        TOTAL FREE ENERGY PREDICTED BY IDOCK:   -8.46 KCAL/MOL
REMARK 923 INTER-LIGAND FREE ENERGY PREDICTED BY IDOCK:   -7.64 KCAL/MOL
REMARK 924 INTRA-LIGAND FREE ENERGY PREDICTED BY IDOCK:   -0.82 KCAL/MOL
REMARK 927      BINDING AFFINITY PREDICTED BY RF-SCORE:    0.00 PKD
ROOT
HETATM    1  O   UNL     1      -9.936  14.498  69.790  1.00  0.00    -0.417 OA 
HETATM    2  C   UNL     1     -11.171  14.424  69.036  1.00  0.00    -0.264 C  
HETATM    3  H   UNL     1      -9.249  14.823  69.220  1.00  0.00     0.000 HD 
HETATM    4  C   UNL     1     -10.963  13.378  67.934  1.00  0.00    -0.276 A  
HETATM    5  C   UNL     1     -11.503  15.856  68.540  1.00  0.00    -0.377 C  
HETATM    6  C   UNL     1     -12.294  13.891  69.968  1.00  0.00    -0.316 C  
HETATM    7  C   UNL     1      -9.999  12.360  68.081  1.00  0.00    -0.215 A  
HETATM    8  F   UNL     1     -10.446  10.470  65.016  1.00  0.00    -0.374 F  
HETATM    9  C   UNL     1     -11.751  13.351  66.771  1.00  0.00    -0.385 A  
HETATM   10  C   UNL     1     -11.567  12.397  65.774  1.00  0.00    -0.449 A  
HETATM   11  C   UNL     1      -9.828  11.380  67.100  1.00  0.00    -0.212 A  
HETATM   12  C   UNL     1     -10.608  11.414  65.952  1.00  0.00    -0.263 A  
HETATM   13  F   UNL     1     -12.751  14.230  66.619  1.00  0.00    -0.444 F  
ENDROOT
BRANCH   6  14
HETATM   14  N   UNL     1     -12.557  14.742  71.112  1.00  0.00    -0.313 NA 
HETATM   15  N   UNL     1     -13.549  15.963  72.617  1.00  0.00    -0.509 NA 
HETATM   16  N   UNL     1     -11.545  15.150  71.904  1.00  0.00    -0.415 NA 
HETATM   17  C   UNL     1     -13.744  15.243  71.536  1.00  0.00    -0.520 A  
HETATM   18  C   UNL     1     -12.204  15.869  72.819  1.00  0.00    -0.500 A  
ENDBRANCH   6  14
BRANCH   5  19
HETATM   19  N   UNL     1     -10.550  16.379  67.581  1.00  0.00    -0.310 NA 
HETATM   20  C   UNL     1      -8.741  16.951  66.742  1.00  0.00    -0.232 A  
HETATM   21  C   UNL     1     -10.782  16.783  66.305  1.00  0.00    -0.106 A  
HETATM   22  N   UNL     1      -9.652  17.160  65.750  1.00  0.00    -0.537 NA 
HETATM   23  N   UNL     1      -9.237  16.447  67.876  1.00  0.00    -0.201 NA 
ENDBRANCH   5  19
TORSDOF 2
ENDMDL
MODEL        2
REMARK 921   NORMALIZED FREE ENERGY PREDICTED BY IDOCK:   -6.52 KCAL/MOL
REMARK 922        TOTAL FREE ENERGY PREDICTED BY IDOCK:   -8.10 KCAL/MOL
REMARK 923 INTER-LIGAND FREE ENERGY PREDICTED BY IDOCK:   -7.19 KCAL/MOL
REMARK 924 INTRA-LIGAND FREE ENERGY PREDICTED BY IDOCK:   -0.91 KCAL/MOL
REMARK 927      BINDING AFFINITY PREDICTED BY RF-SCORE:    0.00 PKD
ROOT
HETATM    1  O   UNL     1     -12.531  15.820  68.429  1.00  0.00    -0.281 OA 
HETATM    2  C   UNL     1     -11.466  14.967  68.914  1.00  0.00    -0.314 C  
HETATM    3  H   UNL     1     -12.636  15.677  67.495  1.00  0.00     0.000 HD 
HETATM    4  C   UNL     1     -10.172  15.435  68.236  1.00  0.00    -0.229 A  
HETATM    5  C   UNL     1     -11.874  13.498  68.626  1.00  0.00    -0.369 C  
HETATM    6  C   UNL     1     -11.294  15.201  70.440  1.00  0.00    -0.290 C  
HETATM    7  C   UNL     1     -10.048  16.754  67.756  1.00  0.00    -0.281 A  
HETATM    8  F   UNL     1      -6.647  16.764  66.490  1.00  0.00    -0.226 F  
HETATM    9  C   UNL     1      -9.047  14.601  68.117  1.00  0.00    -0.187 A  
HETATM   10  C   UNL     1      -7.870  15.028  67.508  1.00  0.00    -0.203 A  
HETATM   11  C   UNL     1      -8.860  17.201  67.171  1.00  0.00    -0.232 A  
HETATM   12  C   UNL     1      -7.787  16.330  67.045  1.00  0.00    -0.218 A  
HETATM   13  F   UNL     1      -9.068  13.370  68.644  1.00  0.00    -0.179 F  
ENDROOT
BRANCH   6  14
HETATM   14  N   UNL     1     -12.473  14.874  71.218  1.00  0.00    -0.306 NA 
HETATM   15  N   UNL     1     -13.857  13.931  72.610  1.00  0.00    -0.722 NA 
HETATM   16  N   UNL     1     -13.606  15.592  71.072  1.00  0.00    -0.553 NA 
HETATM   17  C   UNL     1     -12.638  13.879  72.125  1.00  0.00    -0.152 A  
HETATM   18  C   UNL     1     -14.409  14.994  71.959  1.00  0.00    -0.573 A  
ENDBRANCH   6  14
BRANCH   5  19
HETATM   19  N   UNL     1     -11.950  13.177  67.215  1.00  0.00    -0.362 NA 
HETATM   20  C   UNL     1     -12.410  13.343  65.199  1.00  0.00    -0.456 A  
HETATM   21  C   UNL     1     -11.364  12.142  66.559  1.00  0.00    -0.350 A  
HETATM   22  N   UNL     1     -11.646  12.217  65.277  1.00  0.00    -0.342 NA 
HETATM   23  N   UNL     1     -12.603  13.984  66.355  1.00  0.00    -0.364 NA 
ENDBRANCH   5  19
TORSDOF 2
ENDMDL
MODEL        3
REMARK 921   NORMALIZED FREE ENERGY PREDICTED BY IDOCK:   -6.42 KCAL/MOL
REMARK 922        TOTAL FREE ENERGY PREDICTED BY IDOCK:   -7.99 KCAL/MOL
REMARK 923 INTER-LIGAND FREE ENERGY PREDICTED BY IDOCK:   -7.05 KCAL/MOL
REMARK 924 INTRA-LIGAND FREE ENERGY PREDICTED BY IDOCK:   -0.94 KCAL/MOL
REMARK 927      BINDING AFFINITY PREDICTED BY RF-SCORE:    0.00 PKD
ROOT
HETATM    1  O   UNL     1      -8.858  14.524  66.133  1.00  0.00    -0.480 OA 
HETATM    2  C   UNL     1     -10.020  14.587  66.995  1.00  0.00    -0.255 C  
HETATM    3  H   UNL     1      -8.999  13.850  65.478  1.00  0.00     0.000 HD 
HETATM    4  C   UNL     1     -10.104  13.247  67.736  1.00  0.00    -0.229 A  
HETATM    5  C   UNL     1     -11.244  14.934  66.106  1.00  0.00    -0.325 C  
HETATM    6  C   UNL     1      -9.789  15.690  68.065  1.00  0.00    -0.209 C  
HETATM    7  C   UNL     1      -8.951  12.457  67.925  1.00  0.00    -0.184 A  
HETATM    8  F   UNL     1     -10.275   9.665  69.829  1.00  0.00    -0.192 F  
HETATM    9  C   UNL     1     -11.301  12.781  68.304  1.00  0.00    -0.296 A  
HETATM   10  C   UNL     1     -11.375  11.568  68.983  1.00  0.00    -0.339 A  
HETATM   11  C   UNL     1      -9.010  11.253  68.632  1.00  0.00    -0.148 A  
HETATM   12  C   UNL     1     -10.223  10.816  69.146  1.00  0.00    -0.211 A  
HETATM   13  F   UNL     1     -12.407  13.534  68.247  1.00  0.00    -0.370 F  
ENDROOT
BRANCH   6  14
HETATM   14  N   UNL     1      -9.613  17.017  67.509  1.00  0.00    -0.246 NA 
HETATM   15  N   UNL     1      -9.892  19.112  66.987  1.00  0.00    -0.321 NA 
HETATM   16  N   UNL     1      -8.548  17.292  66.728  1.00  0.00    -0.236 NA 
HETATM   17  C   UNL     1     -10.414  18.103  67.644  1.00  0.00    -0.416 A  
HETATM   18  C   UNL     1      -8.751  18.586  66.457  1.00  0.00    -0.286 A  
ENDBRANCH   6  14
BRANCH   5  19
HETATM   19  N   UNL     1     -11.586  13.898  65.152  1.00  0.00    -0.323 NA 
HETATM   20  C   UNL     1     -11.371  12.474  63.658  1.00  0.00    -0.485 A  
HETATM   21  C   UNL     1     -12.780  13.272  64.987  1.00  0.00    -0.375 A  
HETATM   22  N   UNL     1     -12.676  12.367  64.039  1.00  0.00    -0.723 NA 
HETATM   23  N   UNL     1     -10.653  13.379  64.329  1.00  0.00    -0.402 NA 
ENDBRANCH   5  19
TORSDOF 2
ENDMDL
MODEL        4
REMARK 921   NORMALIZED FREE ENERGY PREDICTED BY IDOCK:   -6.36 KCAL/MOL
REMARK 922        TOTAL FREE ENERGY PREDICTED BY IDOCK:   -7.93 KCAL/MOL
REMARK 923 INTER-LIGAND FREE ENERGY PREDICTED BY IDOCK:   -7.02 KCAL/MOL
REMARK 924 INTRA-LIGAND FREE ENERGY PREDICTED BY IDOCK:   -0.91 KCAL/MOL
REMARK 927      BINDING AFFINITY PREDICTED BY RF-SCORE:    0.00 PKD
ROOT
HETATM    1  O   UNL     1     -12.517  15.937  68.575  1.00  0.00    -0.282 OA 
HETATM    2  C   UNL     1     -11.274  15.807  69.306  1.00  0.00    -0.324 C  
HETATM    3  H   UNL     1     -12.382  15.634  67.685  1.00  0.00     0.000 HD 
HETATM    4  C   UNL     1     -10.265  16.759  68.652  1.00  0.00    -0.298 A  
HETATM    5  C   UNL     1     -10.879  14.306  69.293  1.00  0.00    -0.215 C  
HETATM    6  C   UNL     1     -11.497  16.303  70.762  1.00  0.00    -0.297 C  
HETATM    7  C   UNL     1     -10.706  17.884  67.925  1.00  0.00    -0.328 A  
HETATM    8  F   UNL     1      -7.561  19.415  66.958  1.00  0.00    -0.239 F  
HETATM    9  C   UNL     1      -8.878  16.591  68.795  1.00  0.00    -0.255 A  
HETATM   10  C   UNL     1      -7.963  17.459  68.208  1.00  0.00    -0.253 A  
HETATM   11  C   UNL     1      -9.794  18.778  67.358  1.00  0.00    -0.357 A  
HETATM   12  C   UNL     1      -8.432  18.552  67.497  1.00  0.00    -0.261 A  
HETATM   13  F   UNL     1      -8.399  15.600  69.559  1.00  0.00    -0.222 F  
ENDROOT
BRANCH   6  14
HETATM   14  N   UNL     1     -12.490  15.542  71.494  1.00  0.00    -0.375 NA 
HETATM   15  N   UNL     1     -13.489  14.306  72.983  1.00  0.00    -0.635 NA 
HETATM   16  N   UNL     1     -13.751  15.440  71.025  1.00  0.00    -0.499 NA 
HETATM   17  C   UNL     1     -12.341  14.851  72.651  1.00  0.00    -0.327 A  
HETATM   18  C   UNL     1     -14.325  14.700  71.980  1.00  0.00    -0.558 A  
ENDBRANCH   6  14
BRANCH   5  19
HETATM   19  N   UNL     1     -10.552  13.799  67.975  1.00  0.00    -0.247 NA 
HETATM   20  C   UNL     1     -10.707  13.399  65.945  1.00  0.00    -0.279 A  
HETATM   21  C   UNL     1      -9.415  13.171  67.577  1.00  0.00    -0.212 A  
HETATM   22  N   UNL     1      -9.488  12.897  66.294  1.00  0.00    -0.236 NA 
HETATM   23  N   UNL     1     -11.387  13.987  66.934  1.00  0.00    -0.316 NA 
ENDBRANCH   5  19
TORSDOF 2
ENDMDL
MODEL        5
REMARK 921   NORMALIZED FREE ENERGY PREDICTED BY IDOCK:   -6.24 KCAL/MOL
REMARK 922        TOTAL FREE ENERGY PREDICTED BY IDOCK:   -7.80 KCAL/MOL
REMARK 923 INTER-LIGAND FREE ENERGY PREDICTED BY IDOCK:   -6.85 KCAL/MOL
REMARK 924 INTRA-LIGAND FREE ENERGY PREDICTED BY IDOCK:   -0.95 KCAL/MOL
REMARK 927      BINDING AFFINITY PREDICTED BY RF-SCORE:    0.00 PKD
ROOT
HETATM    1  O   UNL     1      -9.271  15.207  65.849  1.00  0.00    -0.425 OA 
HETATM    2  C   UNL     1      -9.815  15.540  67.149  1.00  0.00    -0.235 C  
HETATM    3  H   UNL     1      -8.371  15.508  65.808  1.00  0.00     0.000 HD 
HETATM    4  C   UNL     1      -9.845  17.070  67.246  1.00  0.00    -0.260 A  
HETATM    5  C   UNL     1      -8.948  14.822  68.217  1.00  0.00    -0.181 C  
HETATM    6  C   UNL     1     -11.287  15.046  67.215  1.00  0.00    -0.332 C  
HETATM    7  C   UNL     1      -9.890  17.863  66.082  1.00  0.00    -0.256 A  
HETATM    8  F   UNL     1     -10.034  21.211  67.475  1.00  0.00    -0.585 F  
HETATM    9  C   UNL     1      -9.889  17.739  68.480  1.00  0.00    -0.355 A  
HETATM   10  C   UNL     1      -9.924  19.128  68.569  1.00  0.00    -0.496 A  
HETATM   11  C   UNL     1      -9.956  19.257  66.160  1.00  0.00    -0.466 A  
HETATM   12  C   UNL     1      -9.963  19.875  67.403  1.00  0.00    -0.423 A  
HETATM   13  F   UNL     1      -9.952  17.039  69.621  1.00  0.00    -0.171 F  
ENDROOT
BRANCH   6  14
HETATM   14  N   UNL     1     -11.431  13.612  67.060  1.00  0.00    -0.327 NA 
HETATM   15  N   UNL     1     -11.874  11.511  67.418  1.00  0.00    -0.620 NA 
HETATM   16  N   UNL     1     -11.054  13.010  65.913  1.00  0.00    -0.277 NA 
HETATM   17  C   UNL     1     -11.904  12.709  67.955  1.00  0.00    -0.332 A  
HETATM   18  C   UNL     1     -11.368  11.736  66.173  1.00  0.00    -0.280 A  
ENDBRANCH   6  14
BRANCH   5  19
HETATM   19  N   UNL     1      -7.584  15.307  68.286  1.00  0.00    -0.109 NA 
HETATM   20  C   UNL     1      -5.677  15.859  67.682  1.00  0.00    -0.140 A  
HETATM   21  C   UNL     1      -6.937  15.840  69.355  1.00  0.00    -0.202 A  
HETATM   22  N   UNL     1      -5.721  16.192  69.004  1.00  0.00    -0.117 NA 
HETATM   23  N   UNL     1      -6.803  15.338  67.187  1.00  0.00    -0.260 NA 
ENDBRANCH   5  19
TORSDOF 2
ENDMDL
MODEL        6
REMARK 921   NORMALIZED FREE ENERGY PREDICTED BY IDOCK:   -6.24 KCAL/MOL
REMARK 922        TOTAL FREE ENERGY PREDICTED BY IDOCK:   -7.79 KCAL/MOL
REMARK 923 INTER-LIGAND FREE ENERGY PREDICTED BY IDOCK:   -7.06 KCAL/MOL
REMARK 924 INTRA-LIGAND FREE ENERGY PREDICTED BY IDOCK:   -0.73 KCAL/MOL
REMARK 927      BINDING AFFINITY PREDICTED BY RF-SCORE:    0.00 PKD
ROOT
HETATM    1  O   UNL     1     -10.748  12.984  69.271  1.00  0.00    -0.435 OA 
HETATM    2  C   UNL     1     -11.059  14.260  68.660  1.00  0.00    -0.253 C  
HETATM    3  H   UNL     1      -9.935  12.660  68.904  1.00  0.00     0.000 HD 
HETATM    4  C   UNL     1     -11.308  13.997  67.170  1.00  0.00    -0.348 A  
HETATM    5  C   UNL     1      -9.889  15.229  68.979  1.00  0.00    -0.230 C  
HETATM    6  C   UNL     1     -12.390  14.791  69.261  1.00  0.00    -0.113 C  
HETATM    7  C   UNL     1     -11.715  12.724  66.723  1.00  0.00    -0.459 A  
HETATM    8  F   UNL     1     -12.092  13.278  63.157  1.00  0.00    -0.595 F  
HETATM    9  C   UNL     1     -11.202  15.012  66.204  1.00  0.00    -0.307 A  
HETATM   10  C   UNL     1     -11.436  14.775  64.853  1.00  0.00    -0.412 A  
HETATM   11  C   UNL     1     -11.982  12.484  65.373  1.00  0.00    -0.492 A  
HETATM   12  C   UNL     1     -11.830  13.510  64.450  1.00  0.00    -0.414 A  
HETATM   13  F   UNL     1     -10.919  16.267  66.579  1.00  0.00    -0.286 F  
ENDROOT
BRANCH   6  14
HETATM   14  N   UNL     1     -12.336  15.018  70.692  1.00  0.00    -0.321 NA 
HETATM   15  N   UNL     1     -12.090  15.942  72.648  1.00  0.00    -0.465 NA 
HETATM   16  N   UNL     1     -12.617  14.017  71.552  1.00  0.00    -0.350 NA 
HETATM   17  C   UNL     1     -12.009  16.156  71.355  1.00  0.00    -0.395 A  
HETATM   18  C   UNL     1     -12.478  14.638  72.729  1.00  0.00    -0.290 A  
ENDBRANCH   6  14
BRANCH   5  19
HETATM   19  N   UNL     1      -8.634  14.854  68.360  1.00  0.00    -0.153 NA 
HETATM   20  C   UNL     1      -7.053  13.676  67.715  1.00  0.00    -0.161 A  
HETATM   21  C   UNL     1      -7.795  15.632  67.628  1.00  0.00    -0.154 A  
HETATM   22  N   UNL     1      -6.777  14.913  67.211  1.00  0.00    -0.274 NA 
HETATM   23  N   UNL     1      -8.194  13.581  68.403  1.00  0.00    -0.152 NA 
ENDBRANCH   5  19
TORSDOF 2
ENDMDL
MODEL        7
REMARK 921   NORMALIZED FREE ENERGY PREDICTED BY IDOCK:   -6.13 KCAL/MOL
REMARK 922        TOTAL FREE ENERGY PREDICTED BY IDOCK:   -7.67 KCAL/MOL
REMARK 923 INTER-LIGAND FREE ENERGY PREDICTED BY IDOCK:   -6.95 KCAL/MOL
REMARK 924 INTRA-LIGAND FREE ENERGY PREDICTED BY IDOCK:   -0.71 KCAL/MOL
REMARK 927      BINDING AFFINITY PREDICTED BY RF-SCORE:    0.00 PKD
ROOT
HETATM    1  O   UNL     1      -9.641  13.709  67.256  1.00  0.00    -0.224 OA 
HETATM    2  C   UNL     1     -10.256  14.979  66.932  1.00  0.00    -0.258 C  
HETATM    3  H   UNL     1      -9.668  13.588  68.198  1.00  0.00     0.000 HD 
HETATM    4  C   UNL     1      -9.384  16.075  67.556  1.00  0.00    -0.217 A  
HETATM    5  C   UNL     1     -11.724  14.930  67.435  1.00  0.00    -0.293 C  
HETATM    6  C   UNL     1     -10.211  15.178  65.392  1.00  0.00    -0.372 C  
HETATM    7  C   UNL     1      -8.020  15.841  67.828  1.00  0.00    -0.155 A  
HETATM    8  F   UNL     1      -6.967  19.052  69.148  1.00  0.00    -0.315 F  
HETATM    9  C   UNL     1      -9.879  17.361  67.827  1.00  0.00    -0.283 A  
HETATM   10  C   UNL     1      -9.085  18.358  68.386  1.00  0.00    -0.340 A  
HETATM   11  C   UNL     1      -7.207  16.845  68.361  1.00  0.00    -0.195 A  
HETATM   12  C   UNL     1      -7.751  18.090  68.643  1.00  0.00    -0.296 A  
HETATM   13  F   UNL     1     -11.139  17.677  67.497  1.00  0.00    -0.312 F  
ENDROOT
BRANCH   6  14
HETATM   14  N   UNL     1     -10.935  14.165  64.649  1.00  0.00    -0.396 NA 
HETATM   15  N   UNL     1     -12.466  13.098  63.528  1.00  0.00    -0.749 NA 
HETATM   16  N   UNL     1     -10.370  12.965  64.407  1.00  0.00    -0.380 NA 
HETATM   17  C   UNL     1     -12.188  14.229  64.135  1.00  0.00    -0.378 A  
HETATM   18  C   UNL     1     -11.332  12.362  63.700  1.00  0.00    -0.482 A  
ENDBRANCH   6  14
BRANCH   5  19
HETATM   19  N   UNL     1     -11.845  14.852  68.877  1.00  0.00    -0.313 NA 
HETATM   20  C   UNL     1     -11.721  14.102  70.808  1.00  0.00    -0.163 A  
HETATM   21  C   UNL     1     -12.254  15.821  69.737  1.00  0.00    -0.216 A  
HETATM   22  N   UNL     1     -12.193  15.371  70.970  1.00  0.00    -0.341 NA 
HETATM   23  N   UNL     1     -11.466  13.745  69.546  1.00  0.00    -0.274 NA 
ENDBRANCH   5  19
TORSDOF 2
ENDMDL
MODEL        8
REMARK 921   NORMALIZED FREE ENERGY PREDICTED BY IDOCK:   -6.10 KCAL/MOL
REMARK 922        TOTAL FREE ENERGY PREDICTED BY IDOCK:   -7.64 KCAL/MOL
REMARK 923 INTER-LIGAND FREE ENERGY PREDICTED BY IDOCK:   -6.72 KCAL/MOL
REMARK 924 INTRA-LIGAND FREE ENERGY PREDICTED BY IDOCK:   -0.91 KCAL/MOL
REMARK 927      BINDING AFFINITY PREDICTED BY RF-SCORE:    0.00 PKD
ROOT
HETATM    1  O   UNL     1     -12.103  15.092  67.758  1.00  0.00    -0.502 OA 
HETATM    2  C   UNL     1     -10.926  14.632  67.050  1.00  0.00    -0.317 C  
HETATM    3  H   UNL     1     -12.529  14.344  68.160  1.00  0.00     0.000 HD 
HETATM    4  C   UNL     1     -11.410  13.723  65.914  1.00  0.00    -0.311 A  
HETATM    5  C   UNL     1      -9.989  13.960  68.088  1.00  0.00    -0.240 C  
HETATM    6  C   UNL     1     -10.229  15.856  66.393  1.00  0.00    -0.301 C  
HETATM    7  C   UNL     1     -12.713  13.855  65.393  1.00  0.00    -0.525 A  
HETATM    8  F   UNL     1     -12.718  11.347  62.770  1.00  0.00    -0.430 F  
HETATM    9  C   UNL     1     -10.572  12.771  65.311  1.00  0.00    -0.290 A  
HETATM   10  C   UNL     1     -11.009  11.950  64.275  1.00  0.00    -0.411 A  
HETATM   11  C   UNL     1     -13.151  13.057  64.333  1.00  0.00     0.147 A  
HETATM   12  C   UNL     1     -12.297  12.106  63.791  1.00  0.00    -0.532 A  
HETATM   13  F   UNL     1      -9.292  12.666  65.693  1.00  0.00    -0.176 F  
ENDROOT
BRANCH   6  14
HETATM   14  N   UNL     1      -9.778  16.853  67.344  1.00  0.00    -0.243 NA 
HETATM   15  N   UNL     1      -8.536  18.098  68.627  1.00  0.00    -0.298 NA 
HETATM   16  N   UNL     1     -10.667  17.664  67.952  1.00  0.00    -0.384 NA 
HETATM   17  C   UNL     1      -8.514  17.109  67.763  1.00  0.00    -0.207 A  
HETATM   18  C   UNL     1      -9.858  18.420  68.703  1.00  0.00    -0.376 A  
ENDBRANCH   6  14
BRANCH   5  19
HETATM   19  N   UNL     1     -10.531  12.747  68.667  1.00  0.00    -0.237 NA 
HETATM   20  C   UNL     1     -11.856  11.460  69.613  1.00  0.00    -0.362 A  
HETATM   21  C   UNL     1      -9.992  11.500  68.657  1.00  0.00    -0.199 A  
HETATM   22  N   UNL     1     -10.808  10.663  69.259  1.00  0.00    -0.223 NA 
HETATM   23  N   UNL     1     -11.747  12.741  69.249  1.00  0.00    -0.307 NA 
ENDBRANCH   5  19
TORSDOF 2
ENDMDL
MODEL        9
REMARK 921   NORMALIZED FREE ENERGY PREDICTED BY IDOCK:   -6.09 KCAL/MOL
REMARK 922        TOTAL FREE ENERGY PREDICTED BY IDOCK:   -7.62 KCAL/MOL
REMARK 923 INTER-LIGAND FREE ENERGY PREDICTED BY IDOCK:   -6.71 KCAL/MOL
REMARK 924 INTRA-LIGAND FREE ENERGY PREDICTED BY IDOCK:   -0.91 KCAL/MOL
REMARK 927      BINDING AFFINITY PREDICTED BY RF-SCORE:    0.00 PKD
ROOT
HETATM    1  O   UNL     1     -12.002  12.015  67.347  1.00  0.00    -0.583 OA 
HETATM    2  C   UNL     1     -10.706  12.533  67.734  1.00  0.00    -0.219 C  
HETATM    3  H   UNL     1     -12.474  12.692  66.878  1.00  0.00     0.000 HD 
HETATM    4  C   UNL     1     -10.956  13.678  68.723  1.00  0.00    -0.292 A  
HETATM    5  C   UNL     1      -9.953  12.927  66.436  1.00  0.00    -0.267 C  
HETATM    6  C   UNL     1      -9.934  11.424  68.502  1.00  0.00    -0.201 C  
HETATM    7  C   UNL     1     -12.148  13.731  69.474  1.00  0.00    -0.386 A  
HETATM    8  F   UNL     1     -11.621  16.706  71.484  1.00  0.00    -0.459 F  
HETATM    9  C   UNL     1     -10.000  14.678  68.966  1.00  0.00    -0.193 A  
HETATM   10  C   UNL     1     -10.224  15.713  69.868  1.00  0.00    -0.297 A  
HETATM   11  C   UNL     1     -12.369  14.749  70.405  1.00  0.00    -0.402 A  
HETATM   12  C   UNL     1     -11.409  15.735  70.586  1.00  0.00    -0.388 A  
HETATM   13  F   UNL     1      -8.807  14.625  68.358  1.00  0.00    -0.155 F  
ENDROOT
BRANCH   6  14
HETATM   14  N   UNL     1      -9.685  10.232  67.714  1.00  0.00    -0.155 NA 
HETATM   15  N   UNL     1      -8.714   8.652  66.575  1.00  0.00    -0.121 NA 
HETATM   16  N   UNL     1     -10.707   9.429  67.354  1.00  0.00    -0.262 NA 
HETATM   17  C   UNL     1      -8.505   9.769  67.233  1.00  0.00    -0.125 A  
HETATM   18  C   UNL     1     -10.060   8.469  66.684  1.00  0.00    -0.294 A  
ENDBRANCH   6  14
BRANCH   5  19
HETATM   19  N   UNL     1     -10.559  14.031  65.720  1.00  0.00    -0.290 NA 
HETATM   20  C   UNL     1     -11.979  15.151  64.702  1.00  0.00    -0.298 A  
HETATM   21  C   UNL     1     -10.036  15.261  65.478  1.00  0.00    -0.375 A  
HETATM   22  N   UNL     1     -10.912  15.992  64.826  1.00  0.00    -0.609 NA 
HETATM   23  N   UNL     1     -11.823  13.946  65.258  1.00  0.00    -0.341 NA 
ENDBRANCH   5  19
TORSDOF 2
ENDMDL
MODEL       10
REMARK 921   NORMALIZED FREE ENERGY PREDICTED BY IDOCK:   -6.01 KCAL/MOL
REMARK 922        TOTAL FREE ENERGY PREDICTED BY IDOCK:   -7.54 KCAL/MOL
REMARK 923 INTER-LIGAND FREE ENERGY PREDICTED BY IDOCK:   -7.13 KCAL/MOL
REMARK 924 INTRA-LIGAND FREE ENERGY PREDICTED BY IDOCK:   -0.41 KCAL/MOL
REMARK 927      BINDING AFFINITY PREDICTED BY RF-SCORE:    0.00 PKD
ROOT
HETATM    1  O   UNL     1     -10.112  14.173  66.663  1.00  0.00    -0.262 OA 
HETATM    2  C   UNL     1     -11.213  13.481  67.299  1.00  0.00    -0.298 C  
HETATM    3  H   UNL     1      -9.306  13.939  67.107  1.00  0.00     0.000 HD 
HETATM    4  C   UNL     1     -11.315  14.018  68.732  1.00  0.00    -0.309 A  
HETATM    5  C   UNL     1     -10.942  11.958  67.176  1.00  0.00    -0.269 C  
HETATM    6  C   UNL     1     -12.532  13.864  66.570  1.00  0.00    -0.321 C  
HETATM    7  C   UNL     1     -10.818  15.296  69.057  1.00  0.00    -0.244 A  
HETATM    8  F   UNL     1     -11.668  15.543  72.576  1.00  0.00    -0.430 F  
HETATM    9  C   UNL     1     -11.951  13.297  69.756  1.00  0.00    -0.324 A  
HETATM   10  C   UNL     1     -12.050  13.787  71.055  1.00  0.00    -0.324 A  
HETATM   11  C   UNL     1     -10.940  15.809  70.351  1.00  0.00    -0.369 A  
HETATM   12  C   UNL     1     -11.546  15.046  71.339  1.00  0.00    -0.346 A  
HETATM   13  F   UNL     1     -12.533  12.121  69.486  1.00  0.00    -0.214 F  
ENDROOT
BRANCH   6  14
HETATM   14  N   UNL     1     -12.557  13.487  65.171  1.00  0.00    -0.602 NA 
HETATM   15  N   UNL     1     -12.432  13.531  62.997  1.00  0.00    -0.600 NA 
HETATM   16  N   UNL     1     -12.876  12.227  64.811  1.00  0.00    -0.666 NA 
HETATM   17  C   UNL     1     -12.309  14.259  64.083  1.00  0.00    -0.327 A  
HETATM   18  C   UNL     1     -12.761  12.299  63.480  1.00  0.00    -0.393 A  
ENDBRANCH   6  14
BRANCH   5  19
HETATM   19  N   UNL     1      -9.784  11.508  67.921  1.00  0.00    -0.178 NA 
HETATM   20  C   UNL     1      -7.838  11.422  68.638  1.00  0.00    -0.139 A  
HETATM   21  C   UNL     1      -9.720  10.530  68.861  1.00  0.00    -0.199 A  
HETATM   22  N   UNL     1      -8.495  10.447  69.329  1.00  0.00    -0.161 NA 
HETATM   23  N   UNL     1      -8.590  12.120  67.782  1.00  0.00    -0.154 NA 
ENDBRANCH   5  19
TORSDOF 2
ENDMDL
MODEL       11
REMARK 921   NORMALIZED FREE ENERGY PREDICTED BY IDOCK:   -5.99 KCAL/MOL
REMARK 922        TOTAL FREE ENERGY PREDICTED BY IDOCK:   -7.52 KCAL/MOL
REMARK 923 INTER-LIGAND FREE ENERGY PREDICTED BY IDOCK:   -6.61 KCAL/MOL
REMARK 924 INTRA-LIGAND FREE ENERGY PREDICTED BY IDOCK:   -0.91 KCAL/MOL
REMARK 927      BINDING AFFINITY PREDICTED BY RF-SCORE:    0.00 PKD
ROOT
HETATM    1  O   UNL     1     -10.173  12.644  67.272  1.00  0.00    -0.222 OA 
HETATM    2  C   UNL     1     -10.309  14.082  67.167  1.00  0.00    -0.265 C  
HETATM    3  H   UNL     1     -10.326  12.388  68.174  1.00  0.00     0.000 HD 
HETATM    4  C   UNL     1      -9.188  14.703  68.009  1.00  0.00    -0.197 A  
HETATM    5  C   UNL     1     -11.752  14.449  67.604  1.00  0.00    -0.391 C  
HETATM    6  C   UNL     1     -10.059  14.500  65.691  1.00  0.00    -0.359 C  
HETATM    7  C   UNL     1      -8.007  13.981  68.277  1.00  0.00    -0.146 A  
HETATM    8  F   UNL     1      -6.091  16.391  70.198  1.00  0.00    -0.204 F  
HETATM    9  C   UNL     1      -9.260  16.019  68.494  1.00  0.00    -0.206 A  
HETATM   10  C   UNL     1      -8.239  16.585  69.253  1.00  0.00    -0.072 A  
HETATM   11  C   UNL     1      -6.964  14.552  69.012  1.00  0.00    -0.121 A  
HETATM   12  C   UNL     1      -7.095  15.845  69.500  1.00  0.00    -0.184 A  
HETATM   13  F   UNL     1     -10.312  16.790  68.187  1.00  0.00    -0.263 F  
ENDROOT
BRANCH   6  14
HETATM   14  N   UNL     1     -11.003  13.924  64.752  1.00  0.00    -0.381 NA 
HETATM   15  N   UNL     1     -12.643  13.655  63.346  1.00  0.00    -0.781 NA 
HETATM   16  N   UNL     1     -10.923  12.620  64.421  1.00  0.00    -0.328 NA 
HETATM   17  C   UNL     1     -12.039  14.529  64.118  1.00  0.00    -0.350 A  
HETATM   18  C   UNL     1     -11.927  12.512  63.544  1.00  0.00    -0.543 A  
ENDBRANCH   6  14
BRANCH   5  19
HETATM   19  N   UNL     1     -12.025  14.185  69.002  1.00  0.00    -0.341 NA 
HETATM   20  C   UNL     1     -12.192  13.156  70.797  1.00  0.00    -0.290 A  
HETATM   21  C   UNL     1     -12.384  15.070  69.968  1.00  0.00    -0.309 A  
HETATM   22  N   UNL     1     -12.505  14.444  71.117  1.00  0.00    -0.335 NA 
HETATM   23  N   UNL     1     -11.863  12.950  69.518  1.00  0.00    -0.323 NA 
ENDBRANCH   5  19
TORSDOF 2
ENDMDL
MODEL       12
REMARK 921   NORMALIZED FREE ENERGY PREDICTED BY IDOCK:   -5.88 KCAL/MOL
REMARK 922        TOTAL FREE ENERGY PREDICTED BY IDOCK:   -7.39 KCAL/MOL
REMARK 923 INTER-LIGAND FREE ENERGY PREDICTED BY IDOCK:   -6.45 KCAL/MOL
REMARK 924 INTRA-LIGAND FREE ENERGY PREDICTED BY IDOCK:   -0.94 KCAL/MOL
REMARK 927      BINDING AFFINITY PREDICTED BY RF-SCORE:    0.00 PKD
ROOT
HETATM    1  O   UNL     1     -12.282  14.955  65.987  1.00  0.00    -0.102 OA 
HETATM    2  C   UNL     1     -11.049  14.464  66.569  1.00  0.00    -0.331 C  
HETATM    3  H   UNL     1     -12.277  15.904  66.016  1.00  0.00     0.000 HD 
HETATM    4  C   UNL     1     -11.056  14.872  68.047  1.00  0.00    -0.301 A  
HETATM    5  C   UNL     1      -9.876  15.032  65.727  1.00  0.00    -0.353 C  
HETATM    6  C   UNL     1     -11.058  12.911  66.522  1.00  0.00    -0.286 C  
HETATM    7  C   UNL     1     -12.270  15.118  68.719  1.00  0.00    -0.104 A  
HETATM    8  F   UNL     1     -11.116  15.877  72.075  1.00  0.00    -0.356 F  
HETATM    9  C   UNL     1      -9.875  14.961  68.803  1.00  0.00    -0.225 A  
HETATM   10  C   UNL     1      -9.882  15.325  70.147  1.00  0.00     0.030 A  
HETATM   11  C   UNL     1     -12.289  15.454  70.076  1.00  0.00    -0.368 A  
HETATM   12  C   UNL     1     -11.094  15.562  70.773  1.00  0.00    -0.351 A  
HETATM   13  F   UNL     1      -8.699  14.641  68.248  1.00  0.00    -0.149 F  
ENDROOT
BRANCH   6  14
HETATM   14  N   UNL     1     -11.128  12.367  65.179  1.00  0.00    -0.300 NA 
HETATM   15  N   UNL     1     -10.641  11.370  63.306  1.00  0.00    -0.351 NA 
HETATM   16  N   UNL     1     -12.248  12.515  64.443  1.00  0.00    -0.426 NA 
HETATM   17  C   UNL     1     -10.172  11.697  64.489  1.00  0.00    -0.291 A  
HETATM   18  C   UNL     1     -11.909  11.869  63.321  1.00  0.00    -0.318 A  
ENDBRANCH   6  14
BRANCH   5  19
HETATM   19  N   UNL     1      -9.740  16.472  65.809  1.00  0.00    -0.523 NA 
HETATM   20  C   UNL     1     -10.233  18.486  65.725  1.00  0.00    -0.105 A  
HETATM   21  C   UNL     1      -8.674  17.189  66.250  1.00  0.00    -0.233 A  
HETATM   22  N   UNL     1      -8.955  18.472  66.200  1.00  0.00    -0.492 NA 
HETATM   23  N   UNL     1     -10.769  17.284  65.495  1.00  0.00    -0.513 NA 
ENDBRANCH   5  19
TORSDOF 2
ENDMDL
MODEL       13
REMARK 921   NORMALIZED FREE ENERGY PREDICTED BY IDOCK:   -5.81 KCAL/MOL
REMARK 922        TOTAL FREE ENERGY PREDICTED BY IDOCK:   -7.31 KCAL/MOL
REMARK 923 INTER-LIGAND FREE ENERGY PREDICTED BY IDOCK:   -6.37 KCAL/MOL
REMARK 924 INTRA-LIGAND FREE ENERGY PREDICTED BY IDOCK:   -0.94 KCAL/MOL
REMARK 927      BINDING AFFINITY PREDICTED BY RF-SCORE:    0.00 PKD
ROOT
HETATM    1  O   UNL     1      -9.332  11.132  67.446  1.00  0.00    -0.162 OA 
HETATM    2  C   UNL     1     -10.585  11.822  67.673  1.00  0.00    -0.205 C  
HETATM    3  H   UNL     1      -8.702  11.751  67.096  1.00  0.00     0.000 HD 
HETATM    4  C   UNL     1     -11.106  12.273  66.302  1.00  0.00    -0.342 A  
HETATM    5  C   UNL     1     -10.315  12.962  68.690  1.00  0.00    -0.188 C  
HETATM    6  C   UNL     1     -11.616  10.810  68.245  1.00  0.00    -0.221 C  
HETATM    7  C   UNL     1     -10.709  11.603  65.127  1.00  0.00    -0.351 A  
HETATM    8  F   UNL     1     -12.576  13.400  62.587  1.00  0.00    -0.265 F  
HETATM    9  C   UNL     1     -12.033  13.319  66.162  1.00  0.00    -0.418 A  
HETATM   10  C   UNL     1     -12.510  13.723  64.919  1.00  0.00    -0.420 A  
HETATM   11  C   UNL     1     -11.207  11.981  63.878  1.00  0.00    -0.490 A  
HETATM   12  C   UNL     1     -12.095  13.044  63.785  1.00  0.00    -0.502 A  
HETATM   13  F   UNL     1     -12.525  13.927  67.249  1.00  0.00    -0.410 F  
ENDROOT
BRANCH   6  14
HETATM   14  N   UNL     1     -11.225  10.231  69.516  1.00  0.00    -0.253 NA 
HETATM   15  N   UNL     1     -11.182   9.635  71.609  1.00  0.00    -0.325 NA 
HETATM   16  N   UNL     1     -10.078   9.531  69.620  1.00  0.00    -0.198 NA 
HETATM   17  C   UNL     1     -11.868  10.300  70.708  1.00  0.00    -0.365 A  
HETATM   18  C   UNL     1     -10.110   9.168  70.907  1.00  0.00    -0.287 A  
ENDBRANCH   6  14
BRANCH   5  19
HETATM   19  N   UNL     1      -9.442  14.003  68.184  1.00  0.00    -0.209 NA 
HETATM   20  C   UNL     1      -7.796  14.913  67.308  1.00  0.00    -0.206 A  
HETATM   21  C   UNL     1      -9.693  15.334  68.090  1.00  0.00    -0.212 A  
HETATM   22  N   UNL     1      -8.662  15.940  67.545  1.00  0.00    -0.175 NA 
HETATM   23  N   UNL     1      -8.239  13.702  67.657  1.00  0.00    -0.164 NA 
ENDBRANCH   5  19
TORSDOF 2
ENDMDL
MODEL       14
REMARK 921   NORMALIZED FREE ENERGY PREDICTED BY IDOCK:   -5.75 KCAL/MOL
REMARK 922        TOTAL FREE ENERGY PREDICTED BY IDOCK:   -7.24 KCAL/MOL
REMARK 923 INTER-LIGAND FREE ENERGY PREDICTED BY IDOCK:   -6.59 KCAL/MOL
REMARK 924 INTRA-LIGAND FREE ENERGY PREDICTED BY IDOCK:   -0.64 KCAL/MOL
REMARK 927      BINDING AFFINITY PREDICTED BY RF-SCORE:    0.00 PKD
ROOT
HETATM    1  O   UNL     1     -12.471  14.712  67.738  1.00  0.00    -0.575 OA 
HETATM    2  C   UNL     1     -11.488  14.475  68.775  1.00  0.00    -0.294 C  
HETATM    3  H   UNL     1     -12.584  15.650  67.633  1.00  0.00     0.000 HD 
HETATM    4  C   UNL     1     -12.078  15.010  70.085  1.00  0.00    -0.378 A  
HETATM    5  C   UNL     1     -10.161  15.140  68.322  1.00  0.00    -0.223 C  
HETATM    6  C   UNL     1     -11.303  12.942  68.947  1.00  0.00    -0.288 C  
HETATM    7  C   UNL     1     -13.473  15.123  70.252  1.00  0.00     0.166 A  
HETATM    8  F   UNL     1     -13.713  16.354  73.657  1.00  0.00    -0.571 F  
HETATM    9  C   UNL     1     -11.272  15.350  71.184  1.00  0.00    -0.361 A  
HETATM   10  C   UNL     1     -11.808  15.828  72.376  1.00  0.00    -0.606 A  
HETATM   11  C   UNL     1     -14.022  15.573  71.456  1.00  0.00    -0.526 A  
HETATM   12  C   UNL     1     -13.183  15.930  72.502  1.00  0.00    -0.443 A  
HETATM   13  F   UNL     1      -9.946  15.169  71.123  1.00  0.00     0.148 F  
ENDROOT
BRANCH   6  14
HETATM   14  N   UNL     1     -10.817  12.274  67.754  1.00  0.00    -0.213 NA 
HETATM   15  N   UNL     1      -9.573  11.198  66.329  1.00  0.00    -0.200 NA 
HETATM   16  N   UNL     1     -11.600  12.182  66.660  1.00  0.00    -0.483 NA 
HETATM   17  C   UNL     1      -9.608  11.699  67.542  1.00  0.00    -0.171 A  
HETATM   18  C   UNL     1     -10.806  11.496  65.830  1.00  0.00    -0.262 A  
ENDBRANCH   6  14
BRANCH   5  19
HETATM   19  N   UNL     1     -10.228  16.586  68.243  1.00  0.00    -0.256 NA 
HETATM   20  C   UNL     1     -10.699  18.481  67.541  1.00  0.00    -0.377 A  
HETATM   21  C   UNL     1      -9.784  17.496  69.148  1.00  0.00    -0.105 A  
HETATM   22  N   UNL     1     -10.062  18.709  68.726  1.00  0.00    -0.385 NA 
HETATM   23  N   UNL     1     -10.850  17.195  67.214  1.00  0.00    -0.193 NA 
ENDBRANCH   5  19
TORSDOF 2
ENDMDL
MODEL       15
REMARK 921   NORMALIZED FREE ENERGY PREDICTED BY IDOCK:   -5.74 KCAL/MOL
REMARK 922        TOTAL FREE ENERGY PREDICTED BY IDOCK:   -7.23 KCAL/MOL
REMARK 923 INTER-LIGAND FREE ENERGY PREDICTED BY IDOCK:   -6.55 KCAL/MOL
REMARK 924 INTRA-LIGAND FREE ENERGY PREDICTED BY IDOCK:   -0.68 KCAL/MOL
REMARK 927      BINDING AFFINITY PREDICTED BY RF-SCORE:    0.00 PKD
ROOT
HETATM    1  O   UNL     1     -12.094  10.666  68.157  1.00  0.00    -0.797 OA 
HETATM    2  C   UNL     1     -10.771  11.255  68.180  1.00  0.00    -0.204 C  
HETATM    3  H   UNL     1     -12.639  11.161  67.557  1.00  0.00     0.000 HD 
HETATM    4  C   UNL     1     -10.917  12.667  68.759  1.00  0.00    -0.289 A  
HETATM    5  C   UNL     1     -10.202  11.183  66.738  1.00  0.00    -0.232 C  
HETATM    6  C   UNL     1      -9.880  10.446  69.162  1.00  0.00    -0.223 C  
HETATM    7  C   UNL     1     -12.001  12.991  69.600  1.00  0.00    -0.367 A  
HETATM    8  F   UNL     1     -11.286  16.450  70.430  1.00  0.00    -0.349 F  
HETATM    9  C   UNL     1      -9.961  13.671  68.532  1.00  0.00    -0.208 A  
HETATM   10  C   UNL     1     -10.089  14.951  69.064  1.00  0.00    -0.237 A  
HETATM   11  C   UNL     1     -12.123  14.264  70.164  1.00  0.00    -0.403 A  
HETATM   12  C   UNL     1     -11.170  15.233  69.882  1.00  0.00    -0.288 A  
HETATM   13  F   UNL     1      -8.856  13.396  67.826  1.00  0.00    -0.161 F  
ENDROOT
BRANCH   6  14
HETATM   14  N   UNL     1      -9.708   9.056  68.786  1.00  0.00    -0.157 NA 
HETATM   15  N   UNL     1      -8.876   7.182  68.055  1.00  0.00    -0.129 NA 
HETATM   16  N   UNL     1     -10.715   8.175  68.959  1.00  0.00    -0.140 NA 
HETATM   17  C   UNL     1      -8.624   8.458  68.234  1.00  0.00    -0.139 A  
HETATM   18  C   UNL     1     -10.149   7.044  68.522  1.00  0.00    -0.165 A  
ENDBRANCH   6  14
BRANCH   5  19
HETATM   19  N   UNL     1     -10.922  12.002  65.783  1.00  0.00    -0.297 NA 
HETATM   20  C   UNL     1     -12.485  13.019  64.873  1.00  0.00    -0.455 A  
HETATM   21  C   UNL     1     -10.422  12.690  64.724  1.00  0.00    -0.320 A  
HETATM   22  N   UNL     1     -11.393  13.339  64.122  1.00  0.00    -0.386 NA 
HETATM   23  N   UNL     1     -12.245  12.224  65.919  1.00  0.00    -0.600 NA 
ENDBRANCH   5  19
TORSDOF 2
ENDMDL
MODEL       16
REMARK 921   NORMALIZED FREE ENERGY PREDICTED BY IDOCK:   -5.57 KCAL/MOL
REMARK 922        TOTAL FREE ENERGY PREDICTED BY IDOCK:   -7.05 KCAL/MOL
REMARK 923 INTER-LIGAND FREE ENERGY PREDICTED BY IDOCK:   -6.23 KCAL/MOL
REMARK 924 INTRA-LIGAND FREE ENERGY PREDICTED BY IDOCK:   -0.81 KCAL/MOL
REMARK 927      BINDING AFFINITY PREDICTED BY RF-SCORE:    0.00 PKD
ROOT
HETATM    1  O   UNL     1     -10.822  16.784  67.839  1.00  0.00    -0.348 OA 
HETATM    2  C   UNL     1     -10.167  15.493  67.883  1.00  0.00    -0.238 C  
HETATM    3  H   UNL     1     -11.689  16.700  68.216  1.00  0.00     0.000 HD 
HETATM    4  C   UNL     1     -10.967  14.552  66.973  1.00  0.00    -0.312 A  
HETATM    5  C   UNL     1     -10.078  15.063  69.371  1.00  0.00    -0.202 C  
HETATM    6  C   UNL     1      -8.748  15.631  67.265  1.00  0.00    -0.194 C  
HETATM    7  C   UNL     1     -11.757  15.065  65.925  1.00  0.00    -0.098 A  
HETATM    8  F   UNL     1     -13.061  12.028  64.428  1.00  0.00    -0.505 F  
HETATM    9  C   UNL     1     -10.904  13.155  67.103  1.00  0.00    -0.257 A  
HETATM   10  C   UNL     1     -11.624  12.300  66.273  1.00  0.00    -0.446 A  
HETATM   11  C   UNL     1     -12.459  14.214  65.067  1.00  0.00    -0.434 A  
HETATM   12  C   UNL     1     -12.393  12.841  65.256  1.00  0.00    -0.488 A  
HETATM   13  F   UNL     1     -10.092  12.603  68.015  1.00  0.00    -0.202 F  
ENDROOT
BRANCH   6  14
HETATM   14  N   UNL     1      -7.888  16.556  67.978  1.00  0.00    -0.154 NA 
HETATM   15  N   UNL     1      -6.273  17.410  69.161  1.00  0.00    -0.215 NA 
HETATM   16  N   UNL     1      -8.189  17.869  68.020  1.00  0.00    -0.250 NA 
HETATM   17  C   UNL     1      -6.753  16.290  68.672  1.00  0.00    -0.138 A  
HETATM   18  C   UNL     1      -7.162  18.349  68.731  1.00  0.00    -0.284 A  
ENDBRANCH   6  14
BRANCH   5  19
HETATM   19  N   UNL     1     -11.366  14.812  69.985  1.00  0.00    -0.265 NA 
HETATM   20  C   UNL     1     -13.265  15.158  70.747  1.00  0.00    -0.382 A  
HETATM   21  C   UNL     1     -11.905  13.617  70.343  1.00  0.00    -0.237 A  
HETATM   22  N   UNL     1     -13.108  13.806  70.838  1.00  0.00    -0.210 NA 
HETATM   23  N   UNL     1     -12.237  15.817  70.206  1.00  0.00    -0.375 NA 
ENDBRANCH   5  19
TORSDOF 2
ENDMDL
MODEL       17
REMARK 921   NORMALIZED FREE ENERGY PREDICTED BY IDOCK:   -5.55 KCAL/MOL
REMARK 922        TOTAL FREE ENERGY PREDICTED BY IDOCK:   -7.02 KCAL/MOL
REMARK 923 INTER-LIGAND FREE ENERGY PREDICTED BY IDOCK:   -6.99 KCAL/MOL
REMARK 924 INTRA-LIGAND FREE ENERGY PREDICTED BY IDOCK:   -0.03 KCAL/MOL
REMARK 927      BINDING AFFINITY PREDICTED BY RF-SCORE:    0.00 PKD
ROOT
HETATM    1  O   UNL     1      -9.754  13.192  68.763  1.00  0.00    -0.402 OA 
HETATM    2  C   UNL     1     -10.867  12.716  67.968  1.00  0.00    -0.225 C  
HETATM    3  H   UNL     1      -9.262  13.824  68.252  1.00  0.00     0.000 HD 
HETATM    4  C   UNL     1     -10.275  11.966  66.768  1.00  0.00    -0.232 A  
HETATM    5  C   UNL     1     -11.750  13.942  67.617  1.00  0.00    -0.368 C  
HETATM    6  C   UNL     1     -11.671  11.681  68.803  1.00  0.00    -0.330 C  
HETATM    7  C   UNL     1      -8.983  11.407  66.836  1.00  0.00    -0.171 A  
HETATM    8  F   UNL     1      -8.682   9.842  63.576  1.00  0.00    -0.151 F  
HETATM    9  C   UNL     1     -11.003  11.755  65.585  1.00  0.00    -0.295 A  
HETATM   10  C   UNL     1     -10.468  11.069  64.499  1.00  0.00    -0.411 A  
HETATM   11  C   UNL     1      -8.449  10.689  65.762  1.00  0.00    -0.179 A  
HETATM   12  C   UNL     1      -9.194  10.536  64.601  1.00  0.00    -0.235 A  
HETATM   13  F   UNL     1     -12.272  12.174  65.497  1.00  0.00    -0.461 F  
ENDROOT
BRANCH   6  14
HETATM   14  N   UNL     1     -12.235  12.226  70.022  1.00  0.00    -0.241 NA 
HETATM   15  N   UNL     1     -13.158  12.428  71.984  1.00  0.00    -0.411 NA 
HETATM   16  N   UNL     1     -12.299  13.561  70.205  1.00  0.00    -0.322 NA 
HETATM   17  C   UNL     1     -12.762  11.561  71.080  1.00  0.00    -0.356 A  
HETATM   18  C   UNL     1     -12.846  13.631  71.425  1.00  0.00    -0.360 A  
ENDBRANCH   6  14
BRANCH   5  19
HETATM   19  N   UNL     1     -11.099  14.902  66.748  1.00  0.00    -0.331 NA 
HETATM   20  C   UNL     1      -9.738  16.318  66.078  1.00  0.00    -0.339 A  
HETATM   21  C   UNL     1     -11.392  15.196  65.454  1.00  0.00    -0.298 A  
HETATM   22  N   UNL     1     -10.549  16.098  65.005  1.00  0.00    -0.634 NA 
HETATM   23  N   UNL     1     -10.016  15.589  67.163  1.00  0.00    -0.239 NA 
ENDBRANCH   5  19
TORSDOF 2
ENDMDL
MODEL       18
REMARK 921   NORMALIZED FREE ENERGY PREDICTED BY IDOCK:   -5.50 KCAL/MOL
REMARK 922        TOTAL FREE ENERGY PREDICTED BY IDOCK:   -6.97 KCAL/MOL
REMARK 923 INTER-LIGAND FREE ENERGY PREDICTED BY IDOCK:   -6.10 KCAL/MOL
REMARK 924 INTRA-LIGAND FREE ENERGY PREDICTED BY IDOCK:   -0.86 KCAL/MOL
REMARK 927      BINDING AFFINITY PREDICTED BY RF-SCORE:    0.00 PKD
ROOT
HETATM    1  O   UNL     1      -8.875  14.842  69.729  1.00  0.00    -0.438 OA 
HETATM    2  C   UNL     1     -10.059  15.432  69.140  1.00  0.00    -0.235 C  
HETATM    3  H   UNL     1      -9.049  13.927  69.915  1.00  0.00     0.000 HD 
HETATM    4  C   UNL     1     -11.162  15.387  70.205  1.00  0.00    -0.328 A  
HETATM    5  C   UNL     1     -10.366  14.656  67.831  1.00  0.00    -0.237 C  
HETATM    6  C   UNL     1      -9.774  16.929  68.837  1.00  0.00    -0.256 C  
HETATM    7  C   UNL     1     -10.835  15.334  71.575  1.00  0.00     0.019 A  
HETATM    8  F   UNL     1     -14.120  15.372  73.118  1.00  0.00    -0.458 F  
HETATM    9  C   UNL     1     -12.525  15.457  69.873  1.00  0.00    -0.240 A  
HETATM   10  C   UNL     1     -13.525  15.424  70.840  1.00  0.00    -0.427 A  
HETATM   11  C   UNL     1     -11.832  15.332  72.555  1.00  0.00    -0.532 A  
HETATM   12  C   UNL     1     -13.167  15.367  72.177  1.00  0.00    -0.424 A  
HETATM   13  F   UNL     1     -12.896  15.612  68.595  1.00  0.00     0.267 F  
ENDROOT
BRANCH   6  14
HETATM   14  N   UNL     1      -8.693  17.139  67.893  1.00  0.00    -0.218 NA 
HETATM   15  N   UNL     1      -7.558  17.530  66.077  1.00  0.00    -0.482 NA 
HETATM   16  N   UNL     1      -7.410  17.068  68.302  1.00  0.00    -0.194 NA 
HETATM   17  C   UNL     1      -8.771  17.400  66.565  1.00  0.00    -0.260 A  
HETATM   18  C   UNL     1      -6.759  17.338  67.165  1.00  0.00    -0.175 A  
ENDBRANCH   6  14
BRANCH   5  19
HETATM   19  N   UNL     1     -10.746  13.274  68.046  1.00  0.00    -0.235 NA 
HETATM   20  C   UNL     1     -10.690  11.322  68.747  1.00  0.00    -0.203 A  
HETATM   21  C   UNL     1     -11.875  12.642  67.633  1.00  0.00    -0.329 A  
HETATM   22  N   UNL     1     -11.864  11.398  68.057  1.00  0.00    -0.622 NA 
HETATM   23  N   UNL     1      -9.981  12.453  68.793  1.00  0.00    -0.097 NA 
ENDBRANCH   5  19
TORSDOF 2
ENDMDL
MODEL       19
REMARK 921   NORMALIZED FREE ENERGY PREDICTED BY IDOCK:   -5.49 KCAL/MOL
REMARK 922        TOTAL FREE ENERGY PREDICTED BY IDOCK:   -6.95 KCAL/MOL
REMARK 923 INTER-LIGAND FREE ENERGY PREDICTED BY IDOCK:   -6.35 KCAL/MOL
REMARK 924 INTRA-LIGAND FREE ENERGY PREDICTED BY IDOCK:   -0.60 KCAL/MOL
REMARK 927      BINDING AFFINITY PREDICTED BY RF-SCORE:    0.00 PKD
ROOT
HETATM    1  O   UNL     1     -11.080  15.232  67.867  1.00  0.00    -0.298 OA 
HETATM    2  C   UNL     1     -10.008  15.366  66.903  1.00  0.00    -0.243 C  
HETATM    3  H   UNL     1     -11.170  16.050  68.340  1.00  0.00     0.000 HD 
HETATM    4  C   UNL     1      -8.712  15.574  67.698  1.00  0.00    -0.183 A  
HETATM    5  C   UNL     1     -10.388  16.519  65.937  1.00  0.00    -0.350 C  
HETATM    6  C   UNL     1      -9.861  14.027  66.129  1.00  0.00    -0.303 C  
HETATM    7  C   UNL     1      -8.604  15.118  69.027  1.00  0.00    -0.219 A  
HETATM    8  F   UNL     1      -5.186  16.027  69.842  1.00  0.00    -0.112 F  
HETATM    9  C   UNL     1      -7.573  16.166  67.128  1.00  0.00    -0.202 A  
HETATM   10  C   UNL     1      -6.395  16.348  67.846  1.00  0.00    -0.149 A  
HETATM   11  C   UNL     1      -7.415  15.268  69.747  1.00  0.00    -0.122 A  
HETATM   12  C   UNL     1      -6.326  15.890  69.152  1.00  0.00    -0.146 A  
HETATM   13  F   UNL     1      -7.580  16.528  65.838  1.00  0.00    -0.242 F  
ENDROOT
BRANCH   6  14
HETATM   14  N   UNL     1     -11.045  13.651  65.381  1.00  0.00    -0.294 NA 
HETATM   15  N   UNL     1     -12.415  13.123  63.773  1.00  0.00    -0.706 NA 
HETATM   16  N   UNL     1     -12.218  13.456  66.017  1.00  0.00    -0.436 NA 
HETATM   17  C   UNL     1     -11.176  13.465  64.044  1.00  0.00    -0.287 A  
HETATM   18  C   UNL     1     -13.013  13.113  64.998  1.00  0.00    -0.150 A  
ENDBRANCH   6  14
BRANCH   5  19
HETATM   19  N   UNL     1     -10.439  17.821  66.572  1.00  0.00    -0.330 NA 
HETATM   20  C   UNL     1     -10.595  19.264  68.055  1.00  0.00    -0.327 A  
HETATM   21  C   UNL     1     -10.234  19.039  66.004  1.00  0.00    -0.401 A  
HETATM   22  N   UNL     1     -10.335  19.975  66.921  1.00  0.00    -0.454 NA 
HETATM   23  N   UNL     1     -10.642  17.938  67.899  1.00  0.00    -0.394 NA 
ENDBRANCH   5  19
TORSDOF 2
ENDMDL
MODEL       20
REMARK 921   NORMALIZED FREE ENERGY PREDICTED BY IDOCK:   -5.48 KCAL/MOL
REMARK 922        TOTAL FREE ENERGY PREDICTED BY IDOCK:   -6.94 KCAL/MOL
REMARK 923 INTER-LIGAND FREE ENERGY PREDICTED BY IDOCK:   -6.17 KCAL/MOL
REMARK 924 INTRA-LIGAND FREE ENERGY PREDICTED BY IDOCK:   -0.77 KCAL/MOL
REMARK 927      BINDING AFFINITY PREDICTED BY RF-SCORE:    0.00 PKD
ROOT
HETATM    1  O   UNL     1      -9.940  10.506  67.000  1.00  0.00    -0.186 OA 
HETATM    2  C   UNL     1      -9.732  11.805  67.605  1.00  0.00    -0.182 C  
HETATM    3  H   UNL     1     -10.787  10.501  66.571  1.00  0.00     0.000 HD 
HETATM    4  C   UNL     1     -10.794  11.968  68.699  1.00  0.00    -0.273 A  
HETATM    5  C   UNL     1      -9.778  12.863  66.471  1.00  0.00    -0.257 C  
HETATM    6  C   UNL     1      -8.346  11.813  68.307  1.00  0.00    -0.159 C  
HETATM    7  C   UNL     1     -11.384  10.838  69.302  1.00  0.00    -0.352 A  
HETATM    8  F   UNL     1     -13.597  12.369  71.735  1.00  0.00    -0.456 F  
HETATM    9  C   UNL     1     -11.180  13.228  69.185  1.00  0.00    -0.251 A  
HETATM   10  C   UNL     1     -12.139  13.375  70.183  1.00  0.00    -0.415 A  
HETATM   11  C   UNL     1     -12.325  10.974  70.326  1.00  0.00    -0.410 A  
HETATM   12  C   UNL     1     -12.700  12.242  70.749  1.00  0.00    -0.126 A  
HETATM   13  F   UNL     1     -10.583  14.335  68.724  1.00  0.00    -0.226 F  
ENDROOT
BRANCH   6  14
HETATM   14  N   UNL     1      -7.232  11.593  67.405  1.00  0.00    -0.118 NA 
HETATM   15  N   UNL     1      -5.360  11.805  66.315  1.00  0.00    -0.298 NA 
HETATM   16  N   UNL     1      -7.214  10.514  66.598  1.00  0.00    -0.112 NA 
HETATM   17  C   UNL     1      -6.131  12.363  67.219  1.00  0.00    -0.143 A  
HETATM   18  C   UNL     1      -6.042  10.676  65.972  1.00  0.00    -0.131 A  
ENDBRANCH   6  14
BRANCH   5  19
HETATM   19  N   UNL     1     -11.076  12.988  65.839  1.00  0.00    -0.277 NA 
HETATM   20  C   UNL     1     -12.773  12.490  64.753  1.00  0.00    -0.330 A  
HETATM   21  C   UNL     1     -11.949  14.026  65.915  1.00  0.00    -0.408 A  
HETATM   22  N   UNL     1     -13.033  13.741  65.228  1.00  0.00    -0.754 NA 
HETATM   23  N   UNL     1     -11.598  11.972  65.122  1.00  0.00    -0.308 NA 
ENDBRANCH   5  19
TORSDOF 2
ENDMDL
MODEL       21
REMARK 921   NORMALIZED FREE ENERGY PREDICTED BY IDOCK:   -5.45 KCAL/MOL
REMARK 922        TOTAL FREE ENERGY PREDICTED BY IDOCK:   -6.91 KCAL/MOL
REMARK 923 INTER-LIGAND FREE ENERGY PREDICTED BY IDOCK:   -6.65 KCAL/MOL
REMARK 924 INTRA-LIGAND FREE ENERGY PREDICTED BY IDOCK:   -0.26 KCAL/MOL
REMARK 927      BINDING AFFINITY PREDICTED BY RF-SCORE:    0.00 PKD
ROOT
HETATM    1  O   UNL     1     -10.239  14.365  69.401  1.00  0.00    -0.405 OA 
HETATM    2  C   UNL     1     -11.106  13.331  68.875  1.00  0.00    -0.261 C  
HETATM    3  H   UNL     1      -9.846  14.833  68.674  1.00  0.00     0.000 HD 
HETATM    4  C   UNL     1     -10.214  12.335  68.124  1.00  0.00    -0.212 A  
HETATM    5  C   UNL     1     -12.196  14.026  68.017  1.00  0.00    -0.153 C  
HETATM    6  C   UNL     1     -11.749  12.565  70.064  1.00  0.00    -0.221 C  
HETATM    7  C   UNL     1      -8.847  12.211  68.444  1.00  0.00    -0.143 A  
HETATM    8  F   UNL     1      -7.794   9.575  66.183  1.00  0.00    -0.097 F  
HETATM    9  C   UNL     1     -10.722  11.472  67.139  1.00  0.00    -0.254 A  
HETATM   10  C   UNL     1      -9.914  10.563  66.462  1.00  0.00    -0.266 A  
HETATM   11  C   UNL     1      -8.034  11.279  67.792  1.00  0.00    -0.117 A  
HETATM   12  C   UNL     1      -8.574  10.471  66.801  1.00  0.00    -0.126 A  
HETATM   13  F   UNL     1     -12.033  11.471  66.861  1.00  0.00    -0.275 F  
ENDROOT
BRANCH   6  14
HETATM   14  N   UNL     1     -12.570  13.398  70.921  1.00  0.00    -0.349 NA 
HETATM   15  N   UNL     1     -13.929  14.087  72.476  1.00  0.00    -0.670 NA 
HETATM   16  N   UNL     1     -12.628  14.730  70.721  1.00  0.00    -0.328 NA 
HETATM   17  C   UNL     1     -13.360  13.023  71.958  1.00  0.00    -0.492 A  
HETATM   18  C   UNL     1     -13.448  15.106  71.709  1.00  0.00    -0.433 A  
ENDBRANCH   6  14
BRANCH   5  19
HETATM   19  N   UNL     1     -11.680  14.674  66.828  1.00  0.00    -0.367 NA 
HETATM   20  C   UNL     1     -10.506  15.887  65.620  1.00  0.00    -0.392 A  
HETATM   21  C   UNL     1     -12.034  14.456  65.534  1.00  0.00    -0.358 A  
HETATM   22  N   UNL     1     -11.311  15.218  64.745  1.00  0.00    -0.415 NA 
HETATM   23  N   UNL     1     -10.675  15.568  66.907  1.00  0.00    -0.316 NA 
ENDBRANCH   5  19
TORSDOF 2
ENDMDL
MODEL       22
REMARK 921   NORMALIZED FREE ENERGY PREDICTED BY IDOCK:   -5.45 KCAL/MOL
REMARK 922        TOTAL FREE ENERGY PREDICTED BY IDOCK:   -6.91 KCAL/MOL
REMARK 923 INTER-LIGAND FREE ENERGY PREDICTED BY IDOCK:   -6.07 KCAL/MOL
REMARK 924 INTRA-LIGAND FREE ENERGY PREDICTED BY IDOCK:   -0.84 KCAL/MOL
REMARK 927      BINDING AFFINITY PREDICTED BY RF-SCORE:    0.00 PKD
ROOT
HETATM    1  O   UNL     1     -11.897  14.055  68.011  1.00  0.00    -0.338 OA 
HETATM    2  C   UNL     1     -11.185  12.866  67.591  1.00  0.00    -0.278 C  
HETATM    3  H   UNL     1     -11.388  14.495  68.682  1.00  0.00     0.000 HD 
HETATM    4  C   UNL     1     -11.123  11.927  68.802  1.00  0.00    -0.296 A  
HETATM    5  C   UNL     1      -9.811  13.318  67.029  1.00  0.00    -0.242 C  
HETATM    6  C   UNL     1     -12.017  12.147  66.494  1.00  0.00    -0.117 C  
HETATM    7  C   UNL     1     -12.080  12.020  69.833  1.00  0.00    -0.334 A  
HETATM    8  F   UNL     1     -11.049   9.332  72.042  1.00  0.00    -0.421 F  
HETATM    9  C   UNL     1     -10.163  10.907  68.909  1.00  0.00    -0.198 A  
HETATM   10  C   UNL     1     -10.112  10.050  70.004  1.00  0.00    -0.289 A  
HETATM   11  C   UNL     1     -12.055  11.144  70.922  1.00  0.00    -0.427 A  
HETATM   12  C   UNL     1     -11.066  10.174  71.001  1.00  0.00    -0.171 A  
HETATM   13  F   UNL     1      -9.290  10.702  67.913  1.00  0.00    -0.143 F  
ENDROOT
BRANCH   6  14
HETATM   14  N   UNL     1     -12.229  12.946  65.303  1.00  0.00    -0.452 NA 
HETATM   15  N   UNL     1     -12.316  13.623  63.235  1.00  0.00    -0.739 NA 
HETATM   16  N   UNL     1     -12.727  14.195  65.401  1.00  0.00    -0.617 NA 
HETATM   17  C   UNL     1     -11.975  12.620  64.011  1.00  0.00    -0.451 A  
HETATM   18  C   UNL     1     -12.784  14.555  64.114  1.00  0.00     0.206 A  
ENDBRANCH   6  14
BRANCH   5  19
HETATM   19  N   UNL     1      -8.935  13.903  68.024  1.00  0.00    -0.177 NA 
HETATM   20  C   UNL     1      -8.262  15.157  69.535  1.00  0.00    -0.160 A  
HETATM   21  C   UNL     1      -7.706  13.476  68.415  1.00  0.00    -0.135 A  
HETATM   22  N   UNL     1      -7.250  14.258  69.368  1.00  0.00    -0.094 NA 
HETATM   23  N   UNL     1      -9.329  14.966  68.754  1.00  0.00    -0.199 NA 
ENDBRANCH   5  19
TORSDOF 2
ENDMDL
MODEL       23
REMARK 921   NORMALIZED FREE ENERGY PREDICTED BY IDOCK:   -5.44 KCAL/MOL
REMARK 922        TOTAL FREE ENERGY PREDICTED BY IDOCK:   -6.89 KCAL/MOL
REMARK 923 INTER-LIGAND FREE ENERGY PREDICTED BY IDOCK:   -6.04 KCAL/MOL
REMARK 924 INTRA-LIGAND FREE ENERGY PREDICTED BY IDOCK:   -0.86 KCAL/MOL
REMARK 927      BINDING AFFINITY PREDICTED BY RF-SCORE:    0.00 PKD
ROOT
HETATM    1  O   UNL     1      -9.317  11.507  68.733  1.00  0.00    -0.319 OA 
HETATM    2  C   UNL     1     -10.609  11.545  68.080  1.00  0.00    -0.196 C  
HETATM    3  H   UNL     1      -8.846  12.306  68.528  1.00  0.00     0.000 HD 
HETATM    4  C   UNL     1     -10.350  11.541  66.569  1.00  0.00    -0.269 A  
HETATM    5  C   UNL     1     -11.371  12.783  68.622  1.00  0.00    -0.294 C  
HETATM    6  C   UNL     1     -11.377  10.237  68.417  1.00  0.00    -0.178 C  
HETATM    7  C   UNL     1      -9.152  11.011  66.046  1.00  0.00    -0.212 A  
HETATM    8  F   UNL     1      -9.660  11.420  62.477  1.00  0.00    -0.339 F  
HETATM    9  C   UNL     1     -11.302  12.003  65.646  1.00  0.00    -0.329 A  
HETATM   10  C   UNL     1     -11.070  11.993  64.274  1.00  0.00    -0.411 A  
HETATM   11  C   UNL     1      -8.923  10.968  64.668  1.00  0.00    -0.085 A  
HETATM   12  C   UNL     1      -9.880  11.468  63.797  1.00  0.00    -0.319 A  
HETATM   13  F   UNL     1     -12.500  12.425  66.074  1.00  0.00    -0.416 F  
ENDROOT
BRANCH   6  14
HETATM   14  N   UNL     1     -11.633  10.057  69.833  1.00  0.00    -0.212 NA 
HETATM   15  N   UNL     1     -12.590  10.005  71.788  1.00  0.00    -0.405 NA 
HETATM   16  N   UNL     1     -10.662   9.596  70.647  1.00  0.00    -0.299 NA 
HETATM   17  C   UNL     1     -12.772  10.312  70.524  1.00  0.00    -0.250 A  
HETATM   18  C   UNL     1     -11.302   9.559  71.821  1.00  0.00    -0.233 A  
ENDBRANCH   6  14
BRANCH   5  19
HETATM   19  N   UNL     1     -10.767  14.048  68.254  1.00  0.00    -0.247 NA 
HETATM   20  C   UNL     1      -9.324  15.511  67.967  1.00  0.00    -0.193 A  
HETATM   21  C   UNL     1     -11.350  15.104  67.629  1.00  0.00    -0.321 A  
HETATM   22  N   UNL     1     -10.459  16.052  67.441  1.00  0.00    -0.303 NA 
HETATM   23  N   UNL     1      -9.453  14.273  68.453  1.00  0.00    -0.209 NA 
ENDBRANCH   5  19
TORSDOF 2
ENDMDL
MODEL       24
REMARK 921   NORMALIZED FREE ENERGY PREDICTED BY IDOCK:   -5.41 KCAL/MOL
REMARK 922        TOTAL FREE ENERGY PREDICTED BY IDOCK:   -6.87 KCAL/MOL
REMARK 923 INTER-LIGAND FREE ENERGY PREDICTED BY IDOCK:   -5.95 KCAL/MOL
REMARK 924 INTRA-LIGAND FREE ENERGY PREDICTED BY IDOCK:   -0.92 KCAL/MOL
REMARK 927      BINDING AFFINITY PREDICTED BY RF-SCORE:    0.00 PKD
ROOT
HETATM    1  O   UNL     1     -10.941  13.531  68.030  1.00  0.00    -0.239 OA 
HETATM    2  C   UNL     1     -10.911  12.193  67.476  1.00  0.00    -0.257 C  
HETATM    3  H   UNL     1     -10.180  13.649  68.586  1.00  0.00     0.000 HD 
HETATM    4  C   UNL     1     -11.053  11.217  68.651  1.00  0.00    -0.293 A  
HETATM    5  C   UNL     1      -9.604  12.057  66.652  1.00  0.00    -0.216 C  
HETATM    6  C   UNL     1     -12.157  12.000  66.567  1.00  0.00     0.217 C  
HETATM    7  C   UNL     1     -11.670  11.623  69.852  1.00  0.00    -0.414 A  
HETATM    8  F   UNL     1     -11.547   8.571  71.811  1.00  0.00    -0.294 F  
HETATM    9  C   UNL     1     -10.636   9.879  68.565  1.00  0.00    -0.217 A  
HETATM   10  C   UNL     1     -10.771   8.991  69.628  1.00  0.00    -0.228 A  
HETATM   11  C   UNL     1     -11.838  10.730  70.914  1.00  0.00    -0.400 A  
HETATM   12  C   UNL     1     -11.378   9.426  70.794  1.00  0.00    -0.300 A  
HETATM   13  F   UNL     1     -10.136   9.406  67.415  1.00  0.00    -0.204 F  
ENDROOT
BRANCH   6  14
HETATM   14  N   UNL     1     -12.206  12.914  65.442  1.00  0.00    -0.457 NA 
HETATM   15  N   UNL     1     -12.291  13.738  63.428  1.00  0.00    -0.765 NA 
HETATM   16  N   UNL     1     -12.196  14.246  65.646  1.00  0.00    -0.407 NA 
HETATM   17  C   UNL     1     -12.248  12.621  64.118  1.00  0.00    -0.450 A  
HETATM   18  C   UNL     1     -12.275  14.703  64.391  1.00  0.00    -0.452 A  
ENDBRANCH   6  14
BRANCH   5  19
HETATM   19  N   UNL     1      -8.398  12.119  67.453  1.00  0.00    -0.165 NA 
HETATM   20  C   UNL     1      -6.998  12.809  68.820  1.00  0.00    -0.096 A  
HETATM   21  C   UNL     1      -7.412  11.191  67.556  1.00  0.00    -0.104 A  
HETATM   22  N   UNL     1      -6.504  11.605  68.412  1.00  0.00    -0.051 NA 
HETATM   23  N   UNL     1      -8.170  13.157  68.282  1.00  0.00    -0.154 NA 
ENDBRANCH   5  19
TORSDOF 2
ENDMDL
MODEL       25
REMARK 921   NORMALIZED FREE ENERGY PREDICTED BY IDOCK:   -5.41 KCAL/MOL
REMARK 922        TOTAL FREE ENERGY PREDICTED BY IDOCK:   -6.86 KCAL/MOL
REMARK 923 INTER-LIGAND FREE ENERGY PREDICTED BY IDOCK:   -5.92 KCAL/MOL
REMARK 924 INTRA-LIGAND FREE ENERGY PREDICTED BY IDOCK:   -0.94 KCAL/MOL
REMARK 927      BINDING AFFINITY PREDICTED BY RF-SCORE:    0.00 PKD
ROOT
HETATM    1  O   UNL     1      -9.722  16.680  69.558  1.00  0.00    -0.148 OA 
HETATM    2  C   UNL     1      -9.980  16.036  68.287  1.00  0.00    -0.220 C  
HETATM    3  H   UNL     1      -9.079  16.170  70.035  1.00  0.00     0.000 HD 
HETATM    4  C   UNL     1     -10.618  14.675  68.594  1.00  0.00    -0.252 A  
HETATM    5  C   UNL     1      -8.638  15.981  67.510  1.00  0.00    -0.178 C  
HETATM    6  C   UNL     1     -11.033  16.871  67.507  1.00  0.00    -0.120 C  
HETATM    7  C   UNL     1     -11.304  14.460  69.806  1.00  0.00    -0.285 A  
HETATM    8  F   UNL     1     -12.446  11.038  69.411  1.00  0.00    -0.379 F  
HETATM    9  C   UNL     1     -10.600  13.616  67.671  1.00  0.00    -0.241 A  
HETATM   10  C   UNL     1     -11.185  12.384  67.946  1.00  0.00    -0.316 A  
HETATM   11  C   UNL     1     -11.921  13.236  70.079  1.00  0.00    -0.399 A  
HETATM   12  C   UNL     1     -11.847  12.208  69.150  1.00  0.00    -0.305 A  
HETATM   13  F   UNL     1     -10.052  13.792  66.461  1.00  0.00    -0.259 F  
ENDROOT
BRANCH   6  14
HETATM   14  N   UNL     1     -10.601  18.222  67.207  1.00  0.00    -0.400 NA 
HETATM   15  N   UNL     1     -10.047  20.049  66.160  1.00  0.00    -0.478 NA 
HETATM   16  N   UNL     1     -10.273  19.069  68.203  1.00  0.00    -0.386 NA 
HETATM   17  C   UNL     1     -10.450  18.810  65.994  1.00  0.00    -0.432 A  
HETATM   18  C   UNL     1      -9.967  20.174  67.515  1.00  0.00    -0.430 A  
ENDBRANCH   6  14
BRANCH   5  19
HETATM   19  N   UNL     1      -7.639  15.131  68.125  1.00  0.00    -0.107 NA 
HETATM   20  C   UNL     1      -6.388  14.322  69.569  1.00  0.00    -0.127 A  
HETATM   21  C   UNL     1      -6.996  14.065  67.581  1.00  0.00    -0.183 A  
HETATM   22  N   UNL     1      -6.188  13.536  68.473  1.00  0.00    -0.083 NA 
HETATM   23  N   UNL     1      -7.288  15.297  69.416  1.00  0.00    -0.193 NA 
ENDBRANCH   5  19
TORSDOF 2
ENDMDL
MODEL       26
REMARK 921   NORMALIZED FREE ENERGY PREDICTED BY IDOCK:   -5.41 KCAL/MOL
REMARK 922        TOTAL FREE ENERGY PREDICTED BY IDOCK:   -6.86 KCAL/MOL
REMARK 923 INTER-LIGAND FREE ENERGY PREDICTED BY IDOCK:   -6.04 KCAL/MOL
REMARK 924 INTRA-LIGAND FREE ENERGY PREDICTED BY IDOCK:   -0.82 KCAL/MOL
REMARK 927      BINDING AFFINITY PREDICTED BY RF-SCORE:    0.00 PKD
ROOT
HETATM    1  O   UNL     1     -10.876  17.216  66.861  1.00  0.00    -0.171 OA 
HETATM    2  C   UNL     1      -9.895  16.157  66.742  1.00  0.00    -0.245 C  
HETATM    3  H   UNL     1     -11.642  16.874  67.307  1.00  0.00     0.000 HD 
HETATM    4  C   UNL     1     -10.503  15.080  65.835  1.00  0.00    -0.341 A  
HETATM    5  C   UNL     1      -9.531  15.692  68.177  1.00  0.00    -0.195 C  
HETATM    6  C   UNL     1      -8.642  16.717  66.012  1.00  0.00    -0.194 C  
HETATM    7  C   UNL     1     -11.511  15.407  64.906  1.00  0.00    -0.311 A  
HETATM    8  F   UNL     1     -12.096  12.210  63.294  1.00  0.00    -0.526 F  
HETATM    9  C   UNL     1     -10.049  13.751  65.847  1.00  0.00    -0.313 A  
HETATM   10  C   UNL     1     -10.596  12.774  65.019  1.00  0.00    -0.330 A  
HETATM   11  C   UNL     1     -12.045  14.441  64.050  1.00  0.00    -0.312 A  
HETATM   12  C   UNL     1     -11.588  13.132  64.121  1.00  0.00    -0.410 A  
HETATM   13  F   UNL     1      -9.023  13.400  66.634  1.00  0.00    -0.231 F  
ENDROOT
BRANCH   6  14
HETATM   14  N   UNL     1      -7.994  17.806  66.716  1.00  0.00    -0.225 NA 
HETATM   15  N   UNL     1      -6.563  19.005  67.837  1.00  0.00    -0.218 NA 
HETATM   16  N   UNL     1      -8.615  18.995  66.850  1.00  0.00    -0.285 NA 
HETATM   17  C   UNL     1      -6.779  17.817  67.319  1.00  0.00    -0.165 A  
HETATM   18  C   UNL     1      -7.692  19.698  67.517  1.00  0.00    -0.267 A  
ENDBRANCH   6  14
BRANCH   5  19
HETATM   19  N   UNL     1     -10.628  15.060  68.882  1.00  0.00    -0.234 NA 
HETATM   20  C   UNL     1     -12.458  14.822  69.831  1.00  0.00    -0.240 A  
HETATM   21  C   UNL     1     -10.774  13.747  69.200  1.00  0.00    -0.123 A  
HETATM   22  N   UNL     1     -11.924  13.567  69.811  1.00  0.00    -0.329 NA 
HETATM   23  N   UNL     1     -11.715  15.768  69.250  1.00  0.00    -0.373 NA 
ENDBRANCH   5  19
TORSDOF 2
ENDMDL
MODEL       27
REMARK 921   NORMALIZED FREE ENERGY PREDICTED BY IDOCK:   -5.40 KCAL/MOL
REMARK 922        TOTAL FREE ENERGY PREDICTED BY IDOCK:   -6.85 KCAL/MOL
REMARK 923 INTER-LIGAND FREE ENERGY PREDICTED BY IDOCK:   -5.91 KCAL/MOL
REMARK 924 INTRA-LIGAND FREE ENERGY PREDICTED BY IDOCK:   -0.94 KCAL/MOL
REMARK 927      BINDING AFFINITY PREDICTED BY RF-SCORE:    0.00 PKD
ROOT
HETATM    1  O   UNL     1     -11.652   9.863  67.989  1.00  0.00    -0.602 OA 
HETATM    2  C   UNL     1     -10.289   9.881  67.499  1.00  0.00    -0.236 C  
HETATM    3  H   UNL     1     -11.669   9.415  68.827  1.00  0.00     0.000 HD 
HETATM    4  C   UNL     1      -9.884   8.425  67.242  1.00  0.00    -0.264 A  
HETATM    5  C   UNL     1      -9.426  10.638  68.543  1.00  0.00    -0.176 C  
HETATM    6  C   UNL     1     -10.261  10.614  66.129  1.00  0.00    -0.248 C  
HETATM    7  C   UNL     1     -10.861   7.441  66.989  1.00  0.00    -0.307 A  
HETATM    8  F   UNL     1      -8.815   4.494  66.439  1.00  0.00    -0.112 F  
HETATM    9  C   UNL     1      -8.539   8.022  67.188  1.00  0.00    -0.124 A  
HETATM   10  C   UNL     1      -8.171   6.701  66.948  1.00  0.00    -0.113 A  
HETATM   11  C   UNL     1     -10.499   6.118  66.716  1.00  0.00    -0.316 A  
HETATM   12  C   UNL     1      -9.158   5.761  66.708  1.00  0.00    -0.126 A  
HETATM   13  F   UNL     1      -7.562   8.930  67.319  1.00  0.00    -0.085 F  
ENDROOT
BRANCH   6  14
HETATM   14  N   UNL     1     -10.697  11.996  66.196  1.00  0.00    -0.265 NA 
HETATM   15  N   UNL     1     -10.740  14.172  66.151  1.00  0.00    -0.293 NA 
HETATM   16  N   UNL     1     -11.978  12.291  66.492  1.00  0.00    -0.626 NA 
HETATM   17  C   UNL     1      -9.964  13.122  66.009  1.00  0.00    -0.280 A  
HETATM   18  C   UNL     1     -11.959  13.627  66.427  1.00  0.00    -0.426 A  
ENDBRANCH   6  14
BRANCH   5  19
HETATM   19  N   UNL     1      -9.319   9.957  69.818  1.00  0.00    -0.220 NA 
HETATM   20  C   UNL     1      -9.878   8.969  71.555  1.00  0.00    -0.310 A  
HETATM   21  C   UNL     1      -8.191   9.577  70.472  1.00  0.00    -0.167 A  
HETATM   22  N   UNL     1      -8.515   8.954  71.583  1.00  0.00    -0.336 NA 
HETATM   23  N   UNL     1     -10.420   9.548  70.480  1.00  0.00    -0.274 NA 
ENDBRANCH   5  19
TORSDOF 2
ENDMDL
MODEL       28
REMARK 921   NORMALIZED FREE ENERGY PREDICTED BY IDOCK:   -5.39 KCAL/MOL
REMARK 922        TOTAL FREE ENERGY PREDICTED BY IDOCK:   -6.85 KCAL/MOL
REMARK 923 INTER-LIGAND FREE ENERGY PREDICTED BY IDOCK:   -5.90 KCAL/MOL
REMARK 924 INTRA-LIGAND FREE ENERGY PREDICTED BY IDOCK:   -0.94 KCAL/MOL
REMARK 927      BINDING AFFINITY PREDICTED BY RF-SCORE:    0.00 PKD
ROOT
HETATM    1  O   UNL     1      -8.869  16.679  69.322  1.00  0.00    -0.180 OA 
HETATM    2  C   UNL     1     -10.094  16.331  68.633  1.00  0.00    -0.233 C  
HETATM    3  H   UNL     1      -8.392  15.882  69.520  1.00  0.00     0.000 HD 
HETATM    4  C   UNL     1     -10.950  15.525  69.617  1.00  0.00    -0.288 A  
HETATM    5  C   UNL     1      -9.702  15.587  67.328  1.00  0.00    -0.218 C  
HETATM    6  C   UNL     1     -10.873  17.635  68.308  1.00  0.00    -0.189 C  
HETATM    7  C   UNL     1     -10.773  15.668  71.008  1.00  0.00    -0.027 A  
HETATM    8  F   UNL     1     -13.322  13.438  72.311  1.00  0.00    -0.480 F  
HETATM    9  C   UNL     1     -11.975  14.665  69.187  1.00  0.00    -0.294 A  
HETATM   10  C   UNL     1     -12.757  13.939  70.080  1.00  0.00    -0.182 A  
HETATM   11  C   UNL     1     -11.574  14.967  71.914  1.00  0.00    -0.426 A  
HETATM   12  C   UNL     1     -12.551  14.103  71.440  1.00  0.00    -0.368 A  
HETATM   13  F   UNL     1     -12.260  14.564  67.882  1.00  0.00    -0.365 F  
ENDROOT
BRANCH   6  14
HETATM   14  N   UNL     1     -10.153  18.546  67.439  1.00  0.00    -0.335 NA 
HETATM   15  N   UNL     1      -9.552  19.770  65.742  1.00  0.00    -0.368 NA 
HETATM   16  N   UNL     1      -9.009  19.123  67.857  1.00  0.00    -0.296 NA 
HETATM   17  C   UNL     1     -10.460  18.925  66.174  1.00  0.00    -0.457 A  
HETATM   18  C   UNL     1      -8.696  19.879  66.798  1.00  0.00    -0.343 A  
ENDBRANCH   6  14
BRANCH   5  19
HETATM   19  N   UNL     1      -9.064  14.306  67.554  1.00  0.00    -0.185 NA 
HETATM   20  C   UNL     1      -7.758  12.884  68.316  1.00  0.00    -0.137 A  
HETATM   21  C   UNL     1      -9.434  13.090  67.075  1.00  0.00    -0.237 A  
HETATM   22  N   UNL     1      -8.618  12.168  67.536  1.00  0.00    -0.162 NA 
HETATM   23  N   UNL     1      -8.006  14.195  68.382  1.00  0.00    -0.136 NA 
ENDBRANCH   5  19
TORSDOF 2
ENDMDL
MODEL       29
REMARK 921   NORMALIZED FREE ENERGY PREDICTED BY IDOCK:   -5.37 KCAL/MOL
REMARK 922        TOTAL FREE ENERGY PREDICTED BY IDOCK:   -6.82 KCAL/MOL
REMARK 923 INTER-LIGAND FREE ENERGY PREDICTED BY IDOCK:   -5.96 KCAL/MOL
REMARK 924 INTRA-LIGAND FREE ENERGY PREDICTED BY IDOCK:   -0.86 KCAL/MOL
REMARK 927      BINDING AFFINITY PREDICTED BY RF-SCORE:    0.00 PKD
ROOT
HETATM    1  O   UNL     1      -8.538  14.729  69.727  1.00  0.00    -0.425 OA 
HETATM    2  C   UNL     1      -9.418  14.929  68.594  1.00  0.00    -0.208 C  
HETATM    3  H   UNL     1      -8.936  15.120  70.496  1.00  0.00     0.000 HD 
HETATM    4  C   UNL     1      -9.494  16.441  68.345  1.00  0.00    -0.220 A  
HETATM    5  C   UNL     1     -10.769  14.240  68.923  1.00  0.00    -0.257 C  
HETATM    6  C   UNL     1      -8.767  14.289  67.336  1.00  0.00    -0.209 C  
HETATM    7  C   UNL     1      -8.454  17.292  68.771  1.00  0.00    -0.233 A  
HETATM    8  F   UNL     1      -9.619  20.522  67.596  1.00  0.00    -0.491 F  
HETATM    9  C   UNL     1     -10.557  17.029  67.642  1.00  0.00    -0.333 A  
HETATM   10  C   UNL     1     -10.623  18.400  67.409  1.00  0.00    -0.445 A  
HETATM   11  C   UNL     1      -8.496  18.665  68.515  1.00  0.00    -0.367 A  
HETATM   12  C   UNL     1      -9.585  19.207  67.845  1.00  0.00    -0.325 A  
HETATM   13  F   UNL     1     -11.525  16.261  67.124  1.00  0.00    -0.081 F  
ENDROOT
BRANCH   6  14
HETATM   14  N   UNL     1      -8.557  12.859  67.450  1.00  0.00    -0.185 NA 
HETATM   15  N   UNL     1      -8.664  10.706  67.146  1.00  0.00    -0.130 NA 
HETATM   16  N   UNL     1      -7.706  12.368  68.374  1.00  0.00    -0.140 NA 
HETATM   17  C   UNL     1      -9.133  11.862  66.734  1.00  0.00    -0.197 A  
HETATM   18  C   UNL     1      -7.788  11.055  68.130  1.00  0.00    -0.116 A  
ENDBRANCH   6  14
BRANCH   5  19
HETATM   19  N   UNL     1     -11.486  14.853  70.023  1.00  0.00    -0.264 NA 
HETATM   20  C   UNL     1     -11.843  15.764  71.853  1.00  0.00    -0.480 A  
HETATM   21  C   UNL     1     -12.804  15.175  70.087  1.00  0.00    -0.164 A  
HETATM   22  N   UNL     1     -13.062  15.748  71.242  1.00  0.00    -0.489 NA 
HETATM   23  N   UNL     1     -10.839  15.252  71.136  1.00  0.00    -0.203 NA 
ENDBRANCH   5  19
TORSDOF 2
ENDMDL
MODEL       30
REMARK 921   NORMALIZED FREE ENERGY PREDICTED BY IDOCK:   -5.36 KCAL/MOL
REMARK 922        TOTAL FREE ENERGY PREDICTED BY IDOCK:   -6.80 KCAL/MOL
REMARK 923 INTER-LIGAND FREE ENERGY PREDICTED BY IDOCK:   -6.14 KCAL/MOL
REMARK 924 INTRA-LIGAND FREE ENERGY PREDICTED BY IDOCK:   -0.67 KCAL/MOL
REMARK 927      BINDING AFFINITY PREDICTED BY RF-SCORE:    0.00 PKD
ROOT
HETATM    1  O   UNL     1     -12.148  10.548  68.000  1.00  0.00    -0.697 OA 
HETATM    2  C   UNL     1     -11.058  11.224  68.673  1.00  0.00    -0.232 C  
HETATM    3  H   UNL     1     -11.905  10.403  67.094  1.00  0.00     0.000 HD 
HETATM    4  C   UNL     1     -10.910  12.602  68.018  1.00  0.00    -0.249 A  
HETATM    5  C   UNL     1      -9.811  10.305  68.581  1.00  0.00    -0.173 C  
HETATM    6  C   UNL     1     -11.457  11.462  70.156  1.00  0.00    -0.214 C  
HETATM    7  C   UNL     1     -11.999  13.205  67.356  1.00  0.00    -0.379 A  
HETATM    8  F   UNL     1     -10.572  16.377  66.323  1.00  0.00    -0.303 F  
HETATM    9  C   UNL     1      -9.718  13.342  68.095  1.00  0.00    -0.226 A  
HETATM   10  C   UNL     1      -9.586  14.597  67.507  1.00  0.00    -0.206 A  
HETATM   11  C   UNL     1     -11.885  14.477  66.789  1.00  0.00    -0.390 A  
HETATM   12  C   UNL     1     -10.677  15.156  66.862  1.00  0.00    -0.308 A  
HETATM   13  F   UNL     1      -8.680  12.868  68.797  1.00  0.00    -0.115 F  
ENDROOT
BRANCH   6  14
HETATM   14  N   UNL     1     -11.709  10.241  70.897  1.00  0.00    -0.360 NA 
HETATM   15  N   UNL     1     -11.456   8.433  72.083  1.00  0.00    -0.345 NA 
HETATM   16  N   UNL     1     -12.964   9.764  71.016  1.00  0.00    -0.320 NA 
HETATM   17  C   UNL     1     -10.816   9.434  71.523  1.00  0.00    -0.328 A  
HETATM   18  C   UNL     1     -12.760   8.676  71.768  1.00  0.00    -0.359 A  
ENDBRANCH   6  14
BRANCH   5  19
HETATM   19  N   UNL     1      -9.316  10.124  67.232  1.00  0.00    -0.151 NA 
HETATM   20  C   UNL     1      -9.296   9.685  65.204  1.00  0.00    -0.259 A  
HETATM   21  C   UNL     1      -8.080  10.412  66.747  1.00  0.00    -0.120 A  
HETATM   22  N   UNL     1      -8.035  10.136  65.462  1.00  0.00    -0.140 NA 
HETATM   23  N   UNL     1     -10.127   9.684  66.249  1.00  0.00    -0.263 NA 
ENDBRANCH   5  19
TORSDOF 2
ENDMDL
MODEL       31
REMARK 921   NORMALIZED FREE ENERGY PREDICTED BY IDOCK:   -5.30 KCAL/MOL
REMARK 922        TOTAL FREE ENERGY PREDICTED BY IDOCK:   -6.74 KCAL/MOL
REMARK 923 INTER-LIGAND FREE ENERGY PREDICTED BY IDOCK:   -5.99 KCAL/MOL
REMARK 924 INTRA-LIGAND FREE ENERGY PREDICTED BY IDOCK:   -0.75 KCAL/MOL
REMARK 927      BINDING AFFINITY PREDICTED BY RF-SCORE:    0.00 PKD
ROOT
HETATM    1  O   UNL     1     -10.961  11.243  67.601  1.00  0.00    -0.223 OA 
HETATM    2  C   UNL     1     -10.124  12.425  67.617  1.00  0.00    -0.198 C  
HETATM    3  H   UNL     1     -11.793  11.463  67.201  1.00  0.00     0.000 HD 
HETATM    4  C   UNL     1     -10.809  13.448  68.531  1.00  0.00    -0.285 A  
HETATM    5  C   UNL     1      -9.923  12.876  66.146  1.00  0.00    -0.272 C  
HETATM    6  C   UNL     1      -8.762  12.064  68.272  1.00  0.00    -0.178 C  
HETATM    7  C   UNL     1     -11.700  13.028  69.540  1.00  0.00    -0.381 A  
HETATM    8  F   UNL     1     -12.600  16.183  71.091  1.00  0.00    -0.472 F  
HETATM    9  C   UNL     1     -10.539  14.824  68.447  1.00  0.00    -0.242 A  
HETATM   10  C   UNL     1     -11.155  15.752  69.281  1.00  0.00    -0.297 A  
HETATM   11  C   UNL     1     -12.300  13.950  70.402  1.00  0.00    -0.433 A  
HETATM   12  C   UNL     1     -12.029  15.303  70.258  1.00  0.00    -0.330 A  
HETATM   13  F   UNL     1      -9.625  15.275  67.578  1.00  0.00    -0.203 F  
ENDROOT
BRANCH   6  14
HETATM   14  N   UNL     1      -8.022  11.043  67.557  1.00  0.00    -0.114 NA 
HETATM   15  N   UNL     1      -6.533  10.003  66.356  1.00  0.00    -0.071 NA 
HETATM   16  N   UNL     1      -8.465   9.769  67.538  1.00  0.00    -0.121 NA 
HETATM   17  C   UNL     1      -6.879  11.175  66.839  1.00  0.00    -0.127 A  
HETATM   18  C   UNL     1      -7.510   9.172  66.816  1.00  0.00    -0.087 A  
ENDBRANCH   6  14
BRANCH   5  19
HETATM   19  N   UNL     1     -11.139  13.330  65.502  1.00  0.00    -0.281 NA 
HETATM   20  C   UNL     1     -13.151  13.478  65.017  1.00  0.00     0.005 A  
HETATM   21  C   UNL     1     -11.291  14.360  64.630  1.00  0.00    -0.371 A  
HETATM   22  N   UNL     1     -12.558  14.473  64.298  1.00  0.00    -0.715 NA 
HETATM   23  N   UNL     1     -12.329  12.766  65.792  1.00  0.00    -0.594 NA 
ENDBRANCH   5  19
TORSDOF 2
ENDMDL
MODEL       32
REMARK 921   NORMALIZED FREE ENERGY PREDICTED BY IDOCK:   -5.27 KCAL/MOL
REMARK 922        TOTAL FREE ENERGY PREDICTED BY IDOCK:   -6.71 KCAL/MOL
REMARK 923 INTER-LIGAND FREE ENERGY PREDICTED BY IDOCK:   -5.78 KCAL/MOL
REMARK 924 INTRA-LIGAND FREE ENERGY PREDICTED BY IDOCK:   -0.94 KCAL/MOL
REMARK 927      BINDING AFFINITY PREDICTED BY RF-SCORE:    0.00 PKD
ROOT
HETATM    1  O   UNL     1      -9.937  12.741  67.398  1.00  0.00    -0.208 OA 
HETATM    2  C   UNL     1     -10.423  11.523  66.785  1.00  0.00    -0.239 C  
HETATM    3  H   UNL     1      -9.037  12.608  67.672  1.00  0.00     0.000 HD 
HETATM    4  C   UNL     1     -10.438  10.445  67.876  1.00  0.00    -0.248 A  
HETATM    5  C   UNL     1      -9.517  11.220  65.562  1.00  0.00    -0.229 C  
HETATM    6  C   UNL     1     -11.895  11.742  66.337  1.00  0.00     0.087 C  
HETATM    7  C   UNL     1     -10.526  10.802  69.237  1.00  0.00    -0.243 A  
HETATM    8  F   UNL     1     -10.586   7.551  70.849  1.00  0.00    -0.214 F  
HETATM    9  C   UNL     1     -10.425   9.074  67.572  1.00  0.00    -0.272 A  
HETATM   10  C   UNL     1     -10.446   8.096  68.562  1.00  0.00    -0.199 A  
HETATM   11  C   UNL     1     -10.579   9.826  70.237  1.00  0.00    -0.348 A  
HETATM   12  C   UNL     1     -10.529   8.484  69.889  1.00  0.00    -0.219 A  
HETATM   13  F   UNL     1     -10.445   8.671  66.295  1.00  0.00    -0.350 F  
ENDROOT
BRANCH   6  14
HETATM   14  N   UNL     1     -12.056  12.794  65.352  1.00  0.00    -0.439 NA 
HETATM   15  N   UNL     1     -12.448  13.878  63.505  1.00  0.00    -0.812 NA 
HETATM   16  N   UNL     1     -11.828  14.080  65.687  1.00  0.00    -0.362 NA 
HETATM   17  C   UNL     1     -12.410  12.683  64.047  1.00  0.00    -0.443 A  
HETATM   18  C   UNL     1     -12.105  14.702  64.535  1.00  0.00    -0.475 A  
ENDBRANCH   6  14
BRANCH   5  19
HETATM   19  N   UNL     1      -8.148  10.899  65.914  1.00  0.00    -0.149 NA 
HETATM   20  C   UNL     1      -6.276  11.044  66.798  1.00  0.00    -0.110 A  
HETATM   21  C   UNL     1      -7.435   9.792  65.581  1.00  0.00    -0.110 A  
HETATM   22  N   UNL     1      -6.239   9.860  66.122  1.00  0.00    -0.069 NA 
HETATM   23  N   UNL     1      -7.434  11.706  66.724  1.00  0.00    -0.125 NA 
ENDBRANCH   5  19
TORSDOF 2
ENDMDL
MODEL       33
REMARK 921   NORMALIZED FREE ENERGY PREDICTED BY IDOCK:   -5.26 KCAL/MOL
REMARK 922        TOTAL FREE ENERGY PREDICTED BY IDOCK:   -6.70 KCAL/MOL
REMARK 923 INTER-LIGAND FREE ENERGY PREDICTED BY IDOCK:   -6.36 KCAL/MOL
REMARK 924 INTRA-LIGAND FREE ENERGY PREDICTED BY IDOCK:   -0.34 KCAL/MOL
REMARK 927      BINDING AFFINITY PREDICTED BY RF-SCORE:    0.00 PKD
ROOT
HETATM    1  O   UNL     1     -12.715  14.126  67.761  1.00  0.00    -0.327 OA 
HETATM    2  C   UNL     1     -11.331  13.701  67.782  1.00  0.00    -0.306 C  
HETATM    3  H   UNL     1     -12.976  14.273  66.859  1.00  0.00     0.000 HD 
HETATM    4  C   UNL     1     -10.492  14.871  67.254  1.00  0.00    -0.263 A  
HETATM    5  C   UNL     1     -11.232  12.388  66.961  1.00  0.00    -0.303 C  
HETATM    6  C   UNL     1     -10.905  13.460  69.257  1.00  0.00    -0.040 C  
HETATM    7  C   UNL     1     -10.973  16.194  67.336  1.00  0.00    -0.210 A  
HETATM    8  F   UNL     1      -8.205  18.073  65.930  1.00  0.00    -0.236 F  
HETATM    9  C   UNL     1      -9.203  14.689  66.727  1.00  0.00    -0.264 A  
HETATM   10  C   UNL     1      -8.439  15.752  66.255  1.00  0.00    -0.245 A  
HETATM   11  C   UNL     1     -10.201  17.271  66.893  1.00  0.00    -0.322 A  
HETATM   12  C   UNL     1      -8.945  17.038  66.348  1.00  0.00    -0.275 A  
HETATM   13  F   UNL     1      -8.650  13.469  66.716  1.00  0.00    -0.212 F  
ENDROOT
BRANCH   6  14
HETATM   14  N   UNL     1     -11.667  12.422  69.924  1.00  0.00    -0.298 NA 
HETATM   15  N   UNL     1     -13.093  11.370  71.189  1.00  0.00    -0.223 NA 
HETATM   16  N   UNL     1     -11.412  11.122  69.672  1.00  0.00    -0.282 NA 
HETATM   17  C   UNL     1     -12.659  12.559  70.839  1.00  0.00    -0.241 A  
HETATM   18  C   UNL     1     -12.323  10.523  70.448  1.00  0.00    -0.324 A  
ENDBRANCH   6  14
BRANCH   5  19
HETATM   19  N   UNL     1     -11.513  12.557  65.550  1.00  0.00    -0.334 NA 
HETATM   20  C   UNL     1     -12.473  13.155  63.810  1.00  0.00    -0.288 A  
HETATM   21  C   UNL     1     -10.743  12.190  64.492  1.00  0.00    -0.310 A  
HETATM   22  N   UNL     1     -11.332  12.549  63.373  1.00  0.00    -0.467 NA 
HETATM   23  N   UNL     1     -12.617  13.210  65.137  1.00  0.00    -0.590 NA 
ENDBRANCH   5  19
TORSDOF 2
ENDMDL
MODEL       34
REMARK 921   NORMALIZED FREE ENERGY PREDICTED BY IDOCK:   -5.26 KCAL/MOL
REMARK 922        TOTAL FREE ENERGY PREDICTED BY IDOCK:   -6.69 KCAL/MOL
REMARK 923 INTER-LIGAND FREE ENERGY PREDICTED BY IDOCK:   -5.75 KCAL/MOL
REMARK 924 INTRA-LIGAND FREE ENERGY PREDICTED BY IDOCK:   -0.94 KCAL/MOL
REMARK 927      BINDING AFFINITY PREDICTED BY RF-SCORE:    0.00 PKD
ROOT
HETATM    1  O   UNL     1      -9.880  13.703  68.621  1.00  0.00    -0.308 OA 
HETATM    2  C   UNL     1      -9.130  14.405  67.601  1.00  0.00    -0.194 C  
HETATM    3  H   UNL     1     -10.805  13.749  68.408  1.00  0.00     0.000 HD 
HETATM    4  C   UNL     1      -9.539  15.881  67.677  1.00  0.00    -0.221 A  
HETATM    5  C   UNL     1      -9.415  13.704  66.246  1.00  0.00    -0.191 C  
HETATM    6  C   UNL     1      -7.618  14.329  67.951  1.00  0.00    -0.153 C  
HETATM    7  C   UNL     1     -10.055  16.423  68.871  1.00  0.00    -0.255 A  
HETATM    8  F   UNL     1     -10.557  19.897  67.948  1.00  0.00    -0.514 F  
HETATM    9  C   UNL     1      -9.366  16.761  66.596  1.00  0.00    -0.254 A  
HETATM   10  C   UNL     1      -9.730  18.102  66.667  1.00  0.00    -0.334 A  
HETATM   11  C   UNL     1     -10.394  17.776  68.962  1.00  0.00    -0.234 A  
HETATM   12  C   UNL     1     -10.237  18.599  67.856  1.00  0.00    -0.392 A  
HETATM   13  F   UNL     1      -8.786  16.329  65.467  1.00  0.00    -0.231 F  
ENDROOT
BRANCH   6  14
HETATM   14  N   UNL     1      -7.095  12.977  67.994  1.00  0.00    -0.099 NA 
HETATM   15  N   UNL     1      -5.932  11.179  67.603  1.00  0.00    -0.047 NA 
HETATM   16  N   UNL     1      -7.614  12.074  68.850  1.00  0.00    -0.066 NA 
HETATM   17  C   UNL     1      -6.104  12.431  67.246  1.00  0.00    -0.143 A  
HETATM   18  C   UNL     1      -6.855  11.003  68.591  1.00  0.00    -0.064 A  
ENDBRANCH   6  14
BRANCH   5  19
HETATM   19  N   UNL     1     -10.789  13.826  65.801  1.00  0.00    -0.275 NA 
HETATM   20  C   UNL     1     -12.862  13.752  65.829  1.00  0.00    -0.379 A  
HETATM   21  C   UNL     1     -11.249  14.356  64.638  1.00  0.00    -0.360 A  
HETATM   22  N   UNL     1     -12.562  14.314  64.624  1.00  0.00    -0.665 NA 
HETATM   23  N   UNL     1     -11.810  13.460  66.600  1.00  0.00    -0.376 NA 
ENDBRANCH   5  19
TORSDOF 2
ENDMDL
MODEL       35
REMARK 921   NORMALIZED FREE ENERGY PREDICTED BY IDOCK:   -5.20 KCAL/MOL
REMARK 922        TOTAL FREE ENERGY PREDICTED BY IDOCK:   -6.62 KCAL/MOL
REMARK 923 INTER-LIGAND FREE ENERGY PREDICTED BY IDOCK:   -6.01 KCAL/MOL
REMARK 924 INTRA-LIGAND FREE ENERGY PREDICTED BY IDOCK:   -0.61 KCAL/MOL
REMARK 927      BINDING AFFINITY PREDICTED BY RF-SCORE:    0.00 PKD
ROOT
HETATM    1  O   UNL     1     -10.490  13.066  69.061  1.00  0.00    -0.412 OA 
HETATM    2  C   UNL     1     -10.673  11.759  68.465  1.00  0.00    -0.220 C  
HETATM    3  H   UNL     1     -10.488  13.719  68.371  1.00  0.00     0.000 HD 
HETATM    4  C   UNL     1      -9.444  11.487  67.589  1.00  0.00    -0.170 A  
HETATM    5  C   UNL     1     -12.033  11.771  67.717  1.00  0.00    -0.064 C  
HETATM    6  C   UNL     1     -10.677  10.691  69.593  1.00  0.00    -0.244 C  
HETATM    7  C   UNL     1      -8.219  12.135  67.849  1.00  0.00    -0.155 A  
HETATM    8  F   UNL     1      -6.070  10.697  65.303  1.00  0.00    -0.117 F  
HETATM    9  C   UNL     1      -9.465  10.552  66.541  1.00  0.00    -0.166 A  
HETATM   10  C   UNL     1      -8.347  10.300  65.750  1.00  0.00    -0.152 A  
HETATM   11  C   UNL     1      -7.083  11.866  67.080  1.00  0.00    -0.142 A  
HETATM   12  C   UNL     1      -7.162  10.958  66.033  1.00  0.00    -0.071 A  
HETATM   13  F   UNL     1     -10.570   9.830  66.309  1.00  0.00    -0.280 F  
ENDROOT
BRANCH   6  14
HETATM   14  N   UNL     1     -11.748  10.861  70.556  1.00  0.00    -0.337 NA 
HETATM   15  N   UNL     1     -13.358  10.482  71.971  1.00  0.00    -0.401 NA 
HETATM   16  N   UNL     1     -12.122  12.096  70.946  1.00  0.00    -0.217 NA 
HETATM   17  C   UNL     1     -12.499   9.908  71.161  1.00  0.00    -0.368 A  
HETATM   18  C   UNL     1     -13.088  11.810  71.826  1.00  0.00    -0.375 A  
ENDBRANCH   6  14
BRANCH   5  19
HETATM   19  N   UNL     1     -12.068  12.670  66.581  1.00  0.00    -0.539 NA 
HETATM   20  C   UNL     1     -11.921  14.416  65.470  1.00  0.00    -0.358 A  
HETATM   21  C   UNL     1     -12.278  12.362  65.275  1.00  0.00    -0.353 A  
HETATM   22  N   UNL     1     -12.199  13.453  64.546  1.00  0.00    -0.473 NA 
HETATM   23  N   UNL     1     -11.804  13.984  66.729  1.00  0.00    -0.402 NA 
ENDBRANCH   5  19
TORSDOF 2
ENDMDL
MODEL       36
REMARK 921   NORMALIZED FREE ENERGY PREDICTED BY IDOCK:   -5.13 KCAL/MOL
REMARK 922        TOTAL FREE ENERGY PREDICTED BY IDOCK:   -6.56 KCAL/MOL
REMARK 923 INTER-LIGAND FREE ENERGY PREDICTED BY IDOCK:   -5.87 KCAL/MOL
REMARK 924 INTRA-LIGAND FREE ENERGY PREDICTED BY IDOCK:   -0.68 KCAL/MOL
REMARK 927      BINDING AFFINITY PREDICTED BY RF-SCORE:    0.00 PKD
ROOT
HETATM    1  O   UNL     1      -9.105  15.116  65.383  1.00  0.00    -0.227 OA 
HETATM    2  C   UNL     1     -10.179  15.523  66.265  1.00  0.00    -0.294 C  
HETATM    3  H   UNL     1      -8.291  15.116  65.872  1.00  0.00     0.000 HD 
HETATM    4  C   UNL     1      -9.899  16.974  66.677  1.00  0.00    -0.297 A  
HETATM    5  C   UNL     1     -10.240  14.500  67.430  1.00  0.00    -0.240 C  
HETATM    6  C   UNL     1     -11.511  15.523  65.464  1.00  0.00    -0.001 C  
HETATM    7  C   UNL     1      -9.108  17.811  65.864  1.00  0.00     0.112 A  
HETATM    8  F   UNL     1      -9.205  20.935  67.708  1.00  0.00    -0.362 F  
HETATM    9  C   UNL     1     -10.456  17.543  67.833  1.00  0.00    -0.384 A  
HETATM   10  C   UNL     1     -10.207  18.862  68.203  1.00  0.00    -0.454 A  
HETATM   11  C   UNL     1      -8.877  19.145  66.211  1.00  0.00    -0.308 A  
HETATM   12  C   UNL     1      -9.422  19.654  67.382  1.00  0.00    -0.329 A  
HETATM   13  F   UNL     1     -11.298  16.829  68.593  1.00  0.00    -0.322 F  
ENDROOT
BRANCH   6  14
HETATM   14  N   UNL     1     -11.877  14.222  64.938  1.00  0.00    -0.389 NA 
HETATM   15  N   UNL     1     -12.932  12.364  64.521  1.00  0.00    -0.810 NA 
HETATM   16  N   UNL     1     -11.067  13.588  64.067  1.00  0.00    -0.274 NA 
HETATM   17  C   UNL     1     -12.978  13.479  65.214  1.00  0.00    -0.228 A  
HETATM   18  C   UNL     1     -11.766  12.474  63.824  1.00  0.00    -0.485 A  
ENDBRANCH   6  14
BRANCH   5  19
HETATM   19  N   UNL     1      -9.072  14.519  68.287  1.00  0.00    -0.190 NA 
HETATM   20  C   UNL     1      -7.120  14.233  68.931  1.00  0.00    -0.113 A  
HETATM   21  C   UNL     1      -8.939  15.094  69.511  1.00  0.00    -0.127 A  
HETATM   22  N   UNL     1      -7.712  14.921  69.948  1.00  0.00    -0.008 NA 
HETATM   23  N   UNL     1      -7.904  13.985  67.878  1.00  0.00    -0.143 NA 
ENDBRANCH   5  19
TORSDOF 2
ENDMDL
MODEL       37
REMARK 921   NORMALIZED FREE ENERGY PREDICTED BY IDOCK:   -5.09 KCAL/MOL
REMARK 922        TOTAL FREE ENERGY PREDICTED BY IDOCK:   -6.51 KCAL/MOL
REMARK 923 INTER-LIGAND FREE ENERGY PREDICTED BY IDOCK:   -5.82 KCAL/MOL
REMARK 924 INTRA-LIGAND FREE ENERGY PREDICTED BY IDOCK:   -0.69 KCAL/MOL
REMARK 927      BINDING AFFINITY PREDICTED BY RF-SCORE:    0.00 PKD
ROOT
HETATM    1  O   UNL     1     -12.256  10.907  68.055  1.00  0.00    -0.695 OA 
HETATM    2  C   UNL     1     -10.964  10.936  68.709  1.00  0.00    -0.237 C  
HETATM    3  H   UNL     1     -12.798  10.252  68.479  1.00  0.00     0.000 HD 
HETATM    4  C   UNL     1     -10.304   9.574  68.464  1.00  0.00    -0.234 A  
HETATM    5  C   UNL     1     -11.202  11.303  70.199  1.00  0.00    -0.067 C  
HETATM    6  C   UNL     1     -10.077  12.007  68.016  1.00  0.00    -0.198 C  
HETATM    7  C   UNL     1     -10.673   8.785  67.356  1.00  0.00    -0.216 A  
HETATM    8  F   UNL     1      -8.464   5.929  67.713  1.00  0.00    -0.107 F  
HETATM    9  C   UNL     1      -9.276   9.083  69.286  1.00  0.00    -0.145 A  
HETATM   10  C   UNL     1      -8.671   7.850  69.059  1.00  0.00    -0.138 A  
HETATM   11  C   UNL     1     -10.051   7.560  67.102  1.00  0.00    -0.317 A  
HETATM   12  C   UNL     1      -9.063   7.101  67.962  1.00  0.00    -0.132 A  
HETATM   13  F   UNL     1      -8.810   9.831  70.295  1.00  0.00    -0.216 F  
ENDROOT
BRANCH   6  14
HETATM   14  N   UNL     1     -10.614  13.352  68.096  1.00  0.00    -0.238 NA 
HETATM   15  N   UNL     1     -10.893  15.460  68.562  1.00  0.00    -0.253 NA 
HETATM   16  N   UNL     1     -11.778  13.657  67.488  1.00  0.00    -0.349 NA 
HETATM   17  C   UNL     1     -10.102  14.428  68.744  1.00  0.00    -0.234 A  
HETATM   18  C   UNL     1     -11.891  14.958  67.781  1.00  0.00    -0.251 A  
ENDBRANCH   6  14
BRANCH   5  19
HETATM   19  N   UNL     1     -11.934  10.295  70.939  1.00  0.00    -0.344 NA 
HETATM   20  C   UNL     1     -13.512   9.120  71.597  1.00  0.00    -0.391 A  
HETATM   21  C   UNL     1     -11.443   9.369  71.803  1.00  0.00    -0.343 A  
HETATM   22  N   UNL     1     -12.424   8.613  72.243  1.00  0.00    -0.389 NA 
HETATM   23  N   UNL     1     -13.260  10.134  70.765  1.00  0.00    -0.328 NA 
ENDBRANCH   5  19
TORSDOF 2
ENDMDL
MODEL       38
REMARK 921   NORMALIZED FREE ENERGY PREDICTED BY IDOCK:   -5.09 KCAL/MOL
REMARK 922        TOTAL FREE ENERGY PREDICTED BY IDOCK:   -6.50 KCAL/MOL
REMARK 923 INTER-LIGAND FREE ENERGY PREDICTED BY IDOCK:   -6.15 KCAL/MOL
REMARK 924 INTRA-LIGAND FREE ENERGY PREDICTED BY IDOCK:   -0.35 KCAL/MOL
REMARK 927      BINDING AFFINITY PREDICTED BY RF-SCORE:    0.00 PKD
ROOT
HETATM    1  O   UNL     1      -9.716  13.311  67.369  1.00  0.00    -0.213 OA 
HETATM    2  C   UNL     1     -10.489  12.100  67.550  1.00  0.00    -0.209 C  
HETATM    3  H   UNL     1      -9.070  13.367  68.063  1.00  0.00     0.000 HD 
HETATM    4  C   UNL     1     -11.254  12.247  68.871  1.00  0.00    -0.323 A  
HETATM    5  C   UNL     1      -9.505  10.902  67.481  1.00  0.00    -0.155 C  
HETATM    6  C   UNL     1     -11.547  12.008  66.416  1.00  0.00    -0.313 C  
HETATM    7  C   UNL     1     -11.546  13.523  69.395  1.00  0.00    -0.369 A  
HETATM    8  F   UNL     1     -13.413  12.683  72.390  1.00  0.00    -0.607 F  
HETATM    9  C   UNL     1     -11.743  11.137  69.579  1.00  0.00    -0.335 A  
HETATM   10  C   UNL     1     -12.444  11.270  70.774  1.00  0.00    -0.471 A  
HETATM   11  C   UNL     1     -12.275  13.668  70.578  1.00  0.00    -0.438 A  
HETATM   12  C   UNL     1     -12.708  12.540  71.260  1.00  0.00    -0.252 A  
HETATM   13  F   UNL     1     -11.587   9.903  69.081  1.00  0.00    -0.196 F  
ENDROOT
BRANCH   6  14
HETATM   14  N   UNL     1     -10.973  11.939  65.085  1.00  0.00    -0.306 NA 
HETATM   15  N   UNL     1     -10.210  12.463  63.115  1.00  0.00    -0.246 NA 
HETATM   16  N   UNL     1     -10.596  10.752  64.568  1.00  0.00    -0.285 NA 
HETATM   17  C   UNL     1     -10.753  12.949  64.208  1.00  0.00    -0.406 A  
HETATM   18  C   UNL     1     -10.115  11.129  63.378  1.00  0.00    -0.390 A  
ENDBRANCH   6  14
BRANCH   5  19
HETATM   19  N   UNL     1      -8.553  10.863  68.572  1.00  0.00    -0.145 NA 
HETATM   20  C   UNL     1      -6.998  11.425  69.825  1.00  0.00     0.038 A  
HETATM   21  C   UNL     1      -8.483   9.967  69.591  1.00  0.00    -0.187 A  
HETATM   22  N   UNL     1      -7.499  10.294  70.399  1.00  0.00    -0.221 NA 
HETATM   23  N   UNL     1      -7.627  11.831  68.719  1.00  0.00    -0.123 NA 
ENDBRANCH   5  19
TORSDOF 2
ENDMDL
MODEL       39
REMARK 921   NORMALIZED FREE ENERGY PREDICTED BY IDOCK:   -5.01 KCAL/MOL
REMARK 922        TOTAL FREE ENERGY PREDICTED BY IDOCK:   -6.42 KCAL/MOL
REMARK 923 INTER-LIGAND FREE ENERGY PREDICTED BY IDOCK:   -5.49 KCAL/MOL
REMARK 924 INTRA-LIGAND FREE ENERGY PREDICTED BY IDOCK:   -0.93 KCAL/MOL
REMARK 927      BINDING AFFINITY PREDICTED BY RF-SCORE:    0.00 PKD
ROOT
HETATM    1  O   UNL     1     -10.718  16.533  66.734  1.00  0.00    -0.267 OA 
HETATM    2  C   UNL     1      -9.560  15.860  67.284  1.00  0.00    -0.217 C  
HETATM    3  H   UNL     1     -11.487  16.273  67.228  1.00  0.00     0.000 HD 
HETATM    4  C   UNL     1      -9.761  14.357  67.052  1.00  0.00    -0.256 A  
HETATM    5  C   UNL     1      -9.429  16.292  68.769  1.00  0.00    -0.237 C  
HETATM    6  C   UNL     1      -8.304  16.285  66.475  1.00  0.00    -0.308 C  
HETATM    7  C   UNL     1     -10.594  13.896  66.012  1.00  0.00    -0.293 A  
HETATM    8  F   UNL     1     -10.245  10.298  66.328  1.00  0.00    -0.265 F  
HETATM    9  C   UNL     1      -9.089  13.387  67.813  1.00  0.00    -0.202 A  
HETATM   10  C   UNL     1      -9.265  12.023  67.597  1.00  0.00    -0.182 A  
HETATM   11  C   UNL     1     -10.754  12.529  65.768  1.00  0.00    -0.299 A  
HETATM   12  C   UNL     1     -10.095  11.607  66.569  1.00  0.00    -0.207 A  
HETATM   13  F   UNL     1      -8.206  13.762  68.748  1.00  0.00    -0.145 F  
ENDROOT
BRANCH   6  14
HETATM   14  N   UNL     1      -8.023  17.706  66.535  1.00  0.00    -0.248 NA 
HETATM   15  N   UNL     1      -7.081  19.631  66.920  1.00  0.00    -0.210 NA 
HETATM   16  N   UNL     1      -8.895  18.594  66.014  1.00  0.00    -0.482 NA 
HETATM   17  C   UNL     1      -6.954  18.334  67.085  1.00  0.00    -0.194 A  
HETATM   18  C   UNL     1      -8.263  19.749  66.251  1.00  0.00    -0.350 A  
ENDBRANCH   6  14
BRANCH   5  19
HETATM   19  N   UNL     1     -10.518  15.836  69.609  1.00  0.00    -0.267 NA 
HETATM   20  C   UNL     1     -12.450  15.455  70.263  1.00  0.00    -0.374 A  
HETATM   21  C   UNL     1     -10.443  15.127  70.766  1.00  0.00     0.158 A  
HETATM   22  N   UNL     1     -11.655  14.878  71.209  1.00  0.00    -0.327 NA 
HETATM   23  N   UNL     1     -11.801  16.031  69.247  1.00  0.00    -0.315 NA 
ENDBRANCH   5  19
TORSDOF 2
ENDMDL
MODEL       40
REMARK 921   NORMALIZED FREE ENERGY PREDICTED BY IDOCK:   -4.97 KCAL/MOL
REMARK 922        TOTAL FREE ENERGY PREDICTED BY IDOCK:   -6.37 KCAL/MOL
REMARK 923 INTER-LIGAND FREE ENERGY PREDICTED BY IDOCK:   -5.44 KCAL/MOL
REMARK 924 INTRA-LIGAND FREE ENERGY PREDICTED BY IDOCK:   -0.94 KCAL/MOL
REMARK 927      BINDING AFFINITY PREDICTED BY RF-SCORE:    0.00 PKD
ROOT
HETATM    1  O   UNL     1     -10.172  11.588  69.414  1.00  0.00    -0.428 OA 
HETATM    2  C   UNL     1     -10.422  10.784  68.236  1.00  0.00    -0.181 C  
HETATM    3  H   UNL     1      -9.343  11.323  69.795  1.00  0.00     0.000 HD 
HETATM    4  C   UNL     1     -10.585   9.334  68.708  1.00  0.00    -0.220 A  
HETATM    5  C   UNL     1      -9.257  11.033  67.242  1.00  0.00    -0.148 C  
HETATM    6  C   UNL     1     -11.778  11.218  67.613  1.00  0.00    -0.134 C  
HETATM    7  C   UNL     1     -10.986   9.049  70.029  1.00  0.00    -0.230 A  
HETATM    8  F   UNL     1     -11.136   5.423  69.988  1.00  0.00    -0.368 F  
HETATM    9  C   UNL     1     -10.403   8.242  67.844  1.00  0.00    -0.219 A  
HETATM   10  C   UNL     1     -10.557   6.926  68.270  1.00  0.00    -0.258 A  
HETATM   11  C   UNL     1     -11.174   7.732  70.458  1.00  0.00    -0.267 A  
HETATM   12  C   UNL     1     -10.949   6.684  69.576  1.00  0.00    -0.313 A  
HETATM   13  F   UNL     1     -10.120   8.451  66.550  1.00  0.00    -0.301 F  
ENDROOT
BRANCH   6  14
HETATM   14  N   UNL     1     -11.807  12.603  67.183  1.00  0.00    -0.432 NA 
HETATM   15  N   UNL     1     -11.918  14.407  65.969  1.00  0.00    -0.385 NA 
HETATM   16  N   UNL     1     -11.687  13.598  68.085  1.00  0.00    -0.338 NA 
HETATM   17  C   UNL     1     -11.929  13.094  65.925  1.00  0.00    -0.427 A  
HETATM   18  C   UNL     1     -11.786  14.676  67.299  1.00  0.00    -0.385 A  
ENDBRANCH   6  14
BRANCH   5  19
HETATM   19  N   UNL     1      -7.973  10.554  67.713  1.00  0.00    -0.105 NA 
HETATM   20  C   UNL     1      -6.314  10.299  68.933  1.00  0.00    -0.047 A  
HETATM   21  C   UNL     1      -7.174   9.609  67.152  1.00  0.00    -0.087 A  
HETATM   22  N   UNL     1      -6.109   9.432  67.901  1.00  0.00    -0.052 NA 
HETATM   23  N   UNL     1      -7.456  10.991  68.879  1.00  0.00    -0.114 NA 
ENDBRANCH   5  19
TORSDOF 2
ENDMDL
MODEL       41
REMARK 921   NORMALIZED FREE ENERGY PREDICTED BY IDOCK:   -4.91 KCAL/MOL
REMARK 922        TOTAL FREE ENERGY PREDICTED BY IDOCK:   -6.30 KCAL/MOL
REMARK 923 INTER-LIGAND FREE ENERGY PREDICTED BY IDOCK:   -5.91 KCAL/MOL
REMARK 924 INTRA-LIGAND FREE ENERGY PREDICTED BY IDOCK:   -0.39 KCAL/MOL
REMARK 927      BINDING AFFINITY PREDICTED BY RF-SCORE:    0.00 PKD
ROOT
HETATM    1  O   UNL     1     -12.083  11.897  66.139  1.00  0.00    -0.519 OA 
HETATM    2  C   UNL     1     -10.823  12.278  66.742  1.00  0.00    -0.253 C  
HETATM    3  H   UNL     1     -12.609  11.446  66.789  1.00  0.00     0.000 HD 
HETATM    4  C   UNL     1     -10.085  10.982  67.100  1.00  0.00    -0.227 A  
HETATM    5  C   UNL     1     -11.140  13.215  67.938  1.00  0.00    -0.262 C  
HETATM    6  C   UNL     1      -9.963  13.017  65.679  1.00  0.00    -0.230 C  
HETATM    7  C   UNL     1     -10.368   9.782  66.417  1.00  0.00    -0.247 A  
HETATM    8  F   UNL     1      -8.034   7.479  67.972  1.00  0.00    -0.113 F  
HETATM    9  C   UNL     1      -9.069  10.944  68.069  1.00  0.00    -0.152 A  
HETATM   10  C   UNL     1      -8.394   9.769  68.389  1.00  0.00    -0.110 A  
HETATM   11  C   UNL     1      -9.675   8.604  66.710  1.00  0.00    -0.298 A  
HETATM   12  C   UNL     1      -8.701   8.608  67.699  1.00  0.00    -0.136 A  
HETATM   13  F   UNL     1      -8.684  12.072  68.681  1.00  0.00    -0.161 F  
ENDROOT
BRANCH   6  14
HETATM   14  N   UNL     1     -10.570  14.236  65.181  1.00  0.00    -0.380 NA 
HETATM   15  N   UNL     1     -10.972  16.324  64.715  1.00  0.00    -0.663 NA 
HETATM   16  N   UNL     1     -11.726  14.187  64.489  1.00  0.00    -0.405 NA 
HETATM   17  C   UNL     1     -10.137  15.513  65.323  1.00  0.00    -0.302 A  
HETATM   18  C   UNL     1     -11.915  15.481  64.206  1.00  0.00    -0.153 A  
ENDBRANCH   6  14
BRANCH   5  19
HETATM   19  N   UNL     1     -11.851  12.563  69.020  1.00  0.00    -0.307 NA 
HETATM   20  C   UNL     1     -12.896  11.112  70.072  1.00  0.00     0.056 A  
HETATM   21  C   UNL     1     -12.037  13.010  70.289  1.00  0.00    -0.314 A  
HETATM   22  N   UNL     1     -12.705  12.113  70.979  1.00  0.00    -0.294 NA 
HETATM   23  N   UNL     1     -12.367  11.328  68.864  1.00  0.00    -0.444 NA 
ENDBRANCH   5  19
TORSDOF 2
ENDMDL
MODEL       42
REMARK 921   NORMALIZED FREE ENERGY PREDICTED BY IDOCK:   -4.89 KCAL/MOL
REMARK 922        TOTAL FREE ENERGY PREDICTED BY IDOCK:   -6.29 KCAL/MOL
REMARK 923 INTER-LIGAND FREE ENERGY PREDICTED BY IDOCK:   -5.48 KCAL/MOL
REMARK 924 INTRA-LIGAND FREE ENERGY PREDICTED BY IDOCK:   -0.80 KCAL/MOL
REMARK 927      BINDING AFFINITY PREDICTED BY RF-SCORE:    0.00 PKD
ROOT
HETATM    1  O   UNL     1     -11.183   7.786  73.552  1.00  0.00    -0.518 OA 
HETATM    2  C   UNL     1     -10.699   7.587  72.202  1.00  0.00    -0.234 C  
HETATM    3  H   UNL     1     -10.481   7.588  74.161  1.00  0.00     0.000 HD 
HETATM    4  C   UNL     1     -10.380   6.094  72.054  1.00  0.00    -0.232 A  
HETATM    5  C   UNL     1      -9.500   8.548  71.988  1.00  0.00    -0.294 C  
HETATM    6  C   UNL     1     -11.847   7.911  71.206  1.00  0.00    -0.296 C  
HETATM    7  C   UNL     1     -11.011   5.139  72.876  1.00  0.00    -0.345 A  
HETATM    8  F   UNL     1      -9.617   2.037  71.610  1.00  0.00    -0.155 F  
HETATM    9  C   UNL     1      -9.502   5.612  71.069  1.00  0.00    -0.166 A  
HETATM   10  C   UNL     1      -9.217   4.256  70.930  1.00  0.00    -0.203 A  
HETATM   11  C   UNL     1     -10.756   3.773  72.724  1.00  0.00    -0.149 A  
HETATM   12  C   UNL     1      -9.854   3.347  71.758  1.00  0.00    -0.159 A  
HETATM   13  F   UNL     1      -8.948   6.459  70.191  1.00  0.00    -0.146 F  
ENDROOT
BRANCH   6  14
HETATM   14  N   UNL     1     -12.316   9.281  71.280  1.00  0.00    -0.320 NA 
HETATM   15  N   UNL     1     -12.600  11.409  70.919  1.00  0.00    -0.371 NA 
HETATM   16  N   UNL     1     -13.253   9.631  72.184  1.00  0.00    -0.441 NA 
HETATM   17  C   UNL     1     -11.923  10.349  70.542  1.00  0.00    -0.334 A  
HETATM   18  C   UNL     1     -13.409  10.931  71.907  1.00  0.00    -0.324 A  
ENDBRANCH   6  14
BRANCH   5  19
HETATM   19  N   UNL     1      -8.348   8.239  72.810  1.00  0.00    -0.232 NA 
HETATM   20  C   UNL     1      -7.213   7.792  74.489  1.00  0.00    -0.143 A  
HETATM   21  C   UNL     1      -7.071   8.002  72.410  1.00  0.00    -0.090 A  
HETATM   22  N   UNL     1      -6.326   7.724  73.455  1.00  0.00    -0.070 NA 
HETATM   23  N   UNL     1      -8.471   8.077  74.143  1.00  0.00    -0.262 NA 
ENDBRANCH   5  19
TORSDOF 2
ENDMDL
MODEL       43
REMARK 921   NORMALIZED FREE ENERGY PREDICTED BY IDOCK:   -4.87 KCAL/MOL
REMARK 922        TOTAL FREE ENERGY PREDICTED BY IDOCK:   -6.26 KCAL/MOL
REMARK 923 INTER-LIGAND FREE ENERGY PREDICTED BY IDOCK:   -5.61 KCAL/MOL
REMARK 924 INTRA-LIGAND FREE ENERGY PREDICTED BY IDOCK:   -0.65 KCAL/MOL
REMARK 927      BINDING AFFINITY PREDICTED BY RF-SCORE:    0.00 PKD
ROOT
HETATM    1  O   UNL     1      -8.782  11.848  67.484  1.00  0.00    -0.151 OA 
HETATM    2  C   UNL     1     -10.089  12.366  67.135  1.00  0.00    -0.213 C  
HETATM    3  H   UNL     1      -8.800  11.559  68.389  1.00  0.00     0.000 HD 
HETATM    4  C   UNL     1     -10.327  13.608  68.003  1.00  0.00    -0.250 A  
HETATM    5  C   UNL     1     -11.113  11.216  67.323  1.00  0.00    -0.302 C  
HETATM    6  C   UNL     1     -10.060  12.839  65.655  1.00  0.00    -0.270 C  
HETATM    7  C   UNL     1      -9.241  14.336  68.529  1.00  0.00    -0.197 A  
HETATM    8  F   UNL     1     -10.935  17.033  70.269  1.00  0.00    -0.281 F  
HETATM    9  C   UNL     1     -11.616  14.103  68.260  1.00  0.00    -0.321 A  
HETATM   10  C   UNL     1     -11.833  15.234  69.042  1.00  0.00    -0.342 A  
HETATM   11  C   UNL     1      -9.447  15.490  69.290  1.00  0.00    -0.263 A  
HETATM   12  C   UNL     1     -10.741  15.922  69.546  1.00  0.00    -0.288 A  
HETATM   13  F   UNL     1     -12.684  13.514  67.704  1.00  0.00    -0.120 F  
ENDROOT
BRANCH   6  14
HETATM   14  N   UNL     1      -9.767  11.781  64.708  1.00  0.00    -0.205 NA 
HETATM   15  N   UNL     1      -9.800  10.472  62.969  1.00  0.00    -0.290 NA 
HETATM   16  N   UNL     1      -8.791  10.887  64.968  1.00  0.00    -0.176 NA 
HETATM   17  C   UNL     1     -10.371  11.517  63.523  1.00  0.00    -0.433 A  
HETATM   18  C   UNL     1      -8.834  10.128  63.867  1.00  0.00    -0.230 A  
ENDBRANCH   6  14
BRANCH   5  19
HETATM   19  N   UNL     1     -11.273  10.793  68.700  1.00  0.00    -0.254 NA 
HETATM   20  C   UNL     1     -10.803  10.047  70.578  1.00  0.00    -0.314 A  
HETATM   21  C   UNL     1     -12.370  10.913  69.491  1.00  0.00    -0.171 A  
HETATM   22  N   UNL     1     -12.105  10.440  70.688  1.00  0.00    -0.319 NA 
HETATM   23  N   UNL     1     -10.240  10.267  69.387  1.00  0.00    -0.223 NA 
ENDBRANCH   5  19
TORSDOF 2
ENDMDL
MODEL       44
REMARK 921   NORMALIZED FREE ENERGY PREDICTED BY IDOCK:   -4.86 KCAL/MOL
REMARK 922        TOTAL FREE ENERGY PREDICTED BY IDOCK:   -6.25 KCAL/MOL
REMARK 923 INTER-LIGAND FREE ENERGY PREDICTED BY IDOCK:   -5.33 KCAL/MOL
REMARK 924 INTRA-LIGAND FREE ENERGY PREDICTED BY IDOCK:   -0.91 KCAL/MOL
REMARK 927      BINDING AFFINITY PREDICTED BY RF-SCORE:    0.00 PKD
ROOT
HETATM    1  O   UNL     1     -11.664  12.745  67.663  1.00  0.00    -0.339 OA 
HETATM    2  C   UNL     1     -10.528  11.883  67.414  1.00  0.00    -0.217 C  
HETATM    3  H   UNL     1     -11.436  13.362  68.348  1.00  0.00     0.000 HD 
HETATM    4  C   UNL     1     -10.292  11.070  68.693  1.00  0.00    -0.209 A  
HETATM    5  C   UNL     1      -9.345  12.784  66.970  1.00  0.00    -0.229 C  
HETATM    6  C   UNL     1     -10.901  10.875  66.292  1.00  0.00    -0.124 C  
HETATM    7  C   UNL     1     -11.342  10.844  69.605  1.00  0.00    -0.362 A  
HETATM    8  F   UNL     1      -9.714   8.787  72.112  1.00  0.00    -0.326 F  
HETATM    9  C   UNL     1      -9.053  10.473  68.981  1.00  0.00    -0.181 A  
HETATM   10  C   UNL     1      -8.841   9.729  70.139  1.00  0.00    -0.226 A  
HETATM   11  C   UNL     1     -11.147  10.073  70.754  1.00  0.00    -0.407 A  
HETATM   12  C   UNL     1      -9.896   9.531  71.014  1.00  0.00    -0.166 A  
HETATM   13  F   UNL     1      -8.045  10.566  68.104  1.00  0.00    -0.104 F  
ENDROOT
BRANCH   6  14
HETATM   14  N   UNL     1     -11.229  11.503  65.027  1.00  0.00    -0.211 NA 
HETATM   15  N   UNL     1     -11.151  12.213  62.971  1.00  0.00    -0.142 NA 
HETATM   16  N   UNL     1     -12.398  12.158  64.876  1.00  0.00    -0.435 NA 
HETATM   17  C   UNL     1     -10.488  11.554  63.893  1.00  0.00    -0.385 A  
HETATM   18  C   UNL     1     -12.313  12.550  63.599  1.00  0.00    -0.522 A  
ENDBRANCH   6  14
BRANCH   5  19
HETATM   19  N   UNL     1      -8.871  13.679  68.006  1.00  0.00    -0.179 NA 
HETATM   20  C   UNL     1      -8.889  15.137  69.483  1.00  0.00    -0.124 A  
HETATM   21  C   UNL     1      -7.629  13.746  68.552  1.00  0.00    -0.134 A  
HETATM   22  N   UNL     1      -7.608  14.669  69.488  1.00  0.00    -0.095 NA 
HETATM   23  N   UNL     1      -9.709  14.544  68.612  1.00  0.00    -0.219 NA 
ENDBRANCH   5  19
TORSDOF 2
ENDMDL
MODEL       45
REMARK 921   NORMALIZED FREE ENERGY PREDICTED BY IDOCK:   -4.83 KCAL/MOL
REMARK 922        TOTAL FREE ENERGY PREDICTED BY IDOCK:   -6.21 KCAL/MOL
REMARK 923 INTER-LIGAND FREE ENERGY PREDICTED BY IDOCK:   -5.44 KCAL/MOL
REMARK 924 INTRA-LIGAND FREE ENERGY PREDICTED BY IDOCK:   -0.78 KCAL/MOL
REMARK 927      BINDING AFFINITY PREDICTED BY RF-SCORE:    0.00 PKD
ROOT
HETATM    1  O   UNL     1      -9.507  13.790  65.606  1.00  0.00    -0.504 OA 
HETATM    2  C   UNL     1      -9.893  12.676  66.446  1.00  0.00    -0.259 C  
HETATM    3  H   UNL     1      -8.926  14.357  66.098  1.00  0.00     0.000 HD 
HETATM    4  C   UNL     1     -10.705  13.252  67.613  1.00  0.00    -0.250 A  
HETATM    5  C   UNL     1      -8.598  11.920  66.846  1.00  0.00    -0.185 C  
HETATM    6  C   UNL     1     -10.844  11.748  65.640  1.00  0.00    -0.292 C  
HETATM    7  C   UNL     1     -11.374  14.486  67.482  1.00  0.00    -0.355 A  
HETATM    8  F   UNL     1     -12.995  14.792  70.714  1.00  0.00    -0.363 F  
HETATM    9  C   UNL     1     -10.865  12.562  68.825  1.00  0.00    -0.239 A  
HETATM   10  C   UNL     1     -11.607  13.081  69.882  1.00  0.00    -0.249 A  
HETATM   11  C   UNL     1     -12.147  15.002  68.526  1.00  0.00    -0.177 A  
HETATM   12  C   UNL     1     -12.248  14.298  69.718  1.00  0.00    -0.339 A  
HETATM   13  F   UNL     1     -10.338  11.339  68.974  1.00  0.00    -0.198 F  
ENDROOT
BRANCH   6  14
HETATM   14  N   UNL     1     -10.238  11.180  64.452  1.00  0.00    -0.304 NA 
HETATM   15  N   UNL     1      -9.224   9.843  63.065  1.00  0.00    -0.275 NA 
HETATM   16  N   UNL     1     -10.214  11.880  63.300  1.00  0.00    -0.431 NA 
HETATM   17  C   UNL     1      -9.634   9.975  64.306  1.00  0.00    -0.235 A  
HETATM   18  C   UNL     1      -9.609  11.013  62.480  1.00  0.00    -0.175 A  
ENDBRANCH   6  14
BRANCH   5  19
HETATM   19  N   UNL     1      -7.708  12.690  67.691  1.00  0.00    -0.142 NA 
HETATM   20  C   UNL     1      -6.606  14.292  68.416  1.00  0.00    -0.105 A  
HETATM   21  C   UNL     1      -7.132  12.314  68.863  1.00  0.00    -0.088 A  
HETATM   22  N   UNL     1      -6.419  13.309  69.342  1.00  0.00    -0.110 NA 
HETATM   23  N   UNL     1      -7.411  13.971  67.398  1.00  0.00    -0.163 NA 
ENDBRANCH   5  19
TORSDOF 2
ENDMDL
MODEL       46
REMARK 921   NORMALIZED FREE ENERGY PREDICTED BY IDOCK:   -4.82 KCAL/MOL
REMARK 922        TOTAL FREE ENERGY PREDICTED BY IDOCK:   -6.21 KCAL/MOL
REMARK 923 INTER-LIGAND FREE ENERGY PREDICTED BY IDOCK:   -5.31 KCAL/MOL
REMARK 924 INTRA-LIGAND FREE ENERGY PREDICTED BY IDOCK:   -0.90 KCAL/MOL
REMARK 927      BINDING AFFINITY PREDICTED BY RF-SCORE:    0.00 PKD
ROOT
HETATM    1  O   UNL     1      -9.384  10.517  69.563  1.00  0.00    -0.359 OA 
HETATM    2  C   UNL     1     -10.084   9.263  69.376  1.00  0.00    -0.197 C  
HETATM    3  H   UNL     1      -8.990  10.521  70.427  1.00  0.00     0.000 HD 
HETATM    4  C   UNL     1     -11.229   9.230  70.396  1.00  0.00    -0.290 A  
HETATM    5  C   UNL     1      -9.041   8.121  69.509  1.00  0.00    -0.151 C  
HETATM    6  C   UNL     1     -10.728   9.256  67.962  1.00  0.00    -0.174 C  
HETATM    7  C   UNL     1     -11.761  10.426  70.918  1.00  0.00    -0.455 A  
HETATM    8  F   UNL     1     -14.397   9.181  73.079  1.00  0.00    -0.341 F  
HETATM    9  C   UNL     1     -11.830   8.029  70.806  1.00  0.00    -0.162 A  
HETATM   10  C   UNL     1     -12.874   7.999  71.726  1.00  0.00    -0.353 A  
HETATM   11  C   UNL     1     -12.829  10.409  71.819  1.00  0.00    -0.561 A  
HETATM   12  C   UNL     1     -13.368   9.194  72.220  1.00  0.00    -0.477 A  
HETATM   13  F   UNL     1     -11.437   6.865  70.269  1.00  0.00    -0.303 F  
ENDROOT
BRANCH   6  14
HETATM   14  N   UNL     1      -9.768   9.360  66.881  1.00  0.00    -0.173 NA 
HETATM   15  N   UNL     1      -8.501   8.912  65.168  1.00  0.00    -0.164 NA 
HETATM   16  N   UNL     1      -9.102  10.514  66.671  1.00  0.00    -0.154 NA 
HETATM   17  C   UNL     1      -9.392   8.408  65.991  1.00  0.00    -0.177 A  
HETATM   18  C   UNL     1      -8.362  10.197  65.602  1.00  0.00    -0.152 A  
ENDBRANCH   6  14
BRANCH   5  19
HETATM   19  N   UNL     1      -8.474   7.998  70.836  1.00  0.00    -0.120 NA 
HETATM   20  C   UNL     1      -7.623   8.534  72.652  1.00  0.00    -0.009 A  
HETATM   21  C   UNL     1      -8.371   6.882  71.604  1.00  0.00    -0.109 A  
HETATM   22  N   UNL     1      -7.827   7.190  72.760  1.00  0.00    -0.090 NA 
HETATM   23  N   UNL     1      -8.028   9.082  71.502  1.00  0.00    -0.339 NA 
ENDBRANCH   5  19
TORSDOF 2
ENDMDL
MODEL       47
REMARK 921   NORMALIZED FREE ENERGY PREDICTED BY IDOCK:   -4.78 KCAL/MOL
REMARK 922        TOTAL FREE ENERGY PREDICTED BY IDOCK:   -6.16 KCAL/MOL
REMARK 923 INTER-LIGAND FREE ENERGY PREDICTED BY IDOCK:   -5.25 KCAL/MOL
REMARK 924 INTRA-LIGAND FREE ENERGY PREDICTED BY IDOCK:   -0.91 KCAL/MOL
REMARK 927      BINDING AFFINITY PREDICTED BY RF-SCORE:    0.00 PKD
ROOT
HETATM    1  O   UNL     1      -9.152   7.524  70.237  1.00  0.00    -0.152 OA 
HETATM    2  C   UNL     1     -10.520   7.070  70.104  1.00  0.00    -0.214 C  
HETATM    3  H   UNL     1      -8.926   7.547  71.159  1.00  0.00     0.000 HD 
HETATM    4  C   UNL     1     -11.412   8.131  70.761  1.00  0.00    -0.272 A  
HETATM    5  C   UNL     1     -10.606   5.651  70.725  1.00  0.00    -0.265 C  
HETATM    6  C   UNL     1     -10.889   7.031  68.595  1.00  0.00    -0.147 C  
HETATM    7  C   UNL     1     -10.970   9.464  70.886  1.00  0.00    -0.391 A  
HETATM    8  F   UNL     1     -13.841  11.050  72.439  1.00  0.00    -0.305 F  
HETATM    9  C   UNL     1     -12.712   7.842  71.207  1.00  0.00    -0.250 A  
HETATM   10  C   UNL     1     -13.524   8.806  71.797  1.00  0.00    -0.436 A  
HETATM   11  C   UNL     1     -11.790  10.446  71.448  1.00  0.00    -0.312 A  
HETATM   12  C   UNL     1     -13.055  10.105  71.907  1.00  0.00    -0.466 A  
HETATM   13  F   UNL     1     -13.227   6.618  71.024  1.00  0.00    -0.298 F  
ENDROOT
BRANCH   6  14
HETATM   14  N   UNL     1     -10.073   6.120  67.816  1.00  0.00    -0.137 NA 
HETATM   15  N   UNL     1      -9.416   4.499  66.520  1.00  0.00    -0.157 NA 
HETATM   16  N   UNL     1      -8.733   6.266  67.784  1.00  0.00    -0.114 NA 
HETATM   17  C   UNL     1     -10.468   5.057  67.073  1.00  0.00    -0.148 A  
HETATM   18  C   UNL     1      -8.382   5.271  66.961  1.00  0.00    -0.107 A  
ENDBRANCH   6  14
BRANCH   5  19
HETATM   19  N   UNL     1     -10.378   5.624  72.156  1.00  0.00    -0.202 NA 
HETATM   20  C   UNL     1      -9.449   5.912  73.989  1.00  0.00    -0.145 A  
HETATM   21  C   UNL     1     -11.229   5.215  73.133  1.00  0.00    -0.330 A  
HETATM   22  N   UNL     1     -10.663   5.379  74.308  1.00  0.00    -0.261 NA 
HETATM   23  N   UNL     1      -9.236   6.108  72.685  1.00  0.00    -0.140 NA 
ENDBRANCH   5  19
TORSDOF 2
ENDMDL
MODEL       48
REMARK 921   NORMALIZED FREE ENERGY PREDICTED BY IDOCK:   -4.77 KCAL/MOL
REMARK 922        TOTAL FREE ENERGY PREDICTED BY IDOCK:   -6.15 KCAL/MOL
REMARK 923 INTER-LIGAND FREE ENERGY PREDICTED BY IDOCK:   -6.31 KCAL/MOL
REMARK 924 INTRA-LIGAND FREE ENERGY PREDICTED BY IDOCK:    0.16 KCAL/MOL
REMARK 927      BINDING AFFINITY PREDICTED BY RF-SCORE:    0.00 PKD
ROOT
HETATM    1  O   UNL     1     -13.335  10.513  69.575  1.00  0.00    -0.309 OA 
HETATM    2  C   UNL     1     -12.060  10.686  70.239  1.00  0.00    -0.338 C  
HETATM    3  H   UNL     1     -13.555   9.589  69.571  1.00  0.00     0.000 HD 
HETATM    4  C   UNL     1     -11.006   9.974  69.382  1.00  0.00    -0.280 A  
HETATM    5  C   UNL     1     -12.211  10.151  71.688  1.00  0.00    -0.331 C  
HETATM    6  C   UNL     1     -11.700  12.197  70.246  1.00  0.00    -0.153 C  
HETATM    7  C   UNL     1     -11.222   9.765  68.005  1.00  0.00    -0.059 A  
HETATM    8  F   UNL     1      -8.131   8.143  67.011  1.00  0.00    -0.102 F  
HETATM    9  C   UNL     1      -9.773   9.556  69.908  1.00  0.00    -0.224 A  
HETATM   10  C   UNL     1      -8.813   8.917  69.128  1.00  0.00    -0.136 A  
HETATM   11  C   UNL     1     -10.252   9.151  67.207  1.00  0.00    -0.319 A  
HETATM   12  C   UNL     1      -9.062   8.725  67.779  1.00  0.00    -0.135 A  
HETATM   13  F   UNL     1      -9.467   9.817  71.186  1.00  0.00    -0.233 F  
ENDROOT
BRANCH   6  14
HETATM   14  N   UNL     1     -12.655  13.022  70.961  1.00  0.00    -0.349 NA 
HETATM   15  N   UNL     1     -14.073  13.768  72.436  1.00  0.00    -0.699 NA 
HETATM   16  N   UNL     1     -13.022  14.222  70.467  1.00  0.00    -0.282 NA 
HETATM   17  C   UNL     1     -13.297  12.755  72.126  1.00  0.00    -0.492 A  
HETATM   18  C   UNL     1     -13.866  14.646  71.414  1.00  0.00    -0.403 A  
ENDBRANCH   6  14
BRANCH   5  19
HETATM   19  N   UNL     1     -12.442   8.723  71.764  1.00  0.00    -0.328 NA 
HETATM   20  C   UNL     1     -13.386   6.886  71.560  1.00  0.00    -0.221 A  
HETATM   21  C   UNL     1     -11.581   7.755  72.173  1.00  0.00    -0.317 A  
HETATM   22  N   UNL     1     -12.156   6.578  72.063  1.00  0.00    -0.331 NA 
HETATM   23  N   UNL     1     -13.600   8.185  71.333  1.00  0.00    -0.266 NA 
ENDBRANCH   5  19
TORSDOF 2
ENDMDL
MODEL       49
REMARK 921   NORMALIZED FREE ENERGY PREDICTED BY IDOCK:   -4.76 KCAL/MOL
REMARK 922        TOTAL FREE ENERGY PREDICTED BY IDOCK:   -6.14 KCAL/MOL
REMARK 923 INTER-LIGAND FREE ENERGY PREDICTED BY IDOCK:   -5.21 KCAL/MOL
REMARK 924 INTRA-LIGAND FREE ENERGY PREDICTED BY IDOCK:   -0.93 KCAL/MOL
REMARK 927      BINDING AFFINITY PREDICTED BY RF-SCORE:    0.00 PKD
ROOT
HETATM    1  O   UNL     1     -11.744   7.834  70.919  1.00  0.00    -0.289 OA 
HETATM    2  C   UNL     1     -10.411   8.387  70.790  1.00  0.00    -0.197 C  
HETATM    3  H   UNL     1     -12.063   7.600  70.056  1.00  0.00     0.000 HD 
HETATM    4  C   UNL     1     -10.539   9.687  69.987  1.00  0.00    -0.300 A  
HETATM    5  C   UNL     1      -9.512   7.295  70.151  1.00  0.00    -0.165 C  
HETATM    6  C   UNL     1      -9.890   8.769  72.203  1.00  0.00    -0.277 C  
HETATM    7  C   UNL     1     -11.756  10.397  69.959  1.00  0.00    -0.366 A  
HETATM    8  F   UNL     1     -10.889  13.264  67.909  1.00  0.00    -0.231 F  
HETATM    9  C   UNL     1      -9.451  10.252  69.302  1.00  0.00    -0.215 A  
HETATM   10  C   UNL     1      -9.564  11.436  68.579  1.00  0.00    -0.190 A  
HETATM   11  C   UNL     1     -11.872  11.603  69.261  1.00  0.00    -0.396 A  
HETATM   12  C   UNL     1     -10.777  12.105  68.571  1.00  0.00    -0.232 A  
HETATM   13  F   UNL     1      -8.242   9.678  69.375  1.00  0.00    -0.096 F  
ENDROOT
BRANCH   6  14
HETATM   14  N   UNL     1      -9.786   7.645  73.112  1.00  0.00    -0.253 NA 
HETATM   15  N   UNL     1      -9.012   6.097  74.433  1.00  0.00    -0.136 NA 
HETATM   16  N   UNL     1     -10.894   6.987  73.511  1.00  0.00    -0.323 NA 
HETATM   17  C   UNL     1      -8.670   7.098  73.655  1.00  0.00    -0.160 A  
HETATM   18  C   UNL     1     -10.372   6.070  74.333  1.00  0.00    -0.249 A  
ENDBRANCH   6  14
BRANCH   5  19
HETATM   19  N   UNL     1      -9.875   6.962  68.788  1.00  0.00    -0.147 NA 
HETATM   20  C   UNL     1     -11.022   6.365  67.165  1.00  0.00    -0.399 A  
HETATM   21  C   UNL     1      -9.123   7.094  67.665  1.00  0.00    -0.127 A  
HETATM   22  N   UNL     1      -9.822   6.715  66.619  1.00  0.00    -0.169 NA 
HETATM   23  N   UNL     1     -11.114   6.525  68.488  1.00  0.00    -0.291 NA 
ENDBRANCH   5  19
TORSDOF 2
ENDMDL
MODEL       50
REMARK 921   NORMALIZED FREE ENERGY PREDICTED BY IDOCK:   -4.73 KCAL/MOL
REMARK 922        TOTAL FREE ENERGY PREDICTED BY IDOCK:   -6.11 KCAL/MOL
REMARK 923 INTER-LIGAND FREE ENERGY PREDICTED BY IDOCK:   -5.46 KCAL/MOL
REMARK 924 INTRA-LIGAND FREE ENERGY PREDICTED BY IDOCK:   -0.65 KCAL/MOL
REMARK 927      BINDING AFFINITY PREDICTED BY RF-SCORE:    0.00 PKD
ROOT
HETATM    1  O   UNL     1      -8.772  12.285  65.780  1.00  0.00    -0.379 OA 
HETATM    2  C   UNL     1      -9.730  12.958  66.632  1.00  0.00    -0.254 C  
HETATM    3  H   UNL     1      -8.205  11.749  66.321  1.00  0.00     0.000 HD 
HETATM    4  C   UNL     1      -8.938  13.909  67.537  1.00  0.00    -0.197 A  
HETATM    5  C   UNL     1     -10.549  11.866  67.369  1.00  0.00    -0.225 C  
HETATM    6  C   UNL     1     -10.658  13.835  65.745  1.00  0.00    -0.293 C  
HETATM    7  C   UNL     1      -7.673  14.390  67.142  1.00  0.00    -0.065 A  
HETATM    8  F   UNL     1      -6.812  16.567  69.914  1.00  0.00    -0.212 F  
HETATM    9  C   UNL     1      -9.453  14.385  68.754  1.00  0.00    -0.161 A  
HETATM   10  C   UNL     1      -8.737  15.254  69.572  1.00  0.00    -0.178 A  
HETATM   11  C   UNL     1      -6.959  15.287  67.942  1.00  0.00    -0.162 A  
HETATM   12  C   UNL     1      -7.495  15.702  69.153  1.00  0.00    -0.201 A  
HETATM   13  F   UNL     1     -10.692  14.046  69.135  1.00  0.00    -0.236 F  
ENDROOT
BRANCH   6  14
HETATM   14  N   UNL     1     -11.425  13.078  64.775  1.00  0.00    -0.316 NA 
HETATM   15  N   UNL     1     -13.057  12.128  63.691  1.00  0.00    -0.755 NA 
HETATM   16  N   UNL     1     -10.805  12.464  63.747  1.00  0.00    -0.419 NA 
HETATM   17  C   UNL     1     -12.763  12.860  64.741  1.00  0.00    -0.370 A  
HETATM   18  C   UNL     1     -11.845  11.921  63.103  1.00  0.00    -0.168 A  
ENDBRANCH   6  14
BRANCH   5  19
HETATM   19  N   UNL     1      -9.766  11.075  68.297  1.00  0.00    -0.170 NA 
HETATM   20  C   UNL     1      -8.128  10.155  69.177  1.00  0.00    -0.134 A  
HETATM   21  C   UNL     1     -10.178  10.486  69.450  1.00  0.00    -0.221 A  
HETATM   22  N   UNL     1      -9.160   9.887  70.027  1.00  0.00    -0.218 NA 
HETATM   23  N   UNL     1      -8.442  10.903  68.116  1.00  0.00    -0.126 NA 
ENDBRANCH   5  19
TORSDOF 2
ENDMDL
MODEL       51
REMARK 921   NORMALIZED FREE ENERGY PREDICTED BY IDOCK:   -4.71 KCAL/MOL
REMARK 922        TOTAL FREE ENERGY PREDICTED BY IDOCK:   -6.09 KCAL/MOL
REMARK 923 INTER-LIGAND FREE ENERGY PREDICTED BY IDOCK:   -5.14 KCAL/MOL
REMARK 924 INTRA-LIGAND FREE ENERGY PREDICTED BY IDOCK:   -0.95 KCAL/MOL
REMARK 927      BINDING AFFINITY PREDICTED BY RF-SCORE:    0.00 PKD
ROOT
HETATM    1  O   UNL     1      -8.510  17.880  68.985  1.00  0.00    -0.161 OA 
HETATM    2  C   UNL     1      -8.510  17.298  67.659  1.00  0.00    -0.209 C  
HETATM    3  H   UNL     1      -8.288  17.205  69.615  1.00  0.00     0.000 HD 
HETATM    4  C   UNL     1      -9.636  16.257  67.624  1.00  0.00    -0.227 A  
HETATM    5  C   UNL     1      -7.085  16.746  67.391  1.00  0.00    -0.156 C  
HETATM    6  C   UNL     1      -8.874  18.402  66.628  1.00  0.00    -0.289 C  
HETATM    7  C   UNL     1     -10.731  16.353  68.506  1.00  0.00    -0.320 A  
HETATM    8  F   UNL     1     -12.751  13.516  67.487  1.00  0.00    -0.150 F  
HETATM    9  C   UNL     1      -9.657  15.210  66.688  1.00  0.00    -0.253 A  
HETATM   10  C   UNL     1     -10.682  14.269  66.652  1.00  0.00    -0.290 A  
HETATM   11  C   UNL     1     -11.781  15.432  68.457  1.00  0.00    -0.355 A  
HETATM   12  C   UNL     1     -11.741  14.394  67.536  1.00  0.00    -0.387 A  
HETATM   13  F   UNL     1      -8.696  15.123  65.758  1.00  0.00    -0.187 F  
ENDROOT
BRANCH   6  14
HETATM   14  N   UNL     1      -7.934  19.506  66.597  1.00  0.00    -0.278 NA 
HETATM   15  N   UNL     1      -6.449  20.960  65.951  1.00  0.00    -0.220 NA 
HETATM   16  N   UNL     1      -7.738  20.264  67.694  1.00  0.00    -0.302 NA 
HETATM   17  C   UNL     1      -7.152  19.919  65.569  1.00  0.00    -0.302 A  
HETATM   18  C   UNL     1      -6.844  21.150  67.242  1.00  0.00    -0.340 A  
ENDBRANCH   6  14
BRANCH   5  19
HETATM   19  N   UNL     1      -6.715  15.638  68.248  1.00  0.00    -0.114 NA 
HETATM   20  C   UNL     1      -6.410  14.521  69.970  1.00  0.00    -0.165 A  
HETATM   21  C   UNL     1      -6.311  14.394  67.882  1.00  0.00    -0.162 A  
HETATM   22  N   UNL     1      -6.102  13.664  68.955  1.00  0.00    -0.083 NA 
HETATM   23  N   UNL     1      -6.818  15.734  69.588  1.00  0.00    -0.189 NA 
ENDBRANCH   5  19
TORSDOF 2
ENDMDL
MODEL       52
REMARK 921   NORMALIZED FREE ENERGY PREDICTED BY IDOCK:   -4.70 KCAL/MOL
REMARK 922        TOTAL FREE ENERGY PREDICTED BY IDOCK:   -6.08 KCAL/MOL
REMARK 923 INTER-LIGAND FREE ENERGY PREDICTED BY IDOCK:   -5.79 KCAL/MOL
REMARK 924 INTRA-LIGAND FREE ENERGY PREDICTED BY IDOCK:   -0.28 KCAL/MOL
REMARK 927      BINDING AFFINITY PREDICTED BY RF-SCORE:    0.00 PKD
ROOT
HETATM    1  O   UNL     1      -9.586  11.064  69.555  1.00  0.00    -0.420 OA 
HETATM    2  C   UNL     1     -10.000  10.099  68.557  1.00  0.00    -0.163 C  
HETATM    3  H   UNL     1      -9.675  11.937  69.191  1.00  0.00     0.000 HD 
HETATM    4  C   UNL     1      -9.011  10.207  67.389  1.00  0.00    -0.142 A  
HETATM    5  C   UNL     1     -11.481  10.398  68.204  1.00  0.00    -0.118 C  
HETATM    6  C   UNL     1      -9.854   8.671  69.151  1.00  0.00    -0.185 C  
HETATM    7  C   UNL     1      -7.709  10.707  67.594  1.00  0.00    -0.097 A  
HETATM    8  F   UNL     1      -6.275  10.414  64.274  1.00  0.00    -0.128 F  
HETATM    9  C   UNL     1      -9.332   9.764  66.095  1.00  0.00    -0.191 A  
HETATM   10  C   UNL     1      -8.432   9.855  65.037  1.00  0.00    -0.161 A  
HETATM   11  C   UNL     1      -6.788  10.773  66.545  1.00  0.00    -0.130 A  
HETATM   12  C   UNL     1      -7.162  10.355  65.275  1.00  0.00    -0.106 A  
HETATM   13  F   UNL     1     -10.517   9.186  65.860  1.00  0.00    -0.293 F  
ENDROOT
BRANCH   6  14
HETATM   14  N   UNL     1     -10.679   8.438  70.321  1.00  0.00    -0.231 NA 
HETATM   15  N   UNL     1     -12.145   7.622  71.708  1.00  0.00    -0.294 NA 
HETATM   16  N   UNL     1     -10.551   9.221  71.411  1.00  0.00    -0.339 NA 
HETATM   17  C   UNL     1     -11.640   7.498  70.502  1.00  0.00    -0.200 A  
HETATM   18  C   UNL     1     -11.447   8.667  72.236  1.00  0.00    -0.353 A  
ENDBRANCH   6  14
BRANCH   5  19
HETATM   19  N   UNL     1     -11.680  11.674  67.546  1.00  0.00    -0.590 NA 
HETATM   20  C   UNL     1     -12.026  13.059  66.040  1.00  0.00    -0.440 A  
HETATM   21  C   UNL     1     -11.782  12.903  68.115  1.00  0.00    -0.352 A  
HETATM   22  N   UNL     1     -11.994  13.804  67.182  1.00  0.00    -0.403 NA 
HETATM   23  N   UNL     1     -11.867  11.744  66.213  1.00  0.00    -0.456 NA 
ENDBRANCH   5  19
TORSDOF 2
ENDMDL
MODEL       53
REMARK 921   NORMALIZED FREE ENERGY PREDICTED BY IDOCK:   -4.68 KCAL/MOL
REMARK 922        TOTAL FREE ENERGY PREDICTED BY IDOCK:   -6.05 KCAL/MOL
REMARK 923 INTER-LIGAND FREE ENERGY PREDICTED BY IDOCK:   -5.88 KCAL/MOL
REMARK 924 INTRA-LIGAND FREE ENERGY PREDICTED BY IDOCK:   -0.18 KCAL/MOL
REMARK 927      BINDING AFFINITY PREDICTED BY RF-SCORE:    0.00 PKD
ROOT
HETATM    1  O   UNL     1     -10.175  12.656  68.352  1.00  0.00    -0.230 OA 
HETATM    2  C   UNL     1     -10.373  11.242  68.109  1.00  0.00    -0.186 C  
HETATM    3  H   UNL     1      -9.570  12.760  69.076  1.00  0.00     0.000 HD 
HETATM    4  C   UNL     1     -11.055  10.662  69.355  1.00  0.00    -0.315 A  
HETATM    5  C   UNL     1      -8.990  10.629  67.762  1.00  0.00    -0.140 C  
HETATM    6  C   UNL     1     -11.363  11.071  66.924  1.00  0.00    -0.032 C  
HETATM    7  C   UNL     1     -11.813  11.489  70.209  1.00  0.00    -0.431 A  
HETATM    8  F   UNL     1     -12.999   9.108  72.678  1.00  0.00    -0.461 F  
HETATM    9  C   UNL     1     -11.005   9.294  69.665  1.00  0.00    -0.175 A  
HETATM   10  C   UNL     1     -11.630   8.767  70.792  1.00  0.00    -0.288 A  
HETATM   11  C   UNL     1     -12.469  10.964  71.326  1.00  0.00    -0.493 A  
HETATM   12  C   UNL     1     -12.363   9.610  71.611  1.00  0.00    -0.404 A  
HETATM   13  F   UNL     1     -10.386   8.441  68.838  1.00  0.00    -0.204 F  
ENDROOT
BRANCH   6  14
HETATM   14  N   UNL     1     -10.888  11.643  65.679  1.00  0.00    -0.282 NA 
HETATM   15  N   UNL     1     -10.077  11.888  63.673  1.00  0.00    -0.399 NA 
HETATM   16  N   UNL     1     -10.898  12.979  65.496  1.00  0.00    -0.275 NA 
HETATM   17  C   UNL     1     -10.384  11.004  64.594  1.00  0.00    -0.345 A  
HETATM   18  C   UNL     1     -10.419  13.075  64.251  1.00  0.00    -0.402 A  
ENDBRANCH   6  14
BRANCH   5  19
HETATM   19  N   UNL     1      -8.045  10.656  68.860  1.00  0.00    -0.131 NA 
HETATM   20  C   UNL     1      -6.530  11.317  70.113  1.00  0.00    -0.069 A  
HETATM   21  C   UNL     1      -7.937   9.781  69.893  1.00  0.00    -0.175 A  
HETATM   22  N   UNL     1      -6.976  10.171  70.702  1.00  0.00    -0.329 NA 
HETATM   23  N   UNL     1      -7.171  11.672  68.996  1.00  0.00    -0.111 NA 
ENDBRANCH   5  19
TORSDOF 2
ENDMDL
MODEL       54
REMARK 921   NORMALIZED FREE ENERGY PREDICTED BY IDOCK:   -4.66 KCAL/MOL
REMARK 922        TOTAL FREE ENERGY PREDICTED BY IDOCK:   -6.03 KCAL/MOL
REMARK 923 INTER-LIGAND FREE ENERGY PREDICTED BY IDOCK:   -5.08 KCAL/MOL
REMARK 924 INTRA-LIGAND FREE ENERGY PREDICTED BY IDOCK:   -0.95 KCAL/MOL
REMARK 927      BINDING AFFINITY PREDICTED BY RF-SCORE:    0.00 PKD
ROOT
HETATM    1  O   UNL     1     -11.576   6.614  67.288  1.00  0.00    -0.747 OA 
HETATM    2  C   UNL     1     -10.294   6.442  67.940  1.00  0.00    -0.190 C  
HETATM    3  H   UNL     1     -11.842   7.522  67.372  1.00  0.00     0.000 HD 
HETATM    4  C   UNL     1     -10.507   6.715  69.434  1.00  0.00    -0.254 A  
HETATM    5  C   UNL     1      -9.279   7.378  67.231  1.00  0.00    -0.131 C  
HETATM    6  C   UNL     1      -9.858   4.957  67.802  1.00  0.00    -0.147 C  
HETATM    7  C   UNL     1     -11.781   6.559  70.017  1.00  0.00    -0.388 A  
HETATM    8  F   UNL     1     -11.100   7.344  73.494  1.00  0.00    -0.399 F  
HETATM    9  C   UNL     1      -9.450   7.070  70.287  1.00  0.00    -0.165 A  
HETATM   10  C   UNL     1      -9.643   7.310  71.645  1.00  0.00    -0.162 A  
HETATM   11  C   UNL     1     -11.979   6.768  71.385  1.00  0.00    -0.403 A  
HETATM   12  C   UNL     1     -10.909   7.151  72.183  1.00  0.00    -0.224 A  
HETATM   13  F   UNL     1      -8.199   7.134  69.813  1.00  0.00    -0.120 F  
ENDROOT
BRANCH   6  14
HETATM   14  N   UNL     1      -9.687   4.522  66.430  1.00  0.00    -0.188 NA 
HETATM   15  N   UNL     1      -8.829   3.805  64.562  1.00  0.00    -0.116 NA 
HETATM   16  N   UNL     1     -10.741   4.493  65.589  1.00  0.00    -0.236 NA 
HETATM   17  C   UNL     1      -8.551   4.125  65.805  1.00  0.00    -0.114 A  
HETATM   18  C   UNL     1     -10.171   4.026  64.472  1.00  0.00    -0.210 A  
ENDBRANCH   6  14
BRANCH   5  19
HETATM   19  N   UNL     1      -9.563   8.789  67.407  1.00  0.00    -0.155 NA 
HETATM   20  C   UNL     1     -10.604  10.584  67.409  1.00  0.00    -0.263 A  
HETATM   21  C   UNL     1      -8.768   9.741  67.961  1.00  0.00    -0.118 A  
HETATM   22  N   UNL     1      -9.399  10.893  67.968  1.00  0.00    -0.155 NA 
HETATM   23  N   UNL     1     -10.764   9.301  67.072  1.00  0.00    -0.196 NA 
ENDBRANCH   5  19
TORSDOF 2
ENDMDL
MODEL       55
REMARK 921   NORMALIZED FREE ENERGY PREDICTED BY IDOCK:   -4.65 KCAL/MOL
REMARK 922        TOTAL FREE ENERGY PREDICTED BY IDOCK:   -6.02 KCAL/MOL
REMARK 923 INTER-LIGAND FREE ENERGY PREDICTED BY IDOCK:   -5.87 KCAL/MOL
REMARK 924 INTRA-LIGAND FREE ENERGY PREDICTED BY IDOCK:   -0.14 KCAL/MOL
REMARK 927      BINDING AFFINITY PREDICTED BY RF-SCORE:    0.00 PKD
ROOT
HETATM    1  O   UNL     1      -9.319   9.904  70.559  1.00  0.00    -0.352 OA 
HETATM    2  C   UNL     1     -10.539   9.156  70.336  1.00  0.00    -0.230 C  
HETATM    3  H   UNL     1      -8.577   9.328  70.415  1.00  0.00     0.000 HD 
HETATM    4  C   UNL     1     -10.600   8.063  71.409  1.00  0.00    -0.258 A  
HETATM    5  C   UNL     1     -10.515   8.649  68.869  1.00  0.00    -0.192 C  
HETATM    6  C   UNL     1     -11.752  10.099  70.571  1.00  0.00    -0.322 C  
HETATM    7  C   UNL     1      -9.913   8.216  72.631  1.00  0.00    -0.371 A  
HETATM    8  F   UNL     1     -10.829   5.171  74.379  1.00  0.00    -0.309 F  
HETATM    9  C   UNL     1     -11.379   6.905  71.253  1.00  0.00    -0.279 A  
HETATM   10  C   UNL     1     -11.440   5.916  72.230  1.00  0.00    -0.351 A  
HETATM   11  C   UNL     1      -9.993   7.243  73.630  1.00  0.00    -0.377 A  
HETATM   12  C   UNL     1     -10.748   6.098  73.416  1.00  0.00    -0.259 A  
HETATM   13  F   UNL     1     -12.135   6.749  70.158  1.00  0.00    -0.395 F  
ENDROOT
BRANCH   6  14
HETATM   14  N   UNL     1     -11.792  11.236  69.672  1.00  0.00    -0.328 NA 
HETATM   15  N   UNL     1     -11.821  12.482  67.887  1.00  0.00    -0.360 NA 
HETATM   16  N   UNL     1     -11.859  12.490  70.164  1.00  0.00    -0.303 NA 
HETATM   17  C   UNL     1     -11.755  11.243  68.317  1.00  0.00    -0.274 A  
HETATM   18  C   UNL     1     -11.899  13.210  69.038  1.00  0.00    -0.313 A  
ENDBRANCH   6  14
BRANCH   5  19
HETATM   19  N   UNL     1      -9.471   7.681  68.602  1.00  0.00    -0.151 NA 
HETATM   20  C   UNL     1      -7.584   6.822  68.510  1.00  0.00    -0.104 A  
HETATM   21  C   UNL     1      -9.605   6.410  68.142  1.00  0.00    -0.115 A  
HETATM   22  N   UNL     1      -8.422   5.842  68.065  1.00  0.00    -0.106 NA 
HETATM   23  N   UNL     1      -8.181   7.959  68.877  1.00  0.00    -0.125 NA 
ENDBRANCH   5  19
TORSDOF 2
ENDMDL
MODEL       56
REMARK 921   NORMALIZED FREE ENERGY PREDICTED BY IDOCK:   -4.65 KCAL/MOL
REMARK 922        TOTAL FREE ENERGY PREDICTED BY IDOCK:   -6.01 KCAL/MOL
REMARK 923 INTER-LIGAND FREE ENERGY PREDICTED BY IDOCK:   -5.07 KCAL/MOL
REMARK 924 INTRA-LIGAND FREE ENERGY PREDICTED BY IDOCK:   -0.94 KCAL/MOL
REMARK 927      BINDING AFFINITY PREDICTED BY RF-SCORE:    0.00 PKD
ROOT
HETATM    1  O   UNL     1     -11.573   8.177  69.747  1.00  0.00    -0.432 OA 
HETATM    2  C   UNL     1     -10.180   8.549  69.613  1.00  0.00    -0.209 C  
HETATM    3  H   UNL     1     -11.841   7.710  68.964  1.00  0.00     0.000 HD 
HETATM    4  C   UNL     1     -10.087   9.536  68.443  1.00  0.00    -0.199 A  
HETATM    5  C   UNL     1      -9.360   7.242  69.447  1.00  0.00    -0.151 C  
HETATM    6  C   UNL     1      -9.741   9.313  70.893  1.00  0.00    -0.276 C  
HETATM    7  C   UNL     1     -11.208  10.299  68.057  1.00  0.00    -0.303 A  
HETATM    8  F   UNL     1      -9.845  12.293  65.348  1.00  0.00    -0.248 F  
HETATM    9  C   UNL     1      -8.887   9.765  67.751  1.00  0.00    -0.129 A  
HETATM   10  C   UNL     1      -8.801  10.666  66.694  1.00  0.00    -0.149 A  
HETATM   11  C   UNL     1     -11.124  11.229  67.017  1.00  0.00    -0.356 A  
HETATM   12  C   UNL     1      -9.924  11.396  66.340  1.00  0.00    -0.214 A  
HETATM   13  F   UNL     1      -7.763   9.146  68.137  1.00  0.00    -0.088 F  
ENDROOT
BRANCH   6  14
HETATM   14  N   UNL     1      -9.846   8.527  72.107  1.00  0.00    -0.298 NA 
HETATM   15  N   UNL     1      -9.380   7.470  73.953  1.00  0.00    -0.267 NA 
HETATM   16  N   UNL     1     -11.036   8.021  72.490  1.00  0.00    -0.348 NA 
HETATM   17  C   UNL     1      -8.864   8.181  72.977  1.00  0.00    -0.248 A  
HETATM   18  C   UNL     1     -10.703   7.408  73.631  1.00  0.00    -0.190 A  
ENDBRANCH   6  14
BRANCH   5  19
HETATM   19  N   UNL     1      -9.640   6.528  68.217  1.00  0.00    -0.131 NA 
HETATM   20  C   UNL     1     -10.710   5.597  66.702  1.00  0.00    -0.268 A  
HETATM   21  C   UNL     1      -8.767   6.161  67.244  1.00  0.00    -0.108 A  
HETATM   22  N   UNL     1      -9.416   5.560  66.272  1.00  0.00    -0.155 NA 
HETATM   23  N   UNL     1     -10.904   6.204  67.876  1.00  0.00    -0.306 NA 
ENDBRANCH   5  19
TORSDOF 2
ENDMDL
MODEL       57
REMARK 921   NORMALIZED FREE ENERGY PREDICTED BY IDOCK:   -4.64 KCAL/MOL
REMARK 922        TOTAL FREE ENERGY PREDICTED BY IDOCK:   -6.01 KCAL/MOL
REMARK 923 INTER-LIGAND FREE ENERGY PREDICTED BY IDOCK:   -5.76 KCAL/MOL
REMARK 924 INTRA-LIGAND FREE ENERGY PREDICTED BY IDOCK:   -0.24 KCAL/MOL
REMARK 927      BINDING AFFINITY PREDICTED BY RF-SCORE:    0.00 PKD
ROOT
HETATM    1  O   UNL     1      -9.718  13.971  66.931  1.00  0.00    -0.253 OA 
HETATM    2  C   UNL     1     -10.124  14.920  67.947  1.00  0.00    -0.227 C  
HETATM    3  H   UNL     1      -8.864  14.223  66.600  1.00  0.00     0.000 HD 
HETATM    4  C   UNL     1     -10.290  16.278  67.254  1.00  0.00    -0.285 A  
HETATM    5  C   UNL     1      -9.063  14.875  69.079  1.00  0.00    -0.175 C  
HETATM    6  C   UNL     1     -11.521  14.507  68.487  1.00  0.00    -0.301 C  
HETATM    7  C   UNL     1     -10.557  16.352  65.872  1.00  0.00    -0.294 A  
HETATM    8  F   UNL     1     -10.848  19.933  65.366  1.00  0.00    -0.600 F  
HETATM    9  C   UNL     1     -10.243  17.489  67.963  1.00  0.00    -0.354 A  
HETATM   10  C   UNL     1     -10.400  18.722  67.336  1.00  0.00    -0.472 A  
HETATM   11  C   UNL     1     -10.748  17.583  65.238  1.00  0.00     0.080 A  
HETATM   12  C   UNL     1     -10.658  18.755  65.975  1.00  0.00    -0.386 A  
HETATM   13  F   UNL     1     -10.093  17.481  69.295  1.00  0.00    -0.304 F  
ENDROOT
BRANCH   6  14
HETATM   14  N   UNL     1     -11.543  13.197  69.109  1.00  0.00    -0.297 NA 
HETATM   15  N   UNL     1     -11.247  11.080  69.522  1.00  0.00    -0.258 NA 
HETATM   16  N   UNL     1     -12.167  13.016  70.291  1.00  0.00    -0.329 NA 
HETATM   17  C   UNL     1     -11.012  12.036  68.653  1.00  0.00    -0.240 A  
HETATM   18  C   UNL     1     -11.936  11.717  70.511  1.00  0.00    -0.289 A  
ENDBRANCH   6  14
BRANCH   5  19
HETATM   19  N   UNL     1      -7.756  15.350  68.674  1.00  0.00    -0.134 NA 
HETATM   20  C   UNL     1      -5.987  15.519  67.602  1.00  0.00    -0.122 A  
HETATM   21  C   UNL     1      -7.056  16.404  69.171  1.00  0.00    -0.224 A  
HETATM   22  N   UNL     1      -5.925  16.530  68.515  1.00  0.00    -0.125 NA 
HETATM   23  N   UNL     1      -7.102  14.784  67.641  1.00  0.00    -0.173 NA 
ENDBRANCH   5  19
TORSDOF 2
ENDMDL
MODEL       58
REMARK 921   NORMALIZED FREE ENERGY PREDICTED BY IDOCK:   -4.62 KCAL/MOL
REMARK 922        TOTAL FREE ENERGY PREDICTED BY IDOCK:   -5.99 KCAL/MOL
REMARK 923 INTER-LIGAND FREE ENERGY PREDICTED BY IDOCK:   -5.15 KCAL/MOL
REMARK 924 INTRA-LIGAND FREE ENERGY PREDICTED BY IDOCK:   -0.84 KCAL/MOL
REMARK 927      BINDING AFFINITY PREDICTED BY RF-SCORE:    0.00 PKD
ROOT
HETATM    1  O   UNL     1      -9.627   9.997  66.788  1.00  0.00    -0.169 OA 
HETATM    2  C   UNL     1      -9.772  11.155  67.646  1.00  0.00    -0.170 C  
HETATM    3  H   UNL     1      -8.849  10.107  66.255  1.00  0.00     0.000 HD 
HETATM    4  C   UNL     1     -10.017  12.363  66.733  1.00  0.00    -0.234 A  
HETATM    5  C   UNL     1      -8.505  11.240  68.537  1.00  0.00    -0.156 C  
HETATM    6  C   UNL     1     -11.046  10.974  68.518  1.00  0.00    -0.243 C  
HETATM    7  C   UNL     1     -10.559  12.191  65.444  1.00  0.00    -0.309 A  
HETATM    8  F   UNL     1     -10.788  15.620  64.276  1.00  0.00    -0.318 F  
HETATM    9  C   UNL     1      -9.771  13.680  67.155  1.00  0.00    -0.245 A  
HETATM   10  C   UNL     1      -9.999  14.777  66.329  1.00  0.00    -0.308 A  
HETATM   11  C   UNL     1     -10.821  13.289  64.619  1.00  0.00    -0.396 A  
HETATM   12  C   UNL     1     -10.529  14.570  65.067  1.00  0.00    -0.429 A  
HETATM   13  F   UNL     1      -9.351  13.916  68.405  1.00  0.00    -0.192 F  
ENDROOT
BRANCH   6  14
HETATM   14  N   UNL     1     -10.998   9.816  69.390  1.00  0.00    -0.230 NA 
HETATM   15  N   UNL     1     -11.076   8.516  71.134  1.00  0.00    -0.249 NA 
HETATM   16  N   UNL     1     -10.699   8.600  68.890  1.00  0.00    -0.142 NA 
HETATM   17  C   UNL     1     -11.207   9.758  70.728  1.00  0.00    -0.348 A  
HETATM   18  C   UNL     1     -10.784   7.839  69.987  1.00  0.00    -0.244 A  
ENDBRANCH   6  14
BRANCH   5  19
HETATM   19  N   UNL     1      -7.288  11.515  67.800  1.00  0.00    -0.091 NA 
HETATM   20  C   UNL     1      -5.789  11.341  66.376  1.00  0.00    -0.136 A  
HETATM   21  C   UNL     1      -6.430  12.556  67.957  1.00  0.00    -0.087 A  
HETATM   22  N   UNL     1      -5.463  12.468  67.072  1.00  0.00    -0.343 NA 
HETATM   23  N   UNL     1      -6.914  10.735  66.765  1.00  0.00    -0.111 NA 
ENDBRANCH   5  19
TORSDOF 2
ENDMDL
MODEL       59
REMARK 921   NORMALIZED FREE ENERGY PREDICTED BY IDOCK:   -4.62 KCAL/MOL
REMARK 922        TOTAL FREE ENERGY PREDICTED BY IDOCK:   -5.98 KCAL/MOL
REMARK 923 INTER-LIGAND FREE ENERGY PREDICTED BY IDOCK:   -5.04 KCAL/MOL
REMARK 924 INTRA-LIGAND FREE ENERGY PREDICTED BY IDOCK:   -0.94 KCAL/MOL
REMARK 927      BINDING AFFINITY PREDICTED BY RF-SCORE:    0.00 PKD
ROOT
HETATM    1  O   UNL     1      -9.067   8.932  69.044  1.00  0.00    -0.136 OA 
HETATM    2  C   UNL     1     -10.234   8.175  69.445  1.00  0.00    -0.211 C  
HETATM    3  H   UNL     1      -8.597   9.205  69.823  1.00  0.00     0.000 HD 
HETATM    4  C   UNL     1     -11.151   9.134  70.215  1.00  0.00    -0.272 A  
HETATM    5  C   UNL     1      -9.739   6.941  70.247  1.00  0.00    -0.172 C  
HETATM    6  C   UNL     1     -11.003   7.729  68.171  1.00  0.00     0.166 C  
HETATM    7  C   UNL     1     -11.078  10.525  69.999  1.00  0.00    -0.376 A  
HETATM    8  F   UNL     1     -13.688  11.751  72.202  1.00  0.00    -0.462 F  
HETATM    9  C   UNL     1     -12.130   8.675  71.110  1.00  0.00    -0.260 A  
HETATM   10  C   UNL     1     -12.967   9.545  71.803  1.00  0.00    -0.502 A  
HETATM   11  C   UNL     1     -11.934  11.405  70.667  1.00  0.00    -0.413 A  
HETATM   12  C   UNL     1     -12.864  10.906  71.569  1.00  0.00    -0.454 A  
HETATM   13  F   UNL     1     -12.318   7.359  71.281  1.00  0.00    -0.323 F  
ENDROOT
BRANCH   6  14
HETATM   14  N   UNL     1     -10.232   6.869  67.294  1.00  0.00    -0.194 NA 
HETATM   15  N   UNL     1      -9.525   5.161  66.143  1.00  0.00    -0.153 NA 
HETATM   16  N   UNL     1      -9.126   7.337  66.682  1.00  0.00    -0.148 NA 
HETATM   17  C   UNL     1     -10.453   5.568  66.978  1.00  0.00    -0.274 A  
HETATM   18  C   UNL     1      -8.747   6.267  65.974  1.00  0.00    -0.151 A  
ENDBRANCH   6  14
BRANCH   5  19
HETATM   19  N   UNL     1      -9.104   7.278  71.505  1.00  0.00    -0.140 NA 
HETATM   20  C   UNL     1      -7.796   8.154  72.857  1.00  0.00    -0.149 A  
HETATM   21  C   UNL     1      -9.483   6.916  72.758  1.00  0.00    -0.142 A  
HETATM   22  N   UNL     1      -8.666   7.451  73.638  1.00  0.00    -0.165 NA 
HETATM   23  N   UNL     1      -8.038   8.103  71.544  1.00  0.00    -0.109 NA 
ENDBRANCH   5  19
TORSDOF 2
ENDMDL
MODEL       60
REMARK 921   NORMALIZED FREE ENERGY PREDICTED BY IDOCK:   -4.60 KCAL/MOL
REMARK 922        TOTAL FREE ENERGY PREDICTED BY IDOCK:   -5.96 KCAL/MOL
REMARK 923 INTER-LIGAND FREE ENERGY PREDICTED BY IDOCK:   -5.17 KCAL/MOL
REMARK 924 INTRA-LIGAND FREE ENERGY PREDICTED BY IDOCK:   -0.80 KCAL/MOL
REMARK 927      BINDING AFFINITY PREDICTED BY RF-SCORE:    0.00 PKD
ROOT
HETATM    1  O   UNL     1     -10.087  15.899  70.131  1.00  0.00    -0.220 OA 
HETATM    2  C   UNL     1     -10.904  15.014  69.326  1.00  0.00    -0.261 C  
HETATM    3  H   UNL     1      -9.617  16.489  69.555  1.00  0.00     0.000 HD 
HETATM    4  C   UNL     1      -9.947  14.159  68.486  1.00  0.00    -0.235 A  
HETATM    5  C   UNL     1     -11.892  15.896  68.518  1.00  0.00    -0.188 C  
HETATM    6  C   UNL     1     -11.674  14.049  70.269  1.00  0.00    -0.238 C  
HETATM    7  C   UNL     1      -8.622  13.935  68.911  1.00  0.00     0.098 A  
HETATM    8  F   UNL     1      -7.362  11.765  66.290  1.00  0.00    -0.041 F  
HETATM    9  C   UNL     1     -10.357  13.522  67.303  1.00  0.00    -0.241 A  
HETATM   10  C   UNL     1      -9.491  12.740  66.545  1.00  0.00    -0.253 A  
HETATM   11  C   UNL     1      -7.754  13.126  68.173  1.00  0.00    -0.143 A  
HETATM   12  C   UNL     1      -8.195  12.545  66.992  1.00  0.00    -0.125 A  
HETATM   13  F   UNL     1     -11.632  13.613  66.900  1.00  0.00    -0.318 F  
ENDROOT
BRANCH   6  14
HETATM   14  N   UNL     1     -12.573  14.721  71.187  1.00  0.00    -0.313 NA 
HETATM   15  N   UNL     1     -14.354  15.398  72.239  1.00  0.00    -0.551 NA 
HETATM   16  N   UNL     1     -12.088  15.577  72.109  1.00  0.00    -0.377 NA 
HETATM   17  C   UNL     1     -13.924  14.632  71.263  1.00  0.00    -0.330 A  
HETATM   18  C   UNL     1     -13.210  15.942  72.740  1.00  0.00    -0.503 A  
ENDBRANCH   6  14
BRANCH   5  19
HETATM   19  N   UNL     1     -11.250  16.749  67.538  1.00  0.00    -0.024 NA 
HETATM   20  C   UNL     1     -10.084  18.269  66.742  1.00  0.00    -0.364 A  
HETATM   21  C   UNL     1     -11.247  16.618  66.186  1.00  0.00     0.452 A  
HETATM   22  N   UNL     1     -10.521  17.575  65.652  1.00  0.00    -0.607 NA 
HETATM   23  N   UNL     1     -10.480  17.787  67.923  1.00  0.00    -0.386 NA 
ENDBRANCH   5  19
TORSDOF 2
ENDMDL
MODEL       61
REMARK 921   NORMALIZED FREE ENERGY PREDICTED BY IDOCK:   -4.59 KCAL/MOL
REMARK 922        TOTAL FREE ENERGY PREDICTED BY IDOCK:   -5.95 KCAL/MOL
REMARK 923 INTER-LIGAND FREE ENERGY PREDICTED BY IDOCK:   -6.08 KCAL/MOL
REMARK 924 INTRA-LIGAND FREE ENERGY PREDICTED BY IDOCK:    0.13 KCAL/MOL
REMARK 927      BINDING AFFINITY PREDICTED BY RF-SCORE:    0.00 PKD
ROOT
HETATM    1  O   UNL     1     -12.697   7.806  70.655  1.00  0.00    -0.513 OA 
HETATM    2  C   UNL     1     -11.309   8.219  70.688  1.00  0.00    -0.244 C  
HETATM    3  H   UNL     1     -12.776   6.965  71.090  1.00  0.00     0.000 HD 
HETATM    4  C   UNL     1     -10.517   7.203  69.855  1.00  0.00    -0.237 A  
HETATM    5  C   UNL     1     -10.889   8.331  72.177  1.00  0.00    -0.320 C  
HETATM    6  C   UNL     1     -11.181   9.595  69.976  1.00  0.00    -0.231 C  
HETATM    7  C   UNL     1     -11.153   6.449  68.848  1.00  0.00    -0.420 A  
HETATM    8  F   UNL     1      -8.383   4.521  67.513  1.00  0.00    -0.099 F  
HETATM    9  C   UNL     1      -9.134   7.023  70.015  1.00  0.00    -0.145 A  
HETATM   10  C   UNL     1      -8.414   6.107  69.254  1.00  0.00    -0.119 A  
HETATM   11  C   UNL     1     -10.432   5.548  68.058  1.00  0.00    -0.240 A  
HETATM   12  C   UNL     1      -9.072   5.380  68.276  1.00  0.00    -0.109 A  
HETATM   13  F   UNL     1      -8.455   7.783  70.885  1.00  0.00    -0.118 F  
ENDROOT
BRANCH   6  14
HETATM   14  N   UNL     1     -11.944  10.653  70.609  1.00  0.00    -0.337 NA 
HETATM   15  N   UNL     1     -12.800  12.591  71.111  1.00  0.00    -0.281 NA 
HETATM   16  N   UNL     1     -12.743  10.381  71.660  1.00  0.00    -0.434 NA 
HETATM   17  C   UNL     1     -11.974  11.973  70.299  1.00  0.00    -0.314 A  
HETATM   18  C   UNL     1     -13.261  11.589  71.913  1.00  0.00    -0.374 A  
ENDBRANCH   6  14
BRANCH   5  19
HETATM   19  N   UNL     1     -10.882   7.064  72.880  1.00  0.00    -0.278 NA 
HETATM   20  C   UNL     1     -11.291   5.079  73.328  1.00  0.00    -0.317 A  
HETATM   21  C   UNL     1     -10.162   6.719  73.979  1.00  0.00    -0.369 A  
HETATM   22  N   UNL     1     -10.407   5.466  74.292  1.00  0.00    -0.271 NA 
HETATM   23  N   UNL     1     -11.593   6.014  72.423  1.00  0.00    -0.311 NA 
ENDBRANCH   5  19
TORSDOF 2
ENDMDL
MODEL       62
REMARK 921   NORMALIZED FREE ENERGY PREDICTED BY IDOCK:   -4.59 KCAL/MOL
REMARK 922        TOTAL FREE ENERGY PREDICTED BY IDOCK:   -5.95 KCAL/MOL
REMARK 923 INTER-LIGAND FREE ENERGY PREDICTED BY IDOCK:   -5.01 KCAL/MOL
REMARK 924 INTRA-LIGAND FREE ENERGY PREDICTED BY IDOCK:   -0.94 KCAL/MOL
REMARK 927      BINDING AFFINITY PREDICTED BY RF-SCORE:    0.00 PKD
ROOT
HETATM    1  O   UNL     1     -11.210   8.884  68.067  1.00  0.00    -0.441 OA 
HETATM    2  C   UNL     1     -10.158   9.733  68.584  1.00  0.00    -0.169 C  
HETATM    3  H   UNL     1     -10.970   8.596  67.194  1.00  0.00     0.000 HD 
HETATM    4  C   UNL     1     -10.107  10.981  67.693  1.00  0.00    -0.208 A  
HETATM    5  C   UNL     1      -8.855   8.891  68.625  1.00  0.00    -0.137 C  
HETATM    6  C   UNL     1     -10.552  10.204  70.011  1.00  0.00    -0.287 C  
HETATM    7  C   UNL     1     -11.241  11.389  66.963  1.00  0.00    -0.350 A  
HETATM    8  F   UNL     1     -10.036  14.410  65.355  1.00  0.00    -0.321 F  
HETATM    9  C   UNL     1      -8.965  11.794  67.611  1.00  0.00    -0.169 A  
HETATM   10  C   UNL     1      -8.921  12.931  66.809  1.00  0.00    -0.182 A  
HETATM   11  C   UNL     1     -11.217  12.545  66.179  1.00  0.00    -0.362 A  
HETATM   12  C   UNL     1     -10.054  13.299  66.102  1.00  0.00    -0.293 A  
HETATM   13  F   UNL     1      -7.889  11.516  68.360  1.00  0.00    -0.106 F  
ENDROOT
BRANCH   6  14
HETATM   14  N   UNL     1     -10.714   9.120  70.961  1.00  0.00    -0.266 NA 
HETATM   15  N   UNL     1     -10.436   7.756  72.634  1.00  0.00    -0.274 NA 
HETATM   16  N   UNL     1     -11.736   8.250  70.832  1.00  0.00    -0.269 NA 
HETATM   17  C   UNL     1      -9.938   8.809  72.028  1.00  0.00    -0.321 A  
HETATM   18  C   UNL     1     -11.537   7.455  71.889  1.00  0.00    -0.272 A  
ENDBRANCH   6  14
BRANCH   5  19
HETATM   19  N   UNL     1      -8.366   8.505  67.316  1.00  0.00    -0.115 NA 
HETATM   20  C   UNL     1      -8.350   7.735  65.390  1.00  0.00    -0.136 A  
HETATM   21  C   UNL     1      -7.147   8.752  66.770  1.00  0.00    -0.081 A  
HETATM   22  N   UNL     1      -7.105   8.267  65.549  1.00  0.00    -0.066 NA 
HETATM   23  N   UNL     1      -9.170   7.878  66.434  1.00  0.00    -0.184 NA 
ENDBRANCH   5  19
TORSDOF 2
ENDMDL
MODEL       63
REMARK 921   NORMALIZED FREE ENERGY PREDICTED BY IDOCK:   -4.56 KCAL/MOL
REMARK 922        TOTAL FREE ENERGY PREDICTED BY IDOCK:   -5.92 KCAL/MOL
REMARK 923 INTER-LIGAND FREE ENERGY PREDICTED BY IDOCK:   -5.45 KCAL/MOL
REMARK 924 INTRA-LIGAND FREE ENERGY PREDICTED BY IDOCK:   -0.47 KCAL/MOL
REMARK 927      BINDING AFFINITY PREDICTED BY RF-SCORE:    0.00 PKD
ROOT
HETATM    1  O   UNL     1     -10.736  13.143  67.057  1.00  0.00    -0.259 OA 
HETATM    2  C   UNL     1      -9.798  13.778  67.958  1.00  0.00    -0.239 C  
HETATM    3  H   UNL     1     -11.251  13.816  66.627  1.00  0.00     0.000 HD 
HETATM    4  C   UNL     1     -10.622  14.479  69.045  1.00  0.00    -0.250 A  
HETATM    5  C   UNL     1      -8.888  14.705  67.110  1.00  0.00    -0.221 C  
HETATM    6  C   UNL     1      -8.956  12.676  68.661  1.00  0.00     0.050 C  
HETATM    7  C   UNL     1     -11.927  14.043  69.351  1.00  0.00    -0.390 A  
HETATM    8  F   UNL     1     -12.841  16.288  72.051  1.00  0.00    -0.485 F  
HETATM    9  C   UNL     1     -10.101  15.533  69.814  1.00  0.00    -0.285 A  
HETATM   10  C   UNL     1     -10.847  16.165  70.805  1.00  0.00    -0.040 A  
HETATM   11  C   UNL     1     -12.672  14.651  70.366  1.00  0.00    -0.370 A  
HETATM   12  C   UNL     1     -12.127  15.712  71.075  1.00  0.00    -0.400 A  
HETATM   13  F   UNL     1      -8.832  15.926  69.640  1.00  0.00    -0.250 F  
ENDROOT
BRANCH   6  14
HETATM   14  N   UNL     1      -8.172  11.868  67.747  1.00  0.00    -0.139 NA 
HETATM   15  N   UNL     1      -6.515  10.917  66.702  1.00  0.00    -0.109 NA 
HETATM   16  N   UNL     1      -8.782  11.104  66.819  1.00  0.00    -0.152 NA 
HETATM   17  C   UNL     1      -6.822  11.761  67.660  1.00  0.00    -0.099 A  
HETATM   18  C   UNL     1      -7.732  10.526  66.225  1.00  0.00    -0.135 A  
ENDBRANCH   6  14
BRANCH   5  19
HETATM   19  N   UNL     1      -9.589  15.822  66.509  1.00  0.00    -0.247 NA 
HETATM   20  C   UNL     1     -10.136  17.776  66.074  1.00  0.00    -0.247 A  
HETATM   21  C   UNL     1     -10.520  15.792  65.520  1.00  0.00    -0.403 A  
HETATM   22  N   UNL     1     -10.893  17.019  65.229  1.00  0.00    -0.536 NA 
HETATM   23  N   UNL     1      -9.301  17.091  66.861  1.00  0.00    -0.243 NA 
ENDBRANCH   5  19
TORSDOF 2
ENDMDL
MODEL       64
REMARK 921   NORMALIZED FREE ENERGY PREDICTED BY IDOCK:   -4.53 KCAL/MOL
REMARK 922        TOTAL FREE ENERGY PREDICTED BY IDOCK:   -5.88 KCAL/MOL
REMARK 923 INTER-LIGAND FREE ENERGY PREDICTED BY IDOCK:   -4.95 KCAL/MOL
REMARK 924 INTRA-LIGAND FREE ENERGY PREDICTED BY IDOCK:   -0.93 KCAL/MOL
REMARK 927      BINDING AFFINITY PREDICTED BY RF-SCORE:    0.00 PKD
ROOT
HETATM    1  O   UNL     1      -8.854   9.032  69.696  1.00  0.00    -0.135 OA 
HETATM    2  C   UNL     1      -9.818   7.989  69.416  1.00  0.00    -0.181 C  
HETATM    3  H   UNL     1      -8.541   8.928  70.587  1.00  0.00     0.000 HD 
HETATM    4  C   UNL     1     -11.015   8.220  70.346  1.00  0.00    -0.244 A  
HETATM    5  C   UNL     1      -9.095   6.626  69.587  1.00  0.00    -0.142 C  
HETATM    6  C   UNL     1     -10.329   8.159  67.958  1.00  0.00    -0.211 C  
HETATM    7  C   UNL     1     -11.283   9.502  70.867  1.00  0.00    -0.411 A  
HETATM    8  F   UNL     1     -14.306   8.903  72.782  1.00  0.00    -0.490 F  
HETATM    9  C   UNL     1     -11.919   7.195  70.669  1.00  0.00    -0.269 A  
HETATM   10  C   UNL     1     -13.010   7.406  71.507  1.00  0.00    -0.421 A  
HETATM   11  C   UNL     1     -12.393   9.731  71.684  1.00  0.00    -0.495 A  
HETATM   12  C   UNL     1     -13.239   8.679  72.004  1.00  0.00    -0.386 A  
HETATM   13  F   UNL     1     -11.776   5.979  70.124  1.00  0.00    -0.428 F  
ENDROOT
BRANCH   6  14
HETATM   14  N   UNL     1      -9.289   8.043  66.955  1.00  0.00    -0.147 NA 
HETATM   15  N   UNL     1      -8.050   7.339  65.309  1.00  0.00    -0.130 NA 
HETATM   16  N   UNL     1      -8.320   8.977  66.868  1.00  0.00    -0.118 NA 
HETATM   17  C   UNL     1      -9.111   7.064  66.033  1.00  0.00    -0.069 A  
HETATM   18  C   UNL     1      -7.606   8.516  65.835  1.00  0.00    -0.085 A  
ENDBRANCH   6  14
BRANCH   5  19
HETATM   19  N   UNL     1      -8.683   6.349  70.948  1.00  0.00    -0.135 NA 
HETATM   20  C   UNL     1      -7.767   6.586  72.795  1.00  0.00    -0.102 A  
HETATM   21  C   UNL     1      -9.071   5.323  71.749  1.00  0.00    -0.138 A  
HETATM   22  N   UNL     1      -8.499   5.442  72.926  1.00  0.00    -0.119 NA 
HETATM   23  N   UNL     1      -7.868   7.195  71.610  1.00  0.00    -0.096 NA 
ENDBRANCH   5  19
TORSDOF 2
ENDMDL
MODEL       65
REMARK 921   NORMALIZED FREE ENERGY PREDICTED BY IDOCK:   -4.52 KCAL/MOL
REMARK 922        TOTAL FREE ENERGY PREDICTED BY IDOCK:   -5.87 KCAL/MOL
REMARK 923 INTER-LIGAND FREE ENERGY PREDICTED BY IDOCK:   -4.93 KCAL/MOL
REMARK 924 INTRA-LIGAND FREE ENERGY PREDICTED BY IDOCK:   -0.94 KCAL/MOL
REMARK 927      BINDING AFFINITY PREDICTED BY RF-SCORE:    0.00 PKD
ROOT
HETATM    1  O   UNL     1      -9.150   7.982  72.093  1.00  0.00    -0.137 OA 
HETATM    2  C   UNL     1      -9.614   6.887  71.266  1.00  0.00    -0.165 C  
HETATM    3  H   UNL     1      -9.835   8.638  72.145  1.00  0.00     0.000 HD 
HETATM    4  C   UNL     1      -9.816   7.445  69.852  1.00  0.00    -0.178 A  
HETATM    5  C   UNL     1     -10.884   6.300  71.938  1.00  0.00    -0.242 C  
HETATM    6  C   UNL     1      -8.493   5.815  71.180  1.00  0.00    -0.128 C  
HETATM    7  C   UNL     1      -9.114   8.590  69.424  1.00  0.00    -0.150 A  
HETATM    8  F   UNL     1     -10.261   8.921  65.997  1.00  0.00    -0.372 F  
HETATM    9  C   UNL     1     -10.652   6.818  68.913  1.00  0.00    -0.228 A  
HETATM   10  C   UNL     1     -10.830   7.320  67.628  1.00  0.00    -0.251 A  
HETATM   11  C   UNL     1      -9.262   9.084  68.125  1.00  0.00    -0.141 A  
HETATM   12  C   UNL     1     -10.126   8.449  67.243  1.00  0.00    -0.253 A  
HETATM   13  F   UNL     1     -11.268   5.670  69.227  1.00  0.00    -0.400 F  
ENDROOT
BRANCH   6  14
HETATM   14  N   UNL     1      -8.132   5.243  72.463  1.00  0.00    -0.102 NA 
HETATM   15  N   UNL     1      -7.782   3.850  74.099  1.00  0.00    -0.077 NA 
HETATM   16  N   UNL     1      -7.656   6.029  73.449  1.00  0.00    -0.096 NA 
HETATM   17  C   UNL     1      -8.217   3.950  72.864  1.00  0.00    -0.091 A  
HETATM   18  C   UNL     1      -7.434   5.130  74.415  1.00  0.00    -0.086 A  
ENDBRANCH   6  14
BRANCH   5  19
HETATM   19  N   UNL     1     -12.010   7.212  71.957  1.00  0.00    -0.296 NA 
HETATM   20  C   UNL     1     -13.113   8.943  72.259  1.00  0.00    -0.436 A  
HETATM   21  C   UNL     1     -13.258   7.013  71.459  1.00  0.00    -0.317 A  
HETATM   22  N   UNL     1     -13.984   8.093  71.643  1.00  0.00    -0.392 NA 
HETATM   23  N   UNL     1     -11.883   8.460  72.450  1.00  0.00    -0.388 NA 
ENDBRANCH   5  19
TORSDOF 2
ENDMDL
MODEL       66
REMARK 921   NORMALIZED FREE ENERGY PREDICTED BY IDOCK:   -4.50 KCAL/MOL
REMARK 922        TOTAL FREE ENERGY PREDICTED BY IDOCK:   -5.85 KCAL/MOL
REMARK 923 INTER-LIGAND FREE ENERGY PREDICTED BY IDOCK:   -5.59 KCAL/MOL
REMARK 924 INTRA-LIGAND FREE ENERGY PREDICTED BY IDOCK:   -0.25 KCAL/MOL
REMARK 927      BINDING AFFINITY PREDICTED BY RF-SCORE:    0.00 PKD
ROOT
HETATM    1  O   UNL     1      -8.585  14.099  69.312  1.00  0.00    -0.357 OA 
HETATM    2  C   UNL     1      -9.539  14.219  68.229  1.00  0.00    -0.221 C  
HETATM    3  H   UNL     1      -8.874  14.641  70.036  1.00  0.00     0.000 HD 
HETATM    4  C   UNL     1      -9.496  15.676  67.750  1.00  0.00    -0.208 A  
HETATM    5  C   UNL     1     -10.914  13.734  68.761  1.00  0.00    -0.264 C  
HETATM    6  C   UNL     1      -9.065  13.333  67.044  1.00  0.00    -0.232 C  
HETATM    7  C   UNL     1      -8.347  16.466  67.958  1.00  0.00    -0.178 A  
HETATM    8  F   UNL     1      -9.305  19.589  66.376  1.00  0.00    -0.330 F  
HETATM    9  C   UNL     1     -10.558  16.262  67.042  1.00  0.00    -0.284 A  
HETATM   10  C   UNL     1     -10.515  17.581  66.602  1.00  0.00    -0.270 A  
HETATM   11  C   UNL     1      -8.283  17.782  67.492  1.00  0.00    -0.228 A  
HETATM   12  C   UNL     1      -9.372  18.329  66.827  1.00  0.00    -0.295 A  
HETATM   13  F   UNL     1     -11.635  15.531  66.725  1.00  0.00    -0.230 F  
ENDROOT
BRANCH   6  14
HETATM   14  N   UNL     1      -8.980  11.922  67.367  1.00  0.00    -0.167 NA 
HETATM   15  N   UNL     1      -9.462   9.821  67.673  1.00  0.00    -0.143 NA 
HETATM   16  N   UNL     1      -7.823  11.395  67.816  1.00  0.00    -0.112 NA 
HETATM   17  C   UNL     1      -9.954  10.980  67.300  1.00  0.00    -0.181 A  
HETATM   18  C   UNL     1      -8.162  10.109  67.963  1.00  0.00    -0.113 A  
ENDBRANCH   6  14
BRANCH   5  19
HETATM   19  N   UNL     1     -11.470  14.578  69.799  1.00  0.00    -0.269 NA 
HETATM   20  C   UNL     1     -11.592  16.030  71.277  1.00  0.00    -0.449 A  
HETATM   21  C   UNL     1     -12.763  14.663  70.206  1.00  0.00    -0.273 A  
HETATM   22  N   UNL     1     -12.870  15.572  71.150  1.00  0.00    -0.465 NA 
HETATM   23  N   UNL     1     -10.701  15.472  70.452  1.00  0.00    -0.328 NA 
ENDBRANCH   5  19
TORSDOF 2
ENDMDL
MODEL       67
REMARK 921   NORMALIZED FREE ENERGY PREDICTED BY IDOCK:   -4.49 KCAL/MOL
REMARK 922        TOTAL FREE ENERGY PREDICTED BY IDOCK:   -5.84 KCAL/MOL
REMARK 923 INTER-LIGAND FREE ENERGY PREDICTED BY IDOCK:   -5.40 KCAL/MOL
REMARK 924 INTRA-LIGAND FREE ENERGY PREDICTED BY IDOCK:   -0.44 KCAL/MOL
REMARK 927      BINDING AFFINITY PREDICTED BY RF-SCORE:    0.00 PKD
ROOT
HETATM    1  O   UNL     1     -10.966  10.940  67.285  1.00  0.00    -0.274 OA 
HETATM    2  C   UNL     1     -10.200  10.732  66.074  1.00  0.00    -0.251 C  
HETATM    3  H   UNL     1     -10.385  10.858  68.032  1.00  0.00     0.000 HD 
HETATM    4  C   UNL     1      -9.700   9.282  66.101  1.00  0.00    -0.349 A  
HETATM    5  C   UNL     1      -9.092  11.817  66.028  1.00  0.00    -0.155 C  
HETATM    6  C   UNL     1     -11.150  10.866  64.852  1.00  0.00     0.165 C  
HETATM    7  C   UNL     1     -10.380   8.301  66.852  1.00  0.00    -0.391 A  
HETATM    8  F   UNL     1      -8.435   5.328  66.114  1.00  0.00    -0.111 F  
HETATM    9  C   UNL     1      -8.595   8.858  65.345  1.00  0.00    -0.176 A  
HETATM   10  C   UNL     1      -8.145   7.541  65.364  1.00  0.00    -0.133 A  
HETATM   11  C   UNL     1      -9.955   6.970  66.853  1.00  0.00    -0.283 A  
HETATM   12  C   UNL     1      -8.836   6.606  66.116  1.00  0.00    -0.149 A  
HETATM   13  F   UNL     1      -7.969   9.721  64.533  1.00  0.00    -0.120 F  
ENDROOT
BRANCH   6  14
HETATM   14  N   UNL     1     -11.768  12.173  64.733  1.00  0.00    -0.346 NA 
HETATM   15  N   UNL     1     -12.414  14.112  63.983  1.00  0.00    -0.737 NA 
HETATM   16  N   UNL     1     -12.499  12.675  65.748  1.00  0.00    -0.579 NA 
HETATM   17  C   UNL     1     -11.711  13.042  63.693  1.00  0.00    -0.490 A  
HETATM   18  C   UNL     1     -12.891  13.846  65.232  1.00  0.00    -0.398 A  
ENDBRANCH   6  14
BRANCH   5  19
HETATM   19  N   UNL     1      -8.104  11.689  67.081  1.00  0.00    -0.159 NA 
HETATM   20  C   UNL     1      -6.267  11.432  68.011  1.00  0.00    -0.049 A  
HETATM   21  C   UNL     1      -8.279  11.846  68.419  1.00  0.00    -0.160 A  
HETATM   22  N   UNL     1      -7.131  11.681  69.036  1.00  0.00    -0.113 NA 
HETATM   23  N   UNL     1      -6.809  11.453  66.790  1.00  0.00    -0.140 NA 
ENDBRANCH   5  19
TORSDOF 2
ENDMDL
MODEL       68
REMARK 921   NORMALIZED FREE ENERGY PREDICTED BY IDOCK:   -4.46 KCAL/MOL
REMARK 922        TOTAL FREE ENERGY PREDICTED BY IDOCK:   -5.81 KCAL/MOL
REMARK 923 INTER-LIGAND FREE ENERGY PREDICTED BY IDOCK:   -4.94 KCAL/MOL
REMARK 924 INTRA-LIGAND FREE ENERGY PREDICTED BY IDOCK:   -0.87 KCAL/MOL
REMARK 927      BINDING AFFINITY PREDICTED BY RF-SCORE:    0.00 PKD
ROOT
HETATM    1  O   UNL     1     -11.377   8.069  69.275  1.00  0.00    -0.413 OA 
HETATM    2  C   UNL     1     -10.279   8.888  69.743  1.00  0.00    -0.202 C  
HETATM    3  H   UNL     1     -11.225   7.845  68.364  1.00  0.00     0.000 HD 
HETATM    4  C   UNL     1     -10.319  10.196  68.943  1.00  0.00    -0.223 A  
HETATM    5  C   UNL     1      -8.978   8.056  69.594  1.00  0.00    -0.145 C  
HETATM    6  C   UNL     1     -10.529   9.254  71.233  1.00  0.00    -0.338 C  
HETATM    7  C   UNL     1     -11.522  10.645  68.360  1.00  0.00    -0.330 A  
HETATM    8  F   UNL     1     -10.488  13.782  66.858  1.00  0.00    -0.263 F  
HETATM    9  C   UNL     1      -9.193  11.022  68.805  1.00  0.00    -0.162 A  
HETATM   10  C   UNL     1      -9.231  12.213  68.085  1.00  0.00    -0.197 A  
HETATM   11  C   UNL     1     -11.578  11.854  67.661  1.00  0.00    -0.382 A  
HETATM   12  C   UNL     1     -10.429  12.621  67.523  1.00  0.00    -0.221 A  
HETATM   13  F   UNL     1      -8.047  10.701  69.421  1.00  0.00    -0.140 F  
ENDROOT
BRANCH   6  14
HETATM   14  N   UNL     1     -10.594   8.105  72.114  1.00  0.00    -0.266 NA 
HETATM   15  N   UNL     1     -10.197   6.674  73.706  1.00  0.00    -0.296 NA 
HETATM   16  N   UNL     1     -11.531   7.154  71.924  1.00  0.00    -0.262 NA 
HETATM   17  C   UNL     1      -9.796   7.803  73.169  1.00  0.00    -0.298 A  
HETATM   18  C   UNL     1     -11.263   6.318  72.934  1.00  0.00    -0.200 A  
ENDBRANCH   6  14
BRANCH   5  19
HETATM   19  N   UNL     1      -8.622   7.767  68.219  1.00  0.00    -0.124 NA 
HETATM   20  C   UNL     1      -8.823   7.245  66.221  1.00  0.00    -0.159 A  
HETATM   21  C   UNL     1      -7.410   7.901  67.621  1.00  0.00    -0.096 A  
HETATM   22  N   UNL     1      -7.505   7.569  66.353  1.00  0.00    -0.082 NA 
HETATM   23  N   UNL     1      -9.557   7.377  67.330  1.00  0.00    -0.143 NA 
ENDBRANCH   5  19
TORSDOF 2
ENDMDL
MODEL       69
REMARK 921   NORMALIZED FREE ENERGY PREDICTED BY IDOCK:   -4.40 KCAL/MOL
REMARK 922        TOTAL FREE ENERGY PREDICTED BY IDOCK:   -5.74 KCAL/MOL
REMARK 923 INTER-LIGAND FREE ENERGY PREDICTED BY IDOCK:   -5.26 KCAL/MOL
REMARK 924 INTRA-LIGAND FREE ENERGY PREDICTED BY IDOCK:   -0.48 KCAL/MOL
REMARK 927      BINDING AFFINITY PREDICTED BY RF-SCORE:    0.00 PKD
ROOT
HETATM    1  O   UNL     1      -9.598   9.016  65.253  1.00  0.00    -0.457 OA 
HETATM    2  C   UNL     1      -9.575   9.883  66.413  1.00  0.00    -0.200 C  
HETATM    3  H   UNL     1      -8.871   9.245  64.686  1.00  0.00     0.000 HD 
HETATM    4  C   UNL     1      -9.823  11.311  65.913  1.00  0.00    -0.272 A  
HETATM    5  C   UNL     1      -8.222   9.658  67.139  1.00  0.00    -0.120 C  
HETATM    6  C   UNL     1     -10.764   9.509  67.340  1.00  0.00    -0.227 C  
HETATM    7  C   UNL     1     -10.502  11.540  64.699  1.00  0.00    -0.356 A  
HETATM    8  F   UNL     1     -10.603  15.165  64.580  1.00  0.00    -0.412 F  
HETATM    9  C   UNL     1      -9.443  12.440  66.657  1.00  0.00    -0.232 A  
HETATM   10  C   UNL     1      -9.675  13.737  66.207  1.00  0.00    -0.297 A  
HETATM   11  C   UNL     1     -10.767  12.838  64.253  1.00  0.00    -0.419 A  
HETATM   12  C   UNL     1     -10.342  13.923  65.007  1.00  0.00    -0.396 A  
HETATM   13  F   UNL     1      -8.885  12.289  67.866  1.00  0.00    -0.149 F  
ENDROOT
BRANCH   6  14
HETATM   14  N   UNL     1     -10.712   8.148  67.838  1.00  0.00    -0.131 NA 
HETATM   15  N   UNL     1     -10.534   6.409  69.136  1.00  0.00    -0.206 NA 
HETATM   16  N   UNL     1     -10.871   7.108  66.995  1.00  0.00    -0.362 NA 
HETATM   17  C   UNL     1     -10.497   7.721  69.108  1.00  0.00    -0.211 A  
HETATM   18  C   UNL     1     -10.780   6.073  67.838  1.00  0.00    -0.284 A  
ENDBRANCH   6  14
BRANCH   5  19
HETATM   19  N   UNL     1      -7.068  10.086  66.373  1.00  0.00    -0.098 NA 
HETATM   20  C   UNL     1      -5.322  11.087  65.872  1.00  0.00    -0.143 A  
HETATM   21  C   UNL     1      -6.637   9.614  65.174  1.00  0.00    -0.093 A  
HETATM   22  N   UNL     1      -5.533  10.238  64.827  1.00  0.00    -0.109 NA 
HETATM   23  N   UNL     1      -6.219  11.013  66.859  1.00  0.00    -0.082 NA 
ENDBRANCH   5  19
TORSDOF 2
ENDMDL
MODEL       70
REMARK 921   NORMALIZED FREE ENERGY PREDICTED BY IDOCK:   -4.39 KCAL/MOL
REMARK 922        TOTAL FREE ENERGY PREDICTED BY IDOCK:   -5.73 KCAL/MOL
REMARK 923 INTER-LIGAND FREE ENERGY PREDICTED BY IDOCK:   -4.79 KCAL/MOL
REMARK 924 INTRA-LIGAND FREE ENERGY PREDICTED BY IDOCK:   -0.94 KCAL/MOL
REMARK 927      BINDING AFFINITY PREDICTED BY RF-SCORE:    0.00 PKD
ROOT
HETATM    1  O   UNL     1      -8.781   6.635  69.840  1.00  0.00    -0.138 OA 
HETATM    2  C   UNL     1      -9.999   6.595  69.058  1.00  0.00    -0.153 C  
HETATM    3  H   UNL     1      -8.072   6.939  69.286  1.00  0.00     0.000 HD 
HETATM    4  C   UNL     1      -9.797   5.540  67.963  1.00  0.00    -0.173 A  
HETATM    5  C   UNL     1     -10.278   8.035  68.552  1.00  0.00    -0.207 C  
HETATM    6  C   UNL     1     -11.159   6.097  69.965  1.00  0.00    -0.392 C  
HETATM    7  C   UNL     1      -8.867   4.495  68.135  1.00  0.00    -0.123 A  
HETATM    8  F   UNL     1      -9.298   2.610  65.065  1.00  0.00    -0.143 F  
HETATM    9  C   UNL     1     -10.558   5.533  66.783  1.00  0.00    -0.291 A  
HETATM   10  C   UNL     1     -10.380   4.571  65.792  1.00  0.00    -0.287 A  
HETATM   11  C   UNL     1      -8.702   3.508  67.160  1.00  0.00    -0.130 A  
HETATM   12  C   UNL     1      -9.454   3.561  65.994  1.00  0.00    -0.137 A  
HETATM   13  F   UNL     1     -11.529   6.440  66.606  1.00  0.00    -0.391 F  
ENDROOT
BRANCH   6  14
HETATM   14  N   UNL     1     -11.423   6.959  71.101  1.00  0.00    -0.287 NA 
HETATM   15  N   UNL     1     -12.360   8.354  72.486  1.00  0.00    -0.354 NA 
HETATM   16  N   UNL     1     -10.516   7.077  72.091  1.00  0.00    -0.206 NA 
HETATM   17  C   UNL     1     -12.511   7.734  71.338  1.00  0.00    -0.320 A  
HETATM   18  C   UNL     1     -11.144   7.918  72.921  1.00  0.00    -0.379 A  
ENDBRANCH   6  14
BRANCH   5  19
HETATM   19  N   UNL     1      -9.290   8.527  67.614  1.00  0.00    -0.136 NA 
HETATM   20  C   UNL     1      -7.442   8.997  66.794  1.00  0.00    -0.086 A  
HETATM   21  C   UNL     1      -9.491   9.007  66.359  1.00  0.00    -0.226 A  
HETATM   22  N   UNL     1      -8.336   9.321  65.817  1.00  0.00    -0.119 NA 
HETATM   23  N   UNL     1      -7.975   8.481  67.906  1.00  0.00    -0.107 NA 
ENDBRANCH   5  19
TORSDOF 2
ENDMDL
MODEL       71
REMARK 921   NORMALIZED FREE ENERGY PREDICTED BY IDOCK:   -4.38 KCAL/MOL
REMARK 922        TOTAL FREE ENERGY PREDICTED BY IDOCK:   -5.71 KCAL/MOL
REMARK 923 INTER-LIGAND FREE ENERGY PREDICTED BY IDOCK:   -4.99 KCAL/MOL
REMARK 924 INTRA-LIGAND FREE ENERGY PREDICTED BY IDOCK:   -0.73 KCAL/MOL
REMARK 927      BINDING AFFINITY PREDICTED BY RF-SCORE:    0.00 PKD
ROOT
HETATM    1  O   UNL     1     -10.046  14.787  69.115  1.00  0.00    -0.224 OA 
HETATM    2  C   UNL     1     -10.331  13.771  68.123  1.00  0.00    -0.252 C  
HETATM    3  H   UNL     1      -9.358  14.470  69.688  1.00  0.00     0.000 HD 
HETATM    4  C   UNL     1     -10.889  12.554  68.871  1.00  0.00    -0.238 A  
HETATM    5  C   UNL     1      -9.025  13.519  67.323  1.00  0.00    -0.222 C  
HETATM    6  C   UNL     1     -11.456  14.290  67.186  1.00  0.00    -0.359 C  
HETATM    7  C   UNL     1     -11.508  12.706  70.128  1.00  0.00    -0.003 A  
HETATM    8  F   UNL     1     -12.504   9.298  70.877  1.00  0.00    -0.313 F  
HETATM    9  C   UNL     1     -10.863  11.262  68.321  1.00  0.00    -0.205 A  
HETATM   10  C   UNL     1     -11.377  10.159  68.997  1.00  0.00    -0.188 A  
HETATM   11  C   UNL     1     -12.054  11.609  70.801  1.00  0.00    -0.383 A  
HETATM   12  C   UNL     1     -11.974  10.346  70.232  1.00  0.00    -0.302 A  
HETATM   13  F   UNL     1     -10.380  11.069  67.086  1.00  0.00    -0.217 F  
ENDROOT
BRANCH   6  14
HETATM   14  N   UNL     1     -11.104  15.493  66.458  1.00  0.00    -0.243 NA 
HETATM   15  N   UNL     1     -10.806  16.963  64.879  1.00  0.00    -0.728 NA 
HETATM   16  N   UNL     1     -10.544  16.538  67.101  1.00  0.00    -0.301 NA 
HETATM   17  C   UNL     1     -11.242  15.750  65.133  1.00  0.00    -0.248 A  
HETATM   18  C   UNL     1     -10.406  17.416  66.101  1.00  0.00    -0.327 A  
ENDBRANCH   6  14
BRANCH   5  19
HETATM   19  N   UNL     1      -7.960  12.933  68.112  1.00  0.00    -0.144 NA 
HETATM   20  C   UNL     1      -6.541  12.703  69.609  1.00  0.00     0.010 A  
HETATM   21  C   UNL     1      -7.393  11.706  67.975  1.00  0.00    -0.089 A  
HETATM   22  N   UNL     1      -6.482  11.535  68.908  1.00  0.00    -0.059 NA 
HETATM   23  N   UNL     1      -7.450  13.582  69.178  1.00  0.00     0.046 NA 
ENDBRANCH   5  19
TORSDOF 2
ENDMDL
MODEL       72
REMARK 921   NORMALIZED FREE ENERGY PREDICTED BY IDOCK:   -4.27 KCAL/MOL
REMARK 922        TOTAL FREE ENERGY PREDICTED BY IDOCK:   -5.59 KCAL/MOL
REMARK 923 INTER-LIGAND FREE ENERGY PREDICTED BY IDOCK:   -4.66 KCAL/MOL
REMARK 924 INTRA-LIGAND FREE ENERGY PREDICTED BY IDOCK:   -0.94 KCAL/MOL
REMARK 927      BINDING AFFINITY PREDICTED BY RF-SCORE:    0.00 PKD
ROOT
HETATM    1  O   UNL     1      -8.675   8.997  65.470  1.00  0.00    -0.159 OA 
HETATM    2  C   UNL     1      -9.592   9.337  66.539  1.00  0.00    -0.224 C  
HETATM    3  H   UNL     1      -8.063   9.714  65.353  1.00  0.00     0.000 HD 
HETATM    4  C   UNL     1     -10.401  10.551  66.068  1.00  0.00    -0.279 A  
HETATM    5  C   UNL     1      -8.751   9.555  67.825  1.00  0.00    -0.115 C  
HETATM    6  C   UNL     1     -10.593   8.164  66.730  1.00  0.00    -0.153 C  
HETATM    7  C   UNL     1     -10.569  10.814  64.694  1.00  0.00    -0.269 A  
HETATM    8  F   UNL     1     -12.673  13.770  64.759  1.00  0.00    -0.397 F  
HETATM    9  C   UNL     1     -11.052  11.410  66.969  1.00  0.00    -0.303 A  
HETATM   10  C   UNL     1     -11.793  12.509  66.542  1.00  0.00    -0.434 A  
HETATM   11  C   UNL     1     -11.337  11.896  64.254  1.00  0.00    -0.425 A  
HETATM   12  C   UNL     1     -11.933  12.738  65.183  1.00  0.00    -0.424 A  
HETATM   13  F   UNL     1     -11.014  11.155  68.284  1.00  0.00    -0.199 F  
ENDROOT
BRANCH   6  14
HETATM   14  N   UNL     1      -9.964   6.913  67.106  1.00  0.00    -0.168 NA 
HETATM   15  N   UNL     1      -9.386   5.112  68.183  1.00  0.00    -0.117 NA 
HETATM   16  N   UNL     1      -9.059   6.335  66.290  1.00  0.00    -0.154 NA 
HETATM   17  C   UNL     1     -10.140   6.185  68.236  1.00  0.00    -0.158 A  
HETATM   18  C   UNL     1      -8.756   5.229  66.979  1.00  0.00    -0.107 A  
ENDBRANCH   6  14
BRANCH   5  19
HETATM   19  N   UNL     1      -7.867  10.702  67.758  1.00  0.00    -0.107 NA 
HETATM   20  C   UNL     1      -6.393  11.991  67.073  1.00  0.00    -0.124 A  
HETATM   21  C   UNL     1      -7.856  11.799  68.560  1.00  0.00    -0.144 A  
HETATM   22  N   UNL     1      -6.925  12.632  68.154  1.00  0.00    -0.085 NA 
HETATM   23  N   UNL     1      -6.954  10.817  66.773  1.00  0.00    -0.111 NA 
ENDBRANCH   5  19
TORSDOF 2
ENDMDL
MODEL       73
REMARK 921   NORMALIZED FREE ENERGY PREDICTED BY IDOCK:   -4.25 KCAL/MOL
REMARK 922        TOTAL FREE ENERGY PREDICTED BY IDOCK:   -5.57 KCAL/MOL
REMARK 923 INTER-LIGAND FREE ENERGY PREDICTED BY IDOCK:   -5.09 KCAL/MOL
REMARK 924 INTRA-LIGAND FREE ENERGY PREDICTED BY IDOCK:   -0.48 KCAL/MOL
REMARK 927      BINDING AFFINITY PREDICTED BY RF-SCORE:    0.00 PKD
ROOT
HETATM    1  O   UNL     1      -8.916   8.065  68.773  1.00  0.00    -0.141 OA 
HETATM    2  C   UNL     1     -10.114   7.318  69.096  1.00  0.00    -0.183 C  
HETATM    3  H   UNL     1      -8.426   8.217  69.572  1.00  0.00     0.000 HD 
HETATM    4  C   UNL     1     -10.977   8.216  69.991  1.00  0.00    -0.199 A  
HETATM    5  C   UNL     1      -9.671   5.974  69.732  1.00  0.00    -0.158 C  
HETATM    6  C   UNL     1     -10.916   7.068  67.789  1.00  0.00    -0.164 C  
HETATM    7  C   UNL     1     -10.840   9.618  69.947  1.00  0.00    -0.287 A  
HETATM    8  F   UNL     1     -13.368  10.682  72.324  1.00  0.00    -0.544 F  
HETATM    9  C   UNL     1     -11.968   7.695  70.839  1.00  0.00    -0.229 A  
HETATM   10  C   UNL     1     -12.756   8.511  71.646  1.00  0.00    -0.365 A  
HETATM   11  C   UNL     1     -11.647  10.447  70.731  1.00  0.00    -0.450 A  
HETATM   12  C   UNL     1     -12.591   9.885  71.579  1.00  0.00    -0.416 A  
HETATM   13  F   UNL     1     -12.217   6.379  70.850  1.00  0.00    -0.399 F  
ENDROOT
BRANCH   6  14
HETATM   14  N   UNL     1     -10.195   6.288  66.801  1.00  0.00    -0.199 NA 
HETATM   15  N   UNL     1      -9.571   4.698  65.451  1.00  0.00    -0.171 NA 
HETATM   16  N   UNL     1      -9.090   6.790  66.212  1.00  0.00    -0.153 NA 
HETATM   17  C   UNL     1     -10.465   5.037  66.352  1.00  0.00    -0.300 A  
HETATM   18  C   UNL     1      -8.763   5.794  65.381  1.00  0.00    -0.119 A  
ENDBRANCH   6  14
BRANCH   5  19
HETATM   19  N   UNL     1      -9.008   6.123  71.013  1.00  0.00    -0.143 NA 
HETATM   20  C   UNL     1      -8.603   5.907  73.036  1.00  0.00    -0.123 A  
HETATM   21  C   UNL     1      -7.834   6.752  71.280  1.00  0.00    -0.101 A  
HETATM   22  N   UNL     1      -7.555   6.638  72.560  1.00  0.00    -0.096 NA 
HETATM   23  N   UNL     1      -9.507   5.543  72.122  1.00  0.00    -0.149 NA 
ENDBRANCH   5  19
TORSDOF 2
ENDMDL
MODEL       74
REMARK 921   NORMALIZED FREE ENERGY PREDICTED BY IDOCK:   -4.24 KCAL/MOL
REMARK 922        TOTAL FREE ENERGY PREDICTED BY IDOCK:   -5.56 KCAL/MOL
REMARK 923 INTER-LIGAND FREE ENERGY PREDICTED BY IDOCK:   -5.56 KCAL/MOL
REMARK 924 INTRA-LIGAND FREE ENERGY PREDICTED BY IDOCK:   -0.01 KCAL/MOL
REMARK 927      BINDING AFFINITY PREDICTED BY RF-SCORE:    0.00 PKD
ROOT
HETATM    1  O   UNL     1     -11.432  11.074  67.058  1.00  0.00    -0.415 OA 
HETATM    2  C   UNL     1     -10.520  12.196  66.967  1.00  0.00    -0.220 C  
HETATM    3  H   UNL     1     -11.726  10.991  67.957  1.00  0.00     0.000 HD 
HETATM    4  C   UNL     1      -9.290  11.846  67.814  1.00  0.00    -0.184 A  
HETATM    5  C   UNL     1     -11.294  13.465  67.411  1.00  0.00    -0.309 C  
HETATM    6  C   UNL     1     -10.039  12.332  65.496  1.00  0.00    -0.256 C  
HETATM    7  C   UNL     1      -8.955  10.501  68.073  1.00  0.00    -0.135 A  
HETATM    8  F   UNL     1      -5.911  10.860  70.016  1.00  0.00    -0.053 F  
HETATM    9  C   UNL     1      -8.422  12.830  68.314  1.00  0.00    -0.161 A  
HETATM   10  C   UNL     1      -7.302  12.512  69.077  1.00  0.00     0.043 A  
HETATM   11  C   UNL     1      -7.816  10.170  68.812  1.00  0.00    -0.098 A  
HETATM   12  C   UNL     1      -7.006  11.180  69.314  1.00  0.00    -0.118 A  
HETATM   13  F   UNL     1      -8.630  14.120  68.016  1.00  0.00    -0.142 F  
ENDROOT
BRANCH   6  14
HETATM   14  N   UNL     1     -11.110  12.591  64.553  1.00  0.00    -0.300 NA 
HETATM   15  N   UNL     1     -12.548  13.582  63.253  1.00  0.00    -0.750 NA 
HETATM   16  N   UNL     1     -11.802  11.568  64.012  1.00  0.00    -0.189 NA 
HETATM   17  C   UNL     1     -11.571  13.786  64.106  1.00  0.00    -0.331 A  
HETATM   18  C   UNL     1     -12.649  12.223  63.209  1.00  0.00    -0.318 A  
ENDBRANCH   6  14
BRANCH   5  19
HETATM   19  N   UNL     1     -11.682  13.456  68.807  1.00  0.00    -0.318 NA 
HETATM   20  C   UNL     1     -12.224  14.150  70.686  1.00  0.00    -0.362 A  
HETATM   21  C   UNL     1     -11.981  12.384  69.586  1.00  0.00    -0.274 A  
HETATM   22  N   UNL     1     -12.321  12.794  70.788  1.00  0.00    -0.354 NA 
HETATM   23  N   UNL     1     -11.863  14.608  69.484  1.00  0.00    -0.312 NA 
ENDBRANCH   5  19
TORSDOF 2
ENDMDL
MODEL       75
REMARK 921   NORMALIZED FREE ENERGY PREDICTED BY IDOCK:   -4.23 KCAL/MOL
REMARK 922        TOTAL FREE ENERGY PREDICTED BY IDOCK:   -5.55 KCAL/MOL
REMARK 923 INTER-LIGAND FREE ENERGY PREDICTED BY IDOCK:   -5.10 KCAL/MOL
REMARK 924 INTRA-LIGAND FREE ENERGY PREDICTED BY IDOCK:   -0.45 KCAL/MOL
REMARK 927      BINDING AFFINITY PREDICTED BY RF-SCORE:    0.00 PKD
ROOT
HETATM    1  O   UNL     1     -11.395  12.200  67.854  1.00  0.00    -0.257 OA 
HETATM    2  C   UNL     1     -10.084  12.028  67.263  1.00  0.00    -0.194 C  
HETATM    3  H   UNL     1     -11.313  12.744  68.628  1.00  0.00     0.000 HD 
HETATM    4  C   UNL     1      -9.234  11.250  68.274  1.00  0.00    -0.176 A  
HETATM    5  C   UNL     1      -9.551  13.437  66.889  1.00  0.00    -0.257 C  
HETATM    6  C   UNL     1     -10.220  11.138  65.996  1.00  0.00    -0.250 C  
HETATM    7  C   UNL     1      -9.843  10.422  69.239  1.00  0.00    -0.243 A  
HETATM    8  F   UNL     1      -6.958   9.048  70.959  1.00  0.00    -0.062 F  
HETATM    9  C   UNL     1      -7.830  11.279  68.249  1.00  0.00    -0.130 A  
HETATM   10  C   UNL     1      -7.058  10.566  69.162  1.00  0.00    -0.089 A  
HETATM   11  C   UNL     1      -9.075   9.679  70.140  1.00  0.00    -0.280 A  
HETATM   12  C   UNL     1      -7.691   9.766  70.098  1.00  0.00    -0.177 A  
HETATM   13  F   UNL     1      -7.191  11.966  67.292  1.00  0.00    -0.107 F  
ENDROOT
BRANCH   6  14
HETATM   14  N   UNL     1     -11.066  11.711  64.968  1.00  0.00    -0.281 NA 
HETATM   15  N   UNL     1     -11.805  12.508  63.081  1.00  0.00    -0.375 NA 
HETATM   16  N   UNL     1     -12.347  12.032  65.241  1.00  0.00    -0.375 NA 
HETATM   17  C   UNL     1     -10.749  12.012  63.684  1.00  0.00    -0.449 A  
HETATM   18  C   UNL     1     -12.760  12.489  64.053  1.00  0.00    -0.318 A  
ENDBRANCH   6  14
BRANCH   5  19
HETATM   19  N   UNL     1      -9.298  14.289  68.033  1.00  0.00    -0.194 NA 
HETATM   20  C   UNL     1      -8.279  15.493  69.382  1.00  0.00    -0.247 A  
HETATM   21  C   UNL     1     -10.196  14.783  68.925  1.00  0.00    -0.237 A  
HETATM   22  N   UNL     1      -9.577  15.545  69.799  1.00  0.00    -0.266 NA 
HETATM   23  N   UNL     1      -8.060  14.758  68.288  1.00  0.00    -0.132 NA 
ENDBRANCH   5  19
TORSDOF 2
ENDMDL
MODEL       76
REMARK 921   NORMALIZED FREE ENERGY PREDICTED BY IDOCK:   -4.18 KCAL/MOL
REMARK 922        TOTAL FREE ENERGY PREDICTED BY IDOCK:   -5.49 KCAL/MOL
REMARK 923 INTER-LIGAND FREE ENERGY PREDICTED BY IDOCK:   -5.87 KCAL/MOL
REMARK 924 INTRA-LIGAND FREE ENERGY PREDICTED BY IDOCK:    0.38 KCAL/MOL
REMARK 927      BINDING AFFINITY PREDICTED BY RF-SCORE:    0.00 PKD
ROOT
HETATM    1  O   UNL     1      -8.801  12.297  67.661  1.00  0.00    -0.159 OA 
HETATM    2  C   UNL     1      -9.954  11.900  66.880  1.00  0.00    -0.200 C  
HETATM    3  H   UNL     1      -9.082  12.910  68.330  1.00  0.00     0.000 HD 
HETATM    4  C   UNL     1     -10.462  13.154  66.158  1.00  0.00    -0.287 A  
HETATM    5  C   UNL     1     -10.967  11.231  67.846  1.00  0.00    -0.248 C  
HETATM    6  C   UNL     1      -9.494  10.897  65.786  1.00  0.00    -0.211 C  
HETATM    7  C   UNL     1      -9.595  14.235  65.899  1.00  0.00    -0.227 A  
HETATM    8  F   UNL     1     -11.779  16.521  64.117  1.00  0.00    -0.476 F  
HETATM    9  C   UNL     1     -11.778  13.258  65.678  1.00  0.00    -0.356 A  
HETATM   10  C   UNL     1     -12.238  14.394  65.017  1.00  0.00    -0.418 A  
HETATM   11  C   UNL     1     -10.039  15.367  65.209  1.00  0.00    -0.354 A  
HETATM   12  C   UNL     1     -11.358  15.438  64.784  1.00  0.00    -0.376 A  
HETATM   13  F   UNL     1     -12.621  12.224  65.804  1.00  0.00    -0.364 F  
ENDROOT
BRANCH   6  14
HETATM   14  N   UNL     1      -8.913   9.678  66.317  1.00  0.00    -0.150 NA 
HETATM   15  N   UNL     1      -8.609   7.616  66.945  1.00  0.00    -0.121 NA 
HETATM   16  N   UNL     1      -7.662   9.684  66.819  1.00  0.00    -0.098 NA 
HETATM   17  C   UNL     1      -9.474   8.447  66.410  1.00  0.00    -0.227 A  
HETATM   18  C   UNL     1      -7.515   8.400  67.165  1.00  0.00    -0.089 A  
ENDBRANCH   6  14
BRANCH   5  19
HETATM   19  N   UNL     1     -11.521  12.138  68.832  1.00  0.00    -0.272 NA 
HETATM   20  C   UNL     1     -12.169  13.900  69.715  1.00  0.00    -0.332 A  
HETATM   21  C   UNL     1     -12.086  11.831  70.029  1.00  0.00    -0.310 A  
HETATM   22  N   UNL     1     -12.500  12.932  70.616  1.00  0.00    -0.297 NA 
HETATM   23  N   UNL     1     -11.592  13.462  68.592  1.00  0.00    -0.303 NA 
ENDBRANCH   5  19
TORSDOF 2
ENDMDL
MODEL       77
REMARK 921   NORMALIZED FREE ENERGY PREDICTED BY IDOCK:   -4.13 KCAL/MOL
REMARK 922        TOTAL FREE ENERGY PREDICTED BY IDOCK:   -5.44 KCAL/MOL
REMARK 923 INTER-LIGAND FREE ENERGY PREDICTED BY IDOCK:   -4.52 KCAL/MOL
REMARK 924 INTRA-LIGAND FREE ENERGY PREDICTED BY IDOCK:   -0.92 KCAL/MOL
REMARK 927      BINDING AFFINITY PREDICTED BY RF-SCORE:    0.00 PKD
ROOT
HETATM    1  O   UNL     1      -8.162   9.343  68.310  1.00  0.00    -0.115 OA 
HETATM    2  C   UNL     1      -9.502   9.788  67.989  1.00  0.00    -0.131 C  
HETATM    3  H   UNL     1      -7.548  10.031  68.081  1.00  0.00     0.000 HD 
HETATM    4  C   UNL     1      -9.566   9.963  66.467  1.00  0.00    -0.243 A  
HETATM    5  C   UNL     1      -9.781  11.070  68.818  1.00  0.00    -0.191 C  
HETATM    6  C   UNL     1     -10.506   8.663  68.364  1.00  0.00    -0.176 C  
HETATM    7  C   UNL     1      -8.685   9.255  65.625  1.00  0.00    -0.193 A  
HETATM    8  F   UNL     1      -9.779  10.332  62.337  1.00  0.00    -0.300 F  
HETATM    9  C   UNL     1     -10.528  10.778  65.848  1.00  0.00    -0.204 A  
HETATM   10  C   UNL     1     -10.590  10.931  64.466  1.00  0.00    -0.335 A  
HETATM   11  C   UNL     1      -8.760   9.377  64.235  1.00  0.00    -0.224 A  
HETATM   12  C   UNL     1      -9.706  10.222  63.670  1.00  0.00    -0.213 A  
HETATM   13  F   UNL     1     -11.458  11.397  66.588  1.00  0.00    -0.362 F  
ENDROOT
BRANCH   6  14
HETATM   14  N   UNL     1     -10.507   8.327  69.775  1.00  0.00    -0.218 NA 
HETATM   15  N   UNL     1     -11.077   8.107  71.865  1.00  0.00    -0.266 NA 
HETATM   16  N   UNL     1      -9.455   7.687  70.323  1.00  0.00    -0.161 NA 
HETATM   17  C   UNL     1     -11.461   8.586  70.703  1.00  0.00    -0.228 A  
HETATM   18  C   UNL     1      -9.862   7.554  71.590  1.00  0.00    -0.161 A  
ENDBRANCH   6  14
BRANCH   5  19
HETATM   19  N   UNL     1      -8.951  12.199  68.448  1.00  0.00    -0.176 NA 
HETATM   20  C   UNL     1      -7.254  13.329  68.062  1.00  0.00    -0.121 A  
HETATM   21  C   UNL     1      -9.345  13.405  67.963  1.00  0.00    -0.217 A  
HETATM   22  N   UNL     1      -8.288  14.147  67.716  1.00  0.00    -0.160 NA 
HETATM   23  N   UNL     1      -7.607  12.114  68.491  1.00  0.00    -0.123 NA 
ENDBRANCH   5  19
TORSDOF 2
ENDMDL
MODEL       78
REMARK 921   NORMALIZED FREE ENERGY PREDICTED BY IDOCK:   -4.13 KCAL/MOL
REMARK 922        TOTAL FREE ENERGY PREDICTED BY IDOCK:   -5.44 KCAL/MOL
REMARK 923 INTER-LIGAND FREE ENERGY PREDICTED BY IDOCK:   -4.64 KCAL/MOL
REMARK 924 INTRA-LIGAND FREE ENERGY PREDICTED BY IDOCK:   -0.80 KCAL/MOL
REMARK 927      BINDING AFFINITY PREDICTED BY RF-SCORE:    0.00 PKD
ROOT
HETATM    1  O   UNL     1     -11.201   6.810  68.605  1.00  0.00    -0.498 OA 
HETATM    2  C   UNL     1     -10.198   7.390  69.474  1.00  0.00    -0.204 C  
HETATM    3  H   UNL     1     -12.000   6.684  69.103  1.00  0.00     0.000 HD 
HETATM    4  C   UNL     1      -9.893   6.356  70.564  1.00  0.00    -0.207 A  
HETATM    5  C   UNL     1     -10.748   8.750  69.981  1.00  0.00    -0.228 C  
HETATM    6  C   UNL     1      -8.891   7.597  68.660  1.00  0.00    -0.127 C  
HETATM    7  C   UNL     1     -10.126   4.984  70.338  1.00  0.00    -0.330 A  
HETATM    8  F   UNL     1      -8.983   3.519  73.455  1.00  0.00    -0.092 F  
HETATM    9  C   UNL     1      -9.323   6.715  71.797  1.00  0.00    -0.148 A  
HETATM   10  C   UNL     1      -9.040   5.775  72.784  1.00  0.00    -0.133 A  
HETATM   11  C   UNL     1      -9.816   4.030  71.311  1.00  0.00    -0.242 A  
HETATM   12  C   UNL     1      -9.285   4.436  72.528  1.00  0.00    -0.123 A  
HETATM   13  F   UNL     1      -8.985   7.990  72.032  1.00  0.00    -0.143 F  
ENDROOT
BRANCH   6  14
HETATM   14  N   UNL     1      -9.039   8.500  67.535  1.00  0.00    -0.134 NA 
HETATM   15  N   UNL     1      -8.831  10.189  66.177  1.00  0.00    -0.143 NA 
HETATM   16  N   UNL     1      -9.890   8.204  66.532  1.00  0.00    -0.249 NA 
HETATM   17  C   UNL     1      -8.424   9.690  67.322  1.00  0.00    -0.132 A  
HETATM   18  C   UNL     1      -9.708   9.251  65.719  1.00  0.00    -0.269 A  
ENDBRANCH   6  14
BRANCH   5  19
HETATM   19  N   UNL     1     -11.910   8.627  70.839  1.00  0.00    -0.264 NA 
HETATM   20  C   UNL     1     -13.703   7.918  71.605  1.00  0.00    -0.360 A  
HETATM   21  C   UNL     1     -12.184   9.310  71.981  1.00  0.00    -0.348 A  
HETATM   22  N   UNL     1     -13.321   8.886  72.486  1.00  0.00    -0.432 NA 
HETATM   23  N   UNL     1     -12.858   7.702  70.593  1.00  0.00     0.164 NA 
ENDBRANCH   5  19
TORSDOF 2
ENDMDL
MODEL       79
REMARK 921   NORMALIZED FREE ENERGY PREDICTED BY IDOCK:   -4.10 KCAL/MOL
REMARK 922        TOTAL FREE ENERGY PREDICTED BY IDOCK:   -5.40 KCAL/MOL
REMARK 923 INTER-LIGAND FREE ENERGY PREDICTED BY IDOCK:   -4.97 KCAL/MOL
REMARK 924 INTRA-LIGAND FREE ENERGY PREDICTED BY IDOCK:   -0.43 KCAL/MOL
REMARK 927      BINDING AFFINITY PREDICTED BY RF-SCORE:    0.00 PKD
ROOT
HETATM    1  O   UNL     1      -8.591   8.811  68.453  1.00  0.00    -0.132 OA 
HETATM    2  C   UNL     1      -9.932   8.380  68.789  1.00  0.00    -0.187 C  
HETATM    3  H   UNL     1      -8.140   8.096  68.019  1.00  0.00     0.000 HD 
HETATM    4  C   UNL     1      -9.797   7.244  69.810  1.00  0.00    -0.177 A  
HETATM    5  C   UNL     1     -10.648   8.003  67.465  1.00  0.00    -0.232 C  
HETATM    6  C   UNL     1     -10.670   9.549  69.498  1.00  0.00    -0.228 C  
HETATM    7  C   UNL     1      -8.647   7.136  70.617  1.00  0.00    -0.143 A  
HETATM    8  F   UNL     1      -9.445   4.243  72.658  1.00  0.00    -0.134 F  
HETATM    9  C   UNL     1     -10.823   6.309  70.027  1.00  0.00    -0.324 A  
HETATM   10  C   UNL     1     -10.703   5.282  70.959  1.00  0.00    -0.194 A  
HETATM   11  C   UNL     1      -8.531   6.127  71.578  1.00  0.00    -0.127 A  
HETATM   12  C   UNL     1      -9.556   5.205  71.732  1.00  0.00    -0.152 A  
HETATM   13  F   UNL     1     -11.981   6.419  69.364  1.00  0.00    -0.406 F  
ENDROOT
BRANCH   6  14
HETATM   14  N   UNL     1     -10.809  10.736  68.677  1.00  0.00    -0.203 NA 
HETATM   15  N   UNL     1     -10.387  12.532  67.520  1.00  0.00    -0.218 NA 
HETATM   16  N   UNL     1     -12.027  11.131  68.253  1.00  0.00    -0.619 NA 
HETATM   17  C   UNL     1      -9.842  11.585  68.248  1.00  0.00    -0.203 A  
HETATM   18  C   UNL     1     -11.713  12.214  67.532  1.00  0.00    -0.315 A  
ENDBRANCH   6  14
BRANCH   5  19
HETATM   19  N   UNL     1     -10.078   6.849  66.799  1.00  0.00    -0.205 NA 
HETATM   20  C   UNL     1      -8.692   5.635  65.844  1.00  0.00    -0.147 A  
HETATM   21  C   UNL     1     -10.647   5.632  66.597  1.00  0.00    -0.295 A  
HETATM   22  N   UNL     1      -9.793   4.842  65.985  1.00  0.00    -0.186 NA 
HETATM   23  N   UNL     1      -8.806   6.865  66.351  1.00  0.00    -0.140 NA 
ENDBRANCH   5  19
TORSDOF 2
ENDMDL
MODEL       80
REMARK 921   NORMALIZED FREE ENERGY PREDICTED BY IDOCK:   -4.06 KCAL/MOL
REMARK 922        TOTAL FREE ENERGY PREDICTED BY IDOCK:   -5.35 KCAL/MOL
REMARK 923 INTER-LIGAND FREE ENERGY PREDICTED BY IDOCK:   -4.87 KCAL/MOL
REMARK 924 INTRA-LIGAND FREE ENERGY PREDICTED BY IDOCK:   -0.48 KCAL/MOL
REMARK 927      BINDING AFFINITY PREDICTED BY RF-SCORE:    0.00 PKD
ROOT
HETATM    1  O   UNL     1     -11.038   9.975  68.412  1.00  0.00    -0.373 OA 
HETATM    2  C   UNL     1      -9.789   9.389  68.852  1.00  0.00    -0.171 C  
HETATM    3  H   UNL     1     -11.746   9.610  68.929  1.00  0.00     0.000 HD 
HETATM    4  C   UNL     1      -9.857   7.890  68.531  1.00  0.00    -0.186 A  
HETATM    5  C   UNL     1      -9.611   9.740  70.353  1.00  0.00    -0.163 C  
HETATM    6  C   UNL     1      -8.631   9.987  68.007  1.00  0.00    -0.121 C  
HETATM    7  C   UNL     1     -10.703   7.412  67.510  1.00  0.00    -0.310 A  
HETATM    8  F   UNL     1      -9.989   3.855  67.566  1.00  0.00    -0.224 F  
HETATM    9  C   UNL     1      -9.050   6.948  69.188  1.00  0.00    -0.136 A  
HETATM   10  C   UNL     1      -9.106   5.589  68.892  1.00  0.00    -0.133 A  
HETATM   11  C   UNL     1     -10.745   6.054  67.184  1.00  0.00    -0.409 A  
HETATM   12  C   UNL     1      -9.952   5.155  67.885  1.00  0.00    -0.152 A  
HETATM   13  F   UNL     1      -8.152   7.352  70.097  1.00  0.00    -0.118 F  
ENDROOT
BRANCH   6  14
HETATM   14  N   UNL     1      -8.486  11.423  68.146  1.00  0.00    -0.145 NA 
HETATM   15  N   UNL     1      -8.835  13.570  68.065  1.00  0.00    -0.174 NA 
HETATM   16  N   UNL     1      -7.386  11.943  68.726  1.00  0.00    -0.112 NA 
HETATM   17  C   UNL     1      -9.336  12.400  67.743  1.00  0.00    -0.196 A  
HETATM   18  C   UNL     1      -7.658  13.252  68.675  1.00  0.00    -0.094 A  
ENDBRANCH   6  14
BRANCH   5  19
HETATM   19  N   UNL     1     -10.597   9.127  71.219  1.00  0.00    -0.302 NA 
HETATM   20  C   UNL     1     -12.442   8.534  71.962  1.00  0.00    -0.363 A  
HETATM   21  C   UNL     1     -10.385   8.332  72.300  1.00  0.00    -0.316 A  
HETATM   22  N   UNL     1     -11.539   7.947  72.798  1.00  0.00    -0.376 NA 
HETATM   23  N   UNL     1     -11.915   9.246  70.962  1.00  0.00    -0.299 NA 
ENDBRANCH   5  19
TORSDOF 2
ENDMDL
MODEL       81
REMARK 921   NORMALIZED FREE ENERGY PREDICTED BY IDOCK:   -4.03 KCAL/MOL
REMARK 922        TOTAL FREE ENERGY PREDICTED BY IDOCK:   -5.32 KCAL/MOL
REMARK 923 INTER-LIGAND FREE ENERGY PREDICTED BY IDOCK:   -5.31 KCAL/MOL
REMARK 924 INTRA-LIGAND FREE ENERGY PREDICTED BY IDOCK:   -0.01 KCAL/MOL
REMARK 927      BINDING AFFINITY PREDICTED BY RF-SCORE:    0.00 PKD
ROOT
HETATM    1  O   UNL     1      -8.847   7.501  69.664  1.00  0.00    -0.140 OA 
HETATM    2  C   UNL     1      -9.943   7.001  70.468  1.00  0.00    -0.183 C  
HETATM    3  H   UNL     1      -8.336   8.107  70.187  1.00  0.00     0.000 HD 
HETATM    4  C   UNL     1     -10.849   8.196  70.789  1.00  0.00    -0.247 A  
HETATM    5  C   UNL     1      -9.330   6.281  71.698  1.00  0.00    -0.147 C  
HETATM    6  C   UNL     1     -10.779   6.009  69.611  1.00  0.00    -0.335 C  
HETATM    7  C   UNL     1     -10.861   9.333  69.955  1.00  0.00    -0.264 A  
HETATM    8  F   UNL     1     -13.363  11.406  71.570  1.00  0.00    -0.457 F  
HETATM    9  C   UNL     1     -11.736   8.190  71.877  1.00  0.00    -0.310 A  
HETATM   10  C   UNL     1     -12.563   9.272  72.164  1.00  0.00    -0.443 A  
HETATM   11  C   UNL     1     -11.710  10.412  70.218  1.00  0.00    -0.406 A  
HETATM   12  C   UNL     1     -12.545  10.374  71.325  1.00  0.00    -0.419 A  
HETATM   13  F   UNL     1     -11.845   7.099  72.647  1.00  0.00    -0.276 F  
ENDROOT
BRANCH   6  14
HETATM   14  N   UNL     1     -10.032   4.851  69.162  1.00  0.00    -0.193 NA 
HETATM   15  N   UNL     1      -9.056   2.907  69.071  1.00  0.00    -0.130 NA 
HETATM   16  N   UNL     1      -9.493   4.826  67.926  1.00  0.00    -0.137 NA 
HETATM   17  C   UNL     1      -9.753   3.710  69.841  1.00  0.00    -0.096 A  
HETATM   18  C   UNL     1      -8.932   3.612  67.911  1.00  0.00    -0.131 A  
ENDBRANCH   6  14
BRANCH   5  19
HETATM   19  N   UNL     1      -8.623   7.166  72.602  1.00  0.00    -0.117 NA 
HETATM   20  C   UNL     1      -7.919   7.991  74.371  1.00  0.00    -0.248 A  
HETATM   21  C   UNL     1      -7.758   8.165  72.290  1.00  0.00    -0.120 A  
HETATM   22  N   UNL     1      -7.301   8.713  73.393  1.00  0.00    -0.363 NA 
HETATM   23  N   UNL     1      -8.719   7.012  73.938  1.00  0.00    -0.148 NA 
ENDBRANCH   5  19
TORSDOF 2
ENDMDL
MODEL       82
REMARK 921   NORMALIZED FREE ENERGY PREDICTED BY IDOCK:   -4.00 KCAL/MOL
REMARK 922        TOTAL FREE ENERGY PREDICTED BY IDOCK:   -5.28 KCAL/MOL
REMARK 923 INTER-LIGAND FREE ENERGY PREDICTED BY IDOCK:   -4.90 KCAL/MOL
REMARK 924 INTRA-LIGAND FREE ENERGY PREDICTED BY IDOCK:   -0.39 KCAL/MOL
REMARK 927      BINDING AFFINITY PREDICTED BY RF-SCORE:    0.00 PKD
ROOT
HETATM    1  O   UNL     1      -8.546   9.678  70.454  1.00  0.00    -0.207 OA 
HETATM    2  C   UNL     1      -8.969   8.385  70.951  1.00  0.00    -0.160 C  
HETATM    3  H   UNL     1      -9.310  10.154  70.153  1.00  0.00     0.000 HD 
HETATM    4  C   UNL     1      -9.544   7.611  69.759  1.00  0.00    -0.163 A  
HETATM    5  C   UNL     1      -9.956   8.633  72.122  1.00  0.00    -0.316 C  
HETATM    6  C   UNL     1      -7.718   7.605  71.444  1.00  0.00    -0.081 C  
HETATM    7  C   UNL     1      -9.152   7.924  68.442  1.00  0.00    -0.135 A  
HETATM    8  F   UNL     1     -11.002   5.468  66.516  1.00  0.00    -0.324 F  
HETATM    9  C   UNL     1     -10.429   6.532  69.925  1.00  0.00    -0.213 A  
HETATM   10  C   UNL     1     -10.946   5.825  68.843  1.00  0.00    -0.250 A  
HETATM   11  C   UNL     1      -9.642   7.200  67.351  1.00  0.00    -0.168 A  
HETATM   12  C   UNL     1     -10.541   6.164  67.562  1.00  0.00    -0.273 A  
HETATM   13  F   UNL     1     -10.760   6.121  71.156  1.00  0.00    -0.257 F  
ENDROOT
BRANCH   6  14
HETATM   14  N   UNL     1      -7.014   8.256  72.531  1.00  0.00    -0.091 NA 
HETATM   15  N   UNL     1      -5.703   9.561  73.680  1.00  0.00    -0.316 NA 
HETATM   16  N   UNL     1      -7.230   7.876  73.806  1.00  0.00    -0.124 NA 
HETATM   17  C   UNL     1      -6.092   9.249  72.465  1.00  0.00     0.159 A  
HETATM   18  C   UNL     1      -6.428   8.718  74.468  1.00  0.00    -0.112 A  
ENDBRANCH   6  14
BRANCH   5  19
HETATM   19  N   UNL     1     -11.197   9.264  71.718  1.00  0.00    -0.374 NA 
HETATM   20  C   UNL     1     -12.512  10.515  70.713  1.00  0.00    -0.378 A  
HETATM   21  C   UNL     1     -12.461   8.948  72.102  1.00  0.00    -0.389 A  
HETATM   22  N   UNL     1     -13.317   9.732  71.486  1.00  0.00    -0.390 NA 
HETATM   23  N   UNL     1     -11.205  10.249  70.798  1.00  0.00    -0.334 NA 
ENDBRANCH   5  19
TORSDOF 2
ENDMDL
MODEL       83
REMARK 921   NORMALIZED FREE ENERGY PREDICTED BY IDOCK:   -3.95 KCAL/MOL
REMARK 922        TOTAL FREE ENERGY PREDICTED BY IDOCK:   -5.23 KCAL/MOL
REMARK 923 INTER-LIGAND FREE ENERGY PREDICTED BY IDOCK:   -4.53 KCAL/MOL
REMARK 924 INTRA-LIGAND FREE ENERGY PREDICTED BY IDOCK:   -0.70 KCAL/MOL
REMARK 927      BINDING AFFINITY PREDICTED BY RF-SCORE:    0.00 PKD
ROOT
HETATM    1  O   UNL     1      -8.906  13.641  68.982  1.00  0.00    -0.369 OA 
HETATM    2  C   UNL     1      -9.206  12.590  68.032  1.00  0.00    -0.204 C  
HETATM    3  H   UNL     1      -9.699  13.857  69.460  1.00  0.00     0.000 HD 
HETATM    4  C   UNL     1     -10.201  13.169  67.019  1.00  0.00    -0.250 A  
HETATM    5  C   UNL     1      -9.713  11.363  68.836  1.00  0.00    -0.090 C  
HETATM    6  C   UNL     1      -7.910  12.238  67.252  1.00  0.00    -0.171 C  
HETATM    7  C   UNL     1     -10.270  14.559  66.793  1.00  0.00    -0.266 A  
HETATM    8  F   UNL     1     -12.809  14.762  64.209  1.00  0.00    -0.375 F  
HETATM    9  C   UNL     1     -11.035  12.351  66.239  1.00  0.00    -0.286 A  
HETATM   10  C   UNL     1     -11.933  12.876  65.314  1.00  0.00    -0.459 A  
HETATM   11  C   UNL     1     -11.146  15.094  65.845  1.00  0.00    -0.319 A  
HETATM   12  C   UNL     1     -11.976  14.247  65.122  1.00  0.00    -0.395 A  
HETATM   13  F   UNL     1     -10.944  11.018  66.334  1.00  0.00    -0.315 F  
ENDROOT
BRANCH   6  14
HETATM   14  N   UNL     1      -6.837  11.743  68.093  1.00  0.00    -0.063 NA 
HETATM   15  N   UNL     1      -5.314  10.480  69.001  1.00  0.00    -0.042 NA 
HETATM   16  N   UNL     1      -6.302  12.531  69.047  1.00  0.00    -0.086 NA 
HETATM   17  C   UNL     1      -6.252  10.519  68.082  1.00  0.00    -0.050 A  
HETATM   18  C   UNL     1      -5.363  11.725  69.554  1.00  0.00    -0.063 A  
ENDBRANCH   6  14
BRANCH   5  19
HETATM   19  N   UNL     1     -10.978  11.585  69.507  1.00  0.00    -0.177 NA 
HETATM   20  C   UNL     1     -12.535  12.574  70.457  1.00  0.00    -0.185 A  
HETATM   21  C   UNL     1     -11.976  10.691  69.730  1.00  0.00    -0.291 A  
HETATM   22  N   UNL     1     -12.975  11.289  70.339  1.00  0.00    -0.024 NA 
HETATM   23  N   UNL     1     -11.328  12.813  69.937  1.00  0.00    -0.051 NA 
ENDBRANCH   5  19
TORSDOF 2
ENDMDL
MODEL       84
REMARK 921   NORMALIZED FREE ENERGY PREDICTED BY IDOCK:   -3.93 KCAL/MOL
REMARK 922        TOTAL FREE ENERGY PREDICTED BY IDOCK:   -5.21 KCAL/MOL
REMARK 923 INTER-LIGAND FREE ENERGY PREDICTED BY IDOCK:   -5.61 KCAL/MOL
REMARK 924 INTRA-LIGAND FREE ENERGY PREDICTED BY IDOCK:    0.40 KCAL/MOL
REMARK 927      BINDING AFFINITY PREDICTED BY RF-SCORE:    0.00 PKD
ROOT
HETATM    1  O   UNL     1     -11.524  10.142  67.368  1.00  0.00    -0.455 OA 
HETATM    2  C   UNL     1     -10.260  10.815  67.584  1.00  0.00    -0.189 C  
HETATM    3  H   UNL     1     -11.728  10.164  66.441  1.00  0.00     0.000 HD 
HETATM    4  C   UNL     1     -10.462  12.286  67.199  1.00  0.00    -0.238 A  
HETATM    5  C   UNL     1      -9.181  10.056  66.767  1.00  0.00    -0.148 C  
HETATM    6  C   UNL     1      -9.927  10.779  69.101  1.00  0.00    -0.187 C  
HETATM    7  C   UNL     1     -11.746  12.867  67.229  1.00  0.00    -0.431 A  
HETATM    8  F   UNL     1     -11.031  16.291  66.265  1.00  0.00    -0.274 F  
HETATM    9  C   UNL     1      -9.387  13.125  66.862  1.00  0.00    -0.246 A  
HETATM   10  C   UNL     1      -9.570  14.461  66.520  1.00  0.00    -0.310 A  
HETATM   11  C   UNL     1     -11.936  14.216  66.918  1.00  0.00    -0.479 A  
HETATM   12  C   UNL     1     -10.847  14.997  66.557  1.00  0.00    -0.320 A  
HETATM   13  F   UNL     1      -8.132  12.658  66.913  1.00  0.00    -0.169 F  
ENDROOT
BRANCH   6  14
HETATM   14  N   UNL     1      -9.779   9.440  69.636  1.00  0.00    -0.179 NA 
HETATM   15  N   UNL     1      -8.943   7.588  70.419  1.00  0.00    -0.152 NA 
HETATM   16  N   UNL     1     -10.866   8.672  69.856  1.00  0.00    -0.231 NA 
HETATM   17  C   UNL     1      -8.639   8.780  69.960  1.00  0.00    -0.136 A  
HETATM   18  C   UNL     1     -10.305   7.565  70.356  1.00  0.00    -0.214 A  
ENDBRANCH   6  14
BRANCH   5  19
HETATM   19  N   UNL     1      -9.368  10.137  65.333  1.00  0.00    -0.196 NA 
HETATM   20  C   UNL     1      -9.150   9.724  63.310  1.00  0.00    -0.237 A  
HETATM   21  C   UNL     1     -10.261  10.896  64.645  1.00  0.00    -0.345 A  
HETATM   22  N   UNL     1     -10.140  10.661  63.358  1.00  0.00    -0.278 NA 
HETATM   23  N   UNL     1      -8.663   9.349  64.496  1.00  0.00    -0.198 NA 
ENDBRANCH   5  19
TORSDOF 2
ENDMDL
MODEL       85
REMARK 921   NORMALIZED FREE ENERGY PREDICTED BY IDOCK:   -3.84 KCAL/MOL
REMARK 922        TOTAL FREE ENERGY PREDICTED BY IDOCK:   -5.11 KCAL/MOL
REMARK 923 INTER-LIGAND FREE ENERGY PREDICTED BY IDOCK:   -4.26 KCAL/MOL
REMARK 924 INTRA-LIGAND FREE ENERGY PREDICTED BY IDOCK:   -0.85 KCAL/MOL
REMARK 927      BINDING AFFINITY PREDICTED BY RF-SCORE:    0.00 PKD
ROOT
HETATM    1  O   UNL     1      -7.525   8.645  69.602  1.00  0.00    -0.065 OA 
HETATM    2  C   UNL     1      -8.774   8.053  70.036  1.00  0.00    -0.135 C  
HETATM    3  H   UNL     1      -7.705   9.251  68.893  1.00  0.00     0.000 HD 
HETATM    4  C   UNL     1      -9.313   7.227  68.861  1.00  0.00    -0.144 A  
HETATM    5  C   UNL     1      -9.695   9.205  70.518  1.00  0.00    -0.236 C  
HETATM    6  C   UNL     1      -8.480   7.062  71.196  1.00  0.00    -0.119 C  
HETATM    7  C   UNL     1      -8.440   6.732  67.871  1.00  0.00    -0.119 A  
HETATM    8  F   UNL     1     -10.722   4.901  65.725  1.00  0.00    -0.291 F  
HETATM    9  C   UNL     1     -10.669   6.881  68.751  1.00  0.00    -0.219 A  
HETATM   10  C   UNL     1     -11.157   6.126  67.689  1.00  0.00    -0.311 A  
HETATM   11  C   UNL     1      -8.916   5.947  66.817  1.00  0.00    -0.120 A  
HETATM   12  C   UNL     1     -10.271   5.660  66.732  1.00  0.00    -0.230 A  
HETATM   13  F   UNL     1     -11.531   7.236  69.714  1.00  0.00    -0.237 F  
ENDROOT
BRANCH   6  14
HETATM   14  N   UNL     1      -7.890   7.688  72.364  1.00  0.00    -0.097 NA 
HETATM   15  N   UNL     1      -7.605   8.599  74.321  1.00  0.00    -0.415 NA 
HETATM   16  N   UNL     1      -6.571   7.965  72.394  1.00  0.00    -0.063 NA 
HETATM   17  C   UNL     1      -8.500   8.082  73.510  1.00  0.00    -0.245 A  
HETATM   18  C   UNL     1      -6.444   8.495  73.615  1.00  0.00    -0.090 A  
ENDBRANCH   6  14
BRANCH   5  19
HETATM   19  N   UNL     1     -10.099  10.112  69.463  1.00  0.00    -0.224 NA 
HETATM   20  C   UNL     1      -9.971  11.382  67.827  1.00  0.00    -0.178 A  
HETATM   21  C   UNL     1     -11.358  10.481  69.111  1.00  0.00    -0.257 A  
HETATM   22  N   UNL     1     -11.308  11.294  68.080  1.00  0.00    -0.294 NA 
HETATM   23  N   UNL     1      -9.189  10.654  68.629  1.00  0.00    -0.172 NA 
ENDBRANCH   5  19
TORSDOF 2
ENDMDL
MODEL       86
REMARK 921   NORMALIZED FREE ENERGY PREDICTED BY IDOCK:   -3.81 KCAL/MOL
REMARK 922        TOTAL FREE ENERGY PREDICTED BY IDOCK:   -5.08 KCAL/MOL
REMARK 923 INTER-LIGAND FREE ENERGY PREDICTED BY IDOCK:   -4.70 KCAL/MOL
REMARK 924 INTRA-LIGAND FREE ENERGY PREDICTED BY IDOCK:   -0.37 KCAL/MOL
REMARK 927      BINDING AFFINITY PREDICTED BY RF-SCORE:    0.00 PKD
ROOT
HETATM    1  O   UNL     1     -11.078   7.366  67.402  1.00  0.00    -0.544 OA 
HETATM    2  C   UNL     1      -9.851   7.563  68.145  1.00  0.00    -0.159 C  
HETATM    3  H   UNL     1     -11.636   8.125  67.527  1.00  0.00     0.000 HD 
HETATM    4  C   UNL     1     -10.227   7.609  69.632  1.00  0.00    -0.204 A  
HETATM    5  C   UNL     1      -9.168   8.842  67.592  1.00  0.00    -0.134 C  
HETATM    6  C   UNL     1      -8.939   6.322  67.942  1.00  0.00    -0.113 C  
HETATM    7  C   UNL     1     -11.407   6.991  70.094  1.00  0.00    -0.321 A  
HETATM    8  F   UNL     1     -11.223   7.625  73.662  1.00  0.00    -0.359 F  
HETATM    9  C   UNL     1      -9.398   8.208  70.594  1.00  0.00    -0.154 A  
HETATM   10  C   UNL     1      -9.736   8.244  71.944  1.00  0.00    -0.299 A  
HETATM   11  C   UNL     1     -11.739   6.995  71.451  1.00  0.00    -0.344 A  
HETATM   12  C   UNL     1     -10.905   7.629  72.361  1.00  0.00    -0.289 A  
HETATM   13  F   UNL     1      -8.215   8.723  70.232  1.00  0.00    -0.090 F  
ENDROOT
BRANCH   6  14
HETATM   14  N   UNL     1      -8.556   6.098  66.561  1.00  0.00    -0.122 NA 
HETATM   15  N   UNL     1      -8.486   5.375  64.508  1.00  0.00    -0.137 NA 
HETATM   16  N   UNL     1      -7.484   6.729  66.041  1.00  0.00    -0.079 NA 
HETATM   17  C   UNL     1      -9.137   5.283  65.645  1.00  0.00    -0.153 A  
HETATM   18  C   UNL     1      -7.499   6.275  64.783  1.00  0.00    -0.086 A  
ENDBRANCH   6  14
BRANCH   5  19
HETATM   19  N   UNL     1      -9.914  10.058  67.841  1.00  0.00    -0.150 NA 
HETATM   20  C   UNL     1     -11.519  11.363  68.008  1.00  0.00    -0.307 A  
HETATM   21  C   UNL     1      -9.455  11.235  68.341  1.00  0.00    -0.192 A  
HETATM   22  N   UNL     1     -10.451  12.086  68.451  1.00  0.00    -0.213 NA 
HETATM   23  N   UNL     1     -11.248  10.105  67.649  1.00  0.00    -0.254 NA 
ENDBRANCH   5  19
TORSDOF 2
ENDMDL
MODEL       87
REMARK 921   NORMALIZED FREE ENERGY PREDICTED BY IDOCK:   -3.80 KCAL/MOL
REMARK 922        TOTAL FREE ENERGY PREDICTED BY IDOCK:   -5.07 KCAL/MOL
REMARK 923 INTER-LIGAND FREE ENERGY PREDICTED BY IDOCK:   -5.55 KCAL/MOL
REMARK 924 INTRA-LIGAND FREE ENERGY PREDICTED BY IDOCK:    0.48 KCAL/MOL
REMARK 927      BINDING AFFINITY PREDICTED BY RF-SCORE:    0.00 PKD
ROOT
HETATM    1  O   UNL     1     -10.930  13.300  67.907  1.00  0.00    -0.238 OA 
HETATM    2  C   UNL     1      -9.743  13.936  67.374  1.00  0.00    -0.234 C  
HETATM    3  H   UNL     1     -11.694  13.671  67.480  1.00  0.00     0.000 HD 
HETATM    4  C   UNL     1      -9.809  15.416  67.773  1.00  0.00    -0.220 A  
HETATM    5  C   UNL     1      -9.708  13.659  65.848  1.00  0.00    -0.187 C  
HETATM    6  C   UNL     1      -8.495  13.328  68.072  1.00  0.00    -0.170 C  
HETATM    7  C   UNL     1     -10.558  15.826  68.894  1.00  0.00    -0.233 A  
HETATM    8  F   UNL     1      -9.923  19.398  68.941  1.00  0.00    -0.439 F  
HETATM    9  C   UNL     1      -9.089  16.407  67.086  1.00  0.00    -0.205 A  
HETATM   10  C   UNL     1      -9.143  17.749  67.452  1.00  0.00    -0.244 A  
HETATM   11  C   UNL     1     -10.593  17.166  69.288  1.00  0.00    -0.220 A  
HETATM   12  C   UNL     1      -9.893  18.115  68.557  1.00  0.00    -0.382 A  
HETATM   13  F   UNL     1      -8.279  16.067  66.074  1.00  0.00    -0.325 F  
ENDROOT
BRANCH   6  14
HETATM   14  N   UNL     1      -8.336  11.904  67.850  1.00  0.00    -0.143 NA 
HETATM   15  N   UNL     1      -8.393   9.740  68.079  1.00  0.00    -0.110 NA 
HETATM   16  N   UNL     1      -7.732  11.453  66.732  1.00  0.00    -0.154 NA 
HETATM   17  C   UNL     1      -8.713  10.878  68.652  1.00  0.00    -0.154 A  
HETATM   18  C   UNL     1      -7.814  10.129  66.908  1.00  0.00    -0.107 A  
ENDBRANCH   6  14
BRANCH   5  19
HETATM   19  N   UNL     1     -10.788  14.288  65.114  1.00  0.00    -0.353 NA 
HETATM   20  C   UNL     1     -11.844  15.712  64.036  1.00  0.00     0.068 A  
HETATM   21  C   UNL     1     -11.973  13.742  64.735  1.00  0.00    -0.404 A  
HETATM   22  N   UNL     1     -12.669  14.626  64.056  1.00  0.00    -0.728 NA 
HETATM   23  N   UNL     1     -10.668  15.547  64.647  1.00  0.00    -0.366 NA 
ENDBRANCH   5  19
TORSDOF 2
ENDMDL
MODEL       88
REMARK 921   NORMALIZED FREE ENERGY PREDICTED BY IDOCK:   -3.76 KCAL/MOL
REMARK 922        TOTAL FREE ENERGY PREDICTED BY IDOCK:   -5.03 KCAL/MOL
REMARK 923 INTER-LIGAND FREE ENERGY PREDICTED BY IDOCK:   -4.65 KCAL/MOL
REMARK 924 INTRA-LIGAND FREE ENERGY PREDICTED BY IDOCK:   -0.37 KCAL/MOL
REMARK 927      BINDING AFFINITY PREDICTED BY RF-SCORE:    0.00 PKD
ROOT
HETATM    1  O   UNL     1     -11.107   8.606  67.874  1.00  0.00    -0.481 OA 
HETATM    2  C   UNL     1     -10.177   9.269  68.765  1.00  0.00    -0.205 C  
HETATM    3  H   UNL     1     -11.469   7.849  68.318  1.00  0.00     0.000 HD 
HETATM    4  C   UNL     1      -9.020   8.294  69.014  1.00  0.00    -0.147 A  
HETATM    5  C   UNL     1     -10.967   9.701  70.029  1.00  0.00    -0.260 C  
HETATM    6  C   UNL     1      -9.585  10.508  68.038  1.00  0.00    -0.148 C  
HETATM    7  C   UNL     1      -8.722   7.279  68.082  1.00  0.00    -0.128 A  
HETATM    8  F   UNL     1      -5.830   5.704  69.606  1.00  0.00    -0.016 F  
HETATM    9  C   UNL     1      -8.180   8.402  70.135  1.00  0.00    -0.117 A  
HETATM   10  C   UNL     1      -7.125   7.522  70.357  1.00  0.00    -0.059 A  
HETATM   11  C   UNL     1      -7.646   6.410  68.281  1.00  0.00    -0.103 A  
HETATM   12  C   UNL     1      -6.864   6.534  69.422  1.00  0.00    -0.065 A  
HETATM   13  F   UNL     1      -8.349   9.407  71.004  1.00  0.00    -0.212 F  
ENDROOT
BRANCH   6  14
HETATM   14  N   UNL     1     -10.577  11.497  67.664  1.00  0.00    -0.191 NA 
HETATM   15  N   UNL     1     -11.935  13.199  67.686  1.00  0.00    -0.346 NA 
HETATM   16  N   UNL     1     -11.175  11.438  66.457  1.00  0.00    -0.305 NA 
HETATM   17  C   UNL     1     -11.047  12.539  68.394  1.00  0.00    -0.258 A  
HETATM   18  C   UNL     1     -11.974  12.510  66.510  1.00  0.00    -0.296 A  
ENDBRANCH   6  14
BRANCH   5  19
HETATM   19  N   UNL     1     -11.461   8.591  70.818  1.00  0.00    -0.268 NA 
HETATM   20  C   UNL     1     -12.062   6.669  71.321  1.00  0.00    -0.341 A  
HETATM   21  C   UNL     1     -11.742   8.567  72.147  1.00  0.00    -0.378 A  
HETATM   22  N   UNL     1     -12.134   7.361  72.493  1.00  0.00    -0.143 NA 
HETATM   23  N   UNL     1     -11.628   7.371  70.270  1.00  0.00    -0.186 NA 
ENDBRANCH   5  19
TORSDOF 2
ENDMDL
MODEL       89
REMARK 921   NORMALIZED FREE ENERGY PREDICTED BY IDOCK:   -3.73 KCAL/MOL
REMARK 922        TOTAL FREE ENERGY PREDICTED BY IDOCK:   -4.98 KCAL/MOL
REMARK 923 INTER-LIGAND FREE ENERGY PREDICTED BY IDOCK:   -5.08 KCAL/MOL
REMARK 924 INTRA-LIGAND FREE ENERGY PREDICTED BY IDOCK:    0.10 KCAL/MOL
REMARK 927      BINDING AFFINITY PREDICTED BY RF-SCORE:    0.00 PKD
ROOT
HETATM    1  O   UNL     1     -11.510   9.988  66.865  1.00  0.00    -0.018 OA 
HETATM    2  C   UNL     1     -10.501  10.972  67.198  1.00  0.00    -0.232 C  
HETATM    3  H   UNL     1     -11.916   9.683  67.668  1.00  0.00     0.000 HD 
HETATM    4  C   UNL     1      -9.416  10.249  68.006  1.00  0.00    -0.156 A  
HETATM    5  C   UNL     1     -11.210  12.141  67.932  1.00  0.00    -0.272 C  
HETATM    6  C   UNL     1      -9.837  11.471  65.884  1.00  0.00    -0.231 C  
HETATM    7  C   UNL     1      -9.232   8.857  67.877  1.00  0.00    -0.148 A  
HETATM    8  F   UNL     1      -6.423   8.275  70.099  1.00  0.00    -0.035 F  
HETATM    9  C   UNL     1      -8.532  10.936  68.853  1.00  0.00    -0.141 A  
HETATM   10  C   UNL     1      -7.543  10.281  69.581  1.00  0.00    -0.167 A  
HETATM   11  C   UNL     1      -8.222   8.194  68.580  1.00  0.00    -0.125 A  
HETATM   12  C   UNL     1      -7.394   8.912  69.432  1.00  0.00    -0.075 A  
HETATM   13  F   UNL     1      -8.591  12.272  68.941  1.00  0.00    -0.071 F  
ENDROOT
BRANCH   6  14
HETATM   14  N   UNL     1     -10.761  12.117  64.972  1.00  0.00    -0.286 NA 
HETATM   15  N   UNL     1     -12.064  12.544  63.280  1.00  0.00    -0.495 NA 
HETATM   16  N   UNL     1     -11.235  13.349  65.243  1.00  0.00    -0.287 NA 
HETATM   17  C   UNL     1     -11.248  11.652  63.794  1.00  0.00    -0.414 A  
HETATM   18  C   UNL     1     -12.043  13.554  64.196  1.00  0.00    -0.435 A  
ENDBRANCH   6  14
BRANCH   5  19
HETATM   19  N   UNL     1     -11.762  11.773  69.221  1.00  0.00    -0.309 NA 
HETATM   20  C   UNL     1     -12.462  10.594  70.778  1.00  0.00    -0.385 A  
HETATM   21  C   UNL     1     -12.050  12.584  70.271  1.00  0.00    -0.294 A  
HETATM   22  N   UNL     1     -12.504  11.864  71.273  1.00  0.00    -0.274 NA 
HETATM   23  N   UNL     1     -11.989  10.481  69.534  1.00  0.00    -0.230 NA 
ENDBRANCH   5  19
TORSDOF 2
ENDMDL
MODEL       90
REMARK 921   NORMALIZED FREE ENERGY PREDICTED BY IDOCK:   -3.56 KCAL/MOL
REMARK 922        TOTAL FREE ENERGY PREDICTED BY IDOCK:   -4.80 KCAL/MOL
REMARK 923 INTER-LIGAND FREE ENERGY PREDICTED BY IDOCK:   -4.44 KCAL/MOL
REMARK 924 INTRA-LIGAND FREE ENERGY PREDICTED BY IDOCK:   -0.36 KCAL/MOL
REMARK 927      BINDING AFFINITY PREDICTED BY RF-SCORE:    0.00 PKD
ROOT
HETATM    1  O   UNL     1      -7.926  12.291  67.544  1.00  0.00    -0.145 OA 
HETATM    2  C   UNL     1      -9.315  11.887  67.466  1.00  0.00    -0.177 C  
HETATM    3  H   UNL     1      -7.387  11.609  67.162  1.00  0.00     0.000 HD 
HETATM    4  C   UNL     1      -9.471  10.640  68.346  1.00  0.00    -0.165 A  
HETATM    5  C   UNL     1      -9.662  11.691  65.967  1.00  0.00    -0.232 C  
HETATM    6  C   UNL     1     -10.196  13.003  68.092  1.00  0.00    -0.239 C  
HETATM    7  C   UNL     1      -8.575  10.392  69.406  1.00  0.00    -0.143 A  
HETATM    8  F   UNL     1      -9.926   7.331  70.811  1.00  0.00    -0.184 F  
HETATM    9  C   UNL     1     -10.530   9.734  68.177  1.00  0.00    -0.216 A  
HETATM   10  C   UNL     1     -10.676   8.607  68.980  1.00  0.00    -0.122 A  
HETATM   11  C   UNL     1      -8.731   9.279  70.237  1.00  0.00    -0.246 A  
HETATM   12  C   UNL     1      -9.775   8.393  70.009  1.00  0.00    -0.176 A  
HETATM   13  F   UNL     1     -11.472   9.969  67.253  1.00  0.00    -0.257 F  
ENDROOT
BRANCH   6  14
HETATM   14  N   UNL     1     -10.096  14.279  67.410  1.00  0.00    -0.245 NA 
HETATM   15  N   UNL     1     -10.494  16.295  66.692  1.00  0.00    -0.302 NA 
HETATM   16  N   UNL     1      -9.051  14.536  66.597  1.00  0.00    -0.263 NA 
HETATM   17  C   UNL     1     -10.956  15.327  67.449  1.00  0.00    -0.321 A  
HETATM   18  C   UNL     1      -9.327  15.785  66.205  1.00  0.00    -0.325 A  
ENDBRANCH   6  14
BRANCH   5  19
HETATM   19  N   UNL     1      -8.953  10.593  65.341  1.00  0.00    -0.183 NA 
HETATM   20  C   UNL     1      -7.386   9.373  64.738  1.00  0.00    -0.107 A  
HETATM   21  C   UNL     1      -9.476   9.511  64.707  1.00  0.00    -0.108 A  
HETATM   22  N   UNL     1      -8.504   8.722  64.306  1.00  0.00    -0.150 NA 
HETATM   23  N   UNL     1      -7.609  10.511  65.402  1.00  0.00    -0.131 NA 
ENDBRANCH   5  19
TORSDOF 2
ENDMDL
MODEL       91
REMARK 921   NORMALIZED FREE ENERGY PREDICTED BY IDOCK:   -3.46 KCAL/MOL
REMARK 922        TOTAL FREE ENERGY PREDICTED BY IDOCK:   -4.69 KCAL/MOL
REMARK 923 INTER-LIGAND FREE ENERGY PREDICTED BY IDOCK:   -3.78 KCAL/MOL
REMARK 924 INTRA-LIGAND FREE ENERGY PREDICTED BY IDOCK:   -0.91 KCAL/MOL
REMARK 927      BINDING AFFINITY PREDICTED BY RF-SCORE:    0.00 PKD
ROOT
HETATM    1  O   UNL     1      -7.559   8.738  68.842  1.00  0.00    -0.088 OA 
HETATM    2  C   UNL     1      -8.831   8.264  68.338  1.00  0.00    -0.137 C  
HETATM    3  H   UNL     1      -7.184   8.069  69.404  1.00  0.00     0.000 HD 
HETATM    4  C   UNL     1      -9.765   8.111  69.545  1.00  0.00    -0.170 A  
HETATM    5  C   UNL     1      -8.561   6.963  67.536  1.00  0.00    -0.121 C  
HETATM    6  C   UNL     1      -9.443   9.358  67.420  1.00  0.00    -0.131 C  
HETATM    7  C   UNL     1      -9.545   8.854  70.722  1.00  0.00    -0.283 A  
HETATM    8  F   UNL     1     -12.333   7.800  72.792  1.00  0.00    -0.236 F  
HETATM    9  C   UNL     1     -10.898   7.282  69.512  1.00  0.00    -0.209 A  
HETATM   10  C   UNL     1     -11.750   7.149  70.605  1.00  0.00    -0.348 A  
HETATM   11  C   UNL     1     -10.412   8.751  71.813  1.00  0.00    -0.417 A  
HETATM   12  C   UNL     1     -11.500   7.892  71.747  1.00  0.00    -0.269 A  
HETATM   13  F   UNL     1     -11.218   6.628  68.387  1.00  0.00    -0.288 F  
ENDROOT
BRANCH   6  14
HETATM   14  N   UNL     1      -8.629   9.672  66.262  1.00  0.00    -0.126 NA 
HETATM   15  N   UNL     1      -7.941   9.982  64.219  1.00  0.00    -0.148 NA 
HETATM   16  N   UNL     1      -7.351  10.075  66.417  1.00  0.00    -0.100 NA 
HETATM   17  C   UNL     1      -8.965   9.606  64.949  1.00  0.00    -0.217 A  
HETATM   18  C   UNL     1      -6.985  10.276  65.146  1.00  0.00    -0.122 A  
ENDBRANCH   6  14
BRANCH   5  19
HETATM   19  N   UNL     1      -8.088   5.861  68.350  1.00  0.00    -0.108 NA 
HETATM   20  C   UNL     1      -6.956   4.799  69.727  1.00  0.00    -0.053 A  
HETATM   21  C   UNL     1      -8.625   4.620  68.474  1.00  0.00    -0.097 A  
HETATM   22  N   UNL     1      -7.923   3.920  69.336  1.00  0.00    -0.055 NA 
HETATM   23  N   UNL     1      -7.030   6.012  69.172  1.00  0.00    -0.062 NA 
ENDBRANCH   5  19
TORSDOF 2
ENDMDL
MODEL       92
REMARK 921   NORMALIZED FREE ENERGY PREDICTED BY IDOCK:   -3.46 KCAL/MOL
REMARK 922        TOTAL FREE ENERGY PREDICTED BY IDOCK:   -4.69 KCAL/MOL
REMARK 923 INTER-LIGAND FREE ENERGY PREDICTED BY IDOCK:   -5.15 KCAL/MOL
REMARK 924 INTRA-LIGAND FREE ENERGY PREDICTED BY IDOCK:    0.47 KCAL/MOL
REMARK 927      BINDING AFFINITY PREDICTED BY RF-SCORE:    0.00 PKD
ROOT
HETATM    1  O   UNL     1     -11.200   8.265  68.213  1.00  0.00    -0.298 OA 
HETATM    2  C   UNL     1     -10.084   8.528  69.098  1.00  0.00    -0.203 C  
HETATM    3  H   UNL     1     -11.987   8.638  68.594  1.00  0.00     0.000 HD 
HETATM    4  C   UNL     1     -10.357   7.771  70.404  1.00  0.00    -0.212 A  
HETATM    5  C   UNL     1      -9.948  10.067  69.236  1.00  0.00    -0.213 C  
HETATM    6  C   UNL     1      -8.798   7.917  68.474  1.00  0.00    -0.134 C  
HETATM    7  C   UNL     1     -11.200   6.642  70.418  1.00  0.00    -0.398 A  
HETATM    8  F   UNL     1     -11.034   5.640  73.901  1.00  0.00    -0.290 F  
HETATM    9  C   UNL     1      -9.743   8.128  71.616  1.00  0.00    -0.179 A  
HETATM   10  C   UNL     1      -9.985   7.437  72.800  1.00  0.00    -0.263 A  
HETATM   11  C   UNL     1     -11.425   5.923  71.595  1.00  0.00    -0.238 A  
HETATM   12  C   UNL     1     -10.822   6.334  72.776  1.00  0.00    -0.252 A  
HETATM   13  F   UNL     1      -8.853   9.129  71.647  1.00  0.00    -0.269 F  
ENDROOT
BRANCH   6  14
HETATM   14  N   UNL     1      -8.448   8.482  67.185  1.00  0.00    -0.117 NA 
HETATM   15  N   UNL     1      -7.423   9.540  65.582  1.00  0.00    -0.092 NA 
HETATM   16  N   UNL     1      -9.254   8.297  66.120  1.00  0.00    -0.197 NA 
HETATM   17  C   UNL     1      -7.369   9.235  66.859  1.00  0.00    -0.090 A  
HETATM   18  C   UNL     1      -8.573   8.939  65.164  1.00  0.00    -0.182 A  
ENDBRANCH   6  14
BRANCH   5  19
HETATM   19  N   UNL     1     -11.068  10.695  69.908  1.00  0.00    -0.289 NA 
HETATM   20  C   UNL     1     -12.532  12.092  70.371  1.00  0.00    -0.153 A  
HETATM   21  C   UNL     1     -11.849  10.182  70.894  1.00  0.00    -0.374 A  
HETATM   22  N   UNL     1     -12.782  11.050  71.214  1.00  0.00    -0.417 NA 
HETATM   23  N   UNL     1     -11.508  11.912  69.531  1.00  0.00    -0.291 NA 
ENDBRANCH   5  19
TORSDOF 2
ENDMDL
MODEL       93
REMARK 921   NORMALIZED FREE ENERGY PREDICTED BY IDOCK:   -3.45 KCAL/MOL
REMARK 922        TOTAL FREE ENERGY PREDICTED BY IDOCK:   -4.68 KCAL/MOL
REMARK 923 INTER-LIGAND FREE ENERGY PREDICTED BY IDOCK:   -3.92 KCAL/MOL
REMARK 924 INTRA-LIGAND FREE ENERGY PREDICTED BY IDOCK:   -0.76 KCAL/MOL
REMARK 927      BINDING AFFINITY PREDICTED BY RF-SCORE:    0.00 PKD
ROOT
HETATM    1  O   UNL     1      -7.492   9.584  68.657  1.00  0.00    -0.077 OA 
HETATM    2  C   UNL     1      -8.716   9.431  67.897  1.00  0.00    -0.120 C  
HETATM    3  H   UNL     1      -7.716   9.774  69.560  1.00  0.00     0.000 HD 
HETATM    4  C   UNL     1      -9.427  10.789  67.911  1.00  0.00    -0.165 A  
HETATM    5  C   UNL     1      -9.512   8.256  68.524  1.00  0.00    -0.146 C  
HETATM    6  C   UNL     1      -8.350   9.119  66.419  1.00  0.00    -0.122 C  
HETATM    7  C   UNL     1      -8.700  11.979  68.112  1.00  0.00    -0.177 A  
HETATM    8  F   UNL     1     -11.306  14.491  67.850  1.00  0.00    -0.266 F  
HETATM    9  C   UNL     1     -10.805  10.913  67.668  1.00  0.00    -0.266 A  
HETATM   10  C   UNL     1     -11.450  12.147  67.673  1.00  0.00    -0.399 A  
HETATM   11  C   UNL     1      -9.333  13.225  68.088  1.00  0.00    -0.220 A  
HETATM   12  C   UNL     1     -10.703  13.295  67.878  1.00  0.00    -0.239 A  
HETATM   13  F   UNL     1     -11.533   9.829  67.369  1.00  0.00    -0.201 F  
ENDROOT
BRANCH   6  14
HETATM   14  N   UNL     1      -7.599   7.890  66.249  1.00  0.00    -0.082 NA 
HETATM   15  N   UNL     1      -6.994   5.881  65.670  1.00  0.00    -0.066 NA 
HETATM   16  N   UNL     1      -6.373   7.761  66.794  1.00  0.00    -0.052 NA 
HETATM   17  C   UNL     1      -7.966   6.760  65.594  1.00  0.00    -0.116 A  
HETATM   18  C   UNL     1      -6.037   6.531  66.391  1.00  0.00    -0.033 A  
ENDBRANCH   6  14
BRANCH   5  19
HETATM   19  N   UNL     1      -9.980   8.518  69.870  1.00  0.00    -0.186 NA 
HETATM   20  C   UNL     1      -9.943   8.849  71.918  1.00  0.00    -0.314 A  
HETATM   21  C   UNL     1     -11.243   8.809  70.277  1.00  0.00    -0.195 A  
HETATM   22  N   UNL     1     -11.252   9.016  71.574  1.00  0.00    -0.320 NA 
HETATM   23  N   UNL     1      -9.118   8.570  70.905  1.00  0.00    -0.158 NA 
ENDBRANCH   5  19
TORSDOF 2
ENDMDL
MODEL       94
REMARK 921   NORMALIZED FREE ENERGY PREDICTED BY IDOCK:   -3.43 KCAL/MOL
REMARK 922        TOTAL FREE ENERGY PREDICTED BY IDOCK:   -4.66 KCAL/MOL
REMARK 923 INTER-LIGAND FREE ENERGY PREDICTED BY IDOCK:   -4.68 KCAL/MOL
REMARK 924 INTRA-LIGAND FREE ENERGY PREDICTED BY IDOCK:    0.02 KCAL/MOL
REMARK 927      BINDING AFFINITY PREDICTED BY RF-SCORE:    0.00 PKD
ROOT
HETATM    1  O   UNL     1      -8.710  11.515  68.883  1.00  0.00    -0.341 OA 
HETATM    2  C   UNL     1      -9.345  10.949  67.711  1.00  0.00    -0.157 C  
HETATM    3  H   UNL     1      -7.928  11.013  69.080  1.00  0.00     0.000 HD 
HETATM    4  C   UNL     1      -9.799   9.532  68.085  1.00  0.00    -0.177 A  
HETATM    5  C   UNL     1      -8.329  11.035  66.541  1.00  0.00    -0.163 C  
HETATM    6  C   UNL     1     -10.624  11.770  67.389  1.00  0.00    -0.224 C  
HETATM    7  C   UNL     1     -10.043   9.188  69.430  1.00  0.00    -0.198 A  
HETATM    8  F   UNL     1     -11.128   5.739  69.121  1.00  0.00    -0.386 F  
HETATM    9  C   UNL     1     -10.044   8.546  67.115  1.00  0.00    -0.262 A  
HETATM   10  C   UNL     1     -10.463   7.263  67.454  1.00  0.00    -0.359 A  
HETATM   11  C   UNL     1     -10.494   7.911  69.777  1.00  0.00    -0.233 A  
HETATM   12  C   UNL     1     -10.690   6.959  68.786  1.00  0.00    -0.219 A  
HETATM   13  F   UNL     1      -9.928   8.843  65.814  1.00  0.00    -0.340 F  
ENDROOT
BRANCH   6  14
HETATM   14  N   UNL     1     -10.363  13.164  67.087  1.00  0.00    -0.246 NA 
HETATM   15  N   UNL     1      -9.923  15.289  67.266  1.00  0.00    -0.225 NA 
HETATM   16  N   UNL     1     -10.365  13.596  65.809  1.00  0.00    -0.291 NA 
HETATM   17  C   UNL     1     -10.113  14.183  67.947  1.00  0.00    -0.235 A  
HETATM   18  C   UNL     1     -10.067  14.890  65.971  1.00  0.00    -0.311 A  
ENDBRANCH   6  14
BRANCH   5  19
HETATM   19  N   UNL     1      -7.154  10.207  66.724  1.00  0.00    -0.090 NA 
HETATM   20  C   UNL     1      -5.784   8.674  66.441  1.00  0.00    -0.047 A  
HETATM   21  C   UNL     1      -6.102  10.417  67.559  1.00  0.00    -0.053 A  
HETATM   22  N   UNL     1      -5.220   9.455  67.407  1.00  0.00    -0.036 NA 
HETATM   23  N   UNL     1      -6.957   9.107  65.971  1.00  0.00    -0.084 NA 
ENDBRANCH   5  19
TORSDOF 2
ENDMDL
MODEL       95
REMARK 921   NORMALIZED FREE ENERGY PREDICTED BY IDOCK:   -3.38 KCAL/MOL
REMARK 922        TOTAL FREE ENERGY PREDICTED BY IDOCK:   -4.60 KCAL/MOL
REMARK 923 INTER-LIGAND FREE ENERGY PREDICTED BY IDOCK:   -4.74 KCAL/MOL
REMARK 924 INTRA-LIGAND FREE ENERGY PREDICTED BY IDOCK:    0.14 KCAL/MOL
REMARK 927      BINDING AFFINITY PREDICTED BY RF-SCORE:    0.00 PKD
ROOT
HETATM    1  O   UNL     1     -12.209   6.692  70.008  1.00  0.00    -0.605 OA 
HETATM    2  C   UNL     1     -10.945   7.392  69.909  1.00  0.00    -0.223 C  
HETATM    3  H   UNL     1     -12.039   5.780  70.208  1.00  0.00     0.000 HD 
HETATM    4  C   UNL     1     -10.195   6.799  68.711  1.00  0.00    -0.184 A  
HETATM    5  C   UNL     1     -10.227   7.256  71.278  1.00  0.00    -0.189 C  
HETATM    6  C   UNL     1     -11.225   8.885  69.582  1.00  0.00     0.048 C  
HETATM    7  C   UNL     1     -10.897   6.168  67.664  1.00  0.00    -0.421 A  
HETATM    8  F   UNL     1      -8.204   5.275  65.402  1.00  0.00    -0.107 F  
HETATM    9  C   UNL     1      -8.801   6.907  68.574  1.00  0.00    -0.124 A  
HETATM   10  C   UNL     1      -8.121   6.375  67.482  1.00  0.00    -0.117 A  
HETATM   11  C   UNL     1     -10.226   5.658  66.549  1.00  0.00    -0.259 A  
HETATM   12  C   UNL     1      -8.844   5.758  66.474  1.00  0.00    -0.126 A  
HETATM   13  F   UNL     1      -8.089   7.584  69.485  1.00  0.00    -0.117 F  
ENDROOT
BRANCH   6  14
HETATM   14  N   UNL     1     -12.001   9.571  70.597  1.00  0.00    -0.238 NA 
HETATM   15  N   UNL     1     -12.940  11.111  71.817  1.00  0.00    -0.457 NA 
HETATM   16  N   UNL     1     -12.685   8.867  71.522  1.00  0.00    -0.328 NA 
HETATM   17  C   UNL     1     -12.147  10.906  70.790  1.00  0.00    -0.368 A  
HETATM   18  C   UNL     1     -13.259   9.850  72.225  1.00  0.00    -0.340 A  
ENDBRANCH   6  14
BRANCH   5  19
HETATM   19  N   UNL     1      -9.838   5.898  71.602  1.00  0.00    -0.164 NA 
HETATM   20  C   UNL     1      -8.657   4.291  72.176  1.00  0.00    -0.108 A  
HETATM   21  C   UNL     1     -10.630   4.797  71.685  1.00  0.00    -0.022 A  
HETATM   22  N   UNL     1      -9.906   3.760  72.040  1.00  0.00    -0.165 NA 
HETATM   23  N   UNL     1      -8.568   5.604  71.945  1.00  0.00    -0.130 NA 
ENDBRANCH   5  19
TORSDOF 2
ENDMDL
MODEL       96
REMARK 921   NORMALIZED FREE ENERGY PREDICTED BY IDOCK:   -3.36 KCAL/MOL
REMARK 922        TOTAL FREE ENERGY PREDICTED BY IDOCK:   -4.57 KCAL/MOL
REMARK 923 INTER-LIGAND FREE ENERGY PREDICTED BY IDOCK:   -4.52 KCAL/MOL
REMARK 924 INTRA-LIGAND FREE ENERGY PREDICTED BY IDOCK:   -0.05 KCAL/MOL
REMARK 927      BINDING AFFINITY PREDICTED BY RF-SCORE:    0.00 PKD
ROOT
HETATM    1  O   UNL     1     -11.491   7.200  67.579  1.00  0.00    -0.498 OA 
HETATM    2  C   UNL     1     -10.114   7.422  67.968  1.00  0.00    -0.179 C  
HETATM    3  H   UNL     1     -11.935   6.734  68.278  1.00  0.00     0.000 HD 
HETATM    4  C   UNL     1      -9.451   6.044  68.083  1.00  0.00    -0.115 A  
HETATM    5  C   UNL     1     -10.125   8.266  69.270  1.00  0.00    -0.199 C  
HETATM    6  C   UNL     1      -9.389   8.186  66.825  1.00  0.00    -0.183 C  
HETATM    7  C   UNL     1      -9.963   4.939  67.372  1.00  0.00    -0.209 A  
HETATM    8  F   UNL     1      -7.620   2.324  68.289  1.00  0.00    -0.052 F  
HETATM    9  C   UNL     1      -8.288   5.835  68.841  1.00  0.00    -0.101 A  
HETATM   10  C   UNL     1      -7.682   4.586  68.940  1.00  0.00    -0.070 A  
HETATM   11  C   UNL     1      -9.344   3.688  67.440  1.00  0.00    -0.240 A  
HETATM   12  C   UNL     1      -8.215   3.522  68.231  1.00  0.00    -0.081 A  
HETATM   13  F   UNL     1      -7.696   6.867  69.457  1.00  0.00    -0.094 F  
ENDROOT
BRANCH   6  14
HETATM   14  N   UNL     1      -9.956   9.491  66.542  1.00  0.00    -0.243 NA 
HETATM   15  N   UNL     1     -10.685  11.270  65.521  1.00  0.00    -0.250 NA 
HETATM   16  N   UNL     1     -10.374  10.284  67.550  1.00  0.00    -0.213 NA 
HETATM   17  C   UNL     1     -10.132  10.092  65.340  1.00  0.00    -0.272 A  
HETATM   18  C   UNL     1     -10.832  11.343  66.874  1.00  0.00    -0.285 A  
ENDBRANCH   6  14
BRANCH   5  19
HETATM   19  N   UNL     1     -10.692   7.575  70.410  1.00  0.00    -0.234 NA 
HETATM   20  C   UNL     1     -12.035   6.498  71.569  1.00  0.00    -0.329 A  
HETATM   21  C   UNL     1     -10.103   7.305  71.604  1.00  0.00    -0.184 A  
HETATM   22  N   UNL     1     -10.935   6.629  72.364  1.00  0.00    -0.234 NA 
HETATM   23  N   UNL     1     -11.926   7.037  70.351  1.00  0.00    -0.256 NA 
ENDBRANCH   5  19
TORSDOF 2
ENDMDL
MODEL       97
REMARK 921   NORMALIZED FREE ENERGY PREDICTED BY IDOCK:   -3.33 KCAL/MOL
REMARK 922        TOTAL FREE ENERGY PREDICTED BY IDOCK:   -4.55 KCAL/MOL
REMARK 923 INTER-LIGAND FREE ENERGY PREDICTED BY IDOCK:   -4.13 KCAL/MOL
REMARK 924 INTRA-LIGAND FREE ENERGY PREDICTED BY IDOCK:   -0.42 KCAL/MOL
REMARK 927      BINDING AFFINITY PREDICTED BY RF-SCORE:    0.00 PKD
ROOT
HETATM    1  O   UNL     1      -9.143   9.635  71.171  1.00  0.00    -0.338 OA 
HETATM    2  C   UNL     1      -9.350   8.933  69.921  1.00  0.00    -0.166 C  
HETATM    3  H   UNL     1      -9.355  10.553  71.045  1.00  0.00     0.000 HD 
HETATM    4  C   UNL     1      -8.339   9.497  68.915  1.00  0.00    -0.121 A  
HETATM    5  C   UNL     1     -10.842   9.102  69.530  1.00  0.00    -0.180 C  
HETATM    6  C   UNL     1      -9.003   7.433  70.127  1.00  0.00    -0.148 C  
HETATM    7  C   UNL     1      -7.145  10.103  69.359  1.00  0.00    -0.085 A  
HETATM    8  F   UNL     1      -5.532  10.941  66.218  1.00  0.00    -0.061 F  
HETATM    9  C   UNL     1      -8.524   9.386  67.527  1.00  0.00    -0.122 A  
HETATM   10  C   UNL     1      -7.603   9.892  66.615  1.00  0.00    -0.103 A  
HETATM   11  C   UNL     1      -6.200  10.586  68.450  1.00  0.00    -0.050 A  
HETATM   12  C   UNL     1      -6.443  10.484  67.087  1.00  0.00    -0.073 A  
HETATM   13  F   UNL     1      -9.588   8.731  67.044  1.00  0.00    -0.174 F  
ENDROOT
BRANCH   6  14
HETATM   14  N   UNL     1      -9.832   6.772  71.116  1.00  0.00    -0.178 NA 
HETATM   15  N   UNL     1     -11.288   5.474  72.085  1.00  0.00    -0.198 NA 
HETATM   16  N   UNL     1      -9.736   7.107  72.419  1.00  0.00    -0.149 NA 
HETATM   17  C   UNL     1     -10.769   5.809  70.926  1.00  0.00    -0.264 A  
HETATM   18  C   UNL     1     -10.624   6.272  72.969  1.00  0.00    -0.239 A  
ENDBRANCH   6  14
BRANCH   5  19
HETATM   19  N   UNL     1     -11.214  10.467  69.218  1.00  0.00    -0.246 NA 
HETATM   20  C   UNL     1     -11.807  12.125  68.120  1.00  0.00    -0.299 A  
HETATM   21  C   UNL     1     -11.391  11.505  70.077  1.00  0.00    -0.137 A  
HETATM   22  N   UNL     1     -11.761  12.574  69.407  1.00  0.00    -0.310 NA 
HETATM   23  N   UNL     1     -11.507  10.834  67.954  1.00  0.00    -0.486 NA 
ENDBRANCH   5  19
TORSDOF 2
ENDMDL
MODEL       98
REMARK 921   NORMALIZED FREE ENERGY PREDICTED BY IDOCK:   -3.31 KCAL/MOL
REMARK 922        TOTAL FREE ENERGY PREDICTED BY IDOCK:   -4.52 KCAL/MOL
REMARK 923 INTER-LIGAND FREE ENERGY PREDICTED BY IDOCK:   -3.60 KCAL/MOL
REMARK 924 INTRA-LIGAND FREE ENERGY PREDICTED BY IDOCK:   -0.92 KCAL/MOL
REMARK 927      BINDING AFFINITY PREDICTED BY RF-SCORE:    0.00 PKD
ROOT
HETATM    1  O   UNL     1      -7.223   7.672  69.170  1.00  0.00    -0.075 OA 
HETATM    2  C   UNL     1      -8.370   7.401  68.328  1.00  0.00    -0.125 C  
HETATM    3  H   UNL     1      -7.486   8.268  69.862  1.00  0.00     0.000 HD 
HETATM    4  C   UNL     1      -8.762   8.725  67.660  1.00  0.00    -0.135 A  
HETATM    5  C   UNL     1      -9.464   6.756  69.220  1.00  0.00    -0.142 C  
HETATM    6  C   UNL     1      -7.939   6.426  67.197  1.00  0.00    -0.112 C  
HETATM    7  C   UNL     1      -7.812   9.753  67.492  1.00  0.00    -0.095 A  
HETATM    8  F   UNL     1      -9.761  12.280  65.764  1.00  0.00    -0.239 F  
HETATM    9  C   UNL     1     -10.047   8.948  67.141  1.00  0.00    -0.249 A  
HETATM   10  C   UNL     1     -10.401  10.147  66.528  1.00  0.00    -0.270 A  
HETATM   11  C   UNL     1      -8.149  10.948  66.851  1.00  0.00    -0.137 A  
HETATM   12  C   UNL     1      -9.443  11.136  66.384  1.00  0.00    -0.193 A  
HETATM   13  F   UNL     1     -10.964   7.971  67.179  1.00  0.00    -0.374 F  
ENDROOT
BRANCH   6  14
HETATM   14  N   UNL     1      -7.465   5.143  67.679  1.00  0.00    -0.082 NA 
HETATM   15  N   UNL     1      -7.267   3.014  68.087  1.00  0.00    -0.049 NA 
HETATM   16  N   UNL     1      -6.353   5.070  68.437  1.00  0.00    -0.035 NA 
HETATM   17  C   UNL     1      -8.010   3.916  67.488  1.00  0.00    -0.090 A  
HETATM   18  C   UNL     1      -6.261   3.751  68.638  1.00  0.00    -0.032 A  
ENDBRANCH   6  14
BRANCH   5  19
HETATM   19  N   UNL     1      -9.991   7.646  70.234  1.00  0.00    -0.188 NA 
HETATM   20  C   UNL     1     -10.044   9.036  71.774  1.00  0.00    -0.303 A  
HETATM   21  C   UNL     1     -11.291   7.951  70.488  1.00  0.00    -0.234 A  
HETATM   22  N   UNL     1     -11.355   8.825  71.467  1.00  0.00    -0.280 NA 
HETATM   23  N   UNL     1      -9.167   8.357  71.028  1.00  0.00    -0.157 NA 
ENDBRANCH   5  19
TORSDOF 2
ENDMDL
MODEL       99
REMARK 921   NORMALIZED FREE ENERGY PREDICTED BY IDOCK:   -3.27 KCAL/MOL
REMARK 922        TOTAL FREE ENERGY PREDICTED BY IDOCK:   -4.48 KCAL/MOL
REMARK 923 INTER-LIGAND FREE ENERGY PREDICTED BY IDOCK:   -3.63 KCAL/MOL
REMARK 924 INTRA-LIGAND FREE ENERGY PREDICTED BY IDOCK:   -0.85 KCAL/MOL
REMARK 927      BINDING AFFINITY PREDICTED BY RF-SCORE:    0.00 PKD
ROOT
HETATM    1  O   UNL     1      -8.264   9.156  69.216  1.00  0.00    -0.111 OA 
HETATM    2  C   UNL     1      -8.769   9.690  67.969  1.00  0.00    -0.119 C  
HETATM    3  H   UNL     1      -8.731   9.563  69.935  1.00  0.00     0.000 HD 
HETATM    4  C   UNL     1      -8.421  11.184  67.945  1.00  0.00    -0.131 A  
HETATM    5  C   UNL     1     -10.283   9.358  67.896  1.00  0.00    -0.211 C  
HETATM    6  C   UNL     1      -8.003   9.023  66.793  1.00  0.00    -0.107 C  
HETATM    7  C   UNL     1      -7.345  11.683  68.706  1.00  0.00    -0.118 A  
HETATM    8  F   UNL     1      -7.389  15.203  67.825  1.00  0.00    -0.114 F  
HETATM    9  C   UNL     1      -9.111  12.099  67.133  1.00  0.00    -0.189 A  
HETATM   10  C   UNL     1      -8.792  13.453  67.106  1.00  0.00    -0.225 A  
HETATM   11  C   UNL     1      -6.996  13.036  68.662  1.00  0.00    -0.102 A  
HETATM   12  C   UNL     1      -7.729  13.908  67.870  1.00  0.00    -0.160 A  
HETATM   13  F   UNL     1     -10.078  11.668  66.311  1.00  0.00    -0.224 F  
ENDROOT
BRANCH   6  14
HETATM   14  N   UNL     1      -8.172   7.584  66.726  1.00  0.00    -0.121 NA 
HETATM   15  N   UNL     1      -8.686   5.574  66.066  1.00  0.00    -0.136 NA 
HETATM   16  N   UNL     1      -7.757   6.802  67.743  1.00  0.00    -0.109 NA 
HETATM   17  C   UNL     1      -8.737   6.845  65.739  1.00  0.00    -0.106 A  
HETATM   18  C   UNL     1      -8.069   5.586  67.282  1.00  0.00    -0.101 A  
ENDBRANCH   6  14
BRANCH   5  19
HETATM   19  N   UNL     1     -11.079  10.033  68.901  1.00  0.00    -0.208 NA 
HETATM   20  C   UNL     1     -11.805  10.592  70.763  1.00  0.00    -0.357 A  
HETATM   21  C   UNL     1     -11.988  11.026  68.722  1.00  0.00    -0.225 A  
HETATM   22  N   UNL     1     -12.472  11.396  69.887  1.00  0.00    -0.179 NA 
HETATM   23  N   UNL     1     -10.919   9.758  70.211  1.00  0.00    -0.275 NA 
ENDBRANCH   5  19
TORSDOF 2
ENDMDL
MODEL      100
REMARK 921   NORMALIZED FREE ENERGY PREDICTED BY IDOCK:   -3.26 KCAL/MOL
REMARK 922        TOTAL FREE ENERGY PREDICTED BY IDOCK:   -4.47 KCAL/MOL
REMARK 923 INTER-LIGAND FREE ENERGY PREDICTED BY IDOCK:   -4.47 KCAL/MOL
REMARK 924 INTRA-LIGAND FREE ENERGY PREDICTED BY IDOCK:    0.01 KCAL/MOL
REMARK 927      BINDING AFFINITY PREDICTED BY RF-SCORE:    0.00 PKD
ROOT
HETATM    1  O   UNL     1      -7.809  10.608  68.156  1.00  0.00    -0.105 OA 
HETATM    2  C   UNL     1      -8.707  10.736  67.027  1.00  0.00    -0.136 C  
HETATM    3  H   UNL     1      -8.250  10.928  68.935  1.00  0.00     0.000 HD 
HETATM    4  C   UNL     1      -8.961  12.234  66.821  1.00  0.00    -0.209 A  
HETATM    5  C   UNL     1      -9.967   9.883  67.333  1.00  0.00    -0.189 C  
HETATM    6  C   UNL     1      -7.986  10.213  65.754  1.00  0.00    -0.140 C  
HETATM    7  C   UNL     1      -8.028  13.190  67.273  1.00  0.00    -0.140 A  
HETATM    8  F   UNL     1      -9.566  16.292  66.186  1.00  0.00    -0.270 F  
HETATM    9  C   UNL     1     -10.086  12.713  66.131  1.00  0.00    -0.257 A  
HETATM   10  C   UNL     1     -10.313  14.072  65.937  1.00  0.00    -0.327 A  
HETATM   11  C   UNL     1      -8.232  14.555  67.056  1.00  0.00    -0.164 A  
HETATM   12  C   UNL     1      -9.377  14.983  66.398  1.00  0.00    -0.303 A  
HETATM   13  F   UNL     1     -10.957  11.851  65.589  1.00  0.00    -0.306 F  
ENDROOT
BRANCH   6  14
HETATM   14  N   UNL     1      -7.608   8.815  65.828  1.00  0.00    -0.085 NA 
HETATM   15  N   UNL     1      -6.549   6.961  66.257  1.00  0.00    -0.050 NA 
HETATM   16  N   UNL     1      -8.385   7.869  65.261  1.00  0.00    -0.145 NA 
HETATM   17  C   UNL     1      -6.511   8.266  66.405  1.00  0.00    -0.054 A  
HETATM   18  C   UNL     1      -7.710   6.757  65.572  1.00  0.00    -0.101 A  
ENDBRANCH   6  14
BRANCH   5  19
HETATM   19  N   UNL     1     -10.751  10.376  68.447  1.00  0.00    -0.209 NA 
HETATM   20  C   UNL     1     -12.335  11.200  69.504  1.00  0.00    -0.194 A  
HETATM   21  C   UNL     1     -10.451  10.325  69.771  1.00  0.00    -0.259 A  
HETATM   22  N   UNL     1     -11.435  10.849  70.467  1.00  0.00    -0.291 NA 
HETATM   23  N   UNL     1     -11.975  10.907  68.252  1.00  0.00    -0.542 NA 
ENDBRANCH   5  19
TORSDOF 2
ENDMDL
MODEL      101
REMARK 921   NORMALIZED FREE ENERGY PREDICTED BY IDOCK:   -3.23 KCAL/MOL
REMARK 922        TOTAL FREE ENERGY PREDICTED BY IDOCK:   -4.42 KCAL/MOL
REMARK 923 INTER-LIGAND FREE ENERGY PREDICTED BY IDOCK:   -4.29 KCAL/MOL
REMARK 924 INTRA-LIGAND FREE ENERGY PREDICTED BY IDOCK:   -0.14 KCAL/MOL
REMARK 927      BINDING AFFINITY PREDICTED BY RF-SCORE:    0.00 PKD
ROOT
HETATM    1  O   UNL     1      -9.316   9.601  70.092  1.00  0.00    -0.230 OA 
HETATM    2  C   UNL     1     -10.095   8.726  69.241  1.00  0.00    -0.204 C  
HETATM    3  H   UNL     1      -8.776  10.158  69.544  1.00  0.00     0.000 HD 
HETATM    4  C   UNL     1      -9.105   7.815  68.505  1.00  0.00    -0.132 A  
HETATM    5  C   UNL     1     -10.979   9.621  68.332  1.00  0.00    -0.113 C  
HETATM    6  C   UNL     1     -10.978   7.814  70.138  1.00  0.00    -0.241 C  
HETATM    7  C   UNL     1      -7.830   7.554  69.046  1.00  0.00    -0.120 A  
HETATM    8  F   UNL     1      -6.440   5.272  66.590  1.00  0.00    -0.036 F  
HETATM    9  C   UNL     1      -9.439   7.162  67.307  1.00  0.00    -0.140 A  
HETATM   10  C   UNL     1      -8.543   6.330  66.642  1.00  0.00    -0.119 A  
HETATM   11  C   UNL     1      -6.935   6.695  68.402  1.00  0.00    -0.080 A  
HETATM   12  C   UNL     1      -7.297   6.099  67.202  1.00  0.00    -0.076 A  
HETATM   13  F   UNL     1     -10.671   7.289  66.796  1.00  0.00    -0.367 F  
ENDROOT
BRANCH   6  14
HETATM   14  N   UNL     1     -11.924   8.542  70.961  1.00  0.00    -0.267 NA 
HETATM   15  N   UNL     1     -12.855  10.039  72.238  1.00  0.00    -0.308 NA 
HETATM   16  N   UNL     1     -13.159   8.047  71.178  1.00  0.00    -0.133 NA 
HETATM   17  C   UNL     1     -11.747   9.721  71.608  1.00  0.00    -0.318 A  
HETATM   18  C   UNL     1     -13.694   9.007  71.940  1.00  0.00    -0.441 A  
ENDBRANCH   6  14
BRANCH   5  19
HETATM   19  N   UNL     1     -10.224  10.424  67.392  1.00  0.00    -0.202 NA 
HETATM   20  C   UNL     1      -8.820  11.764  66.657  1.00  0.00    -0.189 A  
HETATM   21  C   UNL     1     -10.302  10.421  66.035  1.00  0.00    -0.192 A  
HETATM   22  N   UNL     1      -9.428  11.269  65.541  1.00  0.00    -0.225 NA 
HETATM   23  N   UNL     1      -9.254  11.259  67.815  1.00  0.00    -0.153 NA 
ENDBRANCH   5  19
TORSDOF 2
ENDMDL
MODEL      102
REMARK 921   NORMALIZED FREE ENERGY PREDICTED BY IDOCK:   -3.20 KCAL/MOL
REMARK 922        TOTAL FREE ENERGY PREDICTED BY IDOCK:   -4.39 KCAL/MOL
REMARK 923 INTER-LIGAND FREE ENERGY PREDICTED BY IDOCK:   -4.40 KCAL/MOL
REMARK 924 INTRA-LIGAND FREE ENERGY PREDICTED BY IDOCK:    0.01 KCAL/MOL
REMARK 927      BINDING AFFINITY PREDICTED BY RF-SCORE:    0.00 PKD
ROOT
HETATM    1  O   UNL     1      -9.809   7.708  71.535  1.00  0.00    -0.166 OA 
HETATM    2  C   UNL     1     -10.451   7.601  70.242  1.00  0.00    -0.224 C  
HETATM    3  H   UNL     1      -8.929   8.045  71.413  1.00  0.00     0.000 HD 
HETATM    4  C   UNL     1      -9.672   6.552  69.438  1.00  0.00    -0.155 A  
HETATM    5  C   UNL     1     -10.491   9.022  69.620  1.00  0.00    -0.222 C  
HETATM    6  C   UNL     1     -11.890   7.049  70.443  1.00  0.00    -0.247 C  
HETATM    7  C   UNL     1      -8.919   5.558  70.094  1.00  0.00    -0.154 A  
HETATM    8  F   UNL     1      -7.636   3.637  67.294  1.00  0.00    -0.074 F  
HETATM    9  C   UNL     1      -9.720   6.500  68.035  1.00  0.00    -0.118 A  
HETATM   10  C   UNL     1      -9.019   5.544  67.305  1.00  0.00    -0.111 A  
HETATM   11  C   UNL     1      -8.237   4.575  69.371  1.00  0.00    -0.071 A  
HETATM   12  C   UNL     1      -8.286   4.584  67.984  1.00  0.00    -0.094 A  
HETATM   13  F   UNL     1     -10.499   7.354  67.358  1.00  0.00    -0.249 F  
ENDROOT
BRANCH   6  14
HETATM   14  N   UNL     1     -12.735   7.901  71.256  1.00  0.00    -0.272 NA 
HETATM   15  N   UNL     1     -14.384   8.672  72.451  1.00  0.00    -0.535 NA 
HETATM   16  N   UNL     1     -12.331   9.145  71.586  1.00  0.00    -0.337 NA 
HETATM   17  C   UNL     1     -13.964   7.635  71.763  1.00  0.00    -0.370 A  
HETATM   18  C   UNL     1     -13.358   9.562  72.334  1.00  0.00    -0.384 A  
ENDBRANCH   6  14
BRANCH   5  19
HETATM   19  N   UNL     1      -9.183   9.560  69.305  1.00  0.00    -0.160 NA 
HETATM   20  C   UNL     1      -7.269  10.315  69.571  1.00  0.00    -0.122 A  
HETATM   21  C   UNL     1      -8.618   9.726  68.081  1.00  0.00    -0.118 A  
HETATM   22  N   UNL     1      -7.404  10.212  68.218  1.00  0.00    -0.080 NA 
HETATM   23  N   UNL     1      -8.321   9.903  70.283  1.00  0.00    -0.137 NA 
ENDBRANCH   5  19
TORSDOF 2
ENDMDL
MODEL      103
REMARK 921   NORMALIZED FREE ENERGY PREDICTED BY IDOCK:   -3.10 KCAL/MOL
REMARK 922        TOTAL FREE ENERGY PREDICTED BY IDOCK:   -4.29 KCAL/MOL
REMARK 923 INTER-LIGAND FREE ENERGY PREDICTED BY IDOCK:   -3.64 KCAL/MOL
REMARK 924 INTRA-LIGAND FREE ENERGY PREDICTED BY IDOCK:   -0.65 KCAL/MOL
REMARK 927      BINDING AFFINITY PREDICTED BY RF-SCORE:    0.00 PKD
ROOT
HETATM    1  O   UNL     1     -10.482   5.815  69.845  1.00  0.00    -0.235 OA 
HETATM    2  C   UNL     1      -9.375   6.704  69.556  1.00  0.00    -0.145 C  
HETATM    3  H   UNL     1     -11.102   6.271  70.402  1.00  0.00     0.000 HD 
HETATM    4  C   UNL     1      -8.665   6.987  70.885  1.00  0.00    -0.143 A  
HETATM    5  C   UNL     1      -9.952   7.949  68.830  1.00  0.00    -0.190 C  
HETATM    6  C   UNL     1      -8.361   5.958  68.644  1.00  0.00    -0.109 C  
HETATM    7  C   UNL     1      -8.764   6.080  71.960  1.00  0.00    -0.136 A  
HETATM    8  F   UNL     1      -6.672   7.671  74.462  1.00  0.00    -0.092 F  
HETATM    9  C   UNL     1      -7.850   8.115  71.071  1.00  0.00    -0.090 A  
HETATM   10  C   UNL     1      -7.200   8.369  72.276  1.00  0.00    -0.119 A  
HETATM   11  C   UNL     1      -8.090   6.310  73.162  1.00  0.00    -0.110 A  
HETATM   12  C   UNL     1      -7.322   7.457  73.311  1.00  0.00    -0.074 A  
HETATM   13  F   UNL     1      -7.635   8.962  70.055  1.00  0.00    -0.054 F  
ENDROOT
BRANCH   6  14
HETATM   14  N   UNL     1      -8.913   5.552  67.366  1.00  0.00    -0.109 NA 
HETATM   15  N   UNL     1      -9.282   5.327  65.232  1.00  0.00    -0.098 NA 
HETATM   16  N   UNL     1      -9.958   4.703  67.315  1.00  0.00    -0.181 NA 
HETATM   17  C   UNL     1      -8.527   5.930  66.122  1.00  0.00    -0.132 A  
HETATM   18  C   UNL     1     -10.129   4.578  65.994  1.00  0.00    -0.259 A  
ENDBRANCH   6  14
BRANCH   5  19
HETATM   19  N   UNL     1     -10.826   8.755  69.658  1.00  0.00    -0.209 NA 
HETATM   20  C   UNL     1     -12.143   9.276  71.175  1.00  0.00    -0.316 A  
HETATM   21  C   UNL     1     -11.041  10.095  69.594  1.00  0.00    -0.263 A  
HETATM   22  N   UNL     1     -11.879  10.453  70.540  1.00  0.00    -0.310 NA 
HETATM   23  N   UNL     1     -11.501   8.209  70.690  1.00  0.00    -0.264 NA 
ENDBRANCH   5  19
TORSDOF 2
ENDMDL
MODEL      104
REMARK 921   NORMALIZED FREE ENERGY PREDICTED BY IDOCK:   -3.05 KCAL/MOL
REMARK 922        TOTAL FREE ENERGY PREDICTED BY IDOCK:   -4.22 KCAL/MOL
REMARK 923 INTER-LIGAND FREE ENERGY PREDICTED BY IDOCK:   -4.28 KCAL/MOL
REMARK 924 INTRA-LIGAND FREE ENERGY PREDICTED BY IDOCK:    0.06 KCAL/MOL
REMARK 927      BINDING AFFINITY PREDICTED BY RF-SCORE:    0.00 PKD
ROOT
HETATM    1  O   UNL     1      -7.630  15.210  70.436  1.00  0.00    -0.057 OA 
HETATM    2  C   UNL     1      -7.605  14.866  69.029  1.00  0.00    -0.151 C  
HETATM    3  H   UNL     1      -8.411  15.722  70.611  1.00  0.00     0.000 HD 
HETATM    4  C   UNL     1      -7.470  16.179  68.247  1.00  0.00    -0.145 A  
HETATM    5  C   UNL     1      -8.882  14.039  68.727  1.00  0.00    -0.031 C  
HETATM    6  C   UNL     1      -6.328  14.029  68.743  1.00  0.00    -0.090 C  
HETATM    7  C   UNL     1      -6.902  17.319  68.850  1.00  0.00    -0.226 A  
HETATM    8  F   UNL     1      -6.995  19.716  66.127  1.00  0.00    -0.206 F  
HETATM    9  C   UNL     1      -7.846  16.286  66.898  1.00  0.00    -0.243 A  
HETATM   10  C   UNL     1      -7.717  17.475  66.186  1.00  0.00    -0.304 A  
HETATM   11  C   UNL     1      -6.740  18.509  68.134  1.00  0.00    -0.231 A  
HETATM   12  C   UNL     1      -7.158  18.577  66.812  1.00  0.00    -0.211 A  
HETATM   13  F   UNL     1      -8.297  15.210  66.241  1.00  0.00    -0.246 F  
ENDROOT
BRANCH   6  14
HETATM   14  N   UNL     1      -6.271  12.779  69.477  1.00  0.00    -0.116 NA 
HETATM   15  N   UNL     1      -5.853  11.263  70.982  1.00  0.00    -0.363 NA 
HETATM   16  N   UNL     1      -6.864  11.673  68.983  1.00  0.00    -0.098 NA 
HETATM   17  C   UNL     1      -5.659  12.521  70.660  1.00  0.00    -0.175 A  
HETATM   18  C   UNL     1      -6.602  10.785  69.949  1.00  0.00    -0.149 A  
ENDBRANCH   6  14
BRANCH   5  19
HETATM   19  N   UNL     1     -10.113  14.790  68.870  1.00  0.00    -0.234 NA 
HETATM   20  C   UNL     1     -11.990  15.561  68.435  1.00  0.00    -0.102 A  
HETATM   21  C   UNL     1     -10.539  15.504  69.944  1.00  0.00    -0.313 A  
HETATM   22  N   UNL     1     -11.725  16.012  69.694  1.00  0.00    -0.311 NA 
HETATM   23  N   UNL     1     -11.045  14.785  67.896  1.00  0.00    -0.282 NA 
ENDBRANCH   5  19
TORSDOF 2
ENDMDL
MODEL      105
REMARK 921   NORMALIZED FREE ENERGY PREDICTED BY IDOCK:   -3.00 KCAL/MOL
REMARK 922        TOTAL FREE ENERGY PREDICTED BY IDOCK:   -4.18 KCAL/MOL
REMARK 923 INTER-LIGAND FREE ENERGY PREDICTED BY IDOCK:   -3.23 KCAL/MOL
REMARK 924 INTRA-LIGAND FREE ENERGY PREDICTED BY IDOCK:   -0.95 KCAL/MOL
REMARK 927      BINDING AFFINITY PREDICTED BY RF-SCORE:    0.00 PKD
ROOT
HETATM    1  O   UNL     1      -7.236  11.427  68.644  1.00  0.00    -0.086 OA 
HETATM    2  C   UNL     1      -7.801  10.095  68.587  1.00  0.00    -0.097 C  
HETATM    3  H   UNL     1      -7.874  12.044  68.305  1.00  0.00     0.000 HD 
HETATM    4  C   UNL     1      -8.013   9.759  67.105  1.00  0.00    -0.102 A  
HETATM    5  C   UNL     1      -9.083  10.091  69.460  1.00  0.00    -0.220 C  
HETATM    6  C   UNL     1      -6.757   9.085  69.141  1.00  0.00    -0.050 C  
HETATM    7  C   UNL     1      -7.251  10.399  66.107  1.00  0.00    -0.131 A  
HETATM    8  F   UNL     1      -8.489   8.799  63.094  1.00  0.00    -0.178 F  
HETATM    9  C   UNL     1      -8.920   8.772  66.685  1.00  0.00    -0.139 A  
HETATM   10  C   UNL     1      -9.108   8.462  65.341  1.00  0.00    -0.050 A  
HETATM   11  C   UNL     1      -7.410  10.072  64.758  1.00  0.00    -0.143 A  
HETATM   12  C   UNL     1      -8.343   9.114  64.388  1.00  0.00    -0.174 A  
HETATM   13  F   UNL     1      -9.600   8.058  67.592  1.00  0.00    -0.149 F  
ENDROOT
BRANCH   6  14
HETATM   14  N   UNL     1      -6.392   9.322  70.524  1.00  0.00    -0.054 NA 
HETATM   15  N   UNL     1      -6.087   9.094  72.668  1.00  0.00    -0.282 NA 
HETATM   16  N   UNL     1      -5.818  10.487  70.886  1.00  0.00    -0.240 NA 
HETATM   17  C   UNL     1      -6.561   8.505  71.593  1.00  0.00    -0.073 A  
HETATM   18  C   UNL     1      -5.629  10.288  72.196  1.00  0.00     0.331 A  
ENDBRANCH   6  14
BRANCH   5  19
HETATM   19  N   UNL     1     -10.145  10.932  68.944  1.00  0.00    -0.194 NA 
HETATM   20  C   UNL     1     -11.122  12.605  68.200  1.00  0.00    -0.249 A  
HETATM   21  C   UNL     1     -11.415  10.574  68.621  1.00  0.00    -0.223 A  
HETATM   22  N   UNL     1     -12.062  11.618  68.153  1.00  0.00    -0.558 NA 
HETATM   23  N   UNL     1      -9.922  12.229  68.652  1.00  0.00    -0.168 NA 
ENDBRANCH   5  19
TORSDOF 2
ENDMDL
MODEL      106
REMARK 921   NORMALIZED FREE ENERGY PREDICTED BY IDOCK:   -2.98 KCAL/MOL
REMARK 922        TOTAL FREE ENERGY PREDICTED BY IDOCK:   -4.15 KCAL/MOL
REMARK 923 INTER-LIGAND FREE ENERGY PREDICTED BY IDOCK:   -3.57 KCAL/MOL
REMARK 924 INTRA-LIGAND FREE ENERGY PREDICTED BY IDOCK:   -0.59 KCAL/MOL
REMARK 927      BINDING AFFINITY PREDICTED BY RF-SCORE:    0.00 PKD
ROOT
HETATM    1  O   UNL     1      -7.114  10.174  67.303  1.00  0.00    -0.086 OA 
HETATM    2  C   UNL     1      -8.418  10.605  66.845  1.00  0.00    -0.127 C  
HETATM    3  H   UNL     1      -7.135  10.089  68.249  1.00  0.00     0.000 HD 
HETATM    4  C   UNL     1      -8.658  12.007  67.420  1.00  0.00    -0.171 A  
HETATM    5  C   UNL     1      -9.446   9.525  67.274  1.00  0.00    -0.136 C  
HETATM    6  C   UNL     1      -8.383  10.744  65.297  1.00  0.00    -0.086 C  
HETATM    7  C   UNL     1      -7.572  12.831  67.779  1.00  0.00    -0.141 A  
HETATM    8  F   UNL     1      -9.266  15.844  68.882  1.00  0.00    -0.182 F  
HETATM    9  C   UNL     1      -9.946  12.548  67.558  1.00  0.00    -0.201 A  
HETATM   10  C   UNL     1     -10.163  13.822  68.073  1.00  0.00    -0.248 A  
HETATM   11  C   UNL     1      -7.778  14.123  68.269  1.00  0.00    -0.139 A  
HETATM   12  C   UNL     1      -9.072  14.602  68.419  1.00  0.00    -0.192 A  
HETATM   13  F   UNL     1     -11.013  11.853  67.139  1.00  0.00    -0.247 F  
ENDROOT
BRANCH   6  14
HETATM   14  N   UNL     1      -8.089   9.505  64.605  1.00  0.00    -0.127 NA 
HETATM   15  N   UNL     1      -8.057   7.888  63.147  1.00  0.00    -0.133 NA 
HETATM   16  N   UNL     1      -7.229   8.614  65.140  1.00  0.00    -0.086 NA 
HETATM   17  C   UNL     1      -8.587   9.057  63.426  1.00  0.00    -0.135 A  
HETATM   18  C   UNL     1      -7.226   7.660  64.203  1.00  0.00    -0.080 A  
ENDBRANCH   6  14
BRANCH   5  19
HETATM   19  N   UNL     1      -9.611   9.413  68.710  1.00  0.00    -0.152 NA 
HETATM   20  C   UNL     1      -9.133   9.207  70.718  1.00  0.00    -0.255 A  
HETATM   21  C   UNL     1     -10.755   9.535  69.433  1.00  0.00    -0.225 A  
HETATM   22  N   UNL     1     -10.483   9.401  70.712  1.00  0.00    -0.280 NA 
HETATM   23  N   UNL     1      -8.548   9.234  69.518  1.00  0.00    -0.137 NA 
ENDBRANCH   5  19
TORSDOF 2
ENDMDL
MODEL      107
REMARK 921   NORMALIZED FREE ENERGY PREDICTED BY IDOCK:   -2.96 KCAL/MOL
REMARK 922        TOTAL FREE ENERGY PREDICTED BY IDOCK:   -4.13 KCAL/MOL
REMARK 923 INTER-LIGAND FREE ENERGY PREDICTED BY IDOCK:   -3.67 KCAL/MOL
REMARK 924 INTRA-LIGAND FREE ENERGY PREDICTED BY IDOCK:   -0.45 KCAL/MOL
REMARK 927      BINDING AFFINITY PREDICTED BY RF-SCORE:    0.00 PKD
ROOT
HETATM    1  O   UNL     1      -8.743   8.100  67.030  1.00  0.00    -0.127 OA 
HETATM    2  C   UNL     1      -9.002   9.049  68.092  1.00  0.00    -0.133 C  
HETATM    3  H   UNL     1      -8.909   7.223  67.356  1.00  0.00     0.000 HD 
HETATM    4  C   UNL     1      -7.978   8.777  69.200  1.00  0.00    -0.109 A  
HETATM    5  C   UNL     1     -10.489   8.893  68.507  1.00  0.00    -0.182 C  
HETATM    6  C   UNL     1      -8.729  10.483  67.558  1.00  0.00    -0.125 C  
HETATM    7  C   UNL     1      -6.749   8.152  68.905  1.00  0.00    -0.049 A  
HETATM    8  F   UNL     1      -5.139   8.116  72.156  1.00  0.00    -0.034 F  
HETATM    9  C   UNL     1      -8.188   9.183  70.528  1.00  0.00    -0.180 A  
HETATM   10  C   UNL     1      -7.255   8.941  71.532  1.00  0.00    -0.079 A  
HETATM   11  C   UNL     1      -5.793   7.933  69.900  1.00  0.00    -0.023 A  
HETATM   12  C   UNL     1      -6.060   8.322  71.206  1.00  0.00    -0.036 A  
HETATM   13  F   UNL     1      -9.290   9.871  70.852  1.00  0.00    -0.207 F  
ENDROOT
BRANCH   6  14
HETATM   14  N   UNL     1      -9.577  10.864  66.445  1.00  0.00    -0.191 NA 
HETATM   15  N   UNL     1     -11.115  11.802  65.221  1.00  0.00    -0.297 NA 
HETATM   16  N   UNL     1      -9.389  10.316  65.227  1.00  0.00    -0.195 NA 
HETATM   17  C   UNL     1     -10.616  11.736  66.435  1.00  0.00    -0.255 A  
HETATM   18  C   UNL     1     -10.333  10.938  64.513  1.00  0.00    -0.348 A  
ENDBRANCH   6  14
BRANCH   5  19
HETATM   19  N   UNL     1     -10.796   7.613  69.114  1.00  0.00    -0.132 NA 
HETATM   20  C   UNL     1     -11.406   6.219  70.524  1.00  0.00    -0.361 A  
HETATM   21  C   UNL     1     -10.773   6.384  68.535  1.00  0.00    -0.288 A  
HETATM   22  N   UNL     1     -11.148   5.478  69.409  1.00  0.00    -0.056 NA 
HETATM   23  N   UNL     1     -11.232   7.537  70.387  1.00  0.00    -0.267 NA 
ENDBRANCH   5  19
TORSDOF 2
ENDMDL
MODEL      108
REMARK 921   NORMALIZED FREE ENERGY PREDICTED BY IDOCK:   -2.90 KCAL/MOL
REMARK 922        TOTAL FREE ENERGY PREDICTED BY IDOCK:   -4.07 KCAL/MOL
REMARK 923 INTER-LIGAND FREE ENERGY PREDICTED BY IDOCK:   -3.62 KCAL/MOL
REMARK 924 INTRA-LIGAND FREE ENERGY PREDICTED BY IDOCK:   -0.45 KCAL/MOL
REMARK 927      BINDING AFFINITY PREDICTED BY RF-SCORE:    0.00 PKD
ROOT
HETATM    1  O   UNL     1      -7.836   8.408  65.605  1.00  0.00    -0.097 OA 
HETATM    2  C   UNL     1      -8.680   9.110  66.549  1.00  0.00    -0.128 C  
HETATM    3  H   UNL     1      -7.810   7.488  65.844  1.00  0.00     0.000 HD 
HETATM    4  C   UNL     1      -7.997   9.018  67.919  1.00  0.00    -0.102 A  
HETATM    5  C   UNL     1     -10.097   8.483  66.468  1.00  0.00    -0.258 C  
HETATM    6  C   UNL     1      -8.722  10.614  66.159  1.00  0.00    -0.170 C  
HETATM    7  C   UNL     1      -6.606   8.814  68.016  1.00  0.00    -0.061 A  
HETATM    8  F   UNL     1      -6.101   8.865  71.609  1.00  0.00    -0.045 F  
HETATM    9  C   UNL     1      -8.706   9.187  69.120  1.00  0.00    -0.138 A  
HETATM   10  C   UNL     1      -8.085   9.110  70.363  1.00  0.00    -0.166 A  
HETATM   11  C   UNL     1      -5.968   8.766  69.259  1.00  0.00    -0.041 A  
HETATM   12  C   UNL     1      -6.716   8.905  70.420  1.00  0.00    -0.047 A  
HETATM   13  F   UNL     1     -10.012   9.485  69.091  1.00  0.00    -0.163 F  
ENDROOT
BRANCH   6  14
HETATM   14  N   UNL     1      -9.278  10.861  64.842  1.00  0.00    -0.204 NA 
HETATM   15  N   UNL     1      -9.566  10.959  62.686  1.00  0.00    -0.280 NA 
HETATM   16  N   UNL     1     -10.480  11.457  64.712  1.00  0.00    -0.291 NA 
HETATM   17  C   UNL     1      -8.735  10.581  63.631  1.00  0.00    -0.181 A  
HETATM   18  C   UNL     1     -10.621  11.471  63.382  1.00  0.00    -0.395 A  
ENDBRANCH   6  14
BRANCH   5  19
HETATM   19  N   UNL     1     -10.155   7.107  66.920  1.00  0.00    -0.226 NA 
HETATM   20  C   UNL     1      -9.637   5.114  67.174  1.00  0.00    -0.146 A  
HETATM   21  C   UNL     1     -11.027   6.551  67.800  1.00  0.00    -0.316 A  
HETATM   22  N   UNL     1     -10.728   5.283  67.975  1.00  0.00    -0.016 NA 
HETATM   23  N   UNL     1      -9.229   6.210  66.527  1.00  0.00    -0.146 NA 
ENDBRANCH   5  19
TORSDOF 2
ENDMDL
MODEL      109
REMARK 921   NORMALIZED FREE ENERGY PREDICTED BY IDOCK:   -2.87 KCAL/MOL
REMARK 922        TOTAL FREE ENERGY PREDICTED BY IDOCK:   -4.03 KCAL/MOL
REMARK 923 INTER-LIGAND FREE ENERGY PREDICTED BY IDOCK:   -3.94 KCAL/MOL
REMARK 924 INTRA-LIGAND FREE ENERGY PREDICTED BY IDOCK:   -0.10 KCAL/MOL
REMARK 927      BINDING AFFINITY PREDICTED BY RF-SCORE:    0.00 PKD
ROOT
HETATM    1  O   UNL     1      -9.381   7.370  71.596  1.00  0.00    -0.149 OA 
HETATM    2  C   UNL     1      -9.568   8.124  70.374  1.00  0.00    -0.170 C  
HETATM    3  H   UNL     1      -8.458   7.375  71.820  1.00  0.00     0.000 HD 
HETATM    4  C   UNL     1      -8.830   7.369  69.262  1.00  0.00    -0.136 A  
HETATM    5  C   UNL     1      -9.075   9.572  70.637  1.00  0.00    -0.174 C  
HETATM    6  C   UNL     1     -11.079   8.117  70.009  1.00  0.00    -0.146 C  
HETATM    7  C   UNL     1      -8.584   5.986  69.373  1.00  0.00    -0.122 A  
HETATM    8  F   UNL     1      -6.928   5.275  66.224  1.00  0.00    -0.060 F  
HETATM    9  C   UNL     1      -8.425   7.999  68.074  1.00  0.00    -0.126 A  
HETATM   10  C   UNL     1      -7.761   7.312  67.061  1.00  0.00    -0.111 A  
HETATM   11  C   UNL     1      -7.946   5.282  68.349  1.00  0.00    -0.087 A  
HETATM   12  C   UNL     1      -7.533   5.954  67.207  1.00  0.00    -0.081 A  
HETATM   13  F   UNL     1      -8.720   9.289  67.864  1.00  0.00    -0.122 F  
ENDROOT
BRANCH   6  14
HETATM   14  N   UNL     1     -11.926   8.734  71.012  1.00  0.00    -0.280 NA 
HETATM   15  N   UNL     1     -13.073  10.179  72.169  1.00  0.00    -0.419 NA 
HETATM   16  N   UNL     1     -12.448   7.995  72.011  1.00  0.00    -0.318 NA 
HETATM   17  C   UNL     1     -12.291  10.036  71.123  1.00  0.00    -0.377 A  
HETATM   18  C   UNL     1     -13.158   8.915  72.672  1.00  0.00    -0.286 A  
ENDBRANCH   6  14
BRANCH   5  19
HETATM   19  N   UNL     1      -7.650   9.669  70.880  1.00  0.00    -0.318 NA 
HETATM   20  C   UNL     1      -5.715  10.419  70.867  1.00  0.00    -0.082 A  
HETATM   21  C   UNL     1      -6.868   8.843  71.624  1.00  0.00    -0.053 A  
HETATM   22  N   UNL     1      -5.632   9.290  71.627  1.00  0.00    -0.068 NA 
HETATM   23  N   UNL     1      -6.936  10.710  70.408  1.00  0.00    -0.251 NA 
ENDBRANCH   5  19
TORSDOF 2
ENDMDL
MODEL      110
REMARK 921   NORMALIZED FREE ENERGY PREDICTED BY IDOCK:   -2.74 KCAL/MOL
REMARK 922        TOTAL FREE ENERGY PREDICTED BY IDOCK:   -3.88 KCAL/MOL
REMARK 923 INTER-LIGAND FREE ENERGY PREDICTED BY IDOCK:   -4.12 KCAL/MOL
REMARK 924 INTRA-LIGAND FREE ENERGY PREDICTED BY IDOCK:    0.24 KCAL/MOL
REMARK 927      BINDING AFFINITY PREDICTED BY RF-SCORE:    0.00 PKD
ROOT
HETATM    1  O   UNL     1      -9.196   8.415  70.145  1.00  0.00    -0.155 OA 
HETATM    2  C   UNL     1     -10.306   7.942  69.345  1.00  0.00    -0.220 C  
HETATM    3  H   UNL     1      -8.407   8.395  69.617  1.00  0.00     0.000 HD 
HETATM    4  C   UNL     1     -10.025   6.473  69.009  1.00  0.00    -0.161 A  
HETATM    5  C   UNL     1     -10.440   8.890  68.123  1.00  0.00    -0.202 C  
HETATM    6  C   UNL     1     -11.597   7.977  70.210  1.00  0.00     0.003 C  
HETATM    7  C   UNL     1      -9.183   5.696  69.831  1.00  0.00    -0.173 A  
HETATM    8  F   UNL     1      -9.326   2.463  68.189  1.00  0.00    -0.189 F  
HETATM    9  C   UNL     1     -10.631   5.826  67.919  1.00  0.00    -0.231 A  
HETATM   10  C   UNL     1     -10.382   4.490  67.619  1.00  0.00     0.098 A  
HETATM   11  C   UNL     1      -8.951   4.346  69.555  1.00  0.00    -0.148 A  
HETATM   12  C   UNL     1      -9.545   3.759  68.446  1.00  0.00    -0.105 A  
HETATM   13  F   UNL     1     -11.520   6.482  67.161  1.00  0.00    -0.437 F  
ENDROOT
BRANCH   6  14
HETATM   14  N   UNL     1     -11.955   9.303  70.673  1.00  0.00    -0.210 NA 
HETATM   15  N   UNL     1     -11.996  11.454  71.006  1.00  0.00    -0.189 NA 
HETATM   16  N   UNL     1     -12.998   9.472  71.511  1.00  0.00    -0.363 NA 
HETATM   17  C   UNL     1     -11.357  10.487  70.390  1.00  0.00    -0.328 A  
HETATM   18  C   UNL     1     -12.996  10.802  71.664  1.00  0.00    -0.476 A  
ENDBRANCH   6  14
BRANCH   5  19
HETATM   19  N   UNL     1      -9.315   8.832  67.212  1.00  0.00    -0.144 NA 
HETATM   20  C   UNL     1      -7.355   8.779  66.533  1.00  0.00    -0.081 A  
HETATM   21  C   UNL     1      -9.337   8.654  65.865  1.00  0.00    -0.195 A  
HETATM   22  N   UNL     1      -8.106   8.624  65.405  1.00  0.00    -0.114 NA 
HETATM   23  N   UNL     1      -8.049   8.882  67.670  1.00  0.00    -0.106 NA 
ENDBRANCH   5  19
TORSDOF 2
ENDMDL
MODEL      111
REMARK 921   NORMALIZED FREE ENERGY PREDICTED BY IDOCK:   -2.38 KCAL/MOL
REMARK 922        TOTAL FREE ENERGY PREDICTED BY IDOCK:   -3.48 KCAL/MOL
REMARK 923 INTER-LIGAND FREE ENERGY PREDICTED BY IDOCK:   -3.44 KCAL/MOL
REMARK 924 INTRA-LIGAND FREE ENERGY PREDICTED BY IDOCK:   -0.04 KCAL/MOL
REMARK 927      BINDING AFFINITY PREDICTED BY RF-SCORE:    0.00 PKD
ROOT
HETATM    1  O   UNL     1      -9.281   8.101  68.699  1.00  0.00    -0.143 OA 
HETATM    2  C   UNL     1      -8.522   9.322  68.876  1.00  0.00    -0.129 C  
HETATM    3  H   UNL     1      -9.584   8.057  67.800  1.00  0.00     0.000 HD 
HETATM    4  C   UNL     1      -9.494  10.490  68.668  1.00  0.00    -0.172 A  
HETATM    5  C   UNL     1      -7.321   9.272  67.895  1.00  0.00    -0.080 C  
HETATM    6  C   UNL     1      -8.027   9.393  70.347  1.00  0.00    -0.172 C  
HETATM    7  C   UNL     1     -10.878  10.318  68.869  1.00  0.00    -0.263 A  
HETATM    8  F   UNL     1     -12.140  13.657  68.216  1.00  0.00    -0.368 F  
HETATM    9  C   UNL     1      -9.051  11.780  68.331  1.00  0.00    -0.176 A  
HETATM   10  C   UNL     1      -9.932  12.842  68.150  1.00  0.00    -0.229 A  
HETATM   11  C   UNL     1     -11.768  11.385  68.720  1.00  0.00    -0.404 A  
HETATM   12  C   UNL     1     -11.286  12.634  68.352  1.00  0.00    -0.290 A  
HETATM   13  F   UNL     1      -7.739  12.031  68.226  1.00  0.00    -0.098 F  
ENDROOT
BRANCH   6  14
HETATM   14  N   UNL     1      -7.150   8.302  70.723  1.00  0.00    -0.041 NA 
HETATM   15  N   UNL     1      -6.388   6.359  71.343  1.00  0.00    -0.044 NA 
HETATM   16  N   UNL     1      -5.814   8.482  70.755  1.00  0.00    -0.032 NA 
HETATM   17  C   UNL     1      -7.482   7.039  71.088  1.00  0.00    -0.081 A  
HETATM   18  C   UNL     1      -5.395   7.264  71.114  1.00  0.00    -0.027 A  
ENDBRANCH   6  14
BRANCH   5  19
HETATM   19  N   UNL     1      -7.705   9.311  66.498  1.00  0.00    -0.093 NA 
HETATM   20  C   UNL     1      -7.847   9.957  64.531  1.00  0.00    -0.142 A  
HETATM   21  C   UNL     1      -8.405   8.383  65.796  1.00  0.00    -0.146 A  
HETATM   22  N   UNL     1      -8.518   8.770  64.545  1.00  0.00    -0.165 NA 
HETATM   23  N   UNL     1      -7.306  10.320  65.698  1.00  0.00    -0.144 NA 
ENDBRANCH   5  19
TORSDOF 2
ENDMDL
MODEL      112
REMARK 921   NORMALIZED FREE ENERGY PREDICTED BY IDOCK:   -2.37 KCAL/MOL
REMARK 922        TOTAL FREE ENERGY PREDICTED BY IDOCK:   -3.47 KCAL/MOL
REMARK 923 INTER-LIGAND FREE ENERGY PREDICTED BY IDOCK:   -3.29 KCAL/MOL
REMARK 924 INTRA-LIGAND FREE ENERGY PREDICTED BY IDOCK:   -0.18 KCAL/MOL
REMARK 927      BINDING AFFINITY PREDICTED BY RF-SCORE:    0.00 PKD
ROOT
HETATM    1  O   UNL     1      -9.531   8.144  70.837  1.00  0.00    -0.158 OA 
HETATM    2  C   UNL     1      -8.574   7.209  70.283  1.00  0.00    -0.143 C  
HETATM    3  H   UNL     1     -10.271   7.657  71.180  1.00  0.00     0.000 HD 
HETATM    4  C   UNL     1      -9.254   6.521  69.093  1.00  0.00    -0.135 A  
HETATM    5  C   UNL     1      -8.124   6.265  71.430  1.00  0.00    -0.117 C  
HETATM    6  C   UNL     1      -7.364   8.006  69.722  1.00  0.00    -0.074 C  
HETATM    7  C   UNL     1     -10.316   7.148  68.411  1.00  0.00    -0.220 A  
HETATM    8  F   UNL     1     -11.048   4.733  65.803  1.00  0.00    -0.339 F  
HETATM    9  C   UNL     1      -8.818   5.281  68.598  1.00  0.00    -0.096 A  
HETATM   10  C   UNL     1      -9.431   4.659  67.513  1.00  0.00    -0.182 A  
HETATM   11  C   UNL     1     -10.917   6.547  67.302  1.00  0.00    -0.475 A  
HETATM   12  C   UNL     1     -10.475   5.304  66.870  1.00  0.00    -0.254 A  
HETATM   13  F   UNL     1      -7.749   4.682  69.139  1.00  0.00    -0.064 F  
ENDROOT
BRANCH   6  14
HETATM   14  N   UNL     1      -6.656   8.778  70.725  1.00  0.00    -0.044 NA 
HETATM   15  N   UNL     1      -5.527   9.362  72.492  1.00  0.00    -0.175 NA 
HETATM   16  N   UNL     1      -6.536  10.115  70.595  1.00  0.00    -0.278 NA 
HETATM   17  C   UNL     1      -6.065   8.341  71.865  1.00  0.00    -0.049 A  
HETATM   18  C   UNL     1      -5.820  10.419  71.683  1.00  0.00     0.321 A  
ENDBRANCH   6  14
BRANCH   5  19
HETATM   19  N   UNL     1      -9.181   5.411  71.932  1.00  0.00    -0.138 NA 
HETATM   20  C   UNL     1     -11.010   4.829  72.723  1.00  0.00    -0.194 A  
HETATM   21  C   UNL     1      -9.222   4.053  71.954  1.00  0.00    -0.126 A  
HETATM   22  N   UNL     1     -10.369   3.655  72.459  1.00  0.00    -0.156 NA 
HETATM   23  N   UNL     1     -10.335   5.934  72.393  1.00  0.00    -0.192 NA 
ENDBRANCH   5  19
TORSDOF 2
ENDMDL
MODEL      113
REMARK 921   NORMALIZED FREE ENERGY PREDICTED BY IDOCK:   -2.31 KCAL/MOL
REMARK 922        TOTAL FREE ENERGY PREDICTED BY IDOCK:   -3.40 KCAL/MOL
REMARK 923 INTER-LIGAND FREE ENERGY PREDICTED BY IDOCK:   -2.51 KCAL/MOL
REMARK 924 INTRA-LIGAND FREE ENERGY PREDICTED BY IDOCK:   -0.89 KCAL/MOL
REMARK 927      BINDING AFFINITY PREDICTED BY RF-SCORE:    0.00 PKD
ROOT
HETATM    1  O   UNL     1      -9.196   7.303  67.357  1.00  0.00    -0.126 OA 
HETATM    2  C   UNL     1      -7.967   7.863  66.832  1.00  0.00    -0.108 C  
HETATM    3  H   UNL     1      -9.843   7.996  67.424  1.00  0.00     0.000 HD 
HETATM    4  C   UNL     1      -7.450   8.866  67.870  1.00  0.00    -0.092 A  
HETATM    5  C   UNL     1      -8.283   8.455  65.433  1.00  0.00    -0.144 C  
HETATM    6  C   UNL     1      -6.909   6.730  66.722  1.00  0.00    -0.061 C  
HETATM    7  C   UNL     1      -7.815   8.749  69.226  1.00  0.00    -0.100 A  
HETATM    8  F   UNL     1      -5.985  11.502  70.723  1.00  0.00    -0.149 F  
HETATM    9  C   UNL     1      -6.556   9.896  67.533  1.00  0.00    -0.069 A  
HETATM   10  C   UNL     1      -6.081  10.802  68.476  1.00  0.00    -0.043 A  
HETATM   11  C   UNL     1      -7.318   9.635  70.186  1.00  0.00    -0.141 A  
HETATM   12  C   UNL     1      -6.464  10.659  69.799  1.00  0.00    -0.110 A  
HETATM   13  F   UNL     1      -6.093   9.997  66.280  1.00  0.00    -0.058 F  
ENDROOT
BRANCH   6  14
HETATM   14  N   UNL     1      -7.293   5.657  65.825  1.00  0.00    -0.072 NA 
HETATM   15  N   UNL     1      -7.353   4.247  64.167  1.00  0.00    -0.061 NA 
HETATM   16  N   UNL     1      -8.385   4.910  66.085  1.00  0.00    -0.111 NA 
HETATM   17  C   UNL     1      -6.694   5.264  64.673  1.00  0.00    -0.047 A  
HETATM   18  C   UNL     1      -8.363   4.051  65.060  1.00  0.00    -0.105 A  
ENDBRANCH   6  14
BRANCH   5  19
HETATM   19  N   UNL     1      -9.185   9.590  65.468  1.00  0.00    -0.217 NA 
HETATM   20  C   UNL     1     -10.804  10.779  65.985  1.00  0.00    -0.032 A  
HETATM   21  C   UNL     1      -9.038  10.795  64.860  1.00  0.00    -0.198 A  
HETATM   22  N   UNL     1     -10.056  11.569  65.164  1.00  0.00    -0.256 NA 
HETATM   23  N   UNL     1     -10.299   9.565  66.225  1.00  0.00    -0.209 NA 
ENDBRANCH   5  19
TORSDOF 2
ENDMDL
MODEL      114
REMARK 921   NORMALIZED FREE ENERGY PREDICTED BY IDOCK:   -2.28 KCAL/MOL
REMARK 922        TOTAL FREE ENERGY PREDICTED BY IDOCK:   -3.37 KCAL/MOL
REMARK 923 INTER-LIGAND FREE ENERGY PREDICTED BY IDOCK:   -3.19 KCAL/MOL
REMARK 924 INTRA-LIGAND FREE ENERGY PREDICTED BY IDOCK:   -0.18 KCAL/MOL
REMARK 927      BINDING AFFINITY PREDICTED BY RF-SCORE:    0.00 PKD
ROOT
HETATM    1  O   UNL     1      -9.974  10.184  69.395  1.00  0.00    -0.204 OA 
HETATM    2  C   UNL     1      -8.990   9.651  68.476  1.00  0.00    -0.124 C  
HETATM    3  H   UNL     1     -10.442  10.891  68.966  1.00  0.00     0.000 HD 
HETATM    4  C   UNL     1      -7.974  10.768  68.206  1.00  0.00    -0.118 A  
HETATM    5  C   UNL     1      -9.750   9.127  67.229  1.00  0.00    -0.173 C  
HETATM    6  C   UNL     1      -8.225   8.495  69.179  1.00  0.00    -0.119 C  
HETATM    7  C   UNL     1      -7.786  11.808  69.138  1.00  0.00     0.115 A  
HETATM    8  F   UNL     1      -5.160  13.750  67.556  1.00  0.00    -0.071 F  
HETATM    9  C   UNL     1      -7.156  10.774  67.064  1.00  0.00    -0.104 A  
HETATM   10  C   UNL     1      -6.230  11.784  66.823  1.00  0.00    -0.094 A  
HETATM   11  C   UNL     1      -6.836  12.810  68.920  1.00  0.00    -0.096 A  
HETATM   12  C   UNL     1      -6.074  12.792  67.759  1.00  0.00    -0.134 A  
HETATM   13  F   UNL     1      -7.217   9.759  66.191  1.00  0.00    -0.091 F  
ENDROOT
BRANCH   6  14
HETATM   14  N   UNL     1      -9.072   7.385  69.569  1.00  0.00    -0.144 NA 
HETATM   15  N   UNL     1     -10.698   6.192  70.389  1.00  0.00    -0.261 NA 
HETATM   16  N   UNL     1      -8.712   6.119  69.278  1.00  0.00    -0.122 NA 
HETATM   17  C   UNL     1     -10.248   7.417  70.243  1.00  0.00    -0.200 A  
HETATM   18  C   UNL     1      -9.746   5.432  69.775  1.00  0.00    -0.184 A  
ENDBRANCH   6  14
BRANCH   5  19
HETATM   19  N   UNL     1     -10.402  10.168  66.461  1.00  0.00    -0.223 NA 
HETATM   20  C   UNL     1     -11.704  11.709  65.975  1.00  0.00     0.113 A  
HETATM   21  C   UNL     1     -10.071  10.631  65.227  1.00  0.00    -0.297 A  
HETATM   22  N   UNL     1     -10.886  11.605  64.889  1.00  0.00    -0.303 NA 
HETATM   23  N   UNL     1     -11.432  10.868  66.977  1.00  0.00    -0.357 NA 
ENDBRANCH   5  19
TORSDOF 2
ENDMDL
MODEL      115
REMARK 921   NORMALIZED FREE ENERGY PREDICTED BY IDOCK:   -2.23 KCAL/MOL
REMARK 922        TOTAL FREE ENERGY PREDICTED BY IDOCK:   -3.31 KCAL/MOL
REMARK 923 INTER-LIGAND FREE ENERGY PREDICTED BY IDOCK:   -4.02 KCAL/MOL
REMARK 924 INTRA-LIGAND FREE ENERGY PREDICTED BY IDOCK:    0.71 KCAL/MOL
REMARK 927      BINDING AFFINITY PREDICTED BY RF-SCORE:    0.00 PKD
ROOT
HETATM    1  O   UNL     1     -10.168   8.525  68.330  1.00  0.00    -0.193 OA 
HETATM    2  C   UNL     1      -9.162   8.366  69.359  1.00  0.00    -0.154 C  
HETATM    3  H   UNL     1     -11.023   8.355  68.709  1.00  0.00     0.000 HD 
HETATM    4  C   UNL     1      -9.183   6.892  69.785  1.00  0.00    -0.147 A  
HETATM    5  C   UNL     1      -9.477   9.388  70.484  1.00  0.00    -0.269 C  
HETATM    6  C   UNL     1      -7.765   8.645  68.740  1.00  0.00    -0.097 C  
HETATM    7  C   UNL     1      -9.661   5.898  68.908  1.00  0.00    -0.168 A  
HETATM    8  F   UNL     1      -9.156   2.884  70.864  1.00  0.00    -0.127 F  
HETATM    9  C   UNL     1      -8.679   6.466  71.024  1.00  0.00    -0.135 A  
HETATM   10  C   UNL     1      -8.691   5.127  71.408  1.00  0.00    -0.137 A  
HETATM   11  C   UNL     1      -9.649   4.549  69.271  1.00  0.00    -0.258 A  
HETATM   12  C   UNL     1      -9.173   4.178  70.521  1.00  0.00    -0.124 A  
HETATM   13  F   UNL     1      -8.118   7.350  71.860  1.00  0.00    -0.094 F  
ENDROOT
BRANCH   6  14
HETATM   14  N   UNL     1      -7.615   9.989  68.217  1.00  0.00    -0.083 NA 
HETATM   15  N   UNL     1      -7.669  12.153  67.985  1.00  0.00    -0.123 NA 
HETATM   16  N   UNL     1      -7.049  10.191  67.010  1.00  0.00    -0.088 NA 
HETATM   17  C   UNL     1      -7.993  11.162  68.783  1.00  0.00    -0.144 A  
HETATM   18  C   UNL     1      -7.083  11.526  66.926  1.00  0.00    -0.135 A  
ENDBRANCH   6  14
BRANCH   5  19
HETATM   19  N   UNL     1     -10.720   9.126  71.181  1.00  0.00    -0.282 NA 
HETATM   20  C   UNL     1     -12.035   8.450  72.637  1.00  0.00    -0.277 A  
HETATM   21  C   UNL     1     -11.968   9.552  70.858  1.00  0.00    -0.295 A  
HETATM   22  N   UNL     1     -12.826   9.131  71.760  1.00  0.00    -0.351 NA 
HETATM   23  N   UNL     1     -10.732   8.440  72.342  1.00  0.00    -0.339 NA 
ENDBRANCH   5  19
TORSDOF 2
ENDMDL
MODEL      116
REMARK 921   NORMALIZED FREE ENERGY PREDICTED BY IDOCK:   -2.10 KCAL/MOL
REMARK 922        TOTAL FREE ENERGY PREDICTED BY IDOCK:   -3.17 KCAL/MOL
REMARK 923 INTER-LIGAND FREE ENERGY PREDICTED BY IDOCK:   -3.27 KCAL/MOL
REMARK 924 INTRA-LIGAND FREE ENERGY PREDICTED BY IDOCK:    0.11 KCAL/MOL
REMARK 927      BINDING AFFINITY PREDICTED BY RF-SCORE:    0.00 PKD
ROOT
HETATM    1  O   UNL     1      -9.916   7.253  68.975  1.00  0.00    -0.169 OA 
HETATM    2  C   UNL     1      -8.870   7.782  68.125  1.00  0.00    -0.125 C  
HETATM    3  H   UNL     1     -10.462   7.971  69.271  1.00  0.00     0.000 HD 
HETATM    4  C   UNL     1      -7.993   8.686  69.000  1.00  0.00    -0.115 A  
HETATM    5  C   UNL     1      -9.554   8.483  66.921  1.00  0.00    -0.197 C  
HETATM    6  C   UNL     1      -7.977   6.606  67.640  1.00  0.00    -0.115 C  
HETATM    7  C   UNL     1      -7.935   8.497  70.396  1.00  0.00    -0.099 A  
HETATM    8  F   UNL     1      -5.550  11.046  71.387  1.00  0.00    -0.081 F  
HETATM    9  C   UNL     1      -7.174   9.688  68.454  1.00  0.00    -0.074 A  
HETATM   10  C   UNL     1      -6.373  10.504  69.248  1.00  0.00    -0.051 A  
HETATM   11  C   UNL     1      -7.110   9.290  71.198  1.00  0.00    -0.058 A  
HETATM   12  C   UNL     1      -6.344  10.292  70.617  1.00  0.00    -0.077 A  
HETATM   13  F   UNL     1      -7.108   9.850  67.126  1.00  0.00    -0.081 F  
ENDROOT
BRANCH   6  14
HETATM   14  N   UNL     1      -8.688   5.617  66.855  1.00  0.00    -0.113 NA 
HETATM   15  N   UNL     1     -10.032   4.019  66.237  1.00  0.00    -0.163 NA 
HETATM   16  N   UNL     1      -8.424   5.473  65.540  1.00  0.00    -0.139 NA 
HETATM   17  C   UNL     1      -9.636   4.737  67.263  1.00  0.00    -0.163 A  
HETATM   18  C   UNL     1      -9.285   4.506  65.205  1.00  0.00    -0.156 A  
ENDBRANCH   6  14
BRANCH   5  19
HETATM   19  N   UNL     1     -10.321   9.657  67.287  1.00  0.00    -0.233 NA 
HETATM   20  C   UNL     1     -11.125  11.568  67.196  1.00  0.00    -0.297 A  
HETATM   21  C   UNL     1     -11.191   9.801  68.320  1.00  0.00    -0.012 A  
HETATM   22  N   UNL     1     -11.711  11.008  68.293  1.00  0.00    -0.529 NA 
HETATM   23  N   UNL     1     -10.285  10.771  66.529  1.00  0.00    -0.228 NA 
ENDBRANCH   5  19
TORSDOF 2
ENDMDL
MODEL      117
REMARK 921   NORMALIZED FREE ENERGY PREDICTED BY IDOCK:   -1.60 KCAL/MOL
REMARK 922        TOTAL FREE ENERGY PREDICTED BY IDOCK:   -2.61 KCAL/MOL
REMARK 923 INTER-LIGAND FREE ENERGY PREDICTED BY IDOCK:   -3.52 KCAL/MOL
REMARK 924 INTRA-LIGAND FREE ENERGY PREDICTED BY IDOCK:    0.91 KCAL/MOL
REMARK 927      BINDING AFFINITY PREDICTED BY RF-SCORE:    0.00 PKD
ROOT
HETATM    1  O   UNL     1      -7.053  16.849  66.222  1.00  0.00    -0.245 OA 
HETATM    2  C   UNL     1      -7.948  17.338  67.250  1.00  0.00    -0.187 C  
HETATM    3  H   UNL     1      -6.318  16.415  66.638  1.00  0.00     0.000 HD 
HETATM    4  C   UNL     1      -7.182  18.405  68.042  1.00  0.00    -0.248 A  
HETATM    5  C   UNL     1      -8.428  16.115  68.074  1.00  0.00    -0.168 C  
HETATM    6  C   UNL     1      -9.151  18.048  66.569  1.00  0.00    -0.269 C  
HETATM    7  C   UNL     1      -6.105  19.101  67.456  1.00  0.00    -0.196 A  
HETATM    8  F   UNL     1      -5.154  21.372  70.122  1.00  0.00    -0.408 F  
HETATM    9  C   UNL     1      -7.550  18.775  69.346  1.00  0.00     0.081 A  
HETATM   10  C   UNL     1      -6.859  19.748  70.063  1.00  0.00    -0.139 A  
HETATM   11  C   UNL     1      -5.425  20.101  68.156  1.00  0.00    -0.227 A  
HETATM   12  C   UNL     1      -5.804  20.408  69.456  1.00  0.00    -0.351 A  
HETATM   13  F   UNL     1      -8.627  18.223  69.921  1.00  0.00     0.650 F  
ENDROOT
BRANCH   6  14
HETATM   14  N   UNL     1      -9.936  17.178  65.716  1.00  0.00    -0.567 NA 
HETATM   15  N   UNL     1     -11.468  16.398  64.379  1.00  0.00    -0.830 NA 
HETATM   16  N   UNL     1      -9.564  15.896  65.523  1.00  0.00    -0.402 NA 
HETATM   17  C   UNL     1     -11.079  17.463  65.042  1.00  0.00     0.441 A  
HETATM   18  C   UNL     1     -10.514  15.473  64.683  1.00  0.00     0.071 A  
ENDBRANCH   6  14
BRANCH   5  19
HETATM   19  N   UNL     1      -7.373  15.464  68.824  1.00  0.00    -0.127 NA 
HETATM   20  C   UNL     1      -5.553  15.168  69.776  1.00  0.00    -0.109 A  
HETATM   21  C   UNL     1      -7.405  14.251  69.436  1.00  0.00    -0.011 A  
HETATM   22  N   UNL     1      -6.260  14.033  70.042  1.00  0.00    -0.145 NA 
HETATM   23  N   UNL     1      -6.202  16.088  69.057  1.00  0.00    -0.129 NA 
ENDBRANCH   5  19
TORSDOF 2
ENDMDL
MODEL      118
REMARK 921   NORMALIZED FREE ENERGY PREDICTED BY IDOCK:   -0.71 KCAL/MOL
REMARK 922        TOTAL FREE ENERGY PREDICTED BY IDOCK:   -1.61 KCAL/MOL
REMARK 923 INTER-LIGAND FREE ENERGY PREDICTED BY IDOCK:   -1.65 KCAL/MOL
REMARK 924 INTRA-LIGAND FREE ENERGY PREDICTED BY IDOCK:    0.04 KCAL/MOL
REMARK 927      BINDING AFFINITY PREDICTED BY RF-SCORE:    0.00 PKD
ROOT
HETATM    1  O   UNL     1      -9.914   8.497  69.601  1.00  0.00    -0.185 OA 
HETATM    2  C   UNL     1     -10.198   7.562  70.669  1.00  0.00    -0.202 C  
HETATM    3  H   UNL     1      -9.364   8.067  68.956  1.00  0.00     0.000 HD 
HETATM    4  C   UNL     1      -8.864   7.241  71.354  1.00  0.00    -0.130 A  
HETATM    5  C   UNL     1     -10.935   6.348  70.044  1.00  0.00    -0.337 C  
HETATM    6  C   UNL     1     -11.097   8.266  71.724  1.00  0.00    -0.278 C  
HETATM    7  C   UNL     1      -7.786   8.146  71.286  1.00  0.00    -0.095 A  
HETATM    8  F   UNL     1      -5.273   6.450  73.281  1.00  0.00    -0.032 F  
HETATM    9  C   UNL     1      -8.677   6.076  72.116  1.00  0.00    -0.132 A  
HETATM   10  C   UNL     1      -7.468   5.788  72.743  1.00  0.00    -0.096 A  
HETATM   11  C   UNL     1      -6.578   7.880  71.938  1.00  0.00    -0.050 A  
HETATM   12  C   UNL     1      -6.429   6.699  72.652  1.00  0.00    -0.059 A  
HETATM   13  F   UNL     1      -9.696   5.226  72.302  1.00  0.00    -0.166 F  
ENDROOT
BRANCH   6  14
HETATM   14  N   UNL     1     -12.378   8.702  71.203  1.00  0.00    -0.259 NA 
HETATM   15  N   UNL     1     -13.971   9.891  70.316  1.00  0.00     0.737 NA 
HETATM   16  N   UNL     1     -13.438   7.870  71.219  1.00  0.00    -0.215 NA 
HETATM   17  C   UNL     1     -12.709   9.908  70.677  1.00  0.00    -0.154 A  
HETATM   18  C   UNL     1     -14.376   8.632  70.646  1.00  0.00     0.678 A  
ENDBRANCH   6  14
BRANCH   5  19
HETATM   19  N   UNL     1     -10.119   5.577  69.127  1.00  0.00    -0.196 NA 
HETATM   20  C   UNL     1      -9.224   3.944  68.213  1.00  0.00    -0.155 A  
HETATM   21  C   UNL     1      -9.425   6.022  68.047  1.00  0.00    -0.113 A  
HETATM   22  N   UNL     1      -8.839   5.007  67.452  1.00  0.00    -0.103 NA 
HETATM   23  N   UNL     1     -10.031   4.237  69.237  1.00  0.00    -0.110 NA 
ENDBRANCH   5  19
TORSDOF 2
ENDMDL
MODEL      119
REMARK 921   NORMALIZED FREE ENERGY PREDICTED BY IDOCK:    0.02 KCAL/MOL
REMARK 922        TOTAL FREE ENERGY PREDICTED BY IDOCK:   -0.80 KCAL/MOL
REMARK 923 INTER-LIGAND FREE ENERGY PREDICTED BY IDOCK:   -0.30 KCAL/MOL
REMARK 924 INTRA-LIGAND FREE ENERGY PREDICTED BY IDOCK:   -0.50 KCAL/MOL
REMARK 927      BINDING AFFINITY PREDICTED BY RF-SCORE:    0.00 PKD
ROOT
HETATM    1  O   UNL     1     -10.018   8.891  68.479  1.00  0.00    -0.167 OA 
HETATM    2  C   UNL     1      -8.736   8.218  68.483  1.00  0.00    -0.133 C  
HETATM    3  H   UNL     1      -9.871   9.829  68.498  1.00  0.00     0.000 HD 
HETATM    4  C   UNL     1      -8.061   8.544  69.821  1.00  0.00    -0.116 A  
HETATM    5  C   UNL     1      -7.962   8.677  67.219  1.00  0.00    -0.101 C  
HETATM    6  C   UNL     1      -8.977   6.683  68.453  1.00  0.00    -0.123 C  
HETATM    7  C   UNL     1      -8.831   8.904  70.946  1.00  0.00    -0.268 A  
HETATM    8  F   UNL     1      -6.274   9.330  73.486  1.00  0.00    -0.035 F  
HETATM    9  C   UNL     1      -6.672   8.442  70.002  1.00  0.00    -0.042 A  
HETATM   10  C   UNL     1      -6.060   8.730  71.218  1.00  0.00    -0.052 A  
HETATM   11  C   UNL     1      -8.228   9.166  72.179  1.00  0.00     0.524 A  
HETATM   12  C   UNL     1      -6.848   9.085  72.300  1.00  0.00     0.196 A  
HETATM   13  F   UNL     1      -5.896   8.006  69.000  1.00  0.00    -0.031 F  
ENDROOT
BRANCH   6  14
HETATM   14  N   UNL     1      -9.681   6.226  67.271  1.00  0.00    -0.124 NA 
HETATM   15  N   UNL     1     -11.235   5.781  65.812  1.00  0.00     0.949 NA 
HETATM   16  N   UNL     1      -9.012   5.611  66.275  1.00  0.00    -0.136 NA 
HETATM   17  C   UNL     1     -11.006   6.309  66.993  1.00  0.00    -0.364 A  
HETATM   18  C   UNL     1      -9.998   5.383  65.400  1.00  0.00     0.324 A  
ENDBRANCH   6  14
BRANCH   5  19
HETATM   19  N   UNL     1      -7.608  10.082  67.228  1.00  0.00    -0.095 NA 
HETATM   20  C   UNL     1      -7.795  12.140  67.421  1.00  0.00    -0.168 A  
HETATM   21  C   UNL     1      -6.380  10.638  67.061  1.00  0.00    -0.073 A  
HETATM   22  N   UNL     1      -6.468  11.945  67.171  1.00  0.00    -0.140 NA 
HETATM   23  N   UNL     1      -8.532  11.028  67.493  1.00  0.00    -0.126 NA 
ENDBRANCH   5  19
TORSDOF 2
ENDMDL
MODEL      120
REMARK 921   NORMALIZED FREE ENERGY PREDICTED BY IDOCK:    0.33 KCAL/MOL
REMARK 922        TOTAL FREE ENERGY PREDICTED BY IDOCK:   -0.45 KCAL/MOL
REMARK 923 INTER-LIGAND FREE ENERGY PREDICTED BY IDOCK:   -0.84 KCAL/MOL
REMARK 924 INTRA-LIGAND FREE ENERGY PREDICTED BY IDOCK:    0.39 KCAL/MOL
REMARK 927      BINDING AFFINITY PREDICTED BY RF-SCORE:    0.00 PKD
ROOT
HETATM    1  O   UNL     1      -9.793  10.859  68.422  1.00  0.00    -0.164 OA 
HETATM    2  C   UNL     1      -8.909  11.472  67.452  1.00  0.00    -0.157 C  
HETATM    3  H   UNL     1     -10.677  11.175  68.273  1.00  0.00     0.000 HD 
HETATM    4  C   UNL     1      -8.905  12.979  67.736  1.00  0.00    -0.188 A  
HETATM    5  C   UNL     1      -9.407  11.062  66.040  1.00  0.00    -0.201 C  
HETATM    6  C   UNL     1      -7.464  10.955  67.696  1.00  0.00    -0.095 C  
HETATM    7  C   UNL     1      -9.224  13.470  69.018  1.00  0.00     0.344 A  
HETATM    8  F   UNL     1      -8.800  17.045  68.567  1.00  0.00    -0.219 F  
HETATM    9  C   UNL     1      -8.530  13.921  66.764  1.00  0.00     0.023 A  
HETATM   10  C   UNL     1      -8.519  15.289  67.024  1.00  0.00    -0.258 A  
HETATM   11  C   UNL     1      -9.186  14.839  69.297  1.00  0.00    -0.035 A  
HETATM   12  C   UNL     1      -8.843  15.735  68.294  1.00  0.00    -0.180 A  
HETATM   13  F   UNL     1      -8.118  13.511  65.557  1.00  0.00     1.915 F  
ENDROOT
BRANCH   6  14
HETATM   14  N   UNL     1      -7.322   9.520  67.539  1.00  0.00    -0.090 NA 
HETATM   15  N   UNL     1      -7.200   7.382  67.932  1.00  0.00    -0.088 NA 
HETATM   16  N   UNL     1      -7.099   8.988  66.320  1.00  0.00    -0.085 NA 
HETATM   17  C   UNL     1      -7.366   8.558  68.493  1.00  0.00    -0.092 A  
HETATM   18  C   UNL     1      -7.058   7.683  66.609  1.00  0.00    -0.079 A  
ENDBRANCH   6  14
BRANCH   5  19
HETATM   19  N   UNL     1     -10.709  11.600  65.700  1.00  0.00    -0.273 NA 
HETATM   20  C   UNL     1     -12.319  12.235  64.555  1.00  0.00    -0.384 A  
HETATM   21  C   UNL     1     -11.717  11.950  66.541  1.00  0.00    -0.170 A  
HETATM   22  N   UNL     1     -12.750  12.364  65.842  1.00  0.00    -0.032 NA 
HETATM   23  N   UNL     1     -11.084  11.744  64.413  1.00  0.00    -0.330 NA 
ENDBRANCH   5  19
TORSDOF 2
ENDMDL
MODEL      121
REMARK 921   NORMALIZED FREE ENERGY PREDICTED BY IDOCK:    1.50 KCAL/MOL
REMARK 922        TOTAL FREE ENERGY PREDICTED BY IDOCK:    0.85 KCAL/MOL
REMARK 923 INTER-LIGAND FREE ENERGY PREDICTED BY IDOCK:    0.06 KCAL/MOL
REMARK 924 INTRA-LIGAND FREE ENERGY PREDICTED BY IDOCK:    0.80 KCAL/MOL
REMARK 927      BINDING AFFINITY PREDICTED BY RF-SCORE:    0.00 PKD
ROOT
HETATM    1  O   UNL     1      -8.063   8.085  70.044  1.00  0.00    -0.111 OA 
HETATM    2  C   UNL     1      -9.316   8.161  69.321  1.00  0.00    -0.151 C  
HETATM    3  H   UNL     1      -7.405   8.579  69.569  1.00  0.00     0.000 HD 
HETATM    4  C   UNL     1      -9.103   7.454  67.977  1.00  0.00    -0.130 A  
HETATM    5  C   UNL     1      -9.713   9.659  69.230  1.00  0.00    -0.185 C  
HETATM    6  C   UNL     1     -10.392   7.354  70.099  1.00  0.00    -0.214 C  
HETATM    7  C   UNL     1      -8.100   6.475  67.831  1.00  0.00    -0.116 A  
HETATM    8  F   UNL     1      -8.569   5.447  64.382  1.00  0.00    -0.136 F  
HETATM    9  C   UNL     1      -9.923   7.703  66.864  1.00  0.00    -0.255 A  
HETATM   10  C   UNL     1      -9.735   7.056  65.646  1.00  0.00     0.693 A  
HETATM   11  C   UNL     1      -7.923   5.798  66.621  1.00  0.00    -0.102 A  
HETATM   12  C   UNL     1      -8.737   6.102  65.538  1.00  0.00    -0.098 A  
HETATM   13  F   UNL     1     -10.958   8.548  66.970  1.00  0.00    -0.328 F  
ENDROOT
BRANCH   6  14
HETATM   14  N   UNL     1     -10.651   7.860  71.433  1.00  0.00    -0.210 NA 
HETATM   15  N   UNL     1     -10.971   9.176  73.138  1.00  0.00     2.000 NA 
HETATM   16  N   UNL     1     -10.867   7.006  72.454  1.00  0.00    -0.229 NA 
HETATM   17  C   UNL     1     -10.701   9.148  71.853  1.00  0.00    -0.264 A  
HETATM   18  C   UNL     1     -11.082   7.857  73.464  1.00  0.00     0.534 A  
ENDBRANCH   6  14
BRANCH   5  19
HETATM   19  N   UNL     1      -8.809  10.456  68.427  1.00  0.00    -0.131 NA 
HETATM   20  C   UNL     1      -8.118  11.979  67.198  1.00  0.00    -0.177 A  
HETATM   21  C   UNL     1      -7.469  10.300  68.269  1.00  0.00    -0.086 A  
HETATM   22  N   UNL     1      -7.003  11.248  67.487  1.00  0.00    -0.085 NA 
HETATM   23  N   UNL     1      -9.245  11.551  67.772  1.00  0.00    -0.161 NA 
ENDBRANCH   5  19
TORSDOF 2
ENDMDL
MODEL      122
REMARK 921   NORMALIZED FREE ENERGY PREDICTED BY IDOCK:    2.41 KCAL/MOL
REMARK 922        TOTAL FREE ENERGY PREDICTED BY IDOCK:    1.87 KCAL/MOL
REMARK 923 INTER-LIGAND FREE ENERGY PREDICTED BY IDOCK:    1.19 KCAL/MOL
REMARK 924 INTRA-LIGAND FREE ENERGY PREDICTED BY IDOCK:    0.67 KCAL/MOL
REMARK 927      BINDING AFFINITY PREDICTED BY RF-SCORE:    0.00 PKD
ROOT
HETATM    1  O   UNL     1     -10.838  13.502  70.118  1.00  0.00    -0.197 OA 
HETATM    2  C   UNL     1     -10.103  12.925  69.012  1.00  0.00     0.190 C  
HETATM    3  H   UNL     1     -11.107  14.382  69.881  1.00  0.00     0.000 HD 
HETATM    4  C   UNL     1      -8.827  13.757  68.837  1.00  0.00     0.145 A  
HETATM    5  C   UNL     1     -11.052  12.896  67.784  1.00  0.00    -0.259 C  
HETATM    6  C   UNL     1      -9.663  11.487  69.400  1.00  0.00     0.458 C  
HETATM    7  C   UNL     1      -8.294  14.492  69.916  1.00  0.00     0.642 A  
HETATM    8  F   UNL     1      -5.317  15.937  68.427  1.00  0.00    -0.089 F  
HETATM    9  C   UNL     1      -8.108  13.779  67.630  1.00  0.00    -0.177 A  
HETATM   10  C   UNL     1      -6.946  14.529  67.473  1.00  0.00    -0.188 A  
HETATM   11  C   UNL     1      -7.111  15.222  69.777  1.00  0.00    -0.154 A  
HETATM   12  C   UNL     1      -6.454  15.241  68.554  1.00  0.00    -0.092 A  
HETATM   13  F   UNL     1      -8.508  13.022  66.599  1.00  0.00    -0.163 F  
ENDROOT
BRANCH   6  14
HETATM   14  N   UNL     1     -10.769  10.591  69.675  1.00  0.00    -0.251 NA 
HETATM   15  N   UNL     1     -12.761   9.725  69.831  1.00  0.00     0.485 NA 
HETATM   16  N   UNL     1     -10.547   9.391  70.250  1.00  0.00    -0.230 NA 
HETATM   17  C   UNL     1     -12.092  10.786  69.443  1.00  0.00    -0.244 A  
HETATM   18  C   UNL     1     -11.788   8.893  70.300  1.00  0.00     0.132 A  
ENDBRANCH   6  14
BRANCH   5  19
HETATM   19  N   UNL     1     -11.420  14.210  67.298  1.00  0.00    -0.331 NA 
HETATM   20  C   UNL     1     -11.648  15.821  66.009  1.00  0.00     0.414 A  
HETATM   21  C   UNL     1     -12.132  15.172  67.941  1.00  0.00     0.096 A  
HETATM   22  N   UNL     1     -12.285  16.210  67.150  1.00  0.00     1.331 NA 
HETATM   23  N   UNL     1     -11.124  14.592  66.040  1.00  0.00    -0.323 NA 
ENDBRANCH   5  19
TORSDOF 2
ENDMDL
MODEL      123
REMARK 921   NORMALIZED FREE ENERGY PREDICTED BY IDOCK:   10.79 KCAL/MOL
REMARK 922        TOTAL FREE ENERGY PREDICTED BY IDOCK:   11.23 KCAL/MOL
REMARK 923 INTER-LIGAND FREE ENERGY PREDICTED BY IDOCK:   11.02 KCAL/MOL
REMARK 924 INTRA-LIGAND FREE ENERGY PREDICTED BY IDOCK:    0.21 KCAL/MOL
REMARK 927      BINDING AFFINITY PREDICTED BY RF-SCORE:    0.00 PKD
ROOT
HETATM    1  O   UNL     1      -7.766  11.929  66.880  1.00  0.00    -0.211 OA 
HETATM    2  C   UNL     1      -8.158  10.592  67.273  1.00  0.00    -0.115 C  
HETATM    3  H   UNL     1      -8.360  12.236  66.205  1.00  0.00     0.000 HD 
HETATM    4  C   UNL     1      -7.959   9.687  66.051  1.00  0.00    -0.108 A  
HETATM    5  C   UNL     1      -9.610  10.669  67.815  1.00  0.00    -0.157 C  
HETATM    6  C   UNL     1      -7.186  10.090  68.378  1.00  0.00    -0.073 C  
HETATM    7  C   UNL     1      -7.043  10.037  65.039  1.00  0.00    -0.136 A  
HETATM    8  F   UNL     1      -7.321   7.211  62.781  1.00  0.00    -0.062 F  
HETATM    9  C   UNL     1      -8.626   8.458  65.914  1.00  0.00    -0.158 A  
HETATM   10  C   UNL     1      -8.441   7.634  64.808  1.00  0.00     0.037 A  
HETATM   11  C   UNL     1      -6.827   9.202  63.940  1.00  0.00    -0.089 A  
HETATM   12  C   UNL     1      -7.535   8.013  63.832  1.00  0.00    -0.117 A  
HETATM   13  F   UNL     1      -9.433   8.022  66.891  1.00  0.00    -0.174 F  
ENDROOT
BRANCH   6  14
HETATM   14  N   UNL     1      -7.203  10.898  69.582  1.00  0.00    -0.128 NA 
HETATM   15  N   UNL     1      -6.946  11.593  71.629  1.00  0.00     4.096 NA 
HETATM   16  N   UNL     1      -7.735  12.137  69.563  1.00  0.00     0.533 NA 
HETATM   17  C   UNL     1      -6.750  10.578  70.820  1.00  0.00     0.311 A  
HETATM   18  C   UNL     1      -7.531  12.527  70.826  1.00  0.00     4.602 A  
ENDBRANCH   6  14
BRANCH   5  19
HETATM   19  N   UNL     1     -10.591  11.028  66.811  1.00  0.00    -0.255 NA 
HETATM   20  C   UNL     1     -12.347  11.014  65.706  1.00  0.00     3.231 A  
HETATM   21  C   UNL     1     -10.543  12.055  65.923  1.00  0.00    -0.265 A  
HETATM   22  N   UNL     1     -11.642  12.066  65.202  1.00  0.00    -0.308 NA 
HETATM   23  N   UNL     1     -11.758  10.362  66.713  1.00  0.00     0.570 NA 
ENDBRANCH   5  19
TORSDOF 2
ENDMDL
MODEL      124
REMARK 921   NORMALIZED FREE ENERGY PREDICTED BY IDOCK:   11.20 KCAL/MOL
REMARK 922        TOTAL FREE ENERGY PREDICTED BY IDOCK:   11.69 KCAL/MOL
REMARK 923 INTER-LIGAND FREE ENERGY PREDICTED BY IDOCK:   10.69 KCAL/MOL
REMARK 924 INTRA-LIGAND FREE ENERGY PREDICTED BY IDOCK:    1.00 KCAL/MOL
REMARK 927      BINDING AFFINITY PREDICTED BY RF-SCORE:    0.00 PKD
ROOT
HETATM    1  O   UNL     1     -11.075  13.210  67.739  1.00  0.00    -0.246 OA 
HETATM    2  C   UNL     1      -9.658  13.240  67.439  1.00  0.00    -0.223 C  
HETATM    3  H   UNL     1     -11.375  14.099  67.886  1.00  0.00     0.000 HD 
HETATM    4  C   UNL     1      -8.944  13.757  68.694  1.00  0.00    -0.050 A  
HETATM    5  C   UNL     1      -9.468  14.102  66.163  1.00  0.00    -0.203 C  
HETATM    6  C   UNL     1      -9.167  11.786  67.197  1.00  0.00    -0.179 C  
HETATM    7  C   UNL     1      -9.537  13.622  69.966  1.00  0.00     2.256 A  
HETATM    8  F   UNL     1      -6.992  15.048  72.123  1.00  0.00     1.225 F  
HETATM    9  C   UNL     1      -7.660  14.325  68.643  1.00  0.00    -0.126 A  
HETATM   10  C   UNL     1      -7.009  14.787  69.783  1.00  0.00    -0.158 A  
HETATM   11  C   UNL     1      -8.878  14.054  71.119  1.00  0.00     6.095 A  
HETATM   12  C   UNL     1      -7.624  14.641  71.015  1.00  0.00     2.098 A  
HETATM   13  F   UNL     1      -7.002  14.388  67.478  1.00  0.00    -0.160 F  
ENDROOT
BRANCH   6  14
HETATM   14  N   UNL     1      -9.814  11.129  66.078  1.00  0.00    -0.219 NA 
HETATM   15  N   UNL     1     -11.113   9.869  64.867  1.00  0.00     2.105 NA 
HETATM   16  N   UNL     1      -9.428  11.400  64.814  1.00  0.00    -0.193 NA 
HETATM   17  C   UNL     1     -10.807  10.206  66.099  1.00  0.00     0.167 A  
HETATM   18  C   UNL     1     -10.266  10.627  64.115  1.00  0.00    -0.295 A  
ENDBRANCH   6  14
BRANCH   5  19
HETATM   19  N   UNL     1      -9.806  15.500  66.345  1.00  0.00    -0.260 NA 
HETATM   20  C   UNL     1      -9.715  17.455  67.032  1.00  0.00    -0.276 A  
HETATM   21  C   UNL     1     -10.763  16.221  65.704  1.00  0.00    -0.286 A  
HETATM   22  N   UNL     1     -10.733  17.465  66.126  1.00  0.00    -0.180 NA 
HETATM   23  N   UNL     1      -9.096  16.281  67.183  1.00  0.00    -0.199 NA 
ENDBRANCH   5  19
TORSDOF 2
ENDMDL
MODEL      125
REMARK 921   NORMALIZED FREE ENERGY PREDICTED BY IDOCK:   11.31 KCAL/MOL
REMARK 922        TOTAL FREE ENERGY PREDICTED BY IDOCK:   11.81 KCAL/MOL
REMARK 923 INTER-LIGAND FREE ENERGY PREDICTED BY IDOCK:   11.67 KCAL/MOL
REMARK 924 INTRA-LIGAND FREE ENERGY PREDICTED BY IDOCK:    0.14 KCAL/MOL
REMARK 927      BINDING AFFINITY PREDICTED BY RF-SCORE:    0.00 PKD
ROOT
HETATM    1  O   UNL     1      -9.357  16.381  70.689  1.00  0.00     1.815 OA 
HETATM    2  C   UNL     1      -9.787  16.124  69.330  1.00  0.00    -0.250 C  
HETATM    3  H   UNL     1      -8.606  16.962  70.667  1.00  0.00     0.000 HD 
HETATM    4  C   UNL     1      -8.649  15.367  68.634  1.00  0.00    -0.179 A  
HETATM    5  C   UNL     1     -10.167  17.487  68.693  1.00  0.00    -0.373 C  
HETATM    6  C   UNL     1     -11.015  15.173  69.366  1.00  0.00    -0.264 C  
HETATM    7  C   UNL     1      -7.719  14.618  69.384  1.00  0.00    -0.051 A  
HETATM    8  F   UNL     1      -5.619  13.221  66.775  1.00  0.00     0.352 F  
HETATM    9  C   UNL     1      -8.517  15.336  67.236  1.00  0.00    -0.193 A  
HETATM   10  C   UNL     1      -7.488  14.644  66.604  1.00  0.00     0.987 A  
HETATM   11  C   UNL     1      -6.702  13.894  68.757  1.00  0.00    -0.102 A  
HETATM   12  C   UNL     1      -6.591  13.922  67.374  1.00  0.00     0.067 A  
HETATM   13  F   UNL     1      -9.428  15.944  66.464  1.00  0.00    -0.227 F  
ENDROOT
BRANCH   6  14
HETATM   14  N   UNL     1     -12.160  15.723  70.065  1.00  0.00    -0.355 NA 
HETATM   15  N   UNL     1     -13.999  15.932  71.212  1.00  0.00    -0.189 NA 
HETATM   16  N   UNL     1     -12.342  17.058  70.128  1.00  0.00     2.489 NA 
HETATM   17  C   UNL     1     -13.159  15.061  70.700  1.00  0.00    -0.319 A  
HETATM   18  C   UNL     1     -13.461  17.134  70.858  1.00  0.00     9.535 A  
ENDBRANCH   6  14
BRANCH   5  19
HETATM   19  N   UNL     1      -9.045  18.389  68.529  1.00  0.00    -0.324 NA 
HETATM   20  C   UNL     1      -7.234  19.337  68.890  1.00  0.00    -0.358 A  
HETATM   21  C   UNL     1      -8.797  19.239  67.499  1.00  0.00    -0.299 A  
HETATM   22  N   UNL     1      -7.658  19.861  67.705  1.00  0.00    -0.280 NA 
HETATM   23  N   UNL     1      -8.036  18.410  69.423  1.00  0.00     0.186 NA 
ENDBRANCH   5  19
TORSDOF 2
ENDMDL
MODEL      126
REMARK 921   NORMALIZED FREE ENERGY PREDICTED BY IDOCK:   17.62 KCAL/MOL
REMARK 922        TOTAL FREE ENERGY PREDICTED BY IDOCK:   18.85 KCAL/MOL
REMARK 923 INTER-LIGAND FREE ENERGY PREDICTED BY IDOCK:   18.89 KCAL/MOL
REMARK 924 INTRA-LIGAND FREE ENERGY PREDICTED BY IDOCK:   -0.04 KCAL/MOL
REMARK 927      BINDING AFFINITY PREDICTED BY RF-SCORE:    0.00 PKD
ROOT
HETATM    1  O   UNL     1      -9.394  13.628  69.143  1.00  0.00    -0.373 OA 
HETATM    2  C   UNL     1      -9.458  14.644  68.113  1.00  0.00    -0.212 C  
HETATM    3  H   UNL     1      -8.793  12.947  68.864  1.00  0.00     0.000 HD 
HETATM    4  C   UNL     1     -10.067  13.985  66.869  1.00  0.00    -0.259 A  
HETATM    5  C   UNL     1      -8.028  15.217  67.931  1.00  0.00    -0.135 C  
HETATM    6  C   UNL     1     -10.441  15.757  68.570  1.00  0.00    -0.236 C  
HETATM    7  C   UNL     1     -10.890  12.848  66.988  1.00  0.00    -0.282 A  
HETATM    8  F   UNL     1     -11.814  12.240  63.532  1.00  0.00    -0.454 F  
HETATM    9  C   UNL     1      -9.883  14.512  65.580  1.00  0.00    -0.285 A  
HETATM   10  C   UNL     1     -10.441  13.918  64.451  1.00  0.00    -0.189 A  
HETATM   11  C   UNL     1     -11.480  12.263  65.864  1.00  0.00    -0.428 A  
HETATM   12  C   UNL     1     -11.242  12.799  64.606  1.00  0.00    -0.319 A  
HETATM   13  F   UNL     1      -9.195  15.649  65.412  1.00  0.00    -0.281 F  
ENDROOT
BRANCH   6  14
HETATM   14  N   UNL     1     -10.038  16.429  69.790  1.00  0.00    -0.141 NA 
HETATM   15  N   UNL     1      -9.607  16.881  71.876  1.00  0.00     7.332 NA 
HETATM   16  N   UNL     1      -9.580  17.696  69.750  1.00  0.00     0.607 NA 
HETATM   17  C   UNL     1     -10.064  15.957  71.062  1.00  0.00     1.298 A  
HETATM   18  C   UNL     1      -9.307  17.916  71.041  1.00  0.00     5.857 A  
ENDBRANCH   6  14
BRANCH   5  19
HETATM   19  N   UNL     1      -7.077  14.259  67.404  1.00  0.00    -0.166 NA 
HETATM   20  C   UNL     1      -5.634  13.418  66.172  1.00  0.00     4.663 A  
HETATM   21  C   UNL     1      -6.695  13.073  67.945  1.00  0.00    -0.129 A  
HETATM   22  N   UNL     1      -5.785  12.512  67.180  1.00  0.00    -0.319 NA 
HETATM   23  N   UNL     1      -6.384  14.519  66.277  1.00  0.00     3.343 NA 
ENDBRANCH   5  19
TORSDOF 2
ENDMDL
MODEL      127
REMARK 921   NORMALIZED FREE ENERGY PREDICTED BY IDOCK:   21.35 KCAL/MOL
REMARK 922        TOTAL FREE ENERGY PREDICTED BY IDOCK:   23.02 KCAL/MOL
REMARK 923 INTER-LIGAND FREE ENERGY PREDICTED BY IDOCK:   22.77 KCAL/MOL
REMARK 924 INTRA-LIGAND FREE ENERGY PREDICTED BY IDOCK:    0.25 KCAL/MOL
REMARK 927      BINDING AFFINITY PREDICTED BY RF-SCORE:    0.00 PKD
ROOT
HETATM    1  O   UNL     1      -9.301  14.894  67.687  1.00  0.00    -0.188 OA 
HETATM    2  C   UNL     1     -10.524  15.669  67.726  1.00  0.00    -0.273 C  
HETATM    3  H   UNL     1      -8.578  15.475  67.484  1.00  0.00     0.000 HD 
HETATM    4  C   UNL     1     -10.761  16.206  66.309  1.00  0.00    -0.213 A  
HETATM    5  C   UNL     1     -10.360  16.748  68.828  1.00  0.00    -0.318 C  
HETATM    6  C   UNL     1     -11.708  14.718  68.059  1.00  0.00    -0.333 C  
HETATM    7  C   UNL     1     -10.209  15.550  65.190  1.00  0.00    -0.334 A  
HETATM    8  F   UNL     1     -11.467  17.574  62.453  1.00  0.00     9.212 F  
HETATM    9  C   UNL     1     -11.574  17.324  66.060  1.00  0.00     1.741 A  
HETATM   10  C   UNL     1     -11.794  17.808  64.774  1.00  0.00     3.678 A  
HETATM   11  C   UNL     1     -10.450  16.010  63.892  1.00  0.00     3.079 A  
HETATM   12  C   UNL     1     -11.233  17.140  63.698  1.00  0.00     4.600 A  
HETATM   13  F   UNL     1     -12.208  17.930  67.073  1.00  0.00     2.013 F  
ENDROOT
BRANCH   6  14
HETATM   14  N   UNL     1     -11.589  14.067  69.349  1.00  0.00    -0.278 NA 
HETATM   15  N   UNL     1     -11.429  13.692  71.488  1.00  0.00     1.284 NA 
HETATM   16  N   UNL     1     -11.508  12.723  69.428  1.00  0.00    -0.272 NA 
HETATM   17  C   UNL     1     -11.526  14.635  70.579  1.00  0.00    -0.220 A  
HETATM   18  C   UNL     1     -11.438  12.544  70.752  1.00  0.00     1.106 A  
ENDBRANCH   6  14
BRANCH   5  19
HETATM   19  N   UNL     1      -9.342  17.736  68.533  1.00  0.00    -0.291 NA 
HETATM   20  C   UNL     1      -8.446  19.582  68.228  1.00  0.00    -0.340 A  
HETATM   21  C   UNL     1      -8.015  17.535  68.326  1.00  0.00    -0.259 A  
HETATM   22  N   UNL     1      -7.421  18.689  68.122  1.00  0.00    -0.261 NA 
HETATM   23  N   UNL     1      -9.639  19.050  68.507  1.00  0.00    -0.363 NA 
ENDBRANCH   5  19
TORSDOF 2
ENDMDL
MODEL      128
REMARK 921   NORMALIZED FREE ENERGY PREDICTED BY IDOCK:   21.92 KCAL/MOL
REMARK 922        TOTAL FREE ENERGY PREDICTED BY IDOCK:   23.66 KCAL/MOL
REMARK 923 INTER-LIGAND FREE ENERGY PREDICTED BY IDOCK:   23.06 KCAL/MOL
REMARK 924 INTRA-LIGAND FREE ENERGY PREDICTED BY IDOCK:    0.60 KCAL/MOL
REMARK 927      BINDING AFFINITY PREDICTED BY RF-SCORE:    0.00 PKD
ROOT
HETATM    1  O   UNL     1      -9.390  14.923  70.656  1.00  0.00     0.290 OA 
HETATM    2  C   UNL     1      -9.590  15.050  69.227  1.00  0.00    -0.180 C  
HETATM    3  H   UNL     1     -10.190  14.597  71.049  1.00  0.00     0.000 HD 
HETATM    4  C   UNL     1     -10.666  16.122  69.017  1.00  0.00    -0.287 A  
HETATM    5  C   UNL     1      -9.937  13.641  68.676  1.00  0.00    -0.161 C  
HETATM    6  C   UNL     1      -8.280  15.583  68.584  1.00  0.00    -0.162 C  
HETATM    7  C   UNL     1     -10.896  17.111  69.995  1.00  0.00     0.395 A  
HETATM    8  F   UNL     1     -13.500  19.100  68.436  1.00  0.00     6.075 F  
HETATM    9  C   UNL     1     -11.420  16.203  67.835  1.00  0.00    -0.103 A  
HETATM   10  C   UNL     1     -12.392  17.180  67.641  1.00  0.00     2.908 A  
HETATM   11  C   UNL     1     -11.848  18.114  69.797  1.00  0.00     5.972 A  
HETATM   12  C   UNL     1     -12.593  18.133  68.626  1.00  0.00     7.247 A  
HETATM   13  F   UNL     1     -11.178  15.354  66.827  1.00  0.00    -0.327 F  
ENDROOT
BRANCH   6  14
HETATM   14  N   UNL     1      -7.140  14.706  68.767  1.00  0.00    -0.106 NA 
HETATM   15  N   UNL     1      -5.312  13.568  68.442  1.00  0.00    -0.088 NA 
HETATM   16  N   UNL     1      -6.958  14.061  69.937  1.00  0.00     0.067 NA 
HETATM   17  C   UNL     1      -6.163  14.395  67.878  1.00  0.00    -0.156 A  
HETATM   18  C   UNL     1      -5.818  13.402  69.697  1.00  0.00    -0.112 A  
ENDBRANCH   6  14
BRANCH   5  19
HETATM   19  N   UNL     1     -11.204  13.123  69.152  1.00  0.00    -0.263 NA 
HETATM   20  C   UNL     1     -13.253  12.873  69.365  1.00  0.00     2.212 A  
HETATM   21  C   UNL     1     -11.419  12.078  69.993  1.00  0.00    -0.101 A  
HETATM   22  N   UNL     1     -12.712  11.900  70.154  1.00  0.00     0.080 NA 
HETATM   23  N   UNL     1     -12.371  13.631  68.709  1.00  0.00    -0.143 NA 
ENDBRANCH   5  19
TORSDOF 2
ENDMDL
MODEL      129
REMARK 921   NORMALIZED FREE ENERGY PREDICTED BY IDOCK:   23.50 KCAL/MOL
REMARK 922        TOTAL FREE ENERGY PREDICTED BY IDOCK:   25.43 KCAL/MOL
REMARK 923 INTER-LIGAND FREE ENERGY PREDICTED BY IDOCK:   23.84 KCAL/MOL
REMARK 924 INTRA-LIGAND FREE ENERGY PREDICTED BY IDOCK:    1.59 KCAL/MOL
REMARK 927      BINDING AFFINITY PREDICTED BY RF-SCORE:    0.00 PKD
ROOT
HETATM    1  O   UNL     1      -8.658  17.660  66.698  1.00  0.00    -0.238 OA 
HETATM    2  C   UNL     1      -9.807  17.912  67.544  1.00  0.00    -0.309 C  
HETATM    3  H   UNL     1      -8.100  17.020  67.123  1.00  0.00     0.000 HD 
HETATM    4  C   UNL     1      -9.283  18.555  68.834  1.00  0.00    -0.219 A  
HETATM    5  C   UNL     1     -10.556  16.566  67.728  1.00  0.00    -0.332 C  
HETATM    6  C   UNL     1     -10.720  18.958  66.848  1.00  0.00    -0.370 C  
HETATM    7  C   UNL     1      -8.056  19.248  68.845  1.00  0.00    -0.347 A  
HETATM    8  F   UNL     1      -7.886  20.396  72.283  1.00  0.00     0.536 F  
HETATM    9  C   UNL     1     -10.017  18.534  70.031  1.00  0.00     1.061 A  
HETATM   10  C   UNL     1      -9.545  19.124  71.200  1.00  0.00     3.231 A  
HETATM   11  C   UNL     1      -7.588  19.870  70.005  1.00  0.00     0.485 A  
HETATM   12  C   UNL     1      -8.333  19.793  71.174  1.00  0.00     2.546 A  
HETATM   13  F   UNL     1     -11.237  17.979  70.059  1.00  0.00     0.944 F  
ENDROOT
BRANCH   6  14
HETATM   14  N   UNL     1     -11.238  18.522  65.566  1.00  0.00     0.188 NA 
HETATM   15  N   UNL     1     -11.778  17.311  63.839  1.00  0.00     0.984 NA 
HETATM   16  N   UNL     1     -11.853  19.399  64.746  1.00  0.00     2.682 NA 
HETATM   17  C   UNL     1     -11.186  17.285  65.011  1.00  0.00     0.487 A  
HETATM   18  C   UNL     1     -12.185  18.607  63.720  1.00  0.00    12.552 A  
ENDBRANCH   6  14
BRANCH   5  19
HETATM   19  N   UNL     1      -9.802  15.572  68.466  1.00  0.00    -0.199 NA 
HETATM   20  C   UNL     1      -9.166  13.721  69.155  1.00  0.00     0.408 A  
HETATM   21  C   UNL     1      -8.726  15.766  69.273  1.00  0.00    -0.261 A  
HETATM   22  N   UNL     1      -8.306  14.608  69.732  1.00  0.00     0.246 NA 
HETATM   23  N   UNL     1     -10.085  14.260  68.349  1.00  0.00    -0.237 NA 
ENDBRANCH   5  19
TORSDOF 2
ENDMDL
MODEL      130
REMARK 921   NORMALIZED FREE ENERGY PREDICTED BY IDOCK:   36.19 KCAL/MOL
REMARK 922        TOTAL FREE ENERGY PREDICTED BY IDOCK:   39.60 KCAL/MOL
REMARK 923 INTER-LIGAND FREE ENERGY PREDICTED BY IDOCK:   39.99 KCAL/MOL
REMARK 924 INTRA-LIGAND FREE ENERGY PREDICTED BY IDOCK:   -0.40 KCAL/MOL
REMARK 927      BINDING AFFINITY PREDICTED BY RF-SCORE:    0.00 PKD
ROOT
HETATM    1  O   UNL     1      -8.711  17.197  64.198  1.00  0.00     7.088 OA 
HETATM    2  C   UNL     1      -9.277  17.095  65.527  1.00  0.00     0.661 C  
HETATM    3  H   UNL     1      -8.241  18.020  64.128  1.00  0.00     0.000 HD 
HETATM    4  C   UNL     1     -10.312  18.219  65.663  1.00  0.00    -0.046 A  
HETATM    5  C   UNL     1      -8.104  17.144  66.541  1.00  0.00    -0.283 C  
HETATM    6  C   UNL     1     -10.045  15.749  65.641  1.00  0.00    -0.371 C  
HETATM    7  C   UNL     1     -10.926  18.772  64.521  1.00  0.00     3.569 A  
HETATM    8  F   UNL     1     -13.192  21.190  66.001  1.00  0.00     3.739 F  
HETATM    9  C   UNL     1     -10.731  18.701  66.914  1.00  0.00    -0.309 A  
HETATM   10  C   UNL     1     -11.676  19.716  67.038  1.00  0.00     1.233 A  
HETATM   11  C   UNL     1     -11.897  19.770  64.637  1.00  0.00     4.284 A  
HETATM   12  C   UNL     1     -12.255  20.239  65.893  1.00  0.00     4.206 A  
HETATM   13  F   UNL     1     -10.260  18.146  68.038  1.00  0.00    -0.309 F  
ENDROOT
BRANCH   6  14
HETATM   14  N   UNL     1      -9.207  14.580  65.456  1.00  0.00     0.261 NA 
HETATM   15  N   UNL     1      -8.191  12.677  65.748  1.00  0.00     1.272 NA 
HETATM   16  N   UNL     1      -8.459  14.448  64.342  1.00  0.00     6.552 NA 
HETATM   17  C   UNL     1      -9.029  13.528  66.293  1.00  0.00     0.136 A  
HETATM   18  C   UNL     1      -7.879  13.262  64.557  1.00  0.00     9.399 A  
ENDBRANCH   6  14
BRANCH   5  19
HETATM   19  N   UNL     1      -7.405  18.414  66.567  1.00  0.00    -0.222 NA 
HETATM   20  C   UNL     1      -6.528  20.143  67.306  1.00  0.00    -0.204 A  
HETATM   21  C   UNL     1      -6.815  19.067  65.532  1.00  0.00    -0.239 A  
HETATM   22  N   UNL     1      -6.257  20.173  65.970  1.00  0.00    -0.188 NA 
HETATM   23  N   UNL     1      -7.206  19.072  67.726  1.00  0.00    -0.234 NA 
ENDBRANCH   5  19
TORSDOF 2
ENDMDL
MODEL      131
REMARK 921   NORMALIZED FREE ENERGY PREDICTED BY IDOCK:   44.58 KCAL/MOL
REMARK 922        TOTAL FREE ENERGY PREDICTED BY IDOCK:   48.97 KCAL/MOL
REMARK 923 INTER-LIGAND FREE ENERGY PREDICTED BY IDOCK:   48.77 KCAL/MOL
REMARK 924 INTRA-LIGAND FREE ENERGY PREDICTED BY IDOCK:    0.20 KCAL/MOL
REMARK 927      BINDING AFFINITY PREDICTED BY RF-SCORE:    0.00 PKD
ROOT
HETATM    1  O   UNL     1      -8.595  17.086  71.982  1.00  0.00    11.048 OA 
HETATM    2  C   UNL     1      -9.613  16.804  70.991  1.00  0.00     4.099 C  
HETATM    3  H   UNL     1      -8.357  18.003  71.924  1.00  0.00     0.000 HD 
HETATM    4  C   UNL     1      -8.972  17.019  69.614  1.00  0.00     0.721 A  
HETATM    5  C   UNL     1     -10.834  17.709  71.304  1.00  0.00     2.218 C  
HETATM    6  C   UNL     1     -10.002  15.303  71.086  1.00  0.00     1.366 C  
HETATM    7  C   UNL     1      -7.576  16.915  69.447  1.00  0.00     0.044 A  
HETATM    8  F   UNL     1      -7.214  17.491  65.883  1.00  0.00    -0.302 F  
HETATM    9  C   UNL     1      -9.738  17.267  68.463  1.00  0.00    -0.296 A  
HETATM   10  C   UNL     1      -9.157  17.454  67.213  1.00  0.00    -0.239 A  
HETATM   11  C   UNL     1      -6.986  17.071  68.190  1.00  0.00    -0.173 A  
HETATM   12  C   UNL     1      -7.782  17.348  67.087  1.00  0.00    -0.204 A  
HETATM   13  F   UNL     1     -11.076  17.276  68.539  1.00  0.00    -0.318 F  
ENDROOT
BRANCH   6  14
HETATM   14  N   UNL     1     -10.558  14.924  72.371  1.00  0.00     1.432 NA 
HETATM   15  N   UNL     1     -11.084  13.815  74.169  1.00  0.00     4.214 NA 
HETATM   16  N   UNL     1     -11.330  15.788  73.060  1.00  0.00     0.044 NA 
HETATM   17  C   UNL     1     -10.429  13.747  73.032  1.00  0.00     8.029 A  
HETATM   18  C   UNL     1     -11.604  15.075  74.158  1.00  0.00     0.530 A  
ENDBRANCH   6  14
BRANCH   5  19
HETATM   19  N   UNL     1     -10.574  19.124  71.132  1.00  0.00     2.273 NA 
HETATM   20  C   UNL     1      -9.542  20.922  71.050  1.00  0.00     2.524 A  
HETATM   21  C   UNL     1     -11.431  20.087  70.702  1.00  0.00     6.188 A  
HETATM   22  N   UNL     1     -10.805  21.241  70.648  1.00  0.00     3.025 NA 
HETATM   23  N   UNL     1      -9.342  19.631  71.332  1.00  0.00     2.544 NA 
ENDBRANCH   5  19
TORSDOF 2
ENDMDL
