MODEL        1
REMARK 921   NORMALIZED FREE ENERGY PREDICTED BY IDOCK:   -8.24 KCAL/MOL
REMARK 922        TOTAL FREE ENERGY PREDICTED BY IDOCK:  -11.05 KCAL/MOL
REMARK 923 INTER-LIGAND FREE ENERGY PREDICTED BY IDOCK:   -9.69 KCAL/MOL
REMARK 924 INTRA-LIGAND FREE ENERGY PREDICTED BY IDOCK:   -1.36 KCAL/MOL
REMARK 927      BINDING AFFINITY PREDICTED BY RF-SCORE:    0.00 PKD
ROOT
HETATM    1  C   UNL     1     -12.112  13.643  66.565  1.00  0.00    -0.423 C  
HETATM    2  S   UNL     1     -11.079  14.659  67.714  1.00  0.00    -0.310 SA 
HETATM    3  C   UNL     1      -9.795  15.039  66.433  1.00  0.00    -0.272 C  
HETATM    4  C   UNL     1      -9.187  16.419  66.701  1.00  0.00    -0.279 C  
HETATM    5  CA  UNL     1     -10.528  14.875  65.079  1.00  0.00    -0.401 C  
HETATM    6  C   UNL     1      -8.645  14.019  66.582  1.00  0.00     0.020 C  
HETATM    7  N   UNL     1     -11.492  13.773  65.232  1.00  0.00    -0.306 N  
HETATM    8  C   UNL     1     -11.340  16.082  64.569  1.00  0.00    -0.295 C  
HETATM    9  OXT UNL     1     -11.024  17.255  64.674  1.00  0.00    -1.013 OA 
HETATM   10  O   UNL     1     -12.425  15.708  63.836  1.00  0.00    -0.693 OA 
HETATM   11  C   UNL     1     -11.065  12.473  65.188  1.00  0.00    -0.299 C  
HETATM   12  CA  UNL     1     -11.765  12.126  66.536  1.00  0.00    -0.321 C  
HETATM   13  O   UNL     1     -10.282  11.973  64.416  1.00  0.00    -0.278 OA 
ENDROOT
BRANCH  12  14
HETATM   14  N   UNL     1     -10.912  11.684  67.665  1.00  0.00    -0.224 N  
HETATM   15  C   UNL     1     -10.521  10.380  67.831  1.00  0.00    -0.209 C  
HETATM   16  H   UNL     1     -10.604  12.378  68.346  1.00  0.00     0.000 HD 
HETATM   17  O   UNL     1     -10.759   9.503  67.010  1.00  0.00    -0.231 OA 
BRANCH  15  18
HETATM   18  C   UNL     1      -9.791  10.122  69.066  1.00  0.00    -0.211 A  
HETATM   19  C   UNL     1      -8.426  10.265  69.210  1.00  0.00    -0.166 A  
HETATM   20  C   UNL     1      -7.318  10.688  68.329  1.00  0.00    -0.089 C  
HETATM   21  O   UNL     1      -8.077   9.967  70.485  1.00  0.00    -0.194 OA 
HETATM   22  N   UNL     1      -9.189   9.588  71.198  1.00  0.00    -0.193 NA 
HETATM   23  C   UNL     1     -10.235   9.665  70.359  1.00  0.00    -0.288 A  
BRANCH  23  24
HETATM   24  C   UNL     1     -11.593   9.362  70.837  1.00  0.00    -0.380 A  
HETATM   25  C   UNL     1     -11.997   8.022  70.968  1.00  0.00    -0.245 A  
HETATM   26  C   UNL     1     -13.186   7.669  71.611  1.00  0.00    -0.395 A  
HETATM   27  F   UNL     1     -11.236   7.019  70.505  1.00  0.00    -0.267 F  
HETATM   28  C   UNL     1     -13.986   8.652  72.176  1.00  0.00    -0.496 A  
HETATM   29  C   UNL     1     -13.653   9.991  71.989  1.00  0.00    -0.366 A  
HETATM   30  C   UNL     1     -12.504  10.343  71.265  1.00  0.00    -0.415 A  
HETATM   31 CL   UNL     1     -12.334  12.025  70.888  1.00  0.00    -0.446 Cl 
ENDBRANCH  23  24
ENDBRANCH  15  18
ENDBRANCH  12  14
TORSDOF 3
ENDMDL
MODEL        2
REMARK 921   NORMALIZED FREE ENERGY PREDICTED BY IDOCK:   -8.21 KCAL/MOL
REMARK 922        TOTAL FREE ENERGY PREDICTED BY IDOCK:  -11.01 KCAL/MOL
REMARK 923 INTER-LIGAND FREE ENERGY PREDICTED BY IDOCK:   -9.70 KCAL/MOL
REMARK 924 INTRA-LIGAND FREE ENERGY PREDICTED BY IDOCK:   -1.31 KCAL/MOL
REMARK 927      BINDING AFFINITY PREDICTED BY RF-SCORE:    0.00 PKD
ROOT
HETATM    1  C   UNL     1     -12.042  13.249  66.862  1.00  0.00    -0.332 C  
HETATM    2  S   UNL     1     -10.876  14.301  67.841  1.00  0.00    -0.258 SA 
HETATM    3  C   UNL     1      -9.667  14.484  66.449  1.00  0.00    -0.296 C  
HETATM    4  C   UNL     1      -8.966  15.842  66.545  1.00  0.00    -0.341 C  
HETATM    5  CA  UNL     1     -10.501  14.243  65.166  1.00  0.00    -0.411 C  
HETATM    6  C   UNL     1      -8.566  13.412  66.619  1.00  0.00     0.051 C  
HETATM    7  N   UNL     1     -11.510  13.221  65.485  1.00  0.00    -0.306 N  
HETATM    8  C   UNL     1     -11.279  15.446  64.599  1.00  0.00    -0.364 C  
HETATM    9  OXT UNL     1     -10.892  16.603  64.572  1.00  0.00    -0.847 OA 
HETATM   10  O   UNL     1     -12.431  15.075  63.976  1.00  0.00    -0.796 OA 
HETATM   11  C   UNL     1     -11.160  11.898  65.536  1.00  0.00    -0.304 C  
HETATM   12  CA  UNL     1     -11.782  11.718  66.953  1.00  0.00    -0.139 C  
HETATM   13  O   UNL     1     -10.462  11.284  64.765  1.00  0.00    -0.292 OA 
ENDROOT
BRANCH  12  14
HETATM   14  N   UNL     1     -10.877  11.328  68.061  1.00  0.00    -0.203 N  
HETATM   15  C   UNL     1     -10.414  10.048  68.224  1.00  0.00    -0.213 C  
HETATM   16  H   UNL     1     -10.588  12.042  68.731  1.00  0.00     0.000 HD 
HETATM   17  O   UNL     1     -10.627   9.154  67.414  1.00  0.00    -0.272 OA 
BRANCH  15  18
HETATM   18  C   UNL     1      -9.639   9.836  69.440  1.00  0.00    -0.218 A  
HETATM   19  C   UNL     1      -8.288  10.091  69.559  1.00  0.00    -0.172 A  
HETATM   20  C   UNL     1      -7.238  10.616  68.662  1.00  0.00    -0.090 C  
HETATM   21  O   UNL     1      -7.888   9.807  70.822  1.00  0.00    -0.304 OA 
HETATM   22  N   UNL     1      -8.950   9.328  71.551  1.00  0.00    -0.289 NA 
HETATM   23  C   UNL     1     -10.016   9.327  70.734  1.00  0.00    -0.290 A  
BRANCH  23  24
HETATM   24  C   UNL     1     -11.333   8.905  71.236  1.00  0.00    -0.371 A  
HETATM   25  C   UNL     1     -12.320   9.874  71.490  1.00  0.00    -0.412 A  
HETATM   26  C   UNL     1     -13.645   9.524  71.762  1.00  0.00    -0.447 A  
HETATM   27  F   UNL     1     -12.033  11.184  71.449  1.00  0.00    -0.343 F  
HETATM   28  C   UNL     1     -14.026   8.189  71.749  1.00  0.00    -0.479 A  
HETATM   29  C   UNL     1     -13.054   7.207  71.583  1.00  0.00    -0.410 A  
HETATM   30  C   UNL     1     -11.709   7.560  71.399  1.00  0.00    -0.283 A  
HETATM   31 CL   UNL     1     -10.570   6.257  71.457  1.00  0.00    -0.271 Cl 
ENDBRANCH  23  24
ENDBRANCH  15  18
ENDBRANCH  12  14
TORSDOF 3
ENDMDL
MODEL        3
REMARK 921   NORMALIZED FREE ENERGY PREDICTED BY IDOCK:   -7.21 KCAL/MOL
REMARK 922        TOTAL FREE ENERGY PREDICTED BY IDOCK:   -9.84 KCAL/MOL
REMARK 923 INTER-LIGAND FREE ENERGY PREDICTED BY IDOCK:   -8.47 KCAL/MOL
REMARK 924 INTRA-LIGAND FREE ENERGY PREDICTED BY IDOCK:   -1.37 KCAL/MOL
REMARK 927      BINDING AFFINITY PREDICTED BY RF-SCORE:    0.00 PKD
ROOT
HETATM    1  C   UNL     1     -11.727  12.107  67.003  1.00  0.00    -0.303 C  
HETATM    2  S   UNL     1     -11.188  13.300  68.311  1.00  0.00    -0.297 SA 
HETATM    3  C   UNL     1      -9.746  13.926  67.329  1.00  0.00    -0.245 C  
HETATM    4  C   UNL     1      -9.485  15.396  67.670  1.00  0.00    -0.205 C  
HETATM    5  CA  UNL     1     -10.113  13.629  65.854  1.00  0.00    -0.310 C  
HETATM    6  C   UNL     1      -8.486  13.146  67.768  1.00  0.00    -0.185 C  
HETATM    7  N   UNL     1     -10.860  12.361  65.835  1.00  0.00    -0.262 N  
HETATM    8  C   UNL     1     -11.003  14.658  65.132  1.00  0.00    -0.386 C  
HETATM    9  OXT UNL     1     -10.947  15.870  65.257  1.00  0.00    -0.361 OA 
HETATM   10  O   UNL     1     -11.806  14.085  64.193  1.00  0.00    -0.413 OA 
HETATM   11  C   UNL     1     -10.196  11.168  65.937  1.00  0.00    -0.251 C  
HETATM   12  CA  UNL     1     -11.101  10.687  67.110  1.00  0.00    -0.196 C  
HETATM   13  O   UNL     1      -9.180  10.832  65.377  1.00  0.00    -0.189 OA 
ENDROOT
BRANCH  12  14
HETATM   14  N   UNL     1     -10.454  10.413  68.416  1.00  0.00    -0.178 N  
HETATM   15  C   UNL     1      -9.879   9.206  68.719  1.00  0.00    -0.167 C  
HETATM   16  H   UNL     1     -10.436  11.153  69.118  1.00  0.00     0.000 HD 
HETATM   17  O   UNL     1      -9.766   8.298  67.904  1.00  0.00    -0.152 OA 
BRANCH  15  18
HETATM   18  C   UNL     1      -9.408   9.090  70.093  1.00  0.00    -0.213 A  
HETATM   19  C   UNL     1      -8.092   9.244  70.483  1.00  0.00    -0.174 A  
HETATM   20  C   UNL     1      -6.825   9.557  69.790  1.00  0.00    -0.064 C  
HETATM   21  O   UNL     1      -8.002   9.094  71.826  1.00  0.00    -0.340 OA 
HETATM   22  N   UNL     1      -9.241   8.805  72.348  1.00  0.00    -0.375 NA 
HETATM   23  C   UNL     1     -10.103   8.788  71.318  1.00  0.00    -0.266 A  
BRANCH  23  24
HETATM   24  C   UNL     1     -11.535   8.547  71.556  1.00  0.00    -0.350 A  
HETATM   25  C   UNL     1     -12.441   9.619  71.470  1.00  0.00    -0.386 A  
HETATM   26  C   UNL     1     -13.823   9.419  71.476  1.00  0.00    -0.297 A  
HETATM   27  F   UNL     1     -12.010  10.883  71.346  1.00  0.00    -0.389 F  
HETATM   28  C   UNL     1     -14.337   8.131  71.530  1.00  0.00    -0.534 A  
HETATM   29  C   UNL     1     -13.466   7.058  71.700  1.00  0.00    -0.350 A  
HETATM   30  C   UNL     1     -12.082   7.272  71.783  1.00  0.00    -0.319 A  
HETATM   31 CL   UNL     1     -11.132   5.900  72.244  1.00  0.00    -0.313 Cl 
ENDBRANCH  23  24
ENDBRANCH  15  18
ENDBRANCH  12  14
TORSDOF 3
ENDMDL
MODEL        4
REMARK 921   NORMALIZED FREE ENERGY PREDICTED BY IDOCK:   -7.16 KCAL/MOL
REMARK 922        TOTAL FREE ENERGY PREDICTED BY IDOCK:   -9.78 KCAL/MOL
REMARK 923 INTER-LIGAND FREE ENERGY PREDICTED BY IDOCK:   -8.33 KCAL/MOL
REMARK 924 INTRA-LIGAND FREE ENERGY PREDICTED BY IDOCK:   -1.45 KCAL/MOL
REMARK 927      BINDING AFFINITY PREDICTED BY RF-SCORE:    0.00 PKD
ROOT
HETATM    1  C   UNL     1     -11.048  15.141  68.181  1.00  0.00    -0.304 C  
HETATM    2  S   UNL     1      -9.372  15.003  68.952  1.00  0.00    -0.205 SA 
HETATM    3  C   UNL     1      -8.524  14.614  67.350  1.00  0.00    -0.204 C  
HETATM    4  C   UNL     1      -7.094  15.161  67.373  1.00  0.00    -0.219 C  
HETATM    5  CA  UNL     1      -9.454  15.198  66.259  1.00  0.00    -0.309 C  
HETATM    6  C   UNL     1      -8.402  13.078  67.228  1.00  0.00    -0.186 C  
HETATM    7  N   UNL     1     -10.840  15.025  66.724  1.00  0.00    -0.314 N  
HETATM    8  C   UNL     1      -9.299  16.697  65.934  1.00  0.00    -0.157 C  
HETATM    9  OXT UNL     1      -8.250  17.317  65.890  1.00  0.00    -0.534 OA 
HETATM   10  O   UNL     1     -10.472  17.270  65.545  1.00  0.00    -0.609 OA 
HETATM   11  C   UNL     1     -11.452  13.804  66.628  1.00  0.00    -0.345 C  
HETATM   12  CA  UNL     1     -11.860  13.815  68.131  1.00  0.00    -0.376 C  
HETATM   13  O   UNL     1     -11.437  13.037  65.696  1.00  0.00    -0.313 OA 
ENDROOT
BRANCH  12  14
HETATM   14  N   UNL     1     -11.317  12.745  69.003  1.00  0.00    -0.280 N  
HETATM   15  C   UNL     1     -11.618  11.419  68.823  1.00  0.00    -0.313 C  
HETATM   16  H   UNL     1     -10.695  13.006  69.768  1.00  0.00     0.000 HD 
HETATM   17  O   UNL     1     -12.273  11.007  67.874  1.00  0.00    -0.438 OA 
BRANCH  15  18
HETATM   18  C   UNL     1     -11.090  10.536  69.855  1.00  0.00    -0.371 A  
HETATM   19  C   UNL     1     -11.703  10.299  71.069  1.00  0.00    -0.370 A  
HETATM   20  C   UNL     1     -12.952  10.750  71.717  1.00  0.00    -0.568 C  
HETATM   21  O   UNL     1     -10.962   9.416  71.780  1.00  0.00    -0.363 OA 
HETATM   22  N   UNL     1      -9.832   9.079  71.074  1.00  0.00    -0.257 NA 
HETATM   23  C   UNL     1      -9.883   9.750  69.912  1.00  0.00    -0.243 A  
BRANCH  23  24
HETATM   24  C   UNL     1      -8.827   9.567  68.904  1.00  0.00    -0.137 A  
HETATM   25  C   UNL     1      -7.561  10.140  69.116  1.00  0.00    -0.103 A  
HETATM   26  C   UNL     1      -6.466   9.830  68.307  1.00  0.00    -0.056 A  
HETATM   27  F   UNL     1      -7.345  10.990  70.131  1.00  0.00    -0.079 F  
HETATM   28  C   UNL     1      -6.602   8.903  67.282  1.00  0.00    -0.062 A  
HETATM   29  C   UNL     1      -7.862   8.384  66.998  1.00  0.00    -0.096 A  
HETATM   30  C   UNL     1      -8.977   8.768  67.757  1.00  0.00    -0.135 A  
HETATM   31 CL   UNL     1     -10.516   8.255  67.151  1.00  0.00    -0.388 Cl 
ENDBRANCH  23  24
ENDBRANCH  15  18
ENDBRANCH  12  14
TORSDOF 3
ENDMDL
MODEL        5
REMARK 921   NORMALIZED FREE ENERGY PREDICTED BY IDOCK:   -7.13 KCAL/MOL
REMARK 922        TOTAL FREE ENERGY PREDICTED BY IDOCK:   -9.75 KCAL/MOL
REMARK 923 INTER-LIGAND FREE ENERGY PREDICTED BY IDOCK:   -8.50 KCAL/MOL
REMARK 924 INTRA-LIGAND FREE ENERGY PREDICTED BY IDOCK:   -1.25 KCAL/MOL
REMARK 927      BINDING AFFINITY PREDICTED BY RF-SCORE:    0.00 PKD
ROOT
HETATM    1  C   UNL     1      -7.254  17.307  66.421  1.00  0.00    -0.292 C  
HETATM    2  S   UNL     1      -8.812  18.199  65.973  1.00  0.00     0.176 SA 
HETATM    3  C   UNL     1      -8.984  19.002  67.634  1.00  0.00    -0.289 C  
HETATM    4  C   UNL     1      -9.661  20.367  67.482  1.00  0.00    -0.571 C  
HETATM    5  CA  UNL     1      -7.549  19.020  68.215  1.00  0.00    -0.297 C  
HETATM    6  C   UNL     1      -9.934  18.138  68.494  1.00  0.00    -0.408 C  
HETATM    7  N   UNL     1      -6.878  17.790  67.764  1.00  0.00    -0.180 N  
HETATM    8  C   UNL     1      -6.634  20.184  67.789  1.00  0.00    -0.249 C  
HETATM    9  OXT UNL     1      -6.976  21.343  67.624  1.00  0.00    -0.474 OA 
HETATM   10  O   UNL     1      -5.321  19.825  67.741  1.00  0.00    -0.184 OA 
HETATM   11  C   UNL     1      -7.140  16.596  68.382  1.00  0.00    -0.167 C  
HETATM   12  CA  UNL     1      -7.459  15.890  67.030  1.00  0.00    -0.219 C  
HETATM   13  O   UNL     1      -7.231  16.375  69.566  1.00  0.00    -0.219 OA 
ENDROOT
BRANCH  12  14
HETATM   14  N   UNL     1      -8.825  15.346  66.838  1.00  0.00    -0.233 N  
HETATM   15  C   UNL     1      -9.211  14.125  67.327  1.00  0.00    -0.219 C  
HETATM   16  H   UNL     1      -9.505  15.903  66.320  1.00  0.00     0.000 HD 
HETATM   17  O   UNL     1      -8.495  13.437  68.044  1.00  0.00    -0.153 OA 
BRANCH  15  18
HETATM   18  C   UNL     1     -10.551  13.712  66.929  1.00  0.00    -0.271 A  
HETATM   19  C   UNL     1     -10.910  13.363  65.643  1.00  0.00    -0.283 A  
HETATM   20  C   UNL     1     -10.203  13.260  64.349  1.00  0.00    -0.300 C  
HETATM   21  O   UNL     1     -12.218  13.012  65.623  1.00  0.00    -0.429 OA 
HETATM   22  N   UNL     1     -12.759  13.153  66.879  1.00  0.00     0.118 NA 
HETATM   23  C   UNL     1     -11.773  13.584  67.682  1.00  0.00    -0.363 A  
BRANCH  23  24
HETATM   24  C   UNL     1     -12.024  13.792  69.117  1.00  0.00    -0.403 A  
HETATM   25  C   UNL     1     -12.262  15.092  69.597  1.00  0.00    -0.258 A  
HETATM   26  C   UNL     1     -12.711  15.328  70.898  1.00  0.00    -0.496 A  
HETATM   27  F   UNL     1     -12.096  16.164  68.807  1.00  0.00    -0.363 F  
HETATM   28  C   UNL     1     -12.971  14.260  71.745  1.00  0.00    -0.430 A  
HETATM   29  C   UNL     1     -12.665  12.968  71.325  1.00  0.00    -0.385 A  
HETATM   30  C   UNL     1     -12.130  12.744  70.048  1.00  0.00    -0.285 A  
HETATM   31 CL   UNL     1     -11.560  11.138  69.739  1.00  0.00    -0.372 Cl 
ENDBRANCH  23  24
ENDBRANCH  15  18
ENDBRANCH  12  14
TORSDOF 3
ENDMDL
MODEL        6
REMARK 921   NORMALIZED FREE ENERGY PREDICTED BY IDOCK:   -7.12 KCAL/MOL
REMARK 922        TOTAL FREE ENERGY PREDICTED BY IDOCK:   -9.73 KCAL/MOL
REMARK 923 INTER-LIGAND FREE ENERGY PREDICTED BY IDOCK:   -8.39 KCAL/MOL
REMARK 924 INTRA-LIGAND FREE ENERGY PREDICTED BY IDOCK:   -1.34 KCAL/MOL
REMARK 927      BINDING AFFINITY PREDICTED BY RF-SCORE:    0.00 PKD
ROOT
HETATM    1  C   UNL     1     -11.059  15.260  68.273  1.00  0.00    -0.300 C  
HETATM    2  S   UNL     1      -9.367  15.070  68.995  1.00  0.00    -0.188 SA 
HETATM    3  C   UNL     1      -8.573  14.683  67.365  1.00  0.00    -0.199 C  
HETATM    4  C   UNL     1      -7.130  15.195  67.356  1.00  0.00    -0.219 C  
HETATM    5  CA  UNL     1      -9.518  15.306  66.308  1.00  0.00    -0.309 C  
HETATM    6  C   UNL     1      -8.492  13.147  67.218  1.00  0.00    -0.199 C  
HETATM    7  N   UNL     1     -10.894  15.160  66.809  1.00  0.00    -0.319 N  
HETATM    8  C   UNL     1      -9.335  16.804  65.999  1.00  0.00    -0.210 C  
HETATM    9  OXT UNL     1      -8.272  17.400  65.935  1.00  0.00    -0.537 OA 
HETATM   10  O   UNL     1     -10.503  17.411  65.651  1.00  0.00    -0.577 OA 
HETATM   11  C   UNL     1     -11.539  13.956  66.713  1.00  0.00    -0.378 C  
HETATM   12  CA  UNL     1     -11.905  13.954  68.228  1.00  0.00    -0.376 C  
HETATM   13  O   UNL     1     -11.568  13.201  65.771  1.00  0.00    -0.322 OA 
ENDROOT
BRANCH  12  14
HETATM   14  N   UNL     1     -11.365  12.860  69.070  1.00  0.00    -0.276 N  
HETATM   15  C   UNL     1     -11.637  11.537  68.829  1.00  0.00    -0.316 C  
HETATM   16  H   UNL     1     -10.767  13.100  69.860  1.00  0.00     0.000 HD 
HETATM   17  O   UNL     1     -12.260  11.153  67.847  1.00  0.00    -0.521 OA 
BRANCH  15  18
HETATM   18  C   UNL     1     -11.119  10.622  69.838  1.00  0.00    -0.364 A  
HETATM   19  C   UNL     1     -11.696  10.416  71.075  1.00  0.00    -0.337 A  
HETATM   20  C   UNL     1     -12.891  10.934  71.772  1.00  0.00    -0.509 C  
HETATM   21  O   UNL     1     -10.978   9.490  71.755  1.00  0.00    -0.333 OA 
HETATM   22  N   UNL     1      -9.898   9.092  71.004  1.00  0.00    -0.278 NA 
HETATM   23  C   UNL     1      -9.957   9.769  69.846  1.00  0.00    -0.245 A  
BRANCH  23  24
HETATM   24  C   UNL     1      -8.954   9.531  68.796  1.00  0.00    -0.133 A  
HETATM   25  C   UNL     1      -9.332   8.869  67.615  1.00  0.00    -0.136 A  
HETATM   26  C   UNL     1      -8.487   8.801  66.504  1.00  0.00    -0.120 A  
HETATM   27  F   UNL     1     -10.540   8.299  67.495  1.00  0.00    -0.292 F  
HETATM   28  C   UNL     1      -7.251   9.431  66.535  1.00  0.00    -0.089 A  
HETATM   29  C   UNL     1      -6.818  10.022  67.719  1.00  0.00    -0.076 A  
HETATM   30  C   UNL     1      -7.634  10.010  68.860  1.00  0.00    -0.086 A  
HETATM   31 CL   UNL     1      -6.889  10.548  70.327  1.00  0.00    -0.147 Cl 
ENDBRANCH  23  24
ENDBRANCH  15  18
ENDBRANCH  12  14
TORSDOF 3
ENDMDL
MODEL        7
REMARK 921   NORMALIZED FREE ENERGY PREDICTED BY IDOCK:   -7.07 KCAL/MOL
REMARK 922        TOTAL FREE ENERGY PREDICTED BY IDOCK:   -9.68 KCAL/MOL
REMARK 923 INTER-LIGAND FREE ENERGY PREDICTED BY IDOCK:   -8.35 KCAL/MOL
REMARK 924 INTRA-LIGAND FREE ENERGY PREDICTED BY IDOCK:   -1.32 KCAL/MOL
REMARK 927      BINDING AFFINITY PREDICTED BY RF-SCORE:    0.00 PKD
ROOT
HETATM    1  C   UNL     1      -9.064  14.124  66.457  1.00  0.00    -0.173 C  
HETATM    2  S   UNL     1     -10.046  13.311  65.115  1.00  0.00    -0.183 SA 
HETATM    3  C   UNL     1     -11.595  14.253  65.499  1.00  0.00    -0.338 C  
HETATM    4  C   UNL     1     -12.403  14.469  64.217  1.00  0.00    -0.396 C  
HETATM    5  CA  UNL     1     -11.109  15.538  66.216  1.00  0.00    -0.177 C  
HETATM    6  C   UNL     1     -12.473  13.384  66.427  1.00  0.00    -0.297 C  
HETATM    7  N   UNL     1      -9.935  15.171  67.025  1.00  0.00    -0.239 N  
HETATM    8  C   UNL     1     -10.661  16.712  65.324  1.00  0.00    -0.204 C  
HETATM    9  OXT UNL     1     -11.177  17.053  64.273  1.00  0.00    -1.186 OA 
HETATM   10  O   UNL     1      -9.680  17.459  65.901  1.00  0.00    -0.507 OA 
HETATM   11  C   UNL     1     -10.098  14.533  68.225  1.00  0.00    -0.232 C  
HETATM   12  CA  UNL     1      -9.105  13.398  67.833  1.00  0.00    -0.208 C  
HETATM   13  O   UNL     1     -10.896  14.780  69.097  1.00  0.00    -0.244 OA 
ENDROOT
BRANCH  12  14
HETATM   14  N   UNL     1      -9.628  12.012  67.765  1.00  0.00    -0.187 N  
HETATM   15  C   UNL     1      -8.923  10.931  68.226  1.00  0.00    -0.150 C  
HETATM   16  H   UNL     1     -10.551  11.857  67.359  1.00  0.00     0.000 HD 
HETATM   17  O   UNL     1      -7.855  11.034  68.818  1.00  0.00    -0.123 OA 
BRANCH  15  18
HETATM   18  C   UNL     1      -9.550   9.643  67.959  1.00  0.00    -0.161 A  
HETATM   19  C   UNL     1      -9.340   8.895  66.817  1.00  0.00    -0.175 A  
HETATM   20  C   UNL     1      -8.517   9.050  65.600  1.00  0.00    -0.163 C  
HETATM   21  O   UNL     1     -10.055   7.747  66.896  1.00  0.00    -0.236 OA 
HETATM   22  N   UNL     1     -10.776   7.726  68.066  1.00  0.00    -0.123 NA 
HETATM   23  C   UNL     1     -10.494   8.865  68.720  1.00  0.00    -0.200 A  
BRANCH  23  24
HETATM   24  C   UNL     1     -11.081   9.125  70.043  1.00  0.00    -0.208 A  
HETATM   25  C   UNL     1     -12.036  10.147  70.188  1.00  0.00    -0.149 A  
HETATM   26  C   UNL     1     -12.779  10.302  71.360  1.00  0.00    -0.547 A  
HETATM   27  F   UNL     1     -12.297  11.000  69.186  1.00  0.00    -0.398 F  
HETATM   28  C   UNL     1     -12.611   9.410  72.411  1.00  0.00    -0.307 A  
HETATM   29  C   UNL     1     -11.615   8.441  72.326  1.00  0.00    -0.453 A  
HETATM   30  C   UNL     1     -10.810   8.345  71.181  1.00  0.00    -0.237 A  
HETATM   31 CL   UNL     1      -9.453   7.276  71.298  1.00  0.00    -0.155 Cl 
ENDBRANCH  23  24
ENDBRANCH  15  18
ENDBRANCH  12  14
TORSDOF 3
ENDMDL
MODEL        8
REMARK 921   NORMALIZED FREE ENERGY PREDICTED BY IDOCK:   -6.96 KCAL/MOL
REMARK 922        TOTAL FREE ENERGY PREDICTED BY IDOCK:   -9.55 KCAL/MOL
REMARK 923 INTER-LIGAND FREE ENERGY PREDICTED BY IDOCK:   -8.52 KCAL/MOL
REMARK 924 INTRA-LIGAND FREE ENERGY PREDICTED BY IDOCK:   -1.03 KCAL/MOL
REMARK 927      BINDING AFFINITY PREDICTED BY RF-SCORE:    0.00 PKD
ROOT
HETATM    1  C   UNL     1      -9.282  12.097  66.498  1.00  0.00    -0.216 C  
HETATM    2  S   UNL     1      -9.024  12.137  68.329  1.00  0.00    -0.161 SA 
HETATM    3  C   UNL     1     -10.669  11.375  68.709  1.00  0.00    -0.203 C  
HETATM    4  C   UNL     1     -10.573  10.544  69.991  1.00  0.00    -0.223 C  
HETATM    5  CA  UNL     1     -11.051  10.597  67.426  1.00  0.00    -0.272 C  
HETATM    6  C   UNL     1     -11.674  12.513  69.002  1.00  0.00    -0.368 C  
HETATM    7  N   UNL     1     -10.548  11.370  66.279  1.00  0.00    -0.256 N  
HETATM    8  C   UNL     1     -10.472   9.178  67.268  1.00  0.00    -0.265 C  
HETATM    9  OXT UNL     1     -10.323   8.360  68.160  1.00  0.00    -0.205 OA 
HETATM   10  O   UNL     1     -10.258   8.844  65.965  1.00  0.00    -0.199 OA 
HETATM   11  C   UNL     1     -11.228  12.476  65.841  1.00  0.00    -0.320 C  
HETATM   12  CA  UNL     1      -9.952  13.367  65.899  1.00  0.00    -0.277 C  
HETATM   13  O   UNL     1     -12.419  12.603  65.686  1.00  0.00    -0.622 OA 
ENDROOT
BRANCH  12  14
HETATM   14  N   UNL     1      -9.962  14.530  66.820  1.00  0.00    -0.257 N  
HETATM   15  C   UNL     1     -10.070  15.824  66.377  1.00  0.00    -0.291 C  
HETATM   16  H   UNL     1      -9.885  14.361  67.823  1.00  0.00     0.000 HD 
HETATM   17  O   UNL     1     -10.268  16.113  65.203  1.00  0.00    -0.542 OA 
BRANCH  15  18
HETATM   18  C   UNL     1      -9.935  16.831  67.421  1.00  0.00    -0.267 A  
HETATM   19  C   UNL     1     -10.720  16.890  68.555  1.00  0.00    -0.359 A  
HETATM   20  C   UNL     1     -11.827  16.082  69.106  1.00  0.00    -0.268 C  
HETATM   21  O   UNL     1     -10.318  17.931  69.324  1.00  0.00    -0.290 OA 
HETATM   22  N   UNL     1      -9.291  18.601  68.704  1.00  0.00    -0.344 NA 
HETATM   23  C   UNL     1      -9.049  17.960  67.549  1.00  0.00    -0.245 A  
BRANCH  23  24
HETATM   24  C   UNL     1      -7.962  18.411  66.665  1.00  0.00    -0.278 A  
HETATM   25  C   UNL     1      -8.088  19.634  65.982  1.00  0.00    -0.313 A  
HETATM   26  C   UNL     1      -7.015  20.213  65.302  1.00  0.00    -0.300 A  
HETATM   27  F   UNL     1      -9.244  20.314  65.985  1.00  0.00    -0.390 F  
HETATM   28  C   UNL     1      -5.770  19.598  65.319  1.00  0.00    -0.209 A  
HETATM   29  C   UNL     1      -5.638  18.347  65.916  1.00  0.00    -0.217 A  
HETATM   30  C   UNL     1      -6.742  17.728  66.521  1.00  0.00    -0.224 A  
HETATM   31 CL   UNL     1      -6.515  16.080  67.001  1.00  0.00    -0.139 Cl 
ENDBRANCH  23  24
ENDBRANCH  15  18
ENDBRANCH  12  14
TORSDOF 3
ENDMDL
MODEL        9
REMARK 921   NORMALIZED FREE ENERGY PREDICTED BY IDOCK:   -6.95 KCAL/MOL
REMARK 922        TOTAL FREE ENERGY PREDICTED BY IDOCK:   -9.53 KCAL/MOL
REMARK 923 INTER-LIGAND FREE ENERGY PREDICTED BY IDOCK:   -8.49 KCAL/MOL
REMARK 924 INTRA-LIGAND FREE ENERGY PREDICTED BY IDOCK:   -1.04 KCAL/MOL
REMARK 927      BINDING AFFINITY PREDICTED BY RF-SCORE:    0.00 PKD
ROOT
HETATM    1  C   UNL     1      -9.327  16.617  69.487  1.00  0.00     0.149 C  
HETATM    2  S   UNL     1      -8.118  15.480  68.670  1.00  0.00    -0.173 SA 
HETATM    3  C   UNL     1      -7.674  16.695  67.342  1.00  0.00    -0.163 C  
HETATM    4  C   UNL     1      -6.217  16.492  66.919  1.00  0.00    -0.143 C  
HETATM    5  CA  UNL     1      -8.017  18.080  67.943  1.00  0.00    -0.241 C  
HETATM    6  C   UNL     1      -8.537  16.387  66.097  1.00  0.00    -0.343 C  
HETATM    7  N   UNL     1      -9.213  17.910  68.783  1.00  0.00    -0.262 N  
HETATM    8  C   UNL     1      -6.954  18.736  68.846  1.00  0.00    -0.308 C  
HETATM    9  OXT UNL     1      -5.746  18.700  68.676  1.00  0.00    -0.193 OA 
HETATM   10  O   UNL     1      -7.504  19.512  69.820  1.00  0.00    -0.112 OA 
HETATM   11  C   UNL     1     -10.453  17.825  68.207  1.00  0.00    -0.364 C  
HETATM   12  CA  UNL     1     -10.789  16.506  68.966  1.00  0.00    -0.329 C  
HETATM   13  O   UNL     1     -10.906  18.500  67.314  1.00  0.00    -0.408 OA 
ENDROOT
BRANCH  12  14
HETATM   14  N   UNL     1     -11.048  15.290  68.159  1.00  0.00    -0.295 N  
HETATM   15  C   UNL     1     -11.724  14.203  68.652  1.00  0.00    -0.350 C  
HETATM   16  H   UNL     1     -10.709  15.260  67.197  1.00  0.00     0.000 HD 
HETATM   17  O   UNL     1     -12.252  14.192  69.758  1.00  0.00    -0.326 OA 
BRANCH  15  18
HETATM   18  C   UNL     1     -11.768  13.060  67.751  1.00  0.00    -0.405 A  
HETATM   19  C   UNL     1     -12.145  13.126  66.424  1.00  0.00    -0.382 A  
HETATM   20  C   UNL     1     -12.573  14.204  65.509  1.00  0.00    -0.501 C  
HETATM   21  O   UNL     1     -12.054  11.892  65.871  1.00  0.00    -0.474 OA 
HETATM   22  N   UNL     1     -11.652  10.983  66.820  1.00  0.00    -0.238 NA 
HETATM   23  C   UNL     1     -11.482  11.664  67.965  1.00  0.00    -0.315 A  
BRANCH  23  24
HETATM   24  C   UNL     1     -11.006  10.973  69.174  1.00  0.00    -0.289 A  
HETATM   25  C   UNL     1     -11.892  10.761  70.244  1.00  0.00    -0.349 A  
HETATM   26  C   UNL     1     -11.565   9.934  71.321  1.00  0.00    -0.456 A  
HETATM   27  F   UNL     1     -13.110  11.324  70.258  1.00  0.00    -0.171 F  
HETATM   28  C   UNL     1     -10.349   9.264  71.336  1.00  0.00    -0.392 A  
HETATM   29  C   UNL     1      -9.420   9.520  70.331  1.00  0.00    -0.317 A  
HETATM   30  C   UNL     1      -9.719  10.421  69.298  1.00  0.00    -0.214 A  
HETATM   31 CL   UNL     1      -8.400  10.844  68.259  1.00  0.00    -0.123 Cl 
ENDBRANCH  23  24
ENDBRANCH  15  18
ENDBRANCH  12  14
TORSDOF 3
ENDMDL
MODEL       10
REMARK 921   NORMALIZED FREE ENERGY PREDICTED BY IDOCK:   -6.90 KCAL/MOL
REMARK 922        TOTAL FREE ENERGY PREDICTED BY IDOCK:   -9.47 KCAL/MOL
REMARK 923 INTER-LIGAND FREE ENERGY PREDICTED BY IDOCK:   -8.45 KCAL/MOL
REMARK 924 INTRA-LIGAND FREE ENERGY PREDICTED BY IDOCK:   -1.02 KCAL/MOL
REMARK 927      BINDING AFFINITY PREDICTED BY RF-SCORE:    0.00 PKD
ROOT
HETATM    1  C   UNL     1     -11.958  13.331  66.896  1.00  0.00    -0.375 C  
HETATM    2  S   UNL     1     -10.821  14.412  67.876  1.00  0.00    -0.256 SA 
HETATM    3  C   UNL     1      -9.640  14.666  66.470  1.00  0.00    -0.289 C  
HETATM    4  C   UNL     1      -8.993  16.049  66.580  1.00  0.00    -0.327 C  
HETATM    5  CA  UNL     1     -10.483  14.413  65.196  1.00  0.00    -0.415 C  
HETATM    6  C   UNL     1      -8.496  13.636  66.607  1.00  0.00     0.138 C  
HETATM    7  N   UNL     1     -11.446  13.346  65.512  1.00  0.00    -0.301 N  
HETATM    8  C   UNL     1     -11.316  15.593  64.660  1.00  0.00    -0.349 C  
HETATM    9  OXT UNL     1     -10.977  16.765  64.647  1.00  0.00    -0.839 OA 
HETATM   10  O   UNL     1     -12.462  15.186  64.047  1.00  0.00    -0.771 OA 
HETATM   11  C   UNL     1     -11.043  12.038  65.535  1.00  0.00    -0.313 C  
HETATM   12  CA  UNL     1     -11.636  11.810  66.958  1.00  0.00    -0.244 C  
HETATM   13  O   UNL     1     -10.332  11.464  64.745  1.00  0.00    -0.259 OA 
ENDROOT
BRANCH  12  14
HETATM   14  N   UNL     1     -10.700  11.439  68.047  1.00  0.00    -0.189 N  
HETATM   15  C   UNL     1     -10.070  10.222  68.099  1.00  0.00    -0.150 C  
HETATM   16  H   UNL     1     -10.517  12.116  68.787  1.00  0.00     0.000 HD 
HETATM   17  O   UNL     1     -10.152   9.390  67.203  1.00  0.00    -0.198 OA 
BRANCH  15  18
HETATM   18  C   UNL     1      -9.289   9.998  69.309  1.00  0.00    -0.224 A  
HETATM   19  C   UNL     1      -8.069  10.589  69.570  1.00  0.00    -0.094 A  
HETATM   20  C   UNL     1      -7.197  11.549  68.862  1.00  0.00    -0.117 C  
HETATM   21  O   UNL     1      -7.627  10.185  70.785  1.00  0.00    -0.188 OA 
HETATM   22  N   UNL     1      -8.520   9.297  71.335  1.00  0.00    -0.304 NA 
HETATM   23  C   UNL     1      -9.527   9.162  70.457  1.00  0.00    -0.242 A  
BRANCH  23  24
HETATM   24  C   UNL     1     -10.678   8.302  70.776  1.00  0.00    -0.244 A  
HETATM   25  C   UNL     1     -10.570   6.910  70.607  1.00  0.00    -0.222 A  
HETATM   26  C   UNL     1     -11.543   6.031  71.086  1.00  0.00    -0.167 A  
HETATM   27  F   UNL     1      -9.505   6.366  70.000  1.00  0.00    -0.152 F  
HETATM   28  C   UNL     1     -12.636   6.522  71.786  1.00  0.00    -0.240 A  
HETATM   29  C   UNL     1     -12.810   7.899  71.896  1.00  0.00    -0.331 A  
HETATM   30  C   UNL     1     -11.875   8.781  71.335  1.00  0.00    -0.308 A  
HETATM   31 CL   UNL     1     -12.329  10.452  71.318  1.00  0.00    -0.479 Cl 
ENDBRANCH  23  24
ENDBRANCH  15  18
ENDBRANCH  12  14
TORSDOF 3
ENDMDL
MODEL       11
REMARK 921   NORMALIZED FREE ENERGY PREDICTED BY IDOCK:   -6.87 KCAL/MOL
REMARK 922        TOTAL FREE ENERGY PREDICTED BY IDOCK:   -9.44 KCAL/MOL
REMARK 923 INTER-LIGAND FREE ENERGY PREDICTED BY IDOCK:   -8.32 KCAL/MOL
REMARK 924 INTRA-LIGAND FREE ENERGY PREDICTED BY IDOCK:   -1.12 KCAL/MOL
REMARK 927      BINDING AFFINITY PREDICTED BY RF-SCORE:    0.00 PKD
ROOT
HETATM    1  C   UNL     1      -9.338  13.801  66.486  1.00  0.00    -0.233 C  
HETATM    2  S   UNL     1     -10.039  12.939  65.007  1.00  0.00    -0.166 SA 
HETATM    3  C   UNL     1     -11.683  13.784  65.132  1.00  0.00    -0.343 C  
HETATM    4  C   UNL     1     -12.285  13.958  63.734  1.00  0.00    -0.310 C  
HETATM    5  CA  UNL     1     -11.399  15.091  65.912  1.00  0.00    -0.273 C  
HETATM    6  C   UNL     1     -12.646  12.858  65.909  1.00  0.00    -0.076 C  
HETATM    7  N   UNL     1     -10.351  14.791  66.902  1.00  0.00    -0.264 N  
HETATM    8  C   UNL     1     -10.884  16.295  65.100  1.00  0.00    -0.318 C  
HETATM    9  OXT UNL     1     -11.243  16.611  63.978  1.00  0.00    -1.052 OA 
HETATM   10  O   UNL     1     -10.056  17.097  65.825  1.00  0.00    -0.529 OA 
HETATM   11  C   UNL     1     -10.667  14.136  68.063  1.00  0.00    -0.242 C  
HETATM   12  CA  UNL     1      -9.557  13.066  67.841  1.00  0.00    -0.215 C  
HETATM   13  O   UNL     1     -11.610  14.330  68.793  1.00  0.00    -0.283 OA 
ENDROOT
BRANCH  12  14
HETATM   14  N   UNL     1      -9.978  11.652  67.695  1.00  0.00    -0.186 N  
HETATM   15  C   UNL     1      -9.274  10.609  68.240  1.00  0.00    -0.153 C  
HETATM   16  H   UNL     1     -10.826  11.446  67.167  1.00  0.00     0.000 HD 
HETATM   17  O   UNL     1      -8.304  10.770  68.971  1.00  0.00    -0.148 OA 
BRANCH  15  18
HETATM   18  C   UNL     1      -9.776   9.289  67.882  1.00  0.00    -0.180 A  
HETATM   19  C   UNL     1      -9.811   8.789  66.596  1.00  0.00    -0.265 A  
HETATM   20  C   UNL     1      -9.403   9.290  65.267  1.00  0.00    -0.269 C  
HETATM   21  O   UNL     1     -10.315   7.532  66.618  1.00  0.00    -0.264 OA 
HETATM   22  N   UNL     1     -10.656   7.187  67.904  1.00  0.00    -0.211 NA 
HETATM   23  C   UNL     1     -10.348   8.237  68.683  1.00  0.00    -0.200 A  
BRANCH  23  24
HETATM   24  C   UNL     1     -10.556   8.165  70.138  1.00  0.00    -0.237 A  
HETATM   25  C   UNL     1     -11.548   8.961  70.736  1.00  0.00    -0.259 A  
HETATM   26  C   UNL     1     -11.933   8.785  72.067  1.00  0.00    -0.446 A  
HETATM   27  F   UNL     1     -12.191   9.909  70.038  1.00  0.00    -0.214 F  
HETATM   28  C   UNL     1     -11.358   7.776  72.827  1.00  0.00    -0.446 A  
HETATM   29  C   UNL     1     -10.316   7.027  72.286  1.00  0.00    -0.216 A  
HETATM   30  C   UNL     1      -9.872   7.268  70.978  1.00  0.00    -0.183 A  
HETATM   31 CL   UNL     1      -8.416   6.454  70.512  1.00  0.00    -0.136 Cl 
ENDBRANCH  23  24
ENDBRANCH  15  18
ENDBRANCH  12  14
TORSDOF 3
ENDMDL
MODEL       12
REMARK 921   NORMALIZED FREE ENERGY PREDICTED BY IDOCK:   -6.85 KCAL/MOL
REMARK 922        TOTAL FREE ENERGY PREDICTED BY IDOCK:   -9.41 KCAL/MOL
REMARK 923 INTER-LIGAND FREE ENERGY PREDICTED BY IDOCK:   -7.89 KCAL/MOL
REMARK 924 INTRA-LIGAND FREE ENERGY PREDICTED BY IDOCK:   -1.52 KCAL/MOL
REMARK 927      BINDING AFFINITY PREDICTED BY RF-SCORE:    0.00 PKD
ROOT
HETATM    1  C   UNL     1      -7.330  15.285  67.241  1.00  0.00    -0.195 C  
HETATM    2  S   UNL     1      -9.145  15.564  67.014  1.00  0.00    -0.247 SA 
HETATM    3  C   UNL     1      -9.307  16.606  68.538  1.00  0.00    -0.236 C  
HETATM    4  C   UNL     1     -10.411  17.649  68.338  1.00  0.00    -0.375 C  
HETATM    5  CA  UNL     1      -7.885  17.166  68.787  1.00  0.00    -0.258 C  
HETATM    6  C   UNL     1      -9.770  15.697  69.699  1.00  0.00    -0.276 C  
HETATM    7  N   UNL     1      -6.927  16.123  68.387  1.00  0.00    -0.126 N  
HETATM    8  C   UNL     1      -7.484  18.434  68.009  1.00  0.00    -0.253 C  
HETATM    9  OXT UNL     1      -8.210  19.381  67.755  1.00  0.00    -0.276 OA 
HETATM   10  O   UNL     1      -6.151  18.476  67.732  1.00  0.00    -0.185 OA 
HETATM   11  C   UNL     1      -6.680  15.060  69.214  1.00  0.00    -0.141 C  
HETATM   12  CA  UNL     1      -6.958  14.028  68.080  1.00  0.00    -0.145 C  
HETATM   13  O   UNL     1      -6.505  15.072  70.408  1.00  0.00    -0.136 OA 
ENDROOT
BRANCH  12  14
HETATM   14  N   UNL     1      -8.081  13.078  68.268  1.00  0.00    -0.149 N  
HETATM   15  C   UNL     1      -8.152  11.876  67.613  1.00  0.00    -0.148 C  
HETATM   16  H   UNL     1      -8.832  13.330  68.911  1.00  0.00     0.000 HD 
HETATM   17  O   UNL     1      -7.249  11.449  66.902  1.00  0.00    -0.131 OA 
BRANCH  15  18
HETATM   18  C   UNL     1      -9.390  11.140  67.833  1.00  0.00    -0.161 A  
HETATM   19  C   UNL     1      -9.586  10.229  68.851  1.00  0.00    -0.190 A  
HETATM   20  C   UNL     1      -8.767   9.715  69.969  1.00  0.00    -0.256 C  
HETATM   21  O   UNL     1     -10.850   9.746  68.783  1.00  0.00    -0.220 OA 
HETATM   22  N   UNL     1     -11.502  10.296  67.706  1.00  0.00    -0.296 NA 
HETATM   23  C   UNL     1     -10.638  11.134  67.112  1.00  0.00    -0.244 A  
BRANCH  23  24
HETATM   24  C   UNL     1     -11.054  11.920  65.940  1.00  0.00    -0.365 A  
HETATM   25  C   UNL     1     -10.658  11.510  64.655  1.00  0.00    -0.311 A  
HETATM   26  C   UNL     1     -11.190  12.086  63.500  1.00  0.00    -0.526 A  
HETATM   27  F   UNL     1      -9.768  10.520  64.487  1.00  0.00    -0.257 F  
HETATM   28  C   UNL     1     -12.167  13.067  63.601  1.00  0.00    -0.568 A  
HETATM   29  C   UNL     1     -12.517  13.550  64.859  1.00  0.00    -0.429 A  
HETATM   30  C   UNL     1     -11.914  13.030  66.014  1.00  0.00    -0.440 A  
HETATM   31 CL   UNL     1     -12.244  13.879  67.487  1.00  0.00    -0.350 Cl 
ENDBRANCH  23  24
ENDBRANCH  15  18
ENDBRANCH  12  14
TORSDOF 3
ENDMDL
MODEL       13
REMARK 921   NORMALIZED FREE ENERGY PREDICTED BY IDOCK:   -6.81 KCAL/MOL
REMARK 922        TOTAL FREE ENERGY PREDICTED BY IDOCK:   -9.37 KCAL/MOL
REMARK 923 INTER-LIGAND FREE ENERGY PREDICTED BY IDOCK:   -8.11 KCAL/MOL
REMARK 924 INTRA-LIGAND FREE ENERGY PREDICTED BY IDOCK:   -1.26 KCAL/MOL
REMARK 927      BINDING AFFINITY PREDICTED BY RF-SCORE:    0.00 PKD
ROOT
HETATM    1  C   UNL     1     -12.250  14.019  66.404  1.00  0.00    -0.460 C  
HETATM    2  S   UNL     1     -11.391  14.919  67.773  1.00  0.00    -0.337 SA 
HETATM    3  C   UNL     1      -9.922  15.364  66.735  1.00  0.00    -0.249 C  
HETATM    4  C   UNL     1      -9.344  16.703  67.200  1.00  0.00    -0.236 C  
HETATM    5  CA  UNL     1     -10.442  15.321  65.276  1.00  0.00    -0.411 C  
HETATM    6  C   UNL     1      -8.821  14.306  66.975  1.00  0.00    -0.243 C  
HETATM    7  N   UNL     1     -11.432  14.235  65.195  1.00  0.00    -0.337 N  
HETATM    8  C   UNL     1     -11.150  16.583  64.747  1.00  0.00    -0.186 C  
HETATM    9  OXT UNL     1     -10.839  17.737  64.991  1.00  0.00    -0.774 OA 
HETATM   10  O   UNL     1     -12.115  16.294  63.831  1.00  0.00    -0.986 OA 
HETATM   11  C   UNL     1     -11.020  12.932  65.112  1.00  0.00    -0.289 C  
HETATM   12  CA  UNL     1     -11.922  12.501  66.307  1.00  0.00    -0.343 C  
HETATM   13  O   UNL     1     -10.135  12.474  64.430  1.00  0.00    -0.307 OA 
ENDROOT
BRANCH  12  14
HETATM   14  N   UNL     1     -11.257  11.953  67.514  1.00  0.00    -0.275 N  
HETATM   15  C   UNL     1     -10.763  10.675  67.571  1.00  0.00    -0.272 C  
HETATM   16  H   UNL     1     -11.164  12.550  68.335  1.00  0.00     0.000 HD 
HETATM   17  O   UNL     1     -10.741   9.924  66.603  1.00  0.00    -0.150 OA 
BRANCH  15  18
HETATM   18  C   UNL     1     -10.259  10.281  68.880  1.00  0.00    -0.220 A  
HETATM   19  C   UNL     1     -11.012  10.276  70.037  1.00  0.00    -0.311 A  
HETATM   20  C   UNL     1     -12.415  10.595  70.375  1.00  0.00    -0.421 C  
HETATM   21  O   UNL     1     -10.249   9.838  71.067  1.00  0.00    -0.249 OA 
HETATM   22  N   UNL     1      -8.973   9.579  70.625  1.00  0.00    -0.223 NA 
HETATM   23  C   UNL     1      -8.953   9.849  69.310  1.00  0.00    -0.178 A  
BRANCH  23  24
HETATM   24  C   UNL     1      -7.727   9.628  68.527  1.00  0.00    -0.081 A  
HETATM   25  C   UNL     1      -7.687   8.589  67.581  1.00  0.00    -0.102 A  
HETATM   26  C   UNL     1      -6.639   8.462  66.667  1.00  0.00    -0.056 A  
HETATM   27  F   UNL     1      -8.678   7.688  67.498  1.00  0.00    -0.122 F  
HETATM   28  C   UNL     1      -5.617   9.402  66.650  1.00  0.00    -0.046 A  
HETATM   29  C   UNL     1      -5.588  10.392  67.628  1.00  0.00    -0.044 A  
HETATM   30  C   UNL     1      -6.597  10.461  68.601  1.00  0.00    -0.052 A  
HETATM   31 CL   UNL     1      -6.318  11.570  69.902  1.00  0.00    -0.144 Cl 
ENDBRANCH  23  24
ENDBRANCH  15  18
ENDBRANCH  12  14
TORSDOF 3
ENDMDL
MODEL       14
REMARK 921   NORMALIZED FREE ENERGY PREDICTED BY IDOCK:   -6.70 KCAL/MOL
REMARK 922        TOTAL FREE ENERGY PREDICTED BY IDOCK:   -9.24 KCAL/MOL
REMARK 923 INTER-LIGAND FREE ENERGY PREDICTED BY IDOCK:   -8.35 KCAL/MOL
REMARK 924 INTRA-LIGAND FREE ENERGY PREDICTED BY IDOCK:   -0.90 KCAL/MOL
REMARK 927      BINDING AFFINITY PREDICTED BY RF-SCORE:    0.00 PKD
ROOT
HETATM    1  C   UNL     1      -9.702  17.775  68.419  1.00  0.00    -0.333 C  
HETATM    2  S   UNL     1      -8.290  16.726  68.992  1.00  0.00    -0.097 SA 
HETATM    3  C   UNL     1      -7.432  16.756  67.350  1.00  0.00    -0.161 C  
HETATM    4  C   UNL     1      -5.916  16.678  67.554  1.00  0.00    -0.178 C  
HETATM    5  CA  UNL     1      -7.955  18.036  66.653  1.00  0.00    -0.251 C  
HETATM    6  C   UNL     1      -7.833  15.483  66.570  1.00  0.00     0.083 C  
HETATM    7  N   UNL     1      -9.362  18.207  67.049  1.00  0.00    -0.263 N  
HETATM    8  C   UNL     1      -7.251  19.362  67.003  1.00  0.00    -0.207 C  
HETATM    9  OXT UNL     1      -6.055  19.512  67.193  1.00  0.00    -0.185 OA 
HETATM   10  O   UNL     1      -8.093  20.431  66.944  1.00  0.00    -0.308 OA 
HETATM   11  C   UNL     1     -10.341  17.455  66.457  1.00  0.00    -0.312 C  
HETATM   12  CA  UNL     1     -10.909  16.989  67.831  1.00  0.00    -0.302 C  
HETATM   13  O   UNL     1     -10.472  17.196  65.284  1.00  0.00    -0.655 OA 
ENDROOT
BRANCH  12  14
HETATM   14  N   UNL     1     -10.885  15.538  68.134  1.00  0.00    -0.285 N  
HETATM   15  C   UNL     1     -11.662  14.629  67.463  1.00  0.00    -0.379 C  
HETATM   16  H   UNL     1     -10.265  15.202  68.871  1.00  0.00     0.000 HD 
HETATM   17  O   UNL     1     -12.358  14.928  66.500  1.00  0.00    -0.048 OA 
BRANCH  15  18
HETATM   18  C   UNL     1     -11.591  13.271  67.988  1.00  0.00    -0.371 A  
HETATM   19  C   UNL     1     -11.871  12.924  69.295  1.00  0.00    -0.309 A  
HETATM   20  C   UNL     1     -12.307  13.655  70.502  1.00  0.00    -0.425 C  
HETATM   21  O   UNL     1     -11.730  11.585  69.442  1.00  0.00    -0.286 OA 
HETATM   22  N   UNL     1     -11.321  11.025  68.255  1.00  0.00    -0.277 NA 
HETATM   23  C   UNL     1     -11.222  12.026  67.365  1.00  0.00    -0.307 A  
BRANCH  23  24
HETATM   24  C   UNL     1     -10.843  11.743  65.972  1.00  0.00    -0.343 A  
HETATM   25  C   UNL     1     -11.738  12.056  64.934  1.00  0.00    -0.258 A  
HETATM   26  C   UNL     1     -11.357  12.009  63.591  1.00  0.00    -0.536 A  
HETATM   27  F   UNL     1     -12.994  12.447  65.196  1.00  0.00    -0.483 F  
HETATM   28  C   UNL     1     -10.051  11.681  63.253  1.00  0.00    -0.454 A  
HETATM   29  C   UNL     1      -9.168  11.286  64.254  1.00  0.00    -0.059 A  
HETATM   30  C   UNL     1      -9.581  11.250  65.594  1.00  0.00    -0.229 A  
HETATM   31 CL   UNL     1      -8.481  10.507  66.705  1.00  0.00    -0.127 Cl 
ENDBRANCH  23  24
ENDBRANCH  15  18
ENDBRANCH  12  14
TORSDOF 3
ENDMDL
MODEL       15
REMARK 921   NORMALIZED FREE ENERGY PREDICTED BY IDOCK:   -6.69 KCAL/MOL
REMARK 922        TOTAL FREE ENERGY PREDICTED BY IDOCK:   -9.23 KCAL/MOL
REMARK 923 INTER-LIGAND FREE ENERGY PREDICTED BY IDOCK:   -8.07 KCAL/MOL
REMARK 924 INTRA-LIGAND FREE ENERGY PREDICTED BY IDOCK:   -1.16 KCAL/MOL
REMARK 927      BINDING AFFINITY PREDICTED BY RF-SCORE:    0.00 PKD
ROOT
HETATM    1  C   UNL     1     -11.245  15.878  67.594  1.00  0.00    -0.219 C  
HETATM    2  S   UNL     1      -9.894  15.832  68.858  1.00  0.00    -0.239 SA 
HETATM    3  C   UNL     1      -8.539  15.996  67.605  1.00  0.00    -0.166 C  
HETATM    4  C   UNL     1      -7.354  16.748  68.218  1.00  0.00    -0.183 C  
HETATM    5  CA  UNL     1      -9.209  16.670  66.383  1.00  0.00    -0.287 C  
HETATM    6  C   UNL     1      -8.024  14.580  67.260  1.00  0.00    -0.216 C  
HETATM    7  N   UNL     1     -10.588  16.162  66.303  1.00  0.00    -0.300 N  
HETATM    8  C   UNL     1      -9.323  18.207  66.405  1.00  0.00    -0.265 C  
HETATM    9  OXT UNL     1      -8.488  18.983  66.838  1.00  0.00    -0.272 OA 
HETATM   10  O   UNL     1     -10.426  18.657  65.744  1.00  0.00    -0.586 OA 
HETATM   11  C   UNL     1     -10.835  14.918  65.784  1.00  0.00    -0.339 C  
HETATM   12  CA  UNL     1     -11.666  14.490  67.031  1.00  0.00    -0.393 C  
HETATM   13  O   UNL     1     -10.359  14.418  64.794  1.00  0.00    -0.431 OA 
ENDROOT
BRANCH  12  14
HETATM   14  N   UNL     1     -11.172  13.343  67.830  1.00  0.00    -0.263 N  
HETATM   15  C   UNL     1     -11.446  12.039  67.504  1.00  0.00    -0.333 C  
HETATM   16  H   UNL     1     -10.605  13.531  68.657  1.00  0.00     0.000 HD 
HETATM   17  O   UNL     1     -12.031  11.719  66.476  1.00  0.00    -0.545 OA 
BRANCH  15  18
HETATM   18  C   UNL     1     -10.980  11.062  68.479  1.00  0.00    -0.276 A  
HETATM   19  C   UNL     1     -11.354  11.046  69.808  1.00  0.00    -0.292 A  
HETATM   20  C   UNL     1     -12.248  11.863  70.654  1.00  0.00    -0.424 C  
HETATM   21  O   UNL     1     -10.759   9.999  70.427  1.00  0.00    -0.287 OA 
HETATM   22  N   UNL     1      -9.956   9.325  69.539  1.00  0.00    -0.179 NA 
HETATM   23  C   UNL     1     -10.067   9.954  68.358  1.00  0.00    -0.167 A  
BRANCH  23  24
HETATM   24  C   UNL     1      -9.354   9.443  67.176  1.00  0.00    -0.172 A  
HETATM   25  C   UNL     1      -8.349  10.226  66.581  1.00  0.00    -0.125 A  
HETATM   26  C   UNL     1      -7.500   9.714  65.597  1.00  0.00    -0.101 A  
HETATM   27  F   UNL     1      -8.143  11.496  66.961  1.00  0.00    -0.133 F  
HETATM   28  C   UNL     1      -7.612   8.386  65.208  1.00  0.00    -0.090 A  
HETATM   29  C   UNL     1      -8.651   7.613  65.719  1.00  0.00    -0.156 A  
HETATM   30  C   UNL     1      -9.557   8.159  66.641  1.00  0.00    -0.229 A  
HETATM   31 CL   UNL     1     -10.942   7.186  67.007  1.00  0.00    -0.410 Cl 
ENDBRANCH  23  24
ENDBRANCH  15  18
ENDBRANCH  12  14
TORSDOF 3
ENDMDL
MODEL       16
REMARK 921   NORMALIZED FREE ENERGY PREDICTED BY IDOCK:   -6.69 KCAL/MOL
REMARK 922        TOTAL FREE ENERGY PREDICTED BY IDOCK:   -9.23 KCAL/MOL
REMARK 923 INTER-LIGAND FREE ENERGY PREDICTED BY IDOCK:   -8.08 KCAL/MOL
REMARK 924 INTRA-LIGAND FREE ENERGY PREDICTED BY IDOCK:   -1.15 KCAL/MOL
REMARK 927      BINDING AFFINITY PREDICTED BY RF-SCORE:    0.00 PKD
ROOT
HETATM    1  C   UNL     1     -11.853  12.908  66.587  1.00  0.00    -0.395 C  
HETATM    2  S   UNL     1     -10.964  14.161  67.618  1.00  0.00    -0.274 SA 
HETATM    3  C   UNL     1      -9.814  14.659  66.254  1.00  0.00    -0.300 C  
HETATM    4  C   UNL     1      -9.438  16.136  66.405  1.00  0.00    -0.323 C  
HETATM    5  CA  UNL     1     -10.559  14.281  64.950  1.00  0.00    -0.431 C  
HETATM    6  C   UNL     1      -8.502  13.857  66.410  1.00  0.00     0.480 C  
HETATM    7  N   UNL     1     -11.315  13.048  65.219  1.00  0.00    -0.290 N  
HETATM    8  C   UNL     1     -11.582  15.298  64.408  1.00  0.00    -0.263 C  
HETATM    9  OXT UNL     1     -11.466  16.512  64.423  1.00  0.00    -0.873 OA 
HETATM   10  O   UNL     1     -12.615  14.698  63.753  1.00  0.00    -0.820 OA 
HETATM   11  C   UNL     1     -10.676  11.837  65.235  1.00  0.00    -0.287 C  
HETATM   12  CA  UNL     1     -11.255  11.473  66.634  1.00  0.00    -0.271 C  
HETATM   13  O   UNL     1      -9.850  11.422  64.457  1.00  0.00    -0.242 OA 
ENDROOT
BRANCH  12  14
HETATM   14  N   UNL     1     -10.297  11.258  67.746  1.00  0.00    -0.178 N  
HETATM   15  C   UNL     1      -9.553  10.114  67.871  1.00  0.00    -0.148 C  
HETATM   16  H   UNL     1     -10.188  11.992  68.445  1.00  0.00     0.000 HD 
HETATM   17  O   UNL     1      -9.545   9.227  67.026  1.00  0.00    -0.154 OA 
BRANCH  15  18
HETATM   18  C   UNL     1      -8.763  10.038  69.094  1.00  0.00    -0.168 A  
HETATM   19  C   UNL     1      -7.616  10.770  69.329  1.00  0.00    -0.129 A  
HETATM   20  C   UNL     1      -6.846  11.781  68.575  1.00  0.00    -0.075 C  
HETATM   21  O   UNL     1      -7.145  10.478  70.565  1.00  0.00    -0.278 OA 
HETATM   22  N   UNL     1      -7.943   9.529  71.157  1.00  0.00    -0.276 NA 
HETATM   23  C   UNL     1      -8.922   9.241  70.283  1.00  0.00    -0.229 A  
BRANCH  23  24
HETATM   24  C   UNL     1      -9.976   8.280  70.642  1.00  0.00    -0.204 A  
HETATM   25  C   UNL     1     -11.189   8.750  71.175  1.00  0.00    -0.277 A  
HETATM   26  C   UNL     1     -12.297   7.915  71.336  1.00  0.00    -0.334 A  
HETATM   27  F   UNL     1     -11.342  10.037  71.522  1.00  0.00    -0.425 F  
HETATM   28  C   UNL     1     -12.231   6.589  70.931  1.00  0.00    -0.225 A  
HETATM   29  C   UNL     1     -11.018   6.077  70.478  1.00  0.00    -0.388 A  
HETATM   30  C   UNL     1      -9.883   6.898  70.402  1.00  0.00    -0.179 A  
HETATM   31 CL   UNL     1      -8.388   6.091  70.068  1.00  0.00    -0.121 Cl 
ENDBRANCH  23  24
ENDBRANCH  15  18
ENDBRANCH  12  14
TORSDOF 3
ENDMDL
MODEL       17
REMARK 921   NORMALIZED FREE ENERGY PREDICTED BY IDOCK:   -6.68 KCAL/MOL
REMARK 922        TOTAL FREE ENERGY PREDICTED BY IDOCK:   -9.22 KCAL/MOL
REMARK 923 INTER-LIGAND FREE ENERGY PREDICTED BY IDOCK:   -8.88 KCAL/MOL
REMARK 924 INTRA-LIGAND FREE ENERGY PREDICTED BY IDOCK:   -0.34 KCAL/MOL
REMARK 927      BINDING AFFINITY PREDICTED BY RF-SCORE:    0.00 PKD
ROOT
HETATM    1  C   UNL     1     -12.352  13.878  65.984  1.00  0.00    -0.475 C  
HETATM    2  S   UNL     1     -11.734  14.586  67.577  1.00  0.00    -0.373 SA 
HETATM    3  C   UNL     1     -10.100  15.097  66.867  1.00  0.00    -0.255 C  
HETATM    4  C   UNL     1      -9.595  16.354  67.580  1.00  0.00    -0.227 C  
HETATM    5  CA  UNL     1     -10.358  15.240  65.346  1.00  0.00    -0.393 C  
HETATM    6  C   UNL     1      -9.072  13.982  67.165  1.00  0.00    -0.239 C  
HETATM    7  N   UNL     1     -11.333  14.204  64.967  1.00  0.00    -0.334 N  
HETATM    8  C   UNL     1     -10.947  16.577  64.857  1.00  0.00    -0.209 C  
HETATM    9  OXT UNL     1     -10.668  17.684  65.286  1.00  0.00    -0.649 OA 
HETATM   10  O   UNL     1     -11.740  16.427  63.761  1.00  0.00    -1.049 OA 
HETATM   11  C   UNL     1     -10.930  12.906  64.803  1.00  0.00    -0.318 C  
HETATM   12  CA  UNL     1     -12.032  12.371  65.765  1.00  0.00    -0.372 C  
HETATM   13  O   UNL     1      -9.945  12.499  64.233  1.00  0.00    -0.277 OA 
ENDROOT
BRANCH  12  14
HETATM   14  N   UNL     1     -11.595  11.666  66.994  1.00  0.00    -0.261 N  
HETATM   15  C   UNL     1     -10.907  10.480  66.963  1.00  0.00    -0.225 C  
HETATM   16  H   UNL     1     -11.816  12.079  67.900  1.00  0.00     0.000 HD 
HETATM   17  O   UNL     1     -10.513   9.965  65.923  1.00  0.00    -0.158 OA 
BRANCH  15  18
HETATM   18  C   UNL     1     -10.677   9.881  68.271  1.00  0.00    -0.276 A  
HETATM   19  C   UNL     1     -10.977  10.492  69.473  1.00  0.00    -0.264 A  
HETATM   20  C   UNL     1     -11.574  11.783  69.871  1.00  0.00    -0.351 C  
HETATM   21  O   UNL     1     -10.659   9.657  70.491  1.00  0.00    -0.262 OA 
HETATM   22  N   UNL     1     -10.113   8.498  69.992  1.00  0.00    -0.189 NA 
HETATM   23  C   UNL     1     -10.105   8.615  68.654  1.00  0.00    -0.190 A  
BRANCH  23  24
HETATM   24  C   UNL     1      -9.616   7.509  67.816  1.00  0.00    -0.166 A  
HETATM   25  C   UNL     1     -10.412   6.362  67.650  1.00  0.00    -0.228 A  
HETATM   26  C   UNL     1     -10.102   5.378  66.709  1.00  0.00    -0.246 A  
HETATM   27  F   UNL     1     -11.527   6.181  68.373  1.00  0.00    -0.408 F  
HETATM   28  C   UNL     1      -9.001   5.537  65.878  1.00  0.00    -0.158 A  
HETATM   29  C   UNL     1      -8.149   6.620  66.077  1.00  0.00    -0.122 A  
HETATM   30  C   UNL     1      -8.417   7.560  67.084  1.00  0.00    -0.121 A  
HETATM   31 CL   UNL     1      -7.161   8.710  67.397  1.00  0.00    -0.080 Cl 
ENDBRANCH  23  24
ENDBRANCH  15  18
ENDBRANCH  12  14
TORSDOF 3
ENDMDL
MODEL       18
REMARK 921   NORMALIZED FREE ENERGY PREDICTED BY IDOCK:   -6.68 KCAL/MOL
REMARK 922        TOTAL FREE ENERGY PREDICTED BY IDOCK:   -9.22 KCAL/MOL
REMARK 923 INTER-LIGAND FREE ENERGY PREDICTED BY IDOCK:   -7.92 KCAL/MOL
REMARK 924 INTRA-LIGAND FREE ENERGY PREDICTED BY IDOCK:   -1.30 KCAL/MOL
REMARK 927      BINDING AFFINITY PREDICTED BY RF-SCORE:    0.00 PKD
ROOT
HETATM    1  C   UNL     1     -12.213  13.893  66.403  1.00  0.00    -0.449 C  
HETATM    2  S   UNL     1     -11.396  14.839  67.767  1.00  0.00    -0.340 SA 
HETATM    3  C   UNL     1      -9.915  15.286  66.746  1.00  0.00    -0.242 C  
HETATM    4  C   UNL     1      -9.369  16.645  67.191  1.00  0.00    -0.236 C  
HETATM    5  CA  UNL     1     -10.406  15.201  65.279  1.00  0.00    -0.396 C  
HETATM    6  C   UNL     1      -8.801  14.253  67.030  1.00  0.00    -0.243 C  
HETATM    7  N   UNL     1     -11.376  14.097  65.204  1.00  0.00    -0.323 N  
HETATM    8  C   UNL     1     -11.126  16.438  64.709  1.00  0.00    -0.235 C  
HETATM    9  OXT UNL     1     -10.840  17.603  64.932  1.00  0.00    -0.831 OA 
HETATM   10  O   UNL     1     -12.068  16.111  63.781  1.00  0.00    -0.946 OA 
HETATM   11  C   UNL     1     -10.940  12.799  65.159  1.00  0.00    -0.293 C  
HETATM   12  CA  UNL     1     -11.857  12.379  66.347  1.00  0.00    -0.354 C  
HETATM   13  O   UNL     1     -10.034  12.341  64.505  1.00  0.00    -0.260 OA 
ENDROOT
BRANCH  12  14
HETATM   14  N   UNL     1     -11.206  11.870  67.578  1.00  0.00    -0.275 N  
HETATM   15  C   UNL     1     -10.877  10.550  67.750  1.00  0.00    -0.294 C  
HETATM   16  H   UNL     1     -10.994  12.529  68.327  1.00  0.00     0.000 HD 
HETATM   17  O   UNL     1     -11.002   9.711  66.866  1.00  0.00    -0.103 OA 
BRANCH  15  18
HETATM   18  C   UNL     1     -10.360  10.225  69.073  1.00  0.00    -0.229 A  
HETATM   19  C   UNL     1     -11.070  10.377  70.248  1.00  0.00    -0.307 A  
HETATM   20  C   UNL     1     -12.429  10.838  70.597  1.00  0.00    -0.461 C  
HETATM   21  O   UNL     1     -10.308   9.963  71.288  1.00  0.00    -0.076 OA 
HETATM   22  N   UNL     1      -9.073   9.565  70.834  1.00  0.00    -0.220 NA 
HETATM   23  C   UNL     1      -9.079   9.722  69.500  1.00  0.00    -0.216 A  
BRANCH  23  24
HETATM   24  C   UNL     1      -7.903   9.338  68.703  1.00  0.00    -0.089 A  
HETATM   25  C   UNL     1      -7.039  10.335  68.218  1.00  0.00    -0.079 A  
HETATM   26  C   UNL     1      -5.805  10.026  67.642  1.00  0.00    -0.042 A  
HETATM   27  F   UNL     1      -7.354  11.635  68.319  1.00  0.00    -0.074 F  
HETATM   28  C   UNL     1      -5.385   8.705  67.572  1.00  0.00    -0.035 A  
HETATM   29  C   UNL     1      -6.255   7.693  67.968  1.00  0.00    -0.045 A  
HETATM   30  C   UNL     1      -7.530   8.004  68.463  1.00  0.00    -0.102 A  
HETATM   31 CL   UNL     1      -8.603   6.663  68.682  1.00  0.00    -0.125 Cl 
ENDBRANCH  23  24
ENDBRANCH  15  18
ENDBRANCH  12  14
TORSDOF 3
ENDMDL
MODEL       19
REMARK 921   NORMALIZED FREE ENERGY PREDICTED BY IDOCK:   -6.57 KCAL/MOL
REMARK 922        TOTAL FREE ENERGY PREDICTED BY IDOCK:   -9.09 KCAL/MOL
REMARK 923 INTER-LIGAND FREE ENERGY PREDICTED BY IDOCK:   -7.75 KCAL/MOL
REMARK 924 INTRA-LIGAND FREE ENERGY PREDICTED BY IDOCK:   -1.34 KCAL/MOL
REMARK 927      BINDING AFFINITY PREDICTED BY RF-SCORE:    0.00 PKD
ROOT
HETATM    1  C   UNL     1      -8.803   9.353  70.098  1.00  0.00    -0.223 C  
HETATM    2  S   UNL     1     -10.567   8.796  70.069  1.00  0.00    -0.225 SA 
HETATM    3  C   UNL     1     -10.221   7.323  68.999  1.00  0.00    -0.197 C  
HETATM    4  C   UNL     1     -11.196   6.193  69.341  1.00  0.00    -0.466 C  
HETATM    5  CA  UNL     1      -8.721   7.014  69.226  1.00  0.00    -0.136 C  
HETATM    6  C   UNL     1     -10.504   7.714  67.531  1.00  0.00    -0.336 C  
HETATM    7  N   UNL     1      -8.030   8.300  69.409  1.00  0.00    -0.111 N  
HETATM    8  C   UNL     1      -8.360   6.158  70.456  1.00  0.00    -0.129 C  
HETATM    9  OXT UNL     1      -8.997   5.210  70.884  1.00  0.00    -0.130 OA 
HETATM   10  O   UNL     1      -7.139   6.475  70.970  1.00  0.00    -0.066 OA 
HETATM   11  C   UNL     1      -7.731   9.082  68.325  1.00  0.00    -0.095 C  
HETATM   12  CA  UNL     1      -8.405  10.336  68.959  1.00  0.00    -0.148 C  
HETATM   13  O   UNL     1      -7.272   8.737  67.263  1.00  0.00    -0.078 OA 
ENDROOT
BRANCH  12  14
HETATM   14  N   UNL     1      -9.562  10.933  68.249  1.00  0.00    -0.161 N  
HETATM   15  C   UNL     1      -9.426  11.934  67.322  1.00  0.00    -0.175 C  
HETATM   16  H   UNL     1     -10.497  10.585  68.460  1.00  0.00     0.000 HD 
HETATM   17  O   UNL     1      -8.337  12.341  66.935  1.00  0.00    -0.181 OA 
BRANCH  15  18
HETATM   18  C   UNL     1     -10.686  12.474  66.828  1.00  0.00    -0.261 A  
HETATM   19  C   UNL     1     -11.260  12.135  65.619  1.00  0.00    -0.335 A  
HETATM   20  C   UNL     1     -10.908  11.222  64.512  1.00  0.00    -0.354 C  
HETATM   21  O   UNL     1     -12.433  12.798  65.479  1.00  0.00    -0.573 OA 
HETATM   22  N   UNL     1     -12.643  13.611  66.567  1.00  0.00    -0.275 NA 
HETATM   23  C   UNL     1     -11.596  13.439  67.390  1.00  0.00    -0.354 A  
BRANCH  23  24
HETATM   24  C   UNL     1     -11.544  14.146  68.680  1.00  0.00    -0.352 A  
HETATM   25  C   UNL     1     -11.071  15.469  68.725  1.00  0.00    -0.291 A  
HETATM   26  C   UNL     1     -11.193  16.258  69.871  1.00  0.00    -0.319 A  
HETATM   27  F   UNL     1     -10.507  16.041  67.651  1.00  0.00    -0.262 F  
HETATM   28  C   UNL     1     -11.831  15.752  70.995  1.00  0.00    -0.460 A  
HETATM   29  C   UNL     1     -12.234  14.420  71.006  1.00  0.00    -0.422 A  
HETATM   30  C   UNL     1     -12.029  13.605  69.884  1.00  0.00    -0.348 A  
HETATM   31 CL   UNL     1     -12.340  11.916  70.108  1.00  0.00    -0.288 Cl 
ENDBRANCH  23  24
ENDBRANCH  15  18
ENDBRANCH  12  14
TORSDOF 3
ENDMDL
MODEL       20
REMARK 921   NORMALIZED FREE ENERGY PREDICTED BY IDOCK:   -6.56 KCAL/MOL
REMARK 922        TOTAL FREE ENERGY PREDICTED BY IDOCK:   -9.08 KCAL/MOL
REMARK 923 INTER-LIGAND FREE ENERGY PREDICTED BY IDOCK:   -8.07 KCAL/MOL
REMARK 924 INTRA-LIGAND FREE ENERGY PREDICTED BY IDOCK:   -1.01 KCAL/MOL
REMARK 927      BINDING AFFINITY PREDICTED BY RF-SCORE:    0.00 PKD
ROOT
HETATM    1  C   UNL     1      -9.004  11.527  66.745  1.00  0.00    -0.181 C  
HETATM    2  S   UNL     1      -8.807  11.332  68.574  1.00  0.00    -0.141 SA 
HETATM    3  C   UNL     1     -10.349  10.321  68.763  1.00  0.00    -0.195 C  
HETATM    4  C   UNL     1     -10.181   9.330  69.918  1.00  0.00    -0.235 C  
HETATM    5  CA  UNL     1     -10.587   9.697  67.366  1.00  0.00    -0.268 C  
HETATM    6  C   UNL     1     -11.502  11.268  69.165  1.00  0.00    -0.364 C  
HETATM    7  N   UNL     1     -10.157  10.687  66.365  1.00  0.00    -0.218 N  
HETATM    8  C   UNL     1      -9.822   8.400  67.037  1.00  0.00    -0.230 C  
HETATM    9  OXT UNL     1      -9.593   7.486  67.811  1.00  0.00    -0.139 OA 
HETATM   10  O   UNL     1      -9.527   8.291  65.712  1.00  0.00    -0.118 OA 
HETATM   11  C   UNL     1     -10.963  11.750  66.056  1.00  0.00    -0.306 C  
HETATM   12  CA  UNL     1      -9.817  12.777  66.301  1.00  0.00    -0.267 C  
HETATM   13  O   UNL     1     -12.155  11.747  65.863  1.00  0.00    -0.381 OA 
ENDROOT
BRANCH  12  14
HETATM   14  N   UNL     1     -10.007  13.782  67.374  1.00  0.00    -0.234 N  
HETATM   15  C   UNL     1     -10.867  14.843  67.252  1.00  0.00    -0.306 C  
HETATM   16  H   UNL     1      -9.476  13.680  68.239  1.00  0.00     0.000 HD 
HETATM   17  O   UNL     1     -11.616  14.987  66.293  1.00  0.00    -0.286 OA 
BRANCH  15  18
HETATM   18  C   UNL     1     -10.821  15.788  68.360  1.00  0.00    -0.297 A  
HETATM   19  C   UNL     1     -11.377  15.561  69.603  1.00  0.00    -0.315 A  
HETATM   20  C   UNL     1     -12.113  14.445  70.233  1.00  0.00    -0.396 C  
HETATM   21  O   UNL     1     -11.137  16.627  70.403  1.00  0.00    -0.283 OA 
HETATM   22  N   UNL     1     -10.452  17.592  69.703  1.00  0.00     0.033 NA 
HETATM   23  C   UNL     1     -10.258  17.111  68.464  1.00  0.00    -0.346 A  
BRANCH  23  24
HETATM   24  C   UNL     1      -9.507  17.897  67.473  1.00  0.00    -0.258 A  
HETATM   25  C   UNL     1     -10.054  19.096  66.982  1.00  0.00    -0.366 A  
HETATM   26  C   UNL     1      -9.306  19.986  66.208  1.00  0.00    -0.456 A  
HETATM   27  F   UNL     1     -11.316  19.450  67.266  1.00  0.00    -0.542 F  
HETATM   28  C   UNL     1      -7.972  19.715  65.936  1.00  0.00    -0.265 A  
HETATM   29  C   UNL     1      -7.429  18.498  66.339  1.00  0.00    -0.279 A  
HETATM   30  C   UNL     1      -8.211  17.567  67.039  1.00  0.00    -0.218 A  
HETATM   31 CL   UNL     1      -7.505  16.002  67.261  1.00  0.00    -0.211 Cl 
ENDBRANCH  23  24
ENDBRANCH  15  18
ENDBRANCH  12  14
TORSDOF 3
ENDMDL
MODEL       21
REMARK 921   NORMALIZED FREE ENERGY PREDICTED BY IDOCK:   -6.55 KCAL/MOL
REMARK 922        TOTAL FREE ENERGY PREDICTED BY IDOCK:   -9.06 KCAL/MOL
REMARK 923 INTER-LIGAND FREE ENERGY PREDICTED BY IDOCK:   -7.81 KCAL/MOL
REMARK 924 INTRA-LIGAND FREE ENERGY PREDICTED BY IDOCK:   -1.26 KCAL/MOL
REMARK 927      BINDING AFFINITY PREDICTED BY RF-SCORE:    0.00 PKD
ROOT
HETATM    1  C   UNL     1      -9.412   9.203  71.659  1.00  0.00    -0.113 C  
HETATM    2  S   UNL     1     -11.256   9.088  71.567  1.00  0.00    -0.373 SA 
HETATM    3  C   UNL     1     -11.252   7.284  71.140  1.00  0.00    -0.259 C  
HETATM    4  C   UNL     1     -12.506   6.614  71.706  1.00  0.00    -0.360 C  
HETATM    5  CA  UNL     1      -9.900   6.754  71.678  1.00  0.00    -0.165 C  
HETATM    6  C   UNL     1     -11.342   7.150  69.603  1.00  0.00    -0.109 C  
HETATM    7  N   UNL     1      -8.907   7.825  71.501  1.00  0.00    -0.126 N  
HETATM    8  C   UNL     1      -9.843   6.363  73.167  1.00  0.00    -0.168 C  
HETATM    9  OXT UNL     1     -10.729   5.813  73.800  1.00  0.00    -0.270 OA 
HETATM   10  O   UNL     1      -8.612   6.566  73.713  1.00  0.00    -0.121 OA 
HETATM   11  C   UNL     1      -8.354   8.057  70.270  1.00  0.00    -0.125 C  
HETATM   12  CA  UNL     1      -8.708   9.573  70.321  1.00  0.00    -0.235 C  
HETATM   13  O   UNL     1      -7.945   7.246  69.474  1.00  0.00    -0.122 OA 
ENDROOT
BRANCH  12  14
HETATM   14  N   UNL     1      -9.628  10.104  69.286  1.00  0.00    -0.214 N  
HETATM   15  C   UNL     1      -9.362  11.246  68.575  1.00  0.00    -0.182 C  
HETATM   16  H   UNL     1     -10.494   9.600  69.096  1.00  0.00     0.000 HD 
HETATM   17  O   UNL     1      -8.304  11.857  68.666  1.00  0.00    -0.136 OA 
BRANCH  15  18
HETATM   18  C   UNL     1     -10.442  11.674  67.695  1.00  0.00    -0.219 A  
HETATM   19  C   UNL     1     -10.725  11.101  66.471  1.00  0.00    -0.260 A  
HETATM   20  C   UNL     1     -10.160   9.988  65.680  1.00  0.00    -0.321 C  
HETATM   21  O   UNL     1     -11.799  11.720  65.925  1.00  0.00    -0.414 OA 
HETATM   22  N   UNL     1     -12.226  12.731  66.752  1.00  0.00    -0.459 NA 
HETATM   23  C   UNL     1     -11.416  12.729  67.823  1.00  0.00    -0.326 A  
BRANCH  23  24
HETATM   24  C   UNL     1     -11.641  13.677  68.925  1.00  0.00    -0.362 A  
HETATM   25  C   UNL     1     -12.146  13.207  70.150  1.00  0.00    -0.321 A  
HETATM   26  C   UNL     1     -12.183  14.012  71.291  1.00  0.00    -0.392 A  
HETATM   27  F   UNL     1     -12.587  11.947  70.281  1.00  0.00    -0.293 F  
HETATM   28  C   UNL     1     -11.676  15.304  71.244  1.00  0.00    -0.425 A  
HETATM   29  C   UNL     1     -11.247  15.822  70.025  1.00  0.00    -0.346 A  
HETATM   30  C   UNL     1     -11.295  15.038  68.862  1.00  0.00    -0.297 A  
HETATM   31 CL   UNL     1     -10.976  15.869  67.377  1.00  0.00    -0.296 Cl 
ENDBRANCH  23  24
ENDBRANCH  15  18
ENDBRANCH  12  14
TORSDOF 3
ENDMDL
MODEL       22
REMARK 921   NORMALIZED FREE ENERGY PREDICTED BY IDOCK:   -6.51 KCAL/MOL
REMARK 922        TOTAL FREE ENERGY PREDICTED BY IDOCK:   -9.02 KCAL/MOL
REMARK 923 INTER-LIGAND FREE ENERGY PREDICTED BY IDOCK:   -8.09 KCAL/MOL
REMARK 924 INTRA-LIGAND FREE ENERGY PREDICTED BY IDOCK:   -0.93 KCAL/MOL
REMARK 927      BINDING AFFINITY PREDICTED BY RF-SCORE:    0.00 PKD
ROOT
HETATM    1  C   UNL     1      -8.880   8.196  69.338  1.00  0.00    -0.143 C  
HETATM    2  S   UNL     1      -8.329   9.153  70.822  1.00  0.00    -0.193 SA 
HETATM    3  C   UNL     1      -9.039   7.941  72.030  1.00  0.00    -0.148 C  
HETATM    4  C   UNL     1      -8.191   7.920  73.305  1.00  0.00    -0.234 C  
HETATM    5  CA  UNL     1      -9.119   6.606  71.250  1.00  0.00    -0.151 C  
HETATM    6  C   UNL     1     -10.442   8.438  72.448  1.00  0.00    -0.402 C  
HETATM    7  N   UNL     1      -9.446   6.933  69.853  1.00  0.00    -0.157 N  
HETATM    8  C   UNL     1      -7.841   5.747  71.197  1.00  0.00    -0.111 C  
HETATM    9  OXT UNL     1      -7.041   5.592  72.105  1.00  0.00    -0.081 OA 
HETATM   10  O   UNL     1      -7.742   5.030  70.043  1.00  0.00    -0.061 OA 
HETATM   11  C   UNL     1     -10.733   7.245  69.501  1.00  0.00    -0.232 C  
HETATM   12  CA  UNL     1     -10.293   8.567  68.803  1.00  0.00    -0.213 C  
HETATM   13  O   UNL     1     -11.751   6.692  69.841  1.00  0.00    -0.361 OA 
ENDROOT
BRANCH  12  14
HETATM   14  N   UNL     1     -10.823   9.843  69.342  1.00  0.00    -0.230 N  
HETATM   15  C   UNL     1     -11.424  10.788  68.551  1.00  0.00    -0.292 C  
HETATM   16  H   UNL     1     -10.736  10.025  70.342  1.00  0.00     0.000 HD 
HETATM   17  O   UNL     1     -11.661  10.610  67.363  1.00  0.00    -0.445 OA 
BRANCH  15  18
HETATM   18  C   UNL     1     -11.765  12.025  69.243  1.00  0.00    -0.389 A  
HETATM   19  C   UNL     1     -12.374  12.085  70.480  1.00  0.00    -0.282 A  
HETATM   20  C   UNL     1     -12.840  11.090  71.468  1.00  0.00    -0.555 C  
HETATM   21  O   UNL     1     -12.527  13.382  70.841  1.00  0.00    -0.361 OA 
HETATM   22  N   UNL     1     -12.060  14.203  69.842  1.00  0.00    -0.328 NA 
HETATM   23  C   UNL     1     -11.603  13.406  68.863  1.00  0.00    -0.314 A  
BRANCH  23  24
HETATM   24  C   UNL     1     -10.991  13.988  67.658  1.00  0.00    -0.281 A  
HETATM   25  C   UNL     1     -11.690  13.950  66.439  1.00  0.00    -0.383 A  
HETATM   26  C   UNL     1     -11.260  14.665  65.319  1.00  0.00    -0.358 A  
HETATM   27  F   UNL     1     -12.825  13.246  66.312  1.00  0.00    -0.330 F  
HETATM   28  C   UNL     1     -10.133  15.471  65.403  1.00  0.00    -0.387 A  
HETATM   29  C   UNL     1      -9.376  15.462  66.571  1.00  0.00    -0.311 A  
HETATM   30  C   UNL     1      -9.763  14.673  67.664  1.00  0.00    -0.214 A  
HETATM   31 CL   UNL     1      -8.614  14.551  68.953  1.00  0.00    -0.142 Cl 
ENDBRANCH  23  24
ENDBRANCH  15  18
ENDBRANCH  12  14
TORSDOF 3
ENDMDL
MODEL       23
REMARK 921   NORMALIZED FREE ENERGY PREDICTED BY IDOCK:   -6.48 KCAL/MOL
REMARK 922        TOTAL FREE ENERGY PREDICTED BY IDOCK:   -8.98 KCAL/MOL
REMARK 923 INTER-LIGAND FREE ENERGY PREDICTED BY IDOCK:   -8.12 KCAL/MOL
REMARK 924 INTRA-LIGAND FREE ENERGY PREDICTED BY IDOCK:   -0.86 KCAL/MOL
REMARK 927      BINDING AFFINITY PREDICTED BY RF-SCORE:    0.00 PKD
ROOT
HETATM    1  C   UNL     1      -9.189  11.978  66.408  1.00  0.00    -0.216 C  
HETATM    2  S   UNL     1      -8.911  11.972  68.237  1.00  0.00    -0.165 SA 
HETATM    3  C   UNL     1     -10.478  11.052  68.603  1.00  0.00    -0.192 C  
HETATM    4  C   UNL     1     -10.291  10.185  69.851  1.00  0.00    -0.308 C  
HETATM    5  CA  UNL     1     -10.805  10.292  67.294  1.00  0.00    -0.250 C  
HETATM    6  C   UNL     1     -11.575  12.084  68.949  1.00  0.00    -0.377 C  
HETATM    7  N   UNL     1     -10.388  11.150  66.173  1.00  0.00    -0.244 N  
HETATM    8  C   UNL     1     -10.105   8.937  67.076  1.00  0.00    -0.261 C  
HETATM    9  OXT UNL     1      -9.873   8.102  67.935  1.00  0.00    -0.156 OA 
HETATM   10  O   UNL     1      -9.879   8.673  65.759  1.00  0.00    -0.130 OA 
HETATM   11  C   UNL     1     -11.170  12.206  65.785  1.00  0.00    -0.339 C  
HETATM   12  CA  UNL     1      -9.977  13.205  65.866  1.00  0.00    -0.269 C  
HETATM   13  O   UNL     1     -12.369  12.232  65.647  1.00  0.00    -0.619 OA 
ENDROOT
BRANCH  12  14
HETATM   14  N   UNL     1     -10.078  14.327  66.831  1.00  0.00    -0.260 N  
HETATM   15  C   UNL     1     -10.136  15.639  66.437  1.00  0.00    -0.287 C  
HETATM   16  H   UNL     1     -10.105  14.113  67.828  1.00  0.00     0.000 HD 
HETATM   17  O   UNL     1     -10.211  15.980  65.263  1.00  0.00    -0.481 OA 
BRANCH  15  18
HETATM   18  C   UNL     1     -10.106  16.599  67.532  1.00  0.00    -0.273 A  
HETATM   19  C   UNL     1     -10.932  16.549  68.637  1.00  0.00    -0.344 A  
HETATM   20  C   UNL     1     -12.001  15.643  69.105  1.00  0.00    -0.329 C  
HETATM   21  O   UNL     1     -10.629  17.574  69.470  1.00  0.00    -0.163 OA 
HETATM   22  N   UNL     1      -9.628  18.340  68.923  1.00  0.00    -0.291 NA 
HETATM   23  C   UNL     1      -9.302  17.776  67.748  1.00  0.00    -0.257 A  
BRANCH  23  24
HETATM   24  C   UNL     1      -8.219  18.342  66.929  1.00  0.00    -0.260 A  
HETATM   25  C   UNL     1      -7.073  17.570  66.667  1.00  0.00    -0.233 A  
HETATM   26  C   UNL     1      -6.114  17.966  65.733  1.00  0.00    -0.233 A  
HETATM   27  F   UNL     1      -6.871  16.397  67.287  1.00  0.00    -0.144 F  
HETATM   28  C   UNL     1      -6.297  19.133  65.004  1.00  0.00    -0.293 A  
HETATM   29  C   UNL     1      -7.379  19.958  65.302  1.00  0.00    -0.067 A  
HETATM   30  C   UNL     1      -8.292  19.599  66.305  1.00  0.00    -0.352 A  
HETATM   31 CL   UNL     1      -9.439  20.816  66.752  1.00  0.00    -0.333 Cl 
ENDBRANCH  23  24
ENDBRANCH  15  18
ENDBRANCH  12  14
TORSDOF 3
ENDMDL
MODEL       24
REMARK 921   NORMALIZED FREE ENERGY PREDICTED BY IDOCK:   -6.46 KCAL/MOL
REMARK 922        TOTAL FREE ENERGY PREDICTED BY IDOCK:   -8.96 KCAL/MOL
REMARK 923 INTER-LIGAND FREE ENERGY PREDICTED BY IDOCK:   -7.79 KCAL/MOL
REMARK 924 INTRA-LIGAND FREE ENERGY PREDICTED BY IDOCK:   -1.17 KCAL/MOL
REMARK 927      BINDING AFFINITY PREDICTED BY RF-SCORE:    0.00 PKD
ROOT
HETATM    1  C   UNL     1      -9.133  14.032  66.610  1.00  0.00    -0.200 C  
HETATM    2  S   UNL     1      -9.964  13.333  65.112  1.00  0.00    -0.087 SA 
HETATM    3  C   UNL     1     -11.560  14.221  65.422  1.00  0.00    -0.346 C  
HETATM    4  C   UNL     1     -12.243  14.542  64.090  1.00  0.00    -0.372 C  
HETATM    5  CA  UNL     1     -11.170  15.441  66.293  1.00  0.00    -0.162 C  
HETATM    6  C   UNL     1     -12.508  13.264  66.179  1.00  0.00    -0.335 C  
HETATM    7  N   UNL     1     -10.075  15.016  67.179  1.00  0.00    -0.238 N  
HETATM    8  C   UNL     1     -10.660  16.695  65.556  1.00  0.00    -0.258 C  
HETATM    9  OXT UNL     1     -11.077  17.123  64.493  1.00  0.00    -1.105 OA 
HETATM   10  O   UNL     1      -9.753  17.398  66.290  1.00  0.00    -0.298 OA 
HETATM   11  C   UNL     1     -10.342  14.272  68.296  1.00  0.00    -0.242 C  
HETATM   12  CA  UNL     1      -9.294  13.186  67.906  1.00  0.00    -0.215 C  
HETATM   13  O   UNL     1     -11.226  14.432  69.103  1.00  0.00    -0.249 OA 
ENDROOT
BRANCH  12  14
HETATM   14  N   UNL     1      -9.783  11.807  67.666  1.00  0.00    -0.179 N  
HETATM   15  C   UNL     1      -9.000  10.699  67.866  1.00  0.00    -0.138 C  
HETATM   16  H   UNL     1     -10.740  11.677  67.339  1.00  0.00     0.000 HD 
HETATM   17  O   UNL     1      -7.877  10.754  68.352  1.00  0.00    -0.108 OA 
BRANCH  15  18
HETATM   18  C   UNL     1      -9.616   9.444  67.456  1.00  0.00    -0.174 A  
HETATM   19  C   UNL     1      -9.661   8.984  66.155  1.00  0.00    -0.272 A  
HETATM   20  C   UNL     1      -9.169   9.478  64.853  1.00  0.00    -0.284 C  
HETATM   21  O   UNL     1     -10.283   7.781  66.127  1.00  0.00     0.045 OA 
HETATM   22  N   UNL     1     -10.693   7.437  67.393  1.00  0.00    -0.288 NA 
HETATM   23  C   UNL     1     -10.309   8.430  68.211  1.00  0.00    -0.199 A  
BRANCH  23  24
HETATM   24  C   UNL     1     -10.565   8.340  69.657  1.00  0.00    -0.222 A  
HETATM   25  C   UNL     1     -10.023   7.270  70.390  1.00  0.00    -0.191 A  
HETATM   26  C   UNL     1     -10.052   7.242  71.786  1.00  0.00    -0.193 A  
HETATM   27  F   UNL     1      -9.423   6.240  69.774  1.00  0.00    -0.147 F  
HETATM   28  C   UNL     1     -10.594   8.310  72.489  1.00  0.00    -0.407 A  
HETATM   29  C   UNL     1     -11.212   9.342  71.788  1.00  0.00    -0.413 A  
HETATM   30  C   UNL     1     -11.259   9.322  70.386  1.00  0.00    -0.247 A  
HETATM   31 CL   UNL     1     -12.266  10.520  69.646  1.00  0.00    -0.264 Cl 
ENDBRANCH  23  24
ENDBRANCH  15  18
ENDBRANCH  12  14
TORSDOF 3
ENDMDL
MODEL       25
REMARK 921   NORMALIZED FREE ENERGY PREDICTED BY IDOCK:   -6.46 KCAL/MOL
REMARK 922        TOTAL FREE ENERGY PREDICTED BY IDOCK:   -8.95 KCAL/MOL
REMARK 923 INTER-LIGAND FREE ENERGY PREDICTED BY IDOCK:   -7.59 KCAL/MOL
REMARK 924 INTRA-LIGAND FREE ENERGY PREDICTED BY IDOCK:   -1.36 KCAL/MOL
REMARK 927      BINDING AFFINITY PREDICTED BY RF-SCORE:    0.00 PKD
ROOT
HETATM    1  C   UNL     1      -8.985   9.492  70.294  1.00  0.00    -0.248 C  
HETATM    2  S   UNL     1     -10.723   8.898  70.075  1.00  0.00    -0.225 SA 
HETATM    3  C   UNL     1     -10.234   7.447  69.031  1.00  0.00    -0.199 C  
HETATM    4  C   UNL     1     -11.214   6.291  69.257  1.00  0.00    -0.458 C  
HETATM    5  CA  UNL     1      -8.759   7.166  69.411  1.00  0.00    -0.134 C  
HETATM    6  C   UNL     1     -10.370   7.850  67.545  1.00  0.00    -0.329 C  
HETATM    7  N   UNL     1      -8.121   8.465  69.679  1.00  0.00    -0.112 N  
HETATM    8  C   UNL     1      -8.509   6.303  70.662  1.00  0.00    -0.134 C  
HETATM    9  OXT UNL     1      -9.166   5.336  71.011  1.00  0.00    -0.142 OA 
HETATM   10  O   UNL     1      -7.356   6.639  71.305  1.00  0.00    -0.080 OA 
HETATM   11  C   UNL     1      -7.728   9.267  68.641  1.00  0.00    -0.085 C  
HETATM   12  CA  UNL     1      -8.492  10.498  69.214  1.00  0.00    -0.129 C  
HETATM   13  O   UNL     1      -7.153   8.945  67.629  1.00  0.00    -0.074 OA 
ENDROOT
BRANCH  12  14
HETATM   14  N   UNL     1      -9.582  11.079  68.393  1.00  0.00    -0.174 N  
HETATM   15  C   UNL     1      -9.365  12.062  67.462  1.00  0.00    -0.179 C  
HETATM   16  H   UNL     1     -10.533  10.733  68.527  1.00  0.00     0.000 HD 
HETATM   17  O   UNL     1      -8.246  12.463  67.165  1.00  0.00    -0.178 OA 
BRANCH  15  18
HETATM   18  C   UNL     1     -10.576  12.590  66.848  1.00  0.00    -0.255 A  
HETATM   19  C   UNL     1     -11.052  12.211  65.609  1.00  0.00    -0.316 A  
HETATM   20  C   UNL     1     -10.618  11.257  64.567  1.00  0.00    -0.401 C  
HETATM   21  O   UNL     1     -12.205  12.874  65.350  1.00  0.00    -0.430 OA 
HETATM   22  N   UNL     1     -12.496  13.727  66.388  1.00  0.00    -0.401 NA 
HETATM   23  C   UNL     1     -11.522  13.579  67.300  1.00  0.00    -0.339 A  
BRANCH  23  24
HETATM   24  C   UNL     1     -11.569  14.331  68.564  1.00  0.00    -0.355 A  
HETATM   25  C   UNL     1     -12.048  13.702  69.727  1.00  0.00    -0.334 A  
HETATM   26  C   UNL     1     -11.922  14.288  70.988  1.00  0.00    -0.374 A  
HETATM   27  F   UNL     1     -12.622  12.491  69.674  1.00  0.00    -0.132 F  
HETATM   28  C   UNL     1     -11.275  15.509  71.123  1.00  0.00    -0.423 A  
HETATM   29  C   UNL     1     -10.866  16.191  69.981  1.00  0.00    -0.349 A  
HETATM   30  C   UNL     1     -11.075  15.639  68.709  1.00  0.00    -0.307 A  
HETATM   31 CL   UNL     1     -10.755  16.687  67.368  1.00  0.00    -0.293 Cl 
ENDBRANCH  23  24
ENDBRANCH  15  18
ENDBRANCH  12  14
TORSDOF 3
ENDMDL
MODEL       26
REMARK 921   NORMALIZED FREE ENERGY PREDICTED BY IDOCK:   -6.45 KCAL/MOL
REMARK 922        TOTAL FREE ENERGY PREDICTED BY IDOCK:   -8.94 KCAL/MOL
REMARK 923 INTER-LIGAND FREE ENERGY PREDICTED BY IDOCK:   -8.01 KCAL/MOL
REMARK 924 INTRA-LIGAND FREE ENERGY PREDICTED BY IDOCK:   -0.93 KCAL/MOL
REMARK 927      BINDING AFFINITY PREDICTED BY RF-SCORE:    0.00 PKD
ROOT
HETATM    1  C   UNL     1      -9.546  15.729  69.452  1.00  0.00    -0.284 C  
HETATM    2  S   UNL     1      -8.927  15.373  67.746  1.00  0.00    -0.175 SA 
HETATM    3  C   UNL     1     -10.330  16.252  66.913  1.00  0.00    -0.299 C  
HETATM    4  C   UNL     1      -9.852  16.857  65.590  1.00  0.00    -0.067 C  
HETATM    5  CA  UNL     1     -10.847  17.260  67.969  1.00  0.00    -0.297 C  
HETATM    6  C   UNL     1     -11.410  15.208  66.550  1.00  0.00    -0.234 C  
HETATM    7  N   UNL     1     -10.709  16.623  69.288  1.00  0.00    -0.336 N  
HETATM    8  C   UNL     1     -10.111  18.610  68.070  1.00  0.00    -0.375 C  
HETATM    9  OXT UNL     1      -9.663  19.256  67.137  1.00  0.00    -0.312 OA 
HETATM   10  O   UNL     1     -10.121  19.116  69.335  1.00  0.00    -0.265 OA 
HETATM   11  C   UNL     1     -11.620  15.686  69.700  1.00  0.00    -0.356 C  
HETATM   12  CA  UNL     1     -10.504  14.654  70.042  1.00  0.00     0.148 C  
HETATM   13  O   UNL     1     -12.823  15.724  69.599  1.00  0.00    -0.001 OA 
ENDROOT
BRANCH  12  14
HETATM   14  N   UNL     1     -10.497  13.371  69.299  1.00  0.00    -0.438 N  
HETATM   15  C   UNL     1     -11.415  12.378  69.527  1.00  0.00    -0.240 C  
HETATM   16  H   UNL     1      -9.779  13.221  68.589  1.00  0.00     0.000 HD 
HETATM   17  O   UNL     1     -12.368  12.511  70.285  1.00  0.00    -0.277 OA 
BRANCH  15  18
HETATM   18  C   UNL     1     -11.167  11.146  68.787  1.00  0.00    -0.314 A  
HETATM   19  C   UNL     1     -11.176  11.047  67.410  1.00  0.00    -0.285 A  
HETATM   20  C   UNL     1     -11.386  11.992  66.294  1.00  0.00    -0.415 C  
HETATM   21  O   UNL     1     -10.889   9.773  67.051  1.00  0.00    -0.203 OA 
HETATM   22  N   UNL     1     -10.719   8.998  68.174  1.00  0.00    -0.160 NA 
HETATM   23  C   UNL     1     -10.892   9.804  69.234  1.00  0.00    -0.216 A  
BRANCH  23  24
HETATM   24  C   UNL     1     -10.730   9.278  70.599  1.00  0.00    -0.331 A  
HETATM   25  C   UNL     1     -11.870   8.955  71.355  1.00  0.00    -0.317 A  
HETATM   26  C   UNL     1     -11.781   8.261  72.564  1.00  0.00    -0.451 A  
HETATM   27  F   UNL     1     -13.101   9.275  70.927  1.00  0.00    -0.293 F  
HETATM   28  C   UNL     1     -10.544   7.837  73.030  1.00  0.00    -0.441 A  
HETATM   29  C   UNL     1      -9.393   8.215  72.344  1.00  0.00    -0.308 A  
HETATM   30  C   UNL     1      -9.482   8.989  71.178  1.00  0.00    -0.278 A  
HETATM   31 CL   UNL     1      -7.985   9.604  70.563  1.00  0.00    -0.192 Cl 
ENDBRANCH  23  24
ENDBRANCH  15  18
ENDBRANCH  12  14
TORSDOF 3
ENDMDL
MODEL       27
REMARK 921   NORMALIZED FREE ENERGY PREDICTED BY IDOCK:   -6.38 KCAL/MOL
REMARK 922        TOTAL FREE ENERGY PREDICTED BY IDOCK:   -8.86 KCAL/MOL
REMARK 923 INTER-LIGAND FREE ENERGY PREDICTED BY IDOCK:   -7.65 KCAL/MOL
REMARK 924 INTRA-LIGAND FREE ENERGY PREDICTED BY IDOCK:   -1.22 KCAL/MOL
REMARK 927      BINDING AFFINITY PREDICTED BY RF-SCORE:    0.00 PKD
ROOT
HETATM    1  C   UNL     1      -8.900  14.558  66.788  1.00  0.00    -0.220 C  
HETATM    2  S   UNL     1      -9.838  13.674  65.461  1.00  0.00    -0.082 SA 
HETATM    3  C   UNL     1     -11.431  14.548  65.824  1.00  0.00    -0.342 C  
HETATM    4  C   UNL     1     -12.245  14.700  64.536  1.00  0.00    -0.473 C  
HETATM    5  CA  UNL     1     -11.009  15.868  66.515  1.00  0.00    -0.121 C  
HETATM    6  C   UNL     1     -12.269  13.657  66.767  1.00  0.00    -0.416 C  
HETATM    7  N   UNL     1      -9.821  15.574  67.333  1.00  0.00    -0.223 N  
HETATM    8  C   UNL     1     -10.614  17.044  65.601  1.00  0.00    -0.197 C  
HETATM    9  OXT UNL     1     -11.143  17.340  64.542  1.00  0.00    -1.082 OA 
HETATM   10  O   UNL     1      -9.671  17.849  66.164  1.00  0.00    -0.452 OA 
HETATM   11  C   UNL     1      -9.956  14.952  68.546  1.00  0.00    -0.223 C  
HETATM   12  CA  UNL     1      -8.909  13.859  68.178  1.00  0.00    -0.184 C  
HETATM   13  O   UNL     1     -10.768  15.178  69.411  1.00  0.00    -0.243 OA 
ENDROOT
BRANCH  12  14
HETATM   14  N   UNL     1      -9.366  12.448  68.137  1.00  0.00    -0.206 N  
HETATM   15  C   UNL     1      -8.516  11.401  67.891  1.00  0.00    -0.139 C  
HETATM   16  H   UNL     1     -10.354  12.250  68.298  1.00  0.00     0.000 HD 
HETATM   17  O   UNL     1      -7.303  11.537  67.787  1.00  0.00    -0.087 OA 
BRANCH  15  18
HETATM   18  C   UNL     1      -9.174  10.107  67.767  1.00  0.00    -0.146 A  
HETATM   19  C   UNL     1      -9.645   9.366  68.833  1.00  0.00    -0.155 A  
HETATM   20  C   UNL     1      -9.692   9.551  70.298  1.00  0.00    -0.314 C  
HETATM   21  O   UNL     1     -10.218   8.229  68.369  1.00  0.00    -0.200 OA 
HETATM   22  N   UNL     1     -10.107   8.175  67.000  1.00  0.00    -0.251 NA 
HETATM   23  C   UNL     1      -9.472   9.294  66.615  1.00  0.00    -0.191 A  
BRANCH  23  24
HETATM   24  C   UNL     1      -9.236   9.559  65.187  1.00  0.00    -0.305 A  
HETATM   25  C   UNL     1     -10.115  10.400  64.484  1.00  0.00    -0.295 A  
HETATM   26  C   UNL     1      -9.830  10.855  63.195  1.00  0.00    -0.392 A  
HETATM   27  F   UNL     1     -11.258  10.829  65.041  1.00  0.00    -0.139 F  
HETATM   28  C   UNL     1      -8.631  10.507  62.587  1.00  0.00    -0.234 A  
HETATM   29  C   UNL     1      -7.781   9.609  63.226  1.00  0.00    -0.130 A  
HETATM   30  C   UNL     1      -8.114   9.085  64.484  1.00  0.00    -0.143 A  
HETATM   31 CL   UNL     1      -7.109   7.796  65.056  1.00  0.00    -0.059 Cl 
ENDBRANCH  23  24
ENDBRANCH  15  18
ENDBRANCH  12  14
TORSDOF 3
ENDMDL
MODEL       28
REMARK 921   NORMALIZED FREE ENERGY PREDICTED BY IDOCK:   -6.37 KCAL/MOL
REMARK 922        TOTAL FREE ENERGY PREDICTED BY IDOCK:   -8.86 KCAL/MOL
REMARK 923 INTER-LIGAND FREE ENERGY PREDICTED BY IDOCK:   -7.19 KCAL/MOL
REMARK 924 INTRA-LIGAND FREE ENERGY PREDICTED BY IDOCK:   -1.67 KCAL/MOL
REMARK 927      BINDING AFFINITY PREDICTED BY RF-SCORE:    0.00 PKD
ROOT
HETATM    1  C   UNL     1      -9.257  10.178  67.801  1.00  0.00    -0.137 C  
HETATM    2  S   UNL     1      -8.716  11.848  67.216  1.00  0.00    -0.178 SA 
HETATM    3  C   UNL     1      -7.059  11.743  68.038  1.00  0.00    -0.082 C  
HETATM    4  C   UNL     1      -6.025  12.523  67.221  1.00  0.00    -0.111 C  
HETATM    5  CA  UNL     1      -6.791  10.226  68.195  1.00  0.00    -0.066 C  
HETATM    6  C   UNL     1      -7.153  12.448  69.410  1.00  0.00     0.153 C  
HETATM    7  N   UNL     1      -8.084   9.579  68.467  1.00  0.00    -0.100 N  
HETATM    8  C   UNL     1      -6.194   9.490  66.981  1.00  0.00    -0.065 C  
HETATM    9  OXT UNL     1      -5.353   9.931  66.215  1.00  0.00    -0.042 OA 
HETATM   10  O   UNL     1      -6.598   8.191  66.908  1.00  0.00    -0.055 OA 
HETATM   11  C   UNL     1      -8.634   9.637  69.720  1.00  0.00    -0.199 C  
HETATM   12  CA  UNL     1      -9.993  10.168  69.172  1.00  0.00    -0.210 C  
HETATM   13  O   UNL     1      -8.082   9.480  70.783  1.00  0.00    -0.248 OA 
ENDROOT
BRANCH  12  14
HETATM   14  N   UNL     1     -10.444  11.507  69.621  1.00  0.00    -0.409 N  
HETATM   15  C   UNL     1     -11.734  11.946  69.461  1.00  0.00    -0.345 C  
HETATM   16  H   UNL     1      -9.768  12.128  70.066  1.00  0.00     0.000 HD 
HETATM   17  O   UNL     1     -12.632  11.234  69.030  1.00  0.00    -0.332 OA 
BRANCH  15  18
HETATM   18  C   UNL     1     -11.951  13.333  69.851  1.00  0.00    -0.400 A  
HETATM   19  C   UNL     1     -12.633  13.728  70.985  1.00  0.00    -0.371 A  
HETATM   20  C   UNL     1     -13.299  13.028  72.103  1.00  0.00    -0.622 C  
HETATM   21  O   UNL     1     -12.634  15.080  71.059  1.00  0.00    -0.300 OA 
HETATM   22  N   UNL     1     -11.990  15.609  69.965  1.00  0.00    -0.365 NA 
HETATM   23  C   UNL     1     -11.577  14.572  69.217  1.00  0.00    -0.302 A  
BRANCH  23  24
HETATM   24  C   UNL     1     -10.808  14.808  67.985  1.00  0.00    -0.261 A  
HETATM   25  C   UNL     1     -11.370  14.470  66.742  1.00  0.00    -0.352 A  
HETATM   26  C   UNL     1     -10.784  14.859  65.536  1.00  0.00    -0.369 A  
HETATM   27  F   UNL     1     -12.519  13.781  66.665  1.00  0.00    -0.438 F  
HETATM   28  C   UNL     1      -9.632  15.635  65.544  1.00  0.00    -0.237 A  
HETATM   29  C   UNL     1      -9.009  15.913  66.757  1.00  0.00    -0.280 A  
HETATM   30  C   UNL     1      -9.554  15.444  67.962  1.00  0.00    -0.206 A  
HETATM   31 CL   UNL     1      -8.561  15.637  69.367  1.00  0.00    -0.260 Cl 
ENDBRANCH  23  24
ENDBRANCH  15  18
ENDBRANCH  12  14
TORSDOF 3
ENDMDL
MODEL       29
REMARK 921   NORMALIZED FREE ENERGY PREDICTED BY IDOCK:   -6.34 KCAL/MOL
REMARK 922        TOTAL FREE ENERGY PREDICTED BY IDOCK:   -8.81 KCAL/MOL
REMARK 923 INTER-LIGAND FREE ENERGY PREDICTED BY IDOCK:   -8.16 KCAL/MOL
REMARK 924 INTRA-LIGAND FREE ENERGY PREDICTED BY IDOCK:   -0.65 KCAL/MOL
REMARK 927      BINDING AFFINITY PREDICTED BY RF-SCORE:    0.00 PKD
ROOT
HETATM    1  C   UNL     1     -12.258  14.270  66.766  1.00  0.00    -0.352 C  
HETATM    2  S   UNL     1     -12.024  15.131  68.386  1.00  0.00    -0.085 SA 
HETATM    3  C   UNL     1     -10.268  15.605  68.029  1.00  0.00    -0.227 C  
HETATM    4  C   UNL     1      -9.938  16.931  68.720  1.00  0.00    -0.276 C  
HETATM    5  CA  UNL     1     -10.165  15.604  66.484  1.00  0.00    -0.283 C  
HETATM    6  C   UNL     1      -9.342  14.541  68.661  1.00  0.00    -0.199 C  
HETATM    7  N   UNL     1     -11.029  14.520  65.988  1.00  0.00    -0.317 N  
HETATM    8  C   UNL     1     -10.619  16.880  65.750  1.00  0.00    -0.230 C  
HETATM    9  OXT UNL     1     -10.443  18.027  66.127  1.00  0.00    -0.386 OA 
HETATM   10  O   UNL     1     -11.137  16.616  64.518  1.00  0.00    -0.886 OA 
HETATM   11  C   UNL     1     -10.603  13.220  66.043  1.00  0.00    -0.286 C  
HETATM   12  CA  UNL     1     -11.901  12.755  66.769  1.00  0.00    -0.382 C  
HETATM   13  O   UNL     1      -9.515  12.781  65.758  1.00  0.00    -0.154 OA 
ENDROOT
BRANCH  12  14
HETATM   14  N   UNL     1     -11.764  12.173  68.126  1.00  0.00    -0.337 N  
HETATM   15  C   UNL     1     -11.520  10.841  68.340  1.00  0.00    -0.288 C  
HETATM   16  H   UNL     1     -11.856  12.790  68.934  1.00  0.00     0.000 HD 
HETATM   17  O   UNL     1     -11.296  10.050  67.431  1.00  0.00    -0.187 OA 
BRANCH  15  18
HETATM   18  C   UNL     1     -11.544  10.440  69.740  1.00  0.00    -0.339 A  
HETATM   19  C   UNL     1     -12.088  11.196  70.759  1.00  0.00    -0.357 A  
HETATM   20  C   UNL     1     -12.777  12.501  70.843  1.00  0.00    -0.270 C  
HETATM   21  O   UNL     1     -11.963  10.526  71.930  1.00  0.00    -0.011 OA 
HETATM   22  N   UNL     1     -11.307   9.336  71.719  1.00  0.00    -0.385 NA 
HETATM   23  C   UNL     1     -11.036   9.268  70.406  1.00  0.00    -0.255 A  
BRANCH  23  24
HETATM   24  C   UNL     1     -10.369   8.080  69.848  1.00  0.00    -0.221 A  
HETATM   25  C   UNL     1     -11.111   6.906  69.634  1.00  0.00    -0.258 A  
HETATM   26  C   UNL     1     -10.593   5.824  68.919  1.00  0.00    -0.337 A  
HETATM   27  F   UNL     1     -12.370   6.789  70.085  1.00  0.00    -0.365 F  
HETATM   28  C   UNL     1      -9.323   5.906  68.364  1.00  0.00    -0.124 A  
HETATM   29  C   UNL     1      -8.535   7.023  68.630  1.00  0.00    -0.121 A  
HETATM   30  C   UNL     1      -9.029   8.069  69.424  1.00  0.00    -0.148 A  
HETATM   31 CL   UNL     1      -7.875   9.274  69.890  1.00  0.00    -0.095 Cl 
ENDBRANCH  23  24
ENDBRANCH  15  18
ENDBRANCH  12  14
TORSDOF 3
ENDMDL
MODEL       30
REMARK 921   NORMALIZED FREE ENERGY PREDICTED BY IDOCK:   -6.32 KCAL/MOL
REMARK 922        TOTAL FREE ENERGY PREDICTED BY IDOCK:   -8.79 KCAL/MOL
REMARK 923 INTER-LIGAND FREE ENERGY PREDICTED BY IDOCK:   -7.91 KCAL/MOL
REMARK 924 INTRA-LIGAND FREE ENERGY PREDICTED BY IDOCK:   -0.89 KCAL/MOL
REMARK 927      BINDING AFFINITY PREDICTED BY RF-SCORE:    0.00 PKD
ROOT
HETATM    1  C   UNL     1     -11.738  14.683  67.490  1.00  0.00    -0.379 C  
HETATM    2  S   UNL     1     -10.438  14.231  66.253  1.00  0.00    -0.299 SA 
HETATM    3  C   UNL     1      -9.443  13.244  67.465  1.00  0.00    -0.220 C  
HETATM    4  C   UNL     1      -8.731  12.098  66.741  1.00  0.00    -0.183 C  
HETATM    5  CA  UNL     1     -10.455  12.827  68.560  1.00  0.00    -0.238 C  
HETATM    6  C   UNL     1      -8.333  14.156  68.037  1.00  0.00    -0.160 C  
HETATM    7  N   UNL     1     -11.411  13.934  68.719  1.00  0.00    -0.270 N  
HETATM    8  C   UNL     1     -11.303  11.568  68.289  1.00  0.00    -0.286 C  
HETATM    9  OXT UNL     1     -10.920  10.550  67.738  1.00  0.00    -0.271 OA 
HETATM   10  O   UNL     1     -12.535  11.636  68.866  1.00  0.00    -0.266 OA 
HETATM   11  C   UNL     1     -11.062  15.050  69.432  1.00  0.00    -0.278 C  
HETATM   12  CA  UNL     1     -11.472  16.003  68.270  1.00  0.00    -0.291 C  
HETATM   13  O   UNL     1     -10.485  15.104  70.492  1.00  0.00    -0.179 OA 
ENDROOT
BRANCH  12  14
HETATM   14  N   UNL     1     -10.417  16.854  67.668  1.00  0.00    -0.325 N  
HETATM   15  C   UNL     1      -9.911  17.962  68.298  1.00  0.00    -0.348 C  
HETATM   16  H   UNL     1     -10.054  16.606  66.748  1.00  0.00     0.000 HD 
HETATM   17  O   UNL     1     -10.214  18.275  69.443  1.00  0.00    -0.192 OA 
BRANCH  15  18
HETATM   18  C   UNL     1      -8.974  18.737  67.495  1.00  0.00    -0.291 A  
HETATM   19  C   UNL     1      -9.319  19.445  66.361  1.00  0.00    -0.368 A  
HETATM   20  C   UNL     1     -10.573  19.689  65.619  1.00  0.00    -0.462 C  
HETATM   21  O   UNL     1      -8.220  20.067  65.870  1.00  0.00    -0.334 OA 
HETATM   22  N   UNL     1      -7.125  19.759  66.642  1.00  0.00    -0.220 NA 
HETATM   23  C   UNL     1      -7.555  18.950  67.624  1.00  0.00    -0.230 A  
BRANCH  23  24
HETATM   24  C   UNL     1      -6.619  18.473  68.655  1.00  0.00    -0.258 A  
HETATM   25  C   UNL     1      -6.227  19.342  69.689  1.00  0.00    -0.269 A  
HETATM   26  C   UNL     1      -5.516  18.890  70.802  1.00  0.00    -0.235 A  
HETATM   27  F   UNL     1      -6.552  20.643  69.662  1.00  0.00    -0.277 F  
HETATM   28  C   UNL     1      -5.210  17.542  70.928  1.00  0.00    -0.234 A  
HETATM   29  C   UNL     1      -5.512  16.675  69.881  1.00  0.00    -0.189 A  
HETATM   30  C   UNL     1      -6.147  17.151  68.725  1.00  0.00    -0.158 A  
HETATM   31 CL   UNL     1      -6.240  16.038  67.402  1.00  0.00    -0.195 Cl 
ENDBRANCH  23  24
ENDBRANCH  15  18
ENDBRANCH  12  14
TORSDOF 3
ENDMDL
MODEL       31
REMARK 921   NORMALIZED FREE ENERGY PREDICTED BY IDOCK:   -6.30 KCAL/MOL
REMARK 922        TOTAL FREE ENERGY PREDICTED BY IDOCK:   -8.77 KCAL/MOL
REMARK 923 INTER-LIGAND FREE ENERGY PREDICTED BY IDOCK:   -7.94 KCAL/MOL
REMARK 924 INTRA-LIGAND FREE ENERGY PREDICTED BY IDOCK:   -0.83 KCAL/MOL
REMARK 927      BINDING AFFINITY PREDICTED BY RF-SCORE:    0.00 PKD
ROOT
HETATM    1  C   UNL     1     -11.508   7.637  71.452  1.00  0.00    -0.264 C  
HETATM    2  S   UNL     1     -11.278   6.461  70.043  1.00  0.00    -0.434 SA 
HETATM    3  C   UNL     1      -9.708   5.749  70.723  1.00  0.00    -0.174 C  
HETATM    4  C   UNL     1      -9.582   4.279  70.309  1.00  0.00    -0.269 C  
HETATM    5  CA  UNL     1      -9.779   6.019  72.246  1.00  0.00    -0.156 C  
HETATM    6  C   UNL     1      -8.518   6.488  70.070  1.00  0.00    -0.135 C  
HETATM    7  N   UNL     1     -10.451   7.315  72.431  1.00  0.00    -0.219 N  
HETATM    8  C   UNL     1     -10.564   5.006  73.102  1.00  0.00    -0.225 C  
HETATM    9  OXT UNL     1     -10.588   3.797  72.944  1.00  0.00    -0.169 OA 
HETATM   10  O   UNL     1     -11.150   5.585  74.187  1.00  0.00    -0.079 OA 
HETATM   11  C   UNL     1      -9.764   8.482  72.230  1.00  0.00    -0.310 C  
HETATM   12  CA  UNL     1     -10.849   9.033  71.258  1.00  0.00    -0.315 C  
HETATM   13  O   UNL     1      -8.647   8.760  72.596  1.00  0.00    -0.411 OA 
ENDROOT
BRANCH  12  14
HETATM   14  N   UNL     1     -10.446   9.317  69.859  1.00  0.00    -0.215 N  
HETATM   15  C   UNL     1     -11.253   9.990  68.978  1.00  0.00    -0.133 C  
HETATM   16  H   UNL     1      -9.531   8.998  69.540  1.00  0.00     0.000 HD 
HETATM   17  O   UNL     1     -12.320  10.495  69.303  1.00  0.00    -0.234 OA 
BRANCH  15  18
HETATM   18  C   UNL     1     -10.734  10.061  67.618  1.00  0.00    -0.340 A  
HETATM   19  C   UNL     1     -10.376   8.963  66.861  1.00  0.00    -0.262 A  
HETATM   20  C   UNL     1     -10.386   7.500  67.068  1.00  0.00    -0.395 C  
HETATM   21  O   UNL     1      -9.956   9.378  65.642  1.00  0.00    -0.304 OA 
HETATM   22  N   UNL     1      -9.990  10.750  65.578  1.00  0.00    -0.248 NA 
HETATM   23  C   UNL     1     -10.448  11.185  66.763  1.00  0.00    -0.252 A  
BRANCH  23  24
HETATM   24  C   UNL     1     -10.645  12.624  66.999  1.00  0.00    -0.255 A  
HETATM   25  C   UNL     1     -11.773  13.266  66.459  1.00  0.00    -0.377 A  
HETATM   26  C   UNL     1     -12.123  14.569  66.820  1.00  0.00    -0.313 A  
HETATM   27  F   UNL     1     -12.582  12.637  65.594  1.00  0.00    -0.503 F  
HETATM   28  C   UNL     1     -11.370  15.253  67.765  1.00  0.00    -0.331 A  
HETATM   29  C   UNL     1     -10.202  14.673  68.252  1.00  0.00    -0.227 A  
HETATM   30  C   UNL     1      -9.806  13.399  67.819  1.00  0.00    -0.234 A  
HETATM   31 CL   UNL     1      -8.220  12.896  68.299  1.00  0.00    -0.154 Cl 
ENDBRANCH  23  24
ENDBRANCH  15  18
ENDBRANCH  12  14
TORSDOF 3
ENDMDL
MODEL       32
REMARK 921   NORMALIZED FREE ENERGY PREDICTED BY IDOCK:   -6.28 KCAL/MOL
REMARK 922        TOTAL FREE ENERGY PREDICTED BY IDOCK:   -8.74 KCAL/MOL
REMARK 923 INTER-LIGAND FREE ENERGY PREDICTED BY IDOCK:   -7.57 KCAL/MOL
REMARK 924 INTRA-LIGAND FREE ENERGY PREDICTED BY IDOCK:   -1.17 KCAL/MOL
REMARK 927      BINDING AFFINITY PREDICTED BY RF-SCORE:    0.00 PKD
ROOT
HETATM    1  C   UNL     1      -7.882  16.734  66.226  1.00  0.00    -0.299 C  
HETATM    2  S   UNL     1      -9.672  17.130  65.980  1.00  0.00    -0.132 SA 
HETATM    3  C   UNL     1      -9.820  18.059  67.577  1.00  0.00    -0.309 C  
HETATM    4  C   UNL     1     -10.860  19.174  67.434  1.00  0.00    -0.533 C  
HETATM    5  CA  UNL     1      -8.377  18.519  67.902  1.00  0.00    -0.265 C  
HETATM    6  C   UNL     1     -10.362  17.091  68.652  1.00  0.00    -0.351 C  
HETATM    7  N   UNL     1      -7.465  17.459  67.443  1.00  0.00    -0.179 N  
HETATM    8  C   UNL     1      -7.888  19.819  67.235  1.00  0.00    -0.274 C  
HETATM    9  OXT UNL     1      -8.555  20.821  67.039  1.00  0.00    -0.230 OA 
HETATM   10  O   UNL     1      -6.547  19.808  66.993  1.00  0.00    -0.195 OA 
HETATM   11  C   UNL     1      -7.299  16.322  68.189  1.00  0.00    -0.139 C  
HETATM   12  CA  UNL     1      -7.600  15.398  66.972  1.00  0.00    -0.160 C  
HETATM   13  O   UNL     1      -7.156  16.232  69.385  1.00  0.00    -0.217 OA 
ENDROOT
BRANCH  12  14
HETATM   14  N   UNL     1      -8.777  14.500  67.060  1.00  0.00    -0.231 N  
HETATM   15  C   UNL     1      -8.663  13.139  67.178  1.00  0.00    -0.213 C  
HETATM   16  H   UNL     1      -9.710  14.912  67.030  1.00  0.00     0.000 HD 
HETATM   17  O   UNL     1      -7.588  12.570  67.323  1.00  0.00    -0.152 OA 
BRANCH  15  18
HETATM   18  C   UNL     1      -9.929  12.420  67.123  1.00  0.00    -0.211 A  
HETATM   19  C   UNL     1     -10.966  12.595  68.019  1.00  0.00    -0.235 A  
HETATM   20  C   UNL     1     -11.196  13.454  69.199  1.00  0.00    -0.300 C  
HETATM   21  O   UNL     1     -11.999  11.792  67.670  1.00  0.00    -0.599 OA 
HETATM   22  N   UNL     1     -11.660  11.047  66.566  1.00  0.00    -0.103 NA 
HETATM   23  C   UNL     1     -10.411  11.403  66.224  1.00  0.00    -0.255 A  
BRANCH  23  24
HETATM   24  C   UNL     1      -9.769  10.809  65.040  1.00  0.00    -0.323 A  
HETATM   25  C   UNL     1     -10.174  11.214  63.756  1.00  0.00    -0.377 A  
HETATM   26  C   UNL     1      -9.467  10.849  62.609  1.00  0.00    -0.324 A  
HETATM   27  F   UNL     1     -11.247  12.001  63.584  1.00  0.00    -0.374 F  
HETATM   28  C   UNL     1      -8.306  10.095  62.722  1.00  0.00    -0.171 A  
HETATM   29  C   UNL     1      -7.929   9.611  63.972  1.00  0.00    -0.140 A  
HETATM   30  C   UNL     1      -8.694   9.906  65.110  1.00  0.00    -0.165 A  
HETATM   31 CL   UNL     1      -8.269   9.045  66.551  1.00  0.00    -0.113 Cl 
ENDBRANCH  23  24
ENDBRANCH  15  18
ENDBRANCH  12  14
TORSDOF 3
ENDMDL
MODEL       33
REMARK 921   NORMALIZED FREE ENERGY PREDICTED BY IDOCK:   -6.23 KCAL/MOL
REMARK 922        TOTAL FREE ENERGY PREDICTED BY IDOCK:   -8.68 KCAL/MOL
REMARK 923 INTER-LIGAND FREE ENERGY PREDICTED BY IDOCK:   -7.85 KCAL/MOL
REMARK 924 INTRA-LIGAND FREE ENERGY PREDICTED BY IDOCK:   -0.83 KCAL/MOL
REMARK 927      BINDING AFFINITY PREDICTED BY RF-SCORE:    0.00 PKD
ROOT
HETATM    1  C   UNL     1     -11.437   7.694  71.127  1.00  0.00    -0.275 C  
HETATM    2  S   UNL     1     -11.146   6.560  69.694  1.00  0.00    -0.389 SA 
HETATM    3  C   UNL     1      -9.584   5.856  70.401  1.00  0.00    -0.168 C  
HETATM    4  C   UNL     1      -9.421   4.401  69.953  1.00  0.00    -0.253 C  
HETATM    5  CA  UNL     1      -9.704   6.084  71.928  1.00  0.00    -0.153 C  
HETATM    6  C   UNL     1      -8.389   6.632  69.804  1.00  0.00    -0.132 C  
HETATM    7  N   UNL     1     -10.404   7.363  72.127  1.00  0.00    -0.194 N  
HETATM    8  C   UNL     1     -10.497   5.036  72.734  1.00  0.00    -0.211 C  
HETATM    9  OXT UNL     1     -10.494   3.831  72.543  1.00  0.00    -0.160 OA 
HETATM   10  O   UNL     1     -11.124   5.575  73.816  1.00  0.00    -0.206 OA 
HETATM   11  C   UNL     1      -9.731   8.547  71.978  1.00  0.00    -0.307 C  
HETATM   12  CA  UNL     1     -10.798   9.105  70.989  1.00  0.00    -0.291 C  
HETATM   13  O   UNL     1      -8.631   8.833  72.385  1.00  0.00    -0.395 OA 
ENDROOT
BRANCH  12  14
HETATM   14  N   UNL     1     -10.359   9.433  69.611  1.00  0.00    -0.205 N  
HETATM   15  C   UNL     1     -11.126  10.169  68.745  1.00  0.00    -0.203 C  
HETATM   16  H   UNL     1      -9.449   9.098  69.294  1.00  0.00     0.000 HD 
HETATM   17  O   UNL     1     -12.182  10.696  69.073  1.00  0.00    -0.354 OA 
BRANCH  15  18
HETATM   18  C   UNL     1     -10.579  10.279  67.399  1.00  0.00    -0.324 A  
HETATM   19  C   UNL     1     -10.227   9.203  66.609  1.00  0.00    -0.258 A  
HETATM   20  C   UNL     1     -10.269   7.734  66.762  1.00  0.00    -0.346 C  
HETATM   21  O   UNL     1      -9.775   9.653  65.414  1.00  0.00    -0.297 OA 
HETATM   22  N   UNL     1      -9.783  11.027  65.399  1.00  0.00    -0.219 NA 
HETATM   23  C   UNL     1     -10.256  11.428  66.591  1.00  0.00    -0.222 A  
BRANCH  23  24
HETATM   24  C   UNL     1     -10.431  12.861  66.875  1.00  0.00    -0.252 A  
HETATM   25  C   UNL     1      -9.582  13.491  67.802  1.00  0.00    -0.219 A  
HETATM   26  C   UNL     1      -9.559  14.878  67.957  1.00  0.00    -0.207 A  
HETATM   27  F   UNL     1      -8.731  12.780  68.558  1.00  0.00    -0.176 F  
HETATM   28  C   UNL     1     -10.362  15.679  67.156  1.00  0.00    -0.285 A  
HETATM   29  C   UNL     1     -11.271  15.078  66.290  1.00  0.00    -0.309 A  
HETATM   30  C   UNL     1     -11.354  13.680  66.202  1.00  0.00    -0.312 A  
HETATM   31 CL   UNL     1     -12.685  13.057  65.286  1.00  0.00    -0.529 Cl 
ENDBRANCH  23  24
ENDBRANCH  15  18
ENDBRANCH  12  14
TORSDOF 3
ENDMDL
MODEL       34
REMARK 921   NORMALIZED FREE ENERGY PREDICTED BY IDOCK:   -6.22 KCAL/MOL
REMARK 922        TOTAL FREE ENERGY PREDICTED BY IDOCK:   -8.68 KCAL/MOL
REMARK 923 INTER-LIGAND FREE ENERGY PREDICTED BY IDOCK:   -7.10 KCAL/MOL
REMARK 924 INTRA-LIGAND FREE ENERGY PREDICTED BY IDOCK:   -1.58 KCAL/MOL
REMARK 927      BINDING AFFINITY PREDICTED BY RF-SCORE:    0.00 PKD
ROOT
HETATM    1  C   UNL     1     -11.331   9.317  69.233  1.00  0.00     0.208 C  
HETATM    2  S   UNL     1     -10.813   9.289  67.458  1.00  0.00     0.014 SA 
HETATM    3  C   UNL     1      -9.331   8.222  67.772  1.00  0.00    -0.138 C  
HETATM    4  C   UNL     1      -9.056   7.343  66.549  1.00  0.00    -0.195 C  
HETATM    5  CA  UNL     1      -9.657   7.470  69.086  1.00  0.00    -0.157 C  
HETATM    6  C   UNL     1      -8.099   9.140  67.935  1.00  0.00    -0.105 C  
HETATM    7  N   UNL     1     -10.425   8.391  69.939  1.00  0.00    -0.219 N  
HETATM    8  C   UNL     1     -10.507   6.190  68.968  1.00  0.00    -0.248 C  
HETATM    9  OXT UNL     1     -10.434   5.358  68.079  1.00  0.00    -0.180 OA 
HETATM   10  O   UNL     1     -11.290   5.982  70.064  1.00  0.00    -0.384 OA 
HETATM   11  C   UNL     1      -9.784   9.381  70.636  1.00  0.00    -0.273 C  
HETATM   12  CA  UNL     1     -10.733  10.482  70.075  1.00  0.00    -0.224 C  
HETATM   13  O   UNL     1      -8.758   9.301  71.267  1.00  0.00    -0.301 OA 
ENDROOT
BRANCH  12  14
HETATM   14  N   UNL     1     -10.132  11.564  69.259  1.00  0.00    -0.423 N  
HETATM   15  C   UNL     1     -10.820  12.697  68.908  1.00  0.00    -0.197 C  
HETATM   16  H   UNL     1      -9.166  11.462  68.947  1.00  0.00     0.000 HD 
HETATM   17  O   UNL     1     -11.945  12.949  69.322  1.00  0.00    -0.296 OA 
BRANCH  15  18
HETATM   18  C   UNL     1     -10.101  13.583  68.002  1.00  0.00    -0.244 A  
HETATM   19  C   UNL     1      -9.202  14.549  68.405  1.00  0.00    -0.196 A  
HETATM   20  C   UNL     1      -8.664  15.002  69.705  1.00  0.00     0.011 C  
HETATM   21  O   UNL     1      -8.700  15.177  67.315  1.00  0.00    -0.178 OA 
HETATM   22  N   UNL     1      -9.279  14.670  66.176  1.00  0.00    -0.230 NA 
HETATM   23  C   UNL     1     -10.135  13.712  66.567  1.00  0.00    -0.286 A  
BRANCH  23  24
HETATM   24  C   UNL     1     -10.888  12.938  65.567  1.00  0.00    -0.298 A  
HETATM   25  C   UNL     1     -12.238  13.247  65.326  1.00  0.00    -0.448 A  
HETATM   26  C   UNL     1     -12.941  12.697  64.252  1.00  0.00    -0.204 A  
HETATM   27  F   UNL     1     -12.901  14.115  66.106  1.00  0.00    -0.496 F  
HETATM   28  C   UNL     1     -12.295  11.847  63.364  1.00  0.00    -0.577 A  
HETATM   29  C   UNL     1     -10.984  11.459  63.626  1.00  0.00    -0.443 A  
HETATM   30  C   UNL     1     -10.310  11.946  64.756  1.00  0.00    -0.281 A  
HETATM   31 CL   UNL     1      -8.788  11.200  65.108  1.00  0.00    -0.114 Cl 
ENDBRANCH  23  24
ENDBRANCH  15  18
ENDBRANCH  12  14
TORSDOF 3
ENDMDL
MODEL       35
REMARK 921   NORMALIZED FREE ENERGY PREDICTED BY IDOCK:   -6.19 KCAL/MOL
REMARK 922        TOTAL FREE ENERGY PREDICTED BY IDOCK:   -8.64 KCAL/MOL
REMARK 923 INTER-LIGAND FREE ENERGY PREDICTED BY IDOCK:   -7.18 KCAL/MOL
REMARK 924 INTRA-LIGAND FREE ENERGY PREDICTED BY IDOCK:   -1.46 KCAL/MOL
REMARK 927      BINDING AFFINITY PREDICTED BY RF-SCORE:    0.00 PKD
ROOT
HETATM    1  C   UNL     1     -10.642   8.294  69.599  1.00  0.00    -0.222 C  
HETATM    2  S   UNL     1      -9.687   8.917  68.142  1.00  0.00    -0.166 SA 
HETATM    3  C   UNL     1      -8.037   8.592  68.920  1.00  0.00    -0.118 C  
HETATM    4  C   UNL     1      -7.012   8.244  67.837  1.00  0.00    -0.078 C  
HETATM    5  CA  UNL     1      -8.307   7.491  69.975  1.00  0.00    -0.136 C  
HETATM    6  C   UNL     1      -7.547   9.901  69.580  1.00  0.00    -0.136 C  
HETATM    7  N   UNL     1      -9.645   7.739  70.535  1.00  0.00    -0.167 N  
HETATM    8  C   UNL     1      -8.318   6.032  69.478  1.00  0.00    -0.115 C  
HETATM    9  OXT UNL     1      -7.579   5.555  68.633  1.00  0.00    -0.078 OA 
HETATM   10  O   UNL     1      -9.170   5.245  70.192  1.00  0.00    -0.131 OA 
HETATM   11  C   UNL     1      -9.828   8.719  71.475  1.00  0.00    -0.301 C  
HETATM   12  CA  UNL     1     -10.990   9.370  70.667  1.00  0.00    -0.290 C  
HETATM   13  O   UNL     1      -9.139   8.966  72.435  1.00  0.00    -0.372 OA 
ENDROOT
BRANCH  12  14
HETATM   14  N   UNL     1     -10.808  10.764  70.195  1.00  0.00    -0.468 N  
HETATM   15  C   UNL     1     -11.690  11.379  69.343  1.00  0.00    -0.338 C  
HETATM   16  H   UNL     1      -9.994  11.287  70.517  1.00  0.00     0.000 HD 
HETATM   17  O   UNL     1     -12.743  10.864  68.988  1.00  0.00    -0.239 OA 
BRANCH  15  18
HETATM   18  C   UNL     1     -11.274  12.702  68.897  1.00  0.00    -0.329 A  
HETATM   19  C   UNL     1     -11.472  13.866  69.613  1.00  0.00    -0.248 A  
HETATM   20  C   UNL     1     -12.071  14.201  70.922  1.00  0.00    -0.416 C  
HETATM   21  O   UNL     1     -10.949  14.909  68.925  1.00  0.00    -0.232 OA 
HETATM   22  N   UNL     1     -10.429  14.469  67.732  1.00  0.00    -0.241 NA 
HETATM   23  C   UNL     1     -10.623  13.140  67.689  1.00  0.00    -0.228 A  
BRANCH  23  24
HETATM   24  C   UNL     1     -10.132  12.357  66.544  1.00  0.00    -0.246 A  
HETATM   25  C   UNL     1      -8.802  11.901  66.536  1.00  0.00    -0.178 A  
HETATM   26  C   UNL     1      -8.342  10.984  65.588  1.00  0.00    -0.060 A  
HETATM   27  F   UNL     1      -7.924  12.307  67.465  1.00  0.00    -0.128 F  
HETATM   28  C   UNL     1      -9.217  10.468  64.642  1.00  0.00    -0.274 A  
HETATM   29  C   UNL     1     -10.516  10.964  64.575  1.00  0.00    -0.393 A  
HETATM   30  C   UNL     1     -10.948  11.951  65.473  1.00  0.00    -0.297 A  
HETATM   31 CL   UNL     1     -12.489  12.663  65.130  1.00  0.00    -0.560 Cl 
ENDBRANCH  23  24
ENDBRANCH  15  18
ENDBRANCH  12  14
TORSDOF 3
ENDMDL
MODEL       36
REMARK 921   NORMALIZED FREE ENERGY PREDICTED BY IDOCK:   -6.13 KCAL/MOL
REMARK 922        TOTAL FREE ENERGY PREDICTED BY IDOCK:   -8.57 KCAL/MOL
REMARK 923 INTER-LIGAND FREE ENERGY PREDICTED BY IDOCK:   -7.22 KCAL/MOL
REMARK 924 INTRA-LIGAND FREE ENERGY PREDICTED BY IDOCK:   -1.35 KCAL/MOL
REMARK 927      BINDING AFFINITY PREDICTED BY RF-SCORE:    0.00 PKD
ROOT
HETATM    1  C   UNL     1     -10.851   5.796  70.459  1.00  0.00    -0.278 C  
HETATM    2  S   UNL     1      -9.052   6.033  70.815  1.00  0.00    -0.154 SA 
HETATM    3  C   UNL     1      -9.351   6.907  72.421  1.00  0.00    -0.136 C  
HETATM    4  C   UNL     1      -8.205   6.614  73.393  1.00  0.00    -0.124 C  
HETATM    5  CA  UNL     1     -10.756   6.437  72.871  1.00  0.00    -0.249 C  
HETATM    6  C   UNL     1      -9.320   8.430  72.157  1.00  0.00    -0.339 C  
HETATM    7  N   UNL     1     -11.572   6.269  71.658  1.00  0.00    -0.305 N  
HETATM    8  C   UNL     1     -10.839   5.098  73.628  1.00  0.00    -0.305 C  
HETATM    9  OXT UNL     1     -10.036   4.686  74.449  1.00  0.00    -0.155 OA 
HETATM   10  O   UNL     1     -12.009   4.440  73.398  1.00  0.00    -0.126 OA 
HETATM   11  C   UNL     1     -12.110   7.362  71.032  1.00  0.00    -0.298 C  
HETATM   12  CA  UNL     1     -11.519   6.946  69.651  1.00  0.00    -0.152 C  
HETATM   13  O   UNL     1     -12.660   8.311  71.536  1.00  0.00    -0.304 OA 
ENDROOT
BRANCH  12  14
HETATM   14  N   UNL     1     -10.552   7.867  69.007  1.00  0.00    -0.333 N  
HETATM   15  C   UNL     1     -10.346   7.894  67.651  1.00  0.00    -0.241 C  
HETATM   16  H   UNL     1     -10.018   8.506  69.596  1.00  0.00     0.000 HD 
HETATM   17  O   UNL     1     -11.012   7.236  66.862  1.00  0.00    -0.343 OA 
BRANCH  15  18
HETATM   18  C   UNL     1      -9.268   8.776  67.223  1.00  0.00    -0.165 A  
HETATM   19  C   UNL     1      -7.955   8.382  67.059  1.00  0.00    -0.100 A  
HETATM   20  C   UNL     1      -7.217   7.110  67.205  1.00  0.00    -0.085 C  
HETATM   21  O   UNL     1      -7.220   9.437  66.633  1.00  0.00    -0.085 OA 
HETATM   22  N   UNL     1      -8.017  10.554  66.541  1.00  0.00    -0.127 NA 
HETATM   23  C   UNL     1      -9.255  10.180  66.901  1.00  0.00    -0.146 A  
BRANCH  23  24
HETATM   24  C   UNL     1     -10.361  11.150  66.865  1.00  0.00    -0.272 A  
HETATM   25  C   UNL     1     -10.879  11.655  68.070  1.00  0.00    -0.215 A  
HETATM   26  C   UNL     1     -11.776  12.725  68.098  1.00  0.00    -0.392 A  
HETATM   27  F   UNL     1     -10.504  11.146  69.253  1.00  0.00    -0.223 F  
HETATM   28  C   UNL     1     -12.151  13.346  66.913  1.00  0.00    -0.406 A  
HETATM   29  C   UNL     1     -11.719  12.814  65.701  1.00  0.00    -0.443 A  
HETATM   30  C   UNL     1     -10.889  11.683  65.675  1.00  0.00    -0.276 A  
HETATM   31 CL   UNL     1     -10.630  10.971  64.118  1.00  0.00    -0.447 Cl 
ENDBRANCH  23  24
ENDBRANCH  15  18
ENDBRANCH  12  14
TORSDOF 3
ENDMDL
MODEL       37
REMARK 921   NORMALIZED FREE ENERGY PREDICTED BY IDOCK:   -6.11 KCAL/MOL
REMARK 922        TOTAL FREE ENERGY PREDICTED BY IDOCK:   -8.54 KCAL/MOL
REMARK 923 INTER-LIGAND FREE ENERGY PREDICTED BY IDOCK:   -7.46 KCAL/MOL
REMARK 924 INTRA-LIGAND FREE ENERGY PREDICTED BY IDOCK:   -1.09 KCAL/MOL
REMARK 927      BINDING AFFINITY PREDICTED BY RF-SCORE:    0.00 PKD
ROOT
HETATM    1  C   UNL     1      -7.979   6.773  69.169  1.00  0.00    -0.112 C  
HETATM    2  S   UNL     1      -9.439   5.649  69.002  1.00  0.00    -0.132 SA 
HETATM    3  C   UNL     1      -9.537   5.835  67.161  1.00  0.00    -0.127 C  
HETATM    4  C   UNL     1     -10.075   4.544  66.537  1.00  0.00    -0.257 C  
HETATM    5  CA  UNL     1      -8.109   6.251  66.729  1.00  0.00    -0.109 C  
HETATM    6  C   UNL     1     -10.571   6.938  66.840  1.00  0.00    -0.372 C  
HETATM    7  N   UNL     1      -7.562   7.108  67.793  1.00  0.00    -0.108 N  
HETATM    8  C   UNL     1      -7.082   5.121  66.523  1.00  0.00    -0.069 C  
HETATM    9  OXT UNL     1      -7.307   4.026  66.035  1.00  0.00    -0.074 OA 
HETATM   10  O   UNL     1      -5.811   5.512  66.818  1.00  0.00    -0.017 OA 
HETATM   11  C   UNL     1      -7.943   8.420  67.885  1.00  0.00    -0.115 C  
HETATM   12  CA  UNL     1      -8.325   8.273  69.389  1.00  0.00    -0.122 C  
HETATM   13  O   UNL     1      -8.060   9.226  66.993  1.00  0.00    -0.110 OA 
ENDROOT
BRANCH  12  14
HETATM   14  N   UNL     1      -9.738   8.513  69.771  1.00  0.00    -0.178 N  
HETATM   15  C   UNL     1     -10.106   8.926  71.026  1.00  0.00    -0.255 C  
HETATM   16  H   UNL     1     -10.466   8.366  69.071  1.00  0.00     0.000 HD 
HETATM   17  O   UNL     1      -9.295   9.224  71.894  1.00  0.00    -0.299 OA 
BRANCH  15  18
HETATM   18  C   UNL     1     -11.546   8.985  71.243  1.00  0.00    -0.387 A  
HETATM   19  C   UNL     1     -12.306   7.941  71.732  1.00  0.00    -0.320 A  
HETATM   20  C   UNL     1     -12.024   6.563  72.183  1.00  0.00    -0.334 C  
HETATM   21  O   UNL     1     -13.598   8.336  71.831  1.00  0.00    -0.346 OA 
HETATM   22  N   UNL     1     -13.728   9.628  71.380  1.00  0.00    -0.279 NA 
HETATM   23  C   UNL     1     -12.503  10.037  71.011  1.00  0.00    -0.362 A  
BRANCH  23  24
HETATM   24  C   UNL     1     -12.297  11.409  70.519  1.00  0.00    -0.439 A  
HETATM   25  C   UNL     1     -12.662  12.497  71.330  1.00  0.00    -0.252 A  
HETATM   26  C   UNL     1     -12.301  13.808  71.012  1.00  0.00    -0.452 A  
HETATM   27  F   UNL     1     -13.349  12.315  72.468  1.00  0.00    -0.594 F  
HETATM   28  C   UNL     1     -11.529  14.061  69.886  1.00  0.00    -0.272 A  
HETATM   29  C   UNL     1     -11.225  13.013  69.021  1.00  0.00    -0.316 A  
HETATM   30  C   UNL     1     -11.666  11.710  69.299  1.00  0.00    -0.331 A  
HETATM   31 CL   UNL     1     -11.444  10.551  68.033  1.00  0.00    -0.321 Cl 
ENDBRANCH  23  24
ENDBRANCH  15  18
ENDBRANCH  12  14
TORSDOF 3
ENDMDL
MODEL       38
REMARK 921   NORMALIZED FREE ENERGY PREDICTED BY IDOCK:   -6.10 KCAL/MOL
REMARK 922        TOTAL FREE ENERGY PREDICTED BY IDOCK:   -8.54 KCAL/MOL
REMARK 923 INTER-LIGAND FREE ENERGY PREDICTED BY IDOCK:   -7.69 KCAL/MOL
REMARK 924 INTRA-LIGAND FREE ENERGY PREDICTED BY IDOCK:   -0.85 KCAL/MOL
REMARK 927      BINDING AFFINITY PREDICTED BY RF-SCORE:    0.00 PKD
ROOT
HETATM    1  C   UNL     1      -8.582   8.457  70.321  1.00  0.00    -0.128 C  
HETATM    2  S   UNL     1      -9.333   8.638  72.002  1.00  0.00    -0.257 SA 
HETATM    3  C   UNL     1     -10.596   7.311  71.724  1.00  0.00    -0.205 C  
HETATM    4  C   UNL     1     -10.914   6.612  73.048  1.00  0.00    -0.279 C  
HETATM    5  CA  UNL     1      -9.990   6.415  70.615  1.00  0.00    -0.185 C  
HETATM    6  C   UNL     1     -11.908   7.981  71.258  1.00  0.00    -0.321 C  
HETATM    7  N   UNL     1      -9.246   7.294  69.699  1.00  0.00    -0.144 N  
HETATM    8  C   UNL     1      -8.997   5.324  71.060  1.00  0.00    -0.138 C  
HETATM    9  OXT UNL     1      -9.077   4.648  72.072  1.00  0.00    -0.124 OA 
HETATM   10  O   UNL     1      -8.049   5.067  70.116  1.00  0.00    -0.079 OA 
HETATM   11  C   UNL     1      -9.913   8.041  68.766  1.00  0.00    -0.189 C  
HETATM   12  CA  UNL     1      -9.212   9.356  69.219  1.00  0.00    -0.159 C  
HETATM   13  O   UNL     1     -10.822   7.696  68.049  1.00  0.00    -0.127 OA 
ENDROOT
BRANCH  12  14
HETATM   14  N   UNL     1     -10.064  10.448  69.749  1.00  0.00    -0.394 N  
HETATM   15  C   UNL     1     -10.912  11.177  68.956  1.00  0.00    -0.235 C  
HETATM   16  H   UNL     1     -10.017  10.665  70.745  1.00  0.00     0.000 HD 
HETATM   17  O   UNL     1     -11.107  10.920  67.775  1.00  0.00    -0.265 OA 
BRANCH  15  18
HETATM   18  C   UNL     1     -11.570  12.285  69.636  1.00  0.00    -0.348 A  
HETATM   19  C   UNL     1     -12.407  12.147  70.725  1.00  0.00    -0.297 A  
HETATM   20  C   UNL     1     -12.891  11.010  71.536  1.00  0.00    -0.555 C  
HETATM   21  O   UNL     1     -12.830  13.371  71.124  1.00  0.00    -0.333 OA 
HETATM   22  N   UNL     1     -12.315  14.336  70.292  1.00  0.00    -0.338 NA 
HETATM   23  C   UNL     1     -11.559  13.704  69.381  1.00  0.00    -0.312 A  
BRANCH  23  24
HETATM   24  C   UNL     1     -10.826  14.473  68.363  1.00  0.00    -0.250 A  
HETATM   25  C   UNL     1      -9.704  15.230  68.742  1.00  0.00    -0.212 A  
HETATM   26  C   UNL     1      -8.850  15.807  67.800  1.00  0.00    -0.173 A  
HETATM   27  F   UNL     1      -9.389  15.403  70.034  1.00  0.00    -0.267 F  
HETATM   28  C   UNL     1      -9.077  15.607  66.445  1.00  0.00    -0.355 A  
HETATM   29  C   UNL     1     -10.226  14.933  66.040  1.00  0.00    -0.317 A  
HETATM   30  C   UNL     1     -11.129  14.432  66.990  1.00  0.00    -0.313 A  
HETATM   31 CL   UNL     1     -12.632  13.841  66.367  1.00  0.00    -0.390 Cl 
ENDBRANCH  23  24
ENDBRANCH  15  18
ENDBRANCH  12  14
TORSDOF 3
ENDMDL
MODEL       39
REMARK 921   NORMALIZED FREE ENERGY PREDICTED BY IDOCK:   -6.04 KCAL/MOL
REMARK 922        TOTAL FREE ENERGY PREDICTED BY IDOCK:   -8.46 KCAL/MOL
REMARK 923 INTER-LIGAND FREE ENERGY PREDICTED BY IDOCK:   -7.40 KCAL/MOL
REMARK 924 INTRA-LIGAND FREE ENERGY PREDICTED BY IDOCK:   -1.06 KCAL/MOL
REMARK 927      BINDING AFFINITY PREDICTED BY RF-SCORE:    0.00 PKD
ROOT
HETATM    1  C   UNL     1     -10.559  11.139  67.967  1.00  0.00    -0.198 C  
HETATM    2  S   UNL     1     -10.866  10.860  66.164  1.00  0.00    -0.025 SA 
HETATM    3  C   UNL     1      -9.144  10.263  65.830  1.00  0.00    -0.170 C  
HETATM    4  C   UNL     1      -9.161   9.236  64.694  1.00  0.00    -0.112 C  
HETATM    5  CA  UNL     1      -8.630   9.750  67.198  1.00  0.00    -0.128 C  
HETATM    6  C   UNL     1      -8.306  11.459  65.323  1.00  0.00     0.365 C  
HETATM    7  N   UNL     1      -9.202  10.623  68.236  1.00  0.00    -0.147 N  
HETATM    8  C   UNL     1      -9.011   8.311  67.595  1.00  0.00    -0.135 C  
HETATM    9  OXT UNL     1      -9.073   7.351  66.845  1.00  0.00    -0.130 OA 
HETATM   10  O   UNL     1      -9.147   8.160  68.942  1.00  0.00    -0.147 OA 
HETATM   11  C   UNL     1      -8.664  11.860  68.469  1.00  0.00    -0.108 C  
HETATM   12  CA  UNL     1     -10.048  12.562  68.334  1.00  0.00    -0.216 C  
HETATM   13  O   UNL     1      -7.497  12.160  68.549  1.00  0.00    -0.108 OA 
ENDROOT
BRANCH  12  14
HETATM   14  N   UNL     1     -10.216  13.559  67.249  1.00  0.00    -0.240 N  
HETATM   15  C   UNL     1     -11.057  14.636  67.356  1.00  0.00    -0.326 C  
HETATM   16  H   UNL     1      -9.683  13.438  66.387  1.00  0.00     0.000 HD 
HETATM   17  O   UNL     1     -11.656  14.914  68.388  1.00  0.00    -0.301 OA 
BRANCH  15  18
HETATM   18  C   UNL     1     -11.179  15.429  66.140  1.00  0.00    -0.161 A  
HETATM   19  C   UNL     1     -11.875  15.032  65.015  1.00  0.00    -0.244 A  
HETATM   20  C   UNL     1     -12.672  13.845  64.641  1.00  0.00    -0.179 C  
HETATM   21  O   UNL     1     -11.807  16.009  64.079  1.00  0.00    -0.762 OA 
HETATM   22  N   UNL     1     -11.040  17.050  64.545  1.00  0.00    -1.062 NA 
HETATM   23  C   UNL     1     -10.643  16.718  65.784  1.00  0.00    -0.250 A  
BRANCH  23  24
HETATM   24  C   UNL     1      -9.834  17.656  66.578  1.00  0.00    -0.323 A  
HETATM   25  C   UNL     1     -10.313  18.956  66.814  1.00  0.00    -0.414 A  
HETATM   26  C   UNL     1      -9.698  19.815  67.728  1.00  0.00    -0.495 A  
HETATM   27  F   UNL     1     -11.408  19.416  66.190  1.00  0.00    -0.217 F  
HETATM   28  C   UNL     1      -8.603  19.378  68.460  1.00  0.00    -0.401 A  
HETATM   29  C   UNL     1      -8.057  18.127  68.187  1.00  0.00    -0.289 A  
HETATM   30  C   UNL     1      -8.625  17.302  67.205  1.00  0.00    -0.206 A  
HETATM   31 CL   UNL     1      -7.715  15.891  66.783  1.00  0.00    -0.267 Cl 
ENDBRANCH  23  24
ENDBRANCH  15  18
ENDBRANCH  12  14
TORSDOF 3
ENDMDL
MODEL       40
REMARK 921   NORMALIZED FREE ENERGY PREDICTED BY IDOCK:   -6.04 KCAL/MOL
REMARK 922        TOTAL FREE ENERGY PREDICTED BY IDOCK:   -8.46 KCAL/MOL
REMARK 923 INTER-LIGAND FREE ENERGY PREDICTED BY IDOCK:   -8.02 KCAL/MOL
REMARK 924 INTRA-LIGAND FREE ENERGY PREDICTED BY IDOCK:   -0.44 KCAL/MOL
REMARK 927      BINDING AFFINITY PREDICTED BY RF-SCORE:    0.00 PKD
ROOT
HETATM    1  C   UNL     1     -10.530  16.748  68.349  1.00  0.00    -0.339 C  
HETATM    2  S   UNL     1      -9.242  15.937  69.400  1.00  0.00    -0.177 SA 
HETATM    3  C   UNL     1      -7.841  16.432  68.294  1.00  0.00    -0.168 C  
HETATM    4  C   UNL     1      -6.572  16.641  69.125  1.00  0.00    -0.207 C  
HETATM    5  CA  UNL     1      -8.360  17.675  67.530  1.00  0.00    -0.218 C  
HETATM    6  C   UNL     1      -7.544  15.259  67.333  1.00  0.00    -0.229 C  
HETATM    7  N   UNL     1      -9.799  17.474  67.292  1.00  0.00    -0.285 N  
HETATM    8  C   UNL     1      -8.233  19.038  68.238  1.00  0.00    -0.329 C  
HETATM    9  OXT UNL     1      -7.300  19.401  68.935  1.00  0.00    -0.346 OA 
HETATM   10  O   UNL     1      -9.232  19.898  67.895  1.00  0.00    -0.328 OA 
HETATM   11  C   UNL     1     -10.222  16.647  66.285  1.00  0.00    -0.334 C  
HETATM   12  CA  UNL     1     -11.146  15.840  67.246  1.00  0.00    -0.211 C  
HETATM   13  O   UNL     1      -9.800  16.574  65.156  1.00  0.00    -0.411 OA 
ENDROOT
BRANCH  12  14
HETATM   14  N   UNL     1     -10.862  14.396  67.429  1.00  0.00    -0.287 N  
HETATM   15  C   UNL     1     -11.686  13.412  66.946  1.00  0.00    -0.389 C  
HETATM   16  H   UNL     1     -10.020  14.124  67.936  1.00  0.00     0.000 HD 
HETATM   17  O   UNL     1     -12.661  13.645  66.241  1.00  0.00    -0.391 OA 
BRANCH  15  18
HETATM   18  C   UNL     1     -11.304  12.061  67.335  1.00  0.00    -0.393 A  
HETATM   19  C   UNL     1     -11.570  11.498  68.567  1.00  0.00    -0.313 A  
HETATM   20  C   UNL     1     -12.257  11.947  69.796  1.00  0.00    -0.241 C  
HETATM   21  O   UNL     1     -11.100  10.228  68.591  1.00  0.00    -0.243 OA 
HETATM   22  N   UNL     1     -10.485   9.935  67.397  1.00  0.00    -0.250 NA 
HETATM   23  C   UNL     1     -10.588  11.030  66.626  1.00  0.00    -0.262 A  
BRANCH  23  24
HETATM   24  C   UNL     1     -10.059  11.022  65.253  1.00  0.00    -0.332 A  
HETATM   25  C   UNL     1      -8.700  10.734  65.036  1.00  0.00    -0.151 A  
HETATM   26  C   UNL     1      -8.189  10.505  63.757  1.00  0.00    -0.068 A  
HETATM   27  F   UNL     1      -7.840  10.636  66.061  1.00  0.00    -0.135 F  
HETATM   28  C   UNL     1      -9.039  10.521  62.659  1.00  0.00    -0.309 A  
HETATM   29  C   UNL     1     -10.371  10.885  62.835  1.00  0.00     0.016 A  
HETATM   30  C   UNL     1     -10.859  11.201  64.111  1.00  0.00    -0.285 A  
HETATM   31 CL   UNL     1     -12.452  11.878  64.165  1.00  0.00    -0.403 Cl 
ENDBRANCH  23  24
ENDBRANCH  15  18
ENDBRANCH  12  14
TORSDOF 3
ENDMDL
MODEL       41
REMARK 921   NORMALIZED FREE ENERGY PREDICTED BY IDOCK:   -5.99 KCAL/MOL
REMARK 922        TOTAL FREE ENERGY PREDICTED BY IDOCK:   -8.40 KCAL/MOL
REMARK 923 INTER-LIGAND FREE ENERGY PREDICTED BY IDOCK:   -6.95 KCAL/MOL
REMARK 924 INTRA-LIGAND FREE ENERGY PREDICTED BY IDOCK:   -1.45 KCAL/MOL
REMARK 927      BINDING AFFINITY PREDICTED BY RF-SCORE:    0.00 PKD
ROOT
HETATM    1  C   UNL     1     -10.238  13.282  67.115  1.00  0.00    -0.246 C  
HETATM    2  S   UNL     1      -9.203  12.587  65.749  1.00  0.00     0.237 SA 
HETATM    3  C   UNL     1     -10.571  11.539  65.069  1.00  0.00    -0.297 C  
HETATM    4  C   UNL     1     -10.410  11.394  63.553  1.00  0.00    -0.476 C  
HETATM    5  CA  UNL     1     -11.873  12.230  65.547  1.00  0.00    -0.359 C  
HETATM    6  C   UNL     1     -10.434  10.118  65.660  1.00  0.00    -0.103 C  
HETATM    7  N   UNL     1     -11.609  12.785  66.884  1.00  0.00    -0.347 N  
HETATM    8  C   UNL     1     -12.398  13.402  64.695  1.00  0.00    -0.382 C  
HETATM    9  OXT UNL     1     -12.372  13.474  63.478  1.00  0.00    -0.711 OA 
HETATM   10  O   UNL     1     -13.049  14.337  65.441  1.00  0.00    -0.685 OA 
HETATM   11  C   UNL     1     -11.610  11.967  67.982  1.00  0.00    -0.342 C  
HETATM   12  CA  UNL     1     -10.208  12.471  68.442  1.00  0.00    -0.228 C  
HETATM   13  O   UNL     1     -12.397  11.094  68.259  1.00  0.00    -0.532 OA 
ENDROOT
BRANCH  12  14
HETATM   14  N   UNL     1      -9.107  11.480  68.515  1.00  0.00    -0.230 N  
HETATM   15  C   UNL     1      -9.091  10.457  69.427  1.00  0.00    -0.152 C  
HETATM   16  H   UNL     1      -8.330  11.564  67.860  1.00  0.00     0.000 HD 
HETATM   17  O   UNL     1     -10.027  10.220  70.181  1.00  0.00    -0.185 OA 
BRANCH  15  18
HETATM   18  C   UNL     1      -7.867   9.665  69.424  1.00  0.00    -0.104 A  
HETATM   19  C   UNL     1      -6.638  10.128  69.850  1.00  0.00    -0.100 A  
HETATM   20  C   UNL     1      -6.134  11.398  70.412  1.00  0.00    -0.110 C  
HETATM   21  O   UNL     1      -5.723   9.136  69.735  1.00  0.00    -0.032 OA 
HETATM   22  N   UNL     1      -6.312   8.015  69.202  1.00  0.00    -0.038 NA 
HETATM   23  C   UNL     1      -7.606   8.314  68.997  1.00  0.00    -0.089 A  
BRANCH  23  24
HETATM   24  C   UNL     1      -8.527   7.297  68.468  1.00  0.00    -0.125 A  
HETATM   25  C   UNL     1      -9.465   6.698  69.328  1.00  0.00    -0.141 A  
HETATM   26  C   UNL     1     -10.497   5.889  68.846  1.00  0.00    -0.325 A  
HETATM   27  F   UNL     1      -9.425   6.909  70.652  1.00  0.00    -0.163 F  
HETATM   28  C   UNL     1     -10.639   5.688  67.480  1.00  0.00    -0.296 A  
HETATM   29  C   UNL     1      -9.677   6.199  66.614  1.00  0.00    -0.196 A  
HETATM   30  C   UNL     1      -8.592   6.937  67.110  1.00  0.00    -0.121 A  
HETATM   31 CL   UNL     1      -7.339   7.300  65.971  1.00  0.00    -0.074 Cl 
ENDBRANCH  23  24
ENDBRANCH  15  18
ENDBRANCH  12  14
TORSDOF 3
ENDMDL
MODEL       42
REMARK 921   NORMALIZED FREE ENERGY PREDICTED BY IDOCK:   -5.98 KCAL/MOL
REMARK 922        TOTAL FREE ENERGY PREDICTED BY IDOCK:   -8.40 KCAL/MOL
REMARK 923 INTER-LIGAND FREE ENERGY PREDICTED BY IDOCK:   -7.19 KCAL/MOL
REMARK 924 INTRA-LIGAND FREE ENERGY PREDICTED BY IDOCK:   -1.21 KCAL/MOL
REMARK 927      BINDING AFFINITY PREDICTED BY RF-SCORE:    0.00 PKD
ROOT
HETATM    1  C   UNL     1      -9.247   8.638  65.910  1.00  0.00    -0.202 C  
HETATM    2  S   UNL     1      -8.144   9.646  64.820  1.00  0.00    -0.149 SA 
HETATM    3  C   UNL     1      -6.966  10.072  66.186  1.00  0.00    -0.107 C  
HETATM    4  C   UNL     1      -5.552  10.234  65.621  1.00  0.00    -0.085 C  
HETATM    5  CA  UNL     1      -7.151   8.946  67.233  1.00  0.00    -0.083 C  
HETATM    6  C   UNL     1      -7.367  11.451  66.758  1.00  0.00    -0.135 C  
HETATM    7  N   UNL     1      -8.573   8.566  67.221  1.00  0.00    -0.122 N  
HETATM    8  C   UNL     1      -6.360   7.643  67.008  1.00  0.00    -0.054 C  
HETATM    9  OXT UNL     1      -5.222   7.558  66.578  1.00  0.00    -0.023 OA 
HETATM   10  O   UNL     1      -7.017   6.547  67.481  1.00  0.00    -0.073 OA 
HETATM   11  C   UNL     1      -9.500   9.346  67.859  1.00  0.00    -0.132 C  
HETATM   12  CA  UNL     1     -10.401   9.430  66.590  1.00  0.00    -0.214 C  
HETATM   13  O   UNL     1      -9.419   9.856  68.950  1.00  0.00    -0.156 OA 
ENDROOT
BRANCH  12  14
HETATM   14  N   UNL     1     -10.641  10.768  65.998  1.00  0.00    -0.198 N  
HETATM   15  C   UNL     1     -11.509  11.676  66.548  1.00  0.00    -0.187 C  
HETATM   16  H   UNL     1     -10.140  11.024  65.148  1.00  0.00     0.000 HD 
HETATM   17  O   UNL     1     -12.075  11.494  67.619  1.00  0.00    -0.623 OA 
BRANCH  15  18
HETATM   18  C   UNL     1     -11.703  12.883  65.755  1.00  0.00    -0.437 A  
HETATM   19  C   UNL     1     -12.239  12.903  64.483  1.00  0.00    -0.426 A  
HETATM   20  C   UNL     1     -12.771  11.884  63.554  1.00  0.00    -0.530 C  
HETATM   21  O   UNL     1     -12.298  14.182  64.042  1.00  0.00    -0.647 OA 
HETATM   22  N   UNL     1     -11.773  15.028  64.990  1.00  0.00    -0.328 NA 
HETATM   23  C   UNL     1     -11.399  14.264  66.029  1.00  0.00    -0.335 A  
BRANCH  23  24
HETATM   24  C   UNL     1     -10.833  14.884  67.238  1.00  0.00    -0.306 A  
HETATM   25  C   UNL     1     -11.527  14.785  68.456  1.00  0.00    -0.308 A  
HETATM   26  C   UNL     1     -10.948  15.164  69.669  1.00  0.00    -0.291 A  
HETATM   27  F   UNL     1     -12.772  14.288  68.507  1.00  0.00    -0.107 F  
HETATM   28  C   UNL     1      -9.637  15.620  69.698  1.00  0.00    -0.260 A  
HETATM   29  C   UNL     1      -8.955  15.806  68.498  1.00  0.00    -0.194 A  
HETATM   30  C   UNL     1      -9.574  15.508  67.275  1.00  0.00    -0.213 A  
HETATM   31 CL   UNL     1      -8.724  16.016  65.855  1.00  0.00    -0.261 Cl 
ENDBRANCH  23  24
ENDBRANCH  15  18
ENDBRANCH  12  14
TORSDOF 3
ENDMDL
MODEL       43
REMARK 921   NORMALIZED FREE ENERGY PREDICTED BY IDOCK:   -5.97 KCAL/MOL
REMARK 922        TOTAL FREE ENERGY PREDICTED BY IDOCK:   -8.38 KCAL/MOL
REMARK 923 INTER-LIGAND FREE ENERGY PREDICTED BY IDOCK:   -7.19 KCAL/MOL
REMARK 924 INTRA-LIGAND FREE ENERGY PREDICTED BY IDOCK:   -1.19 KCAL/MOL
REMARK 927      BINDING AFFINITY PREDICTED BY RF-SCORE:    0.00 PKD
ROOT
HETATM    1  C   UNL     1      -8.500   8.245  69.267  1.00  0.00    -0.126 C  
HETATM    2  S   UNL     1      -8.862   9.025  70.904  1.00  0.00    -0.242 SA 
HETATM    3  C   UNL     1     -10.687   8.720  70.793  1.00  0.00    -0.228 C  
HETATM    4  C   UNL     1     -11.264   8.506  72.195  1.00  0.00    -0.432 C  
HETATM    5  CA  UNL     1     -10.829   7.528  69.815  1.00  0.00    -0.225 C  
HETATM    6  C   UNL     1     -11.358   9.995  70.234  1.00  0.00    -0.376 C  
HETATM    7  N   UNL     1      -9.775   7.667  68.797  1.00  0.00    -0.151 N  
HETATM    8  C   UNL     1     -10.666   6.113  70.404  1.00  0.00    -0.284 C  
HETATM    9  OXT UNL     1     -11.064   5.740  71.495  1.00  0.00    -0.265 OA 
HETATM   10  O   UNL     1     -10.139   5.233  69.509  1.00  0.00    -0.207 OA 
HETATM   11  C   UNL     1      -9.923   8.561  67.770  1.00  0.00    -0.190 C  
HETATM   12  CA  UNL     1      -8.538   9.217  68.052  1.00  0.00    -0.121 C  
HETATM   13  O   UNL     1     -10.905   8.765  67.097  1.00  0.00    -0.209 OA 
ENDROOT
BRANCH  12  14
HETATM   14  N   UNL     1      -8.516  10.651  68.430  1.00  0.00    -0.126 N  
HETATM   15  C   UNL     1      -8.338  11.656  67.514  1.00  0.00    -0.151 C  
HETATM   16  H   UNL     1      -8.638  10.900  69.412  1.00  0.00     0.000 HD 
HETATM   17  O   UNL     1      -8.284  11.455  66.307  1.00  0.00    -0.160 OA 
BRANCH  15  18
HETATM   18  C   UNL     1      -8.221  12.987  68.095  1.00  0.00    -0.157 A  
HETATM   19  C   UNL     1      -7.271  13.351  69.028  1.00  0.00    -0.018 A  
HETATM   20  C   UNL     1      -6.150  12.665  69.704  1.00  0.00    -0.128 C  
HETATM   21  O   UNL     1      -7.428  14.660  69.340  1.00  0.00    -0.155 OA 
HETATM   22  N   UNL     1      -8.499  15.179  68.651  1.00  0.00    -0.160 NA 
HETATM   23  C   UNL     1      -8.999  14.184  67.900  1.00  0.00    -0.185 A  
BRANCH  23  24
HETATM   24  C   UNL     1     -10.138  14.434  67.003  1.00  0.00    -0.256 A  
HETATM   25  C   UNL     1      -9.954  15.219  65.852  1.00  0.00    -0.340 A  
HETATM   26  C   UNL     1     -10.933  15.317  64.861  1.00  0.00    -0.445 A  
HETATM   27  F   UNL     1      -8.808  15.885  65.642  1.00  0.00    -0.318 F  
HETATM   28  C   UNL     1     -12.114  14.596  64.980  1.00  0.00    -0.349 A  
HETATM   29  C   UNL     1     -12.357  13.878  66.147  1.00  0.00    -0.504 A  
HETATM   30  C   UNL     1     -11.407  13.855  67.180  1.00  0.00    -0.327 A  
HETATM   31 CL   UNL     1     -11.928  13.143  68.670  1.00  0.00    -0.358 Cl 
ENDBRANCH  23  24
ENDBRANCH  15  18
ENDBRANCH  12  14
TORSDOF 3
ENDMDL
MODEL       44
REMARK 921   NORMALIZED FREE ENERGY PREDICTED BY IDOCK:   -5.94 KCAL/MOL
REMARK 922        TOTAL FREE ENERGY PREDICTED BY IDOCK:   -8.34 KCAL/MOL
REMARK 923 INTER-LIGAND FREE ENERGY PREDICTED BY IDOCK:   -7.30 KCAL/MOL
REMARK 924 INTRA-LIGAND FREE ENERGY PREDICTED BY IDOCK:   -1.04 KCAL/MOL
REMARK 927      BINDING AFFINITY PREDICTED BY RF-SCORE:    0.00 PKD
ROOT
HETATM    1  C   UNL     1     -11.866  14.555  66.123  1.00  0.00    -0.336 C  
HETATM    2  S   UNL     1     -10.442  14.617  64.943  1.00  0.00    -0.316 SA 
HETATM    3  C   UNL     1     -10.203  12.780  64.930  1.00  0.00    -0.272 C  
HETATM    4  C   UNL     1      -9.672  12.335  63.564  1.00  0.00     0.000 C  
HETATM    5  CA  UNL     1     -11.579  12.199  65.342  1.00  0.00    -0.330 C  
HETATM    6  C   UNL     1      -9.107  12.426  65.961  1.00  0.00     0.023 C  
HETATM    7  N   UNL     1     -12.169  13.124  66.324  1.00  0.00    -0.393 N  
HETATM    8  C   UNL     1     -12.632  12.033  64.229  1.00  0.00    -0.255 C  
HETATM    9  OXT UNL     1     -12.415  11.679  63.082  1.00  0.00    -0.427 OA 
HETATM   10  O   UNL     1     -13.904  12.188  64.688  1.00  0.00     0.232 OA 
HETATM   11  C   UNL     1     -11.744  13.109  67.626  1.00  0.00    -0.369 C  
HETATM   12  CA  UNL     1     -11.479  14.645  67.627  1.00  0.00    -0.346 C  
HETATM   13  O   UNL     1     -11.532  12.150  68.328  1.00  0.00    -0.259 OA 
ENDROOT
BRANCH  12  14
HETATM   14  N   UNL     1     -10.089  15.106  67.862  1.00  0.00    -0.222 N  
HETATM   15  C   UNL     1      -9.590  15.344  69.117  1.00  0.00    -0.253 C  
HETATM   16  H   UNL     1      -9.480  15.254  67.057  1.00  0.00     0.000 HD 
HETATM   17  O   UNL     1     -10.216  15.098  70.141  1.00  0.00    -0.202 OA 
BRANCH  15  18
HETATM   18  C   UNL     1      -8.248  15.910  69.135  1.00  0.00    -0.240 A  
HETATM   19  C   UNL     1      -7.140  15.278  69.664  1.00  0.00    -0.187 A  
HETATM   20  C   UNL     1      -6.888  13.972  70.307  1.00  0.00     0.242 C  
HETATM   21  O   UNL     1      -6.052  16.068  69.499  1.00  0.00    -0.141 OA 
HETATM   22  N   UNL     1      -6.418  17.247  68.896  1.00  0.00    -0.191 NA 
HETATM   23  C   UNL     1      -7.741  17.178  68.675  1.00  0.00    -0.260 A  
BRANCH  23  24
HETATM   24  C   UNL     1      -8.437  18.282  67.994  1.00  0.00    -0.273 A  
HETATM   25  C   UNL     1      -9.566  18.865  68.595  1.00  0.00    -0.391 A  
HETATM   26  C   UNL     1     -10.138  20.041  68.107  1.00  0.00    -0.547 A  
HETATM   27  F   UNL     1     -10.124  18.327  69.691  1.00  0.00    -0.180 F  
HETATM   28  C   UNL     1      -9.568  20.689  67.019  1.00  0.00    -0.484 A  
HETATM   29  C   UNL     1      -8.501  20.090  66.354  1.00  0.00    -0.341 A  
HETATM   30  C   UNL     1      -7.986  18.862  66.795  1.00  0.00    -0.259 A  
HETATM   31 CL   UNL     1      -6.838  18.103  65.745  1.00  0.00    -0.326 Cl 
ENDBRANCH  23  24
ENDBRANCH  15  18
ENDBRANCH  12  14
TORSDOF 3
ENDMDL
MODEL       45
REMARK 921   NORMALIZED FREE ENERGY PREDICTED BY IDOCK:   -5.91 KCAL/MOL
REMARK 922        TOTAL FREE ENERGY PREDICTED BY IDOCK:   -8.32 KCAL/MOL
REMARK 923 INTER-LIGAND FREE ENERGY PREDICTED BY IDOCK:   -7.18 KCAL/MOL
REMARK 924 INTRA-LIGAND FREE ENERGY PREDICTED BY IDOCK:   -1.14 KCAL/MOL
REMARK 927      BINDING AFFINITY PREDICTED BY RF-SCORE:    0.00 PKD
ROOT
HETATM    1  C   UNL     1     -10.072   6.681  70.144  1.00  0.00    -0.178 C  
HETATM    2  S   UNL     1     -11.203   6.331  68.722  1.00  0.00    -0.119 SA 
HETATM    3  C   UNL     1      -9.837   5.758  67.608  1.00  0.00    -0.126 C  
HETATM    4  C   UNL     1     -10.366   4.690  66.646  1.00  0.00    -0.205 C  
HETATM    5  CA  UNL     1      -8.709   5.305  68.567  1.00  0.00    -0.097 C  
HETATM    6  C   UNL     1      -9.393   6.952  66.733  1.00  0.00    -0.190 C  
HETATM    7  N   UNL     1      -8.737   6.203  69.733  1.00  0.00    -0.134 N  
HETATM    8  C   UNL     1      -8.799   3.873  69.130  1.00  0.00    -0.101 C  
HETATM    9  OXT UNL     1      -9.182   2.886  68.524  1.00  0.00    -0.149 OA 
HETATM   10  O   UNL     1      -8.261   3.769  70.377  1.00  0.00    -0.056 OA 
HETATM   11  C   UNL     1      -8.197   7.458  69.649  1.00  0.00    -0.130 C  
HETATM   12  CA  UNL     1      -9.498   8.127  70.187  1.00  0.00    -0.167 C  
HETATM   13  O   UNL     1      -7.148   7.785  69.147  1.00  0.00    -0.069 OA 
ENDROOT
BRANCH  12  14
HETATM   14  N   UNL     1     -10.204   9.080  69.297  1.00  0.00    -0.199 N  
HETATM   15  C   UNL     1      -9.765  10.362  69.087  1.00  0.00    -0.220 C  
HETATM   16  H   UNL     1     -11.052   8.769  68.823  1.00  0.00     0.000 HD 
HETATM   17  O   UNL     1      -8.706  10.785  69.534  1.00  0.00    -0.041 OA 
BRANCH  15  18
HETATM   18  C   UNL     1     -10.660  11.182  68.282  1.00  0.00    -0.221 A  
HETATM   19  C   UNL     1     -10.724  11.145  66.903  1.00  0.00    -0.274 A  
HETATM   20  C   UNL     1     -10.041  10.374  65.843  1.00  0.00    -0.326 C  
HETATM   21  O   UNL     1     -11.672  12.013  66.475  1.00  0.00    -0.523 OA 
HETATM   22  N   UNL     1     -12.227  12.665  67.550  1.00  0.00    -0.340 NA 
HETATM   23  C   UNL     1     -11.625  12.186  68.651  1.00  0.00    -0.321 A  
BRANCH  23  24
HETATM   24  C   UNL     1     -12.033  12.658  69.984  1.00  0.00    -0.377 A  
HETATM   25  C   UNL     1     -11.759  13.984  70.363  1.00  0.00    -0.222 A  
HETATM   26  C   UNL     1     -12.302  14.548  71.519  1.00  0.00    -0.430 A  
HETATM   27  F   UNL     1     -10.984  14.775  69.606  1.00  0.00    -0.251 F  
HETATM   28  C   UNL     1     -13.169  13.807  72.310  1.00  0.00    -0.563 A  
HETATM   29  C   UNL     1     -13.392  12.467  72.004  1.00  0.00    -0.528 A  
HETATM   30  C   UNL     1     -12.773  11.879  70.891  1.00  0.00    -0.209 A  
HETATM   31 CL   UNL     1     -12.926  10.159  70.762  1.00  0.00    -0.410 Cl 
ENDBRANCH  23  24
ENDBRANCH  15  18
ENDBRANCH  12  14
TORSDOF 3
ENDMDL
MODEL       46
REMARK 921   NORMALIZED FREE ENERGY PREDICTED BY IDOCK:   -5.90 KCAL/MOL
REMARK 922        TOTAL FREE ENERGY PREDICTED BY IDOCK:   -8.30 KCAL/MOL
REMARK 923 INTER-LIGAND FREE ENERGY PREDICTED BY IDOCK:   -7.32 KCAL/MOL
REMARK 924 INTRA-LIGAND FREE ENERGY PREDICTED BY IDOCK:   -0.98 KCAL/MOL
REMARK 927      BINDING AFFINITY PREDICTED BY RF-SCORE:    0.00 PKD
ROOT
HETATM    1  C   UNL     1      -8.179   6.064  69.145  1.00  0.00    -0.111 C  
HETATM    2  S   UNL     1      -9.860   5.388  68.770  1.00  0.00    -0.163 SA 
HETATM    3  C   UNL     1      -9.770   5.808  66.968  1.00  0.00    -0.142 C  
HETATM    4  C   UNL     1     -10.569   4.785  66.156  1.00  0.00    -0.282 C  
HETATM    5  CA  UNL     1      -8.255   5.885  66.654  1.00  0.00    -0.106 C  
HETATM    6  C   UNL     1     -10.463   7.172  66.753  1.00  0.00    -0.300 C  
HETATM    7  N   UNL     1      -7.589   6.439  67.844  1.00  0.00    -0.100 N  
HETATM    8  C   UNL     1      -7.535   4.559  66.343  1.00  0.00    -0.082 C  
HETATM    9  OXT UNL     1      -7.993   3.626  65.704  1.00  0.00    -0.092 OA 
HETATM   10  O   UNL     1      -6.232   4.568  66.739  1.00  0.00    -0.030 OA 
HETATM   11  C   UNL     1      -7.632   7.785  68.094  1.00  0.00    -0.116 C  
HETATM   12  CA  UNL     1      -8.149   7.567  69.548  1.00  0.00    -0.128 C  
HETATM   13  O   UNL     1      -7.474   8.692  67.313  1.00  0.00    -0.087 OA 
ENDROOT
BRANCH  12  14
HETATM   14  N   UNL     1      -9.480   8.120  69.899  1.00  0.00    -0.160 N  
HETATM   15  C   UNL     1      -9.683   9.451  70.159  1.00  0.00    -0.235 C  
HETATM   16  H   UNL     1     -10.276   7.485  69.949  1.00  0.00     0.000 HD 
HETATM   17  O   UNL     1      -8.808  10.298  70.024  1.00  0.00    -0.077 OA 
BRANCH  15  18
HETATM   18  C   UNL     1     -11.030   9.779  70.607  1.00  0.00    -0.398 A  
HETATM   19  C   UNL     1     -11.696   9.123  71.623  1.00  0.00    -0.378 A  
HETATM   20  C   UNL     1     -11.372   8.012  72.541  1.00  0.00    -0.469 C  
HETATM   21  O   UNL     1     -12.914   9.690  71.799  1.00  0.00    -0.357 OA 
HETATM   22  N   UNL     1     -13.094  10.703  70.887  1.00  0.00    -0.324 NA 
HETATM   23  C   UNL     1     -11.972  10.769  70.151  1.00  0.00    -0.349 A  
BRANCH  23  24
HETATM   24  C   UNL     1     -11.832  11.794  69.105  1.00  0.00    -0.389 A  
HETATM   25  C   UNL     1     -11.607  11.399  67.774  1.00  0.00    -0.251 A  
HETATM   26  C   UNL     1     -11.675  12.305  66.714  1.00  0.00    -0.411 A  
HETATM   27  F   UNL     1     -11.346  10.120  67.465  1.00  0.00    -0.365 F  
HETATM   28  C   UNL     1     -12.011  13.630  66.955  1.00  0.00    -0.454 A  
HETATM   29  C   UNL     1     -12.157  14.066  68.269  1.00  0.00    -0.312 A  
HETATM   30  C   UNL     1     -12.000  13.170  69.337  1.00  0.00    -0.291 A  
HETATM   31 CL   UNL     1     -11.956  13.878  70.917  1.00  0.00    -0.366 Cl 
ENDBRANCH  23  24
ENDBRANCH  15  18
ENDBRANCH  12  14
TORSDOF 3
ENDMDL
MODEL       47
REMARK 921   NORMALIZED FREE ENERGY PREDICTED BY IDOCK:   -5.88 KCAL/MOL
REMARK 922        TOTAL FREE ENERGY PREDICTED BY IDOCK:   -8.27 KCAL/MOL
REMARK 923 INTER-LIGAND FREE ENERGY PREDICTED BY IDOCK:   -7.03 KCAL/MOL
REMARK 924 INTRA-LIGAND FREE ENERGY PREDICTED BY IDOCK:   -1.24 KCAL/MOL
REMARK 927      BINDING AFFINITY PREDICTED BY RF-SCORE:    0.00 PKD
ROOT
HETATM    1  C   UNL     1      -9.676  13.839  65.346  1.00  0.00    -0.042 C  
HETATM    2  S   UNL     1      -9.231  13.635  67.130  1.00  0.00    -0.252 SA 
HETATM    3  C   UNL     1     -10.827  12.800  67.566  1.00  0.00    -0.239 C  
HETATM    4  C   UNL     1     -10.597  11.803  68.706  1.00  0.00    -0.234 C  
HETATM    5  CA  UNL     1     -11.335  12.197  66.233  1.00  0.00    -0.357 C  
HETATM    6  C   UNL     1     -11.800  13.869  68.112  1.00  0.00    -0.407 C  
HETATM    7  N   UNL     1     -10.955  13.127  65.158  1.00  0.00    -0.291 N  
HETATM    8  C   UNL     1     -10.771  10.822  65.825  1.00  0.00    -0.070 C  
HETATM    9  OXT UNL     1     -10.529   9.893  66.578  1.00  0.00    -0.209 OA 
HETATM   10  O   UNL     1     -10.690  10.672  64.474  1.00  0.00    -0.236 OA 
HETATM   11  C   UNL     1     -11.680  14.269  64.947  1.00  0.00    -0.397 C  
HETATM   12  CA  UNL     1     -10.408  15.167  64.998  1.00  0.00    -0.344 C  
HETATM   13  O   UNL     1     -12.881  14.396  64.932  1.00  0.00    -0.645 OA 
ENDROOT
BRANCH  12  14
HETATM   14  N   UNL     1     -10.327  16.194  66.065  1.00  0.00    -0.341 N  
HETATM   15  C   UNL     1      -9.231  17.001  66.235  1.00  0.00    -0.247 C  
HETATM   16  H   UNL     1     -11.119  16.304  66.698  1.00  0.00     0.000 HD 
HETATM   17  O   UNL     1      -8.281  17.007  65.462  1.00  0.00    -0.208 OA 
BRANCH  15  18
HETATM   18  C   UNL     1      -9.290  17.857  67.412  1.00  0.00    -0.257 A  
HETATM   19  C   UNL     1     -10.122  18.952  67.540  1.00  0.00    -0.364 A  
HETATM   20  C   UNL     1     -11.145  19.595  66.690  1.00  0.00    -0.170 C  
HETATM   21  O   UNL     1      -9.942  19.511  68.761  1.00  0.00    -0.430 OA 
HETATM   22  N   UNL     1      -8.969  18.826  69.449  1.00  0.00     0.180 NA 
HETATM   23  C   UNL     1      -8.554  17.829  68.650  1.00  0.00    -0.262 A  
BRANCH  23  24
HETATM   24  C   UNL     1      -7.535  16.878  69.121  1.00  0.00    -0.180 A  
HETATM   25  C   UNL     1      -7.937  15.640  69.653  1.00  0.00    -0.080 A  
HETATM   26  C   UNL     1      -7.023  14.619  69.919  1.00  0.00    -0.099 A  
HETATM   27  F   UNL     1      -9.230  15.377  69.899  1.00  0.00    -0.263 F  
HETATM   28  C   UNL     1      -5.678  14.798  69.621  1.00  0.00    -0.099 A  
HETATM   29  C   UNL     1      -5.241  16.041  69.173  1.00  0.00    -0.109 A  
HETATM   30  C   UNL     1      -6.152  17.093  68.992  1.00  0.00    -0.185 A  
HETATM   31 CL   UNL     1      -5.458  18.648  68.677  1.00  0.00    -0.191 Cl 
ENDBRANCH  23  24
ENDBRANCH  15  18
ENDBRANCH  12  14
TORSDOF 3
ENDMDL
MODEL       48
REMARK 921   NORMALIZED FREE ENERGY PREDICTED BY IDOCK:   -5.85 KCAL/MOL
REMARK 922        TOTAL FREE ENERGY PREDICTED BY IDOCK:   -8.24 KCAL/MOL
REMARK 923 INTER-LIGAND FREE ENERGY PREDICTED BY IDOCK:   -6.91 KCAL/MOL
REMARK 924 INTRA-LIGAND FREE ENERGY PREDICTED BY IDOCK:   -1.33 KCAL/MOL
REMARK 927      BINDING AFFINITY PREDICTED BY RF-SCORE:    0.00 PKD
ROOT
HETATM    1  C   UNL     1      -9.440  14.392  68.870  1.00  0.00    -0.107 C  
HETATM    2  S   UNL     1      -8.050  14.622  67.671  1.00  0.00    -0.188 SA 
HETATM    3  C   UNL     1      -8.947  15.904  66.678  1.00  0.00    -0.268 C  
HETATM    4  C   UNL     1      -7.943  16.894  66.081  1.00  0.00    -0.290 C  
HETATM    5  CA  UNL     1      -9.988  16.504  67.655  1.00  0.00    -0.254 C  
HETATM    6  C   UNL     1      -9.630  15.201  65.483  1.00  0.00    -0.223 C  
HETATM    7  N   UNL     1     -10.450  15.413  68.528  1.00  0.00    -0.230 N  
HETATM    8  C   UNL     1      -9.504  17.625  68.595  1.00  0.00    -0.284 C  
HETATM    9  OXT UNL     1      -8.718  18.512  68.309  1.00  0.00    -0.294 OA 
HETATM   10  O   UNL     1     -10.162  17.625  69.787  1.00  0.00     0.051 OA 
HETATM   11  C   UNL     1     -11.366  14.504  68.069  1.00  0.00    -0.306 C  
HETATM   12  CA  UNL     1     -10.472  13.295  68.479  1.00  0.00    -0.250 C  
HETATM   13  O   UNL     1     -12.371  14.717  67.435  1.00  0.00    -0.193 OA 
ENDROOT
BRANCH  12  14
HETATM   14  N   UNL     1     -10.003  12.386  67.405  1.00  0.00    -0.201 N  
HETATM   15  C   UNL     1     -10.791  11.395  66.877  1.00  0.00    -0.285 C  
HETATM   16  H   UNL     1      -9.056  12.501  67.045  1.00  0.00     0.000 HD 
HETATM   17  O   UNL     1     -11.970  11.250  67.177  1.00  0.00    -0.470 OA 
BRANCH  15  18
HETATM   18  C   UNL     1     -10.112  10.529  65.923  1.00  0.00    -0.323 A  
HETATM   19  C   UNL     1      -9.950  10.819  64.583  1.00  0.00    -0.324 A  
HETATM   20  C   UNL     1     -10.318  11.948  63.704  1.00  0.00    -0.477 C  
HETATM   21  O   UNL     1      -9.259   9.817  63.988  1.00  0.00    -0.261 OA 
HETATM   22  N   UNL     1      -8.981   8.832  64.906  1.00  0.00    -0.085 NA 
HETATM   23  C   UNL     1      -9.495   9.236  66.079  1.00  0.00    -0.247 A  
BRANCH  23  24
HETATM   24  C   UNL     1      -9.324   8.412  67.286  1.00  0.00    -0.181 A  
HETATM   25  C   UNL     1     -10.241   7.381  67.557  1.00  0.00    -0.224 A  
HETATM   26  C   UNL     1     -10.017   6.438  68.561  1.00  0.00    -0.155 A  
HETATM   27  F   UNL     1     -11.362   7.243  66.833  1.00  0.00    -0.390 F  
HETATM   28  C   UNL     1      -8.842   6.480  69.301  1.00  0.00    -0.132 A  
HETATM   29  C   UNL     1      -7.956   7.537  69.111  1.00  0.00    -0.121 A  
HETATM   30  C   UNL     1      -8.230   8.532  68.161  1.00  0.00    -0.120 A  
HETATM   31 CL   UNL     1      -7.189   9.916  68.196  1.00  0.00    -0.078 Cl 
ENDBRANCH  23  24
ENDBRANCH  15  18
ENDBRANCH  12  14
TORSDOF 3
ENDMDL
MODEL       49
REMARK 921   NORMALIZED FREE ENERGY PREDICTED BY IDOCK:   -5.84 KCAL/MOL
REMARK 922        TOTAL FREE ENERGY PREDICTED BY IDOCK:   -8.23 KCAL/MOL
REMARK 923 INTER-LIGAND FREE ENERGY PREDICTED BY IDOCK:   -6.64 KCAL/MOL
REMARK 924 INTRA-LIGAND FREE ENERGY PREDICTED BY IDOCK:   -1.59 KCAL/MOL
REMARK 927      BINDING AFFINITY PREDICTED BY RF-SCORE:    0.00 PKD
ROOT
HETATM    1  C   UNL     1      -7.370  15.505  67.015  1.00  0.00    -0.137 C  
HETATM    2  S   UNL     1      -9.090  15.656  66.349  1.00  0.00    -0.343 SA 
HETATM    3  C   UNL     1      -9.818  16.147  67.981  1.00  0.00    -0.231 C  
HETATM    4  C   UNL     1     -11.010  17.081  67.758  1.00  0.00    -0.199 C  
HETATM    5  CA  UNL     1      -8.632  16.742  68.780  1.00  0.00    -0.255 C  
HETATM    6  C   UNL     1     -10.380  14.878  68.662  1.00  0.00    -0.237 C  
HETATM    7  N   UNL     1      -7.428  15.980  68.411  1.00  0.00    -0.138 N  
HETATM    8  C   UNL     1      -8.291  18.224  68.528  1.00  0.00    -0.310 C  
HETATM    9  OXT UNL     1      -9.093  19.124  68.340  1.00  0.00    -0.331 OA 
HETATM   10  O   UNL     1      -6.963  18.486  68.678  1.00  0.00    -0.254 OA 
HETATM   11  C   UNL     1      -7.203  14.743  68.952  1.00  0.00    -0.126 C  
HETATM   12  CA  UNL     1      -6.993  14.094  67.551  1.00  0.00    -0.152 C  
HETATM   13  O   UNL     1      -7.337  14.398  70.102  1.00  0.00     0.126 OA 
ENDROOT
BRANCH  12  14
HETATM   14  N   UNL     1      -7.932  13.024  67.135  1.00  0.00    -0.352 N  
HETATM   15  C   UNL     1      -7.773  11.714  67.509  1.00  0.00    -0.136 C  
HETATM   16  H   UNL     1      -8.728  13.272  66.548  1.00  0.00     0.000 HD 
HETATM   17  O   UNL     1      -6.907  11.344  68.292  1.00  0.00    -0.064 OA 
BRANCH  15  18
HETATM   18  C   UNL     1      -8.724  10.794  66.899  1.00  0.00    -0.141 A  
HETATM   19  C   UNL     1      -8.586  10.249  65.638  1.00  0.00    -0.161 A  
HETATM   20  C   UNL     1      -7.575  10.339  64.564  1.00  0.00    -0.095 C  
HETATM   21  O   UNL     1      -9.630   9.423  65.390  1.00  0.00    -0.273 OA 
HETATM   22  N   UNL     1     -10.495   9.429  66.458  1.00  0.00    -0.180 NA 
HETATM   23  C   UNL     1      -9.973  10.257  67.378  1.00  0.00    -0.189 A  
BRANCH  23  24
HETATM   24  C   UNL     1     -10.649  10.448  68.671  1.00  0.00    -0.234 A  
HETATM   25  C   UNL     1     -11.718  11.356  68.766  1.00  0.00    -0.339 A  
HETATM   26  C   UNL     1     -12.528  11.426  69.901  1.00  0.00    -0.190 A  
HETATM   27  F   UNL     1     -12.024  12.177  67.749  1.00  0.00    -0.390 F  
HETATM   28  C   UNL     1     -12.312  10.557  70.962  1.00  0.00    -0.503 A  
HETATM   29  C   UNL     1     -11.210   9.706  70.929  1.00  0.00    -0.422 A  
HETATM   30  C   UNL     1     -10.346   9.702  69.824  1.00  0.00    -0.241 A  
HETATM   31 CL   UNL     1      -8.885   8.792  70.009  1.00  0.00    -0.139 Cl 
ENDBRANCH  23  24
ENDBRANCH  15  18
ENDBRANCH  12  14
TORSDOF 3
ENDMDL
MODEL       50
REMARK 921   NORMALIZED FREE ENERGY PREDICTED BY IDOCK:   -5.84 KCAL/MOL
REMARK 922        TOTAL FREE ENERGY PREDICTED BY IDOCK:   -8.23 KCAL/MOL
REMARK 923 INTER-LIGAND FREE ENERGY PREDICTED BY IDOCK:   -7.00 KCAL/MOL
REMARK 924 INTRA-LIGAND FREE ENERGY PREDICTED BY IDOCK:   -1.23 KCAL/MOL
REMARK 927      BINDING AFFINITY PREDICTED BY RF-SCORE:    0.00 PKD
ROOT
HETATM    1  C   UNL     1      -8.997  14.504  67.080  1.00  0.00    -0.240 C  
HETATM    2  S   UNL     1      -9.761  13.472  65.748  1.00  0.00    -0.063 SA 
HETATM    3  C   UNL     1     -11.406  14.318  65.856  1.00  0.00    -0.328 C  
HETATM    4  C   UNL     1     -12.077  14.325  64.479  1.00  0.00    -0.499 C  
HETATM    5  CA  UNL     1     -11.096  15.709  66.463  1.00  0.00    -0.135 C  
HETATM    6  C   UNL     1     -12.320  13.485  66.783  1.00  0.00    -0.326 C  
HETATM    7  N   UNL     1      -9.998  15.531  67.427  1.00  0.00    -0.233 N  
HETATM    8  C   UNL     1     -10.634  16.811  65.491  1.00  0.00    -0.230 C  
HETATM    9  OXT UNL     1     -11.051  16.992  64.359  1.00  0.00    -1.144 OA 
HETATM   10  O   UNL     1      -9.779  17.696  66.075  1.00  0.00    -0.488 OA 
HETATM   11  C   UNL     1     -10.250  15.016  68.671  1.00  0.00    -0.231 C  
HETATM   12  CA  UNL     1      -9.141  13.931  68.520  1.00  0.00    -0.143 C  
HETATM   13  O   UNL     1     -11.157  15.289  69.419  1.00  0.00    -0.248 OA 
ENDROOT
BRANCH  12  14
HETATM   14  N   UNL     1      -9.555  12.508  68.561  1.00  0.00    -0.367 N  
HETATM   15  C   UNL     1      -8.661  11.482  68.732  1.00  0.00    -0.044 C  
HETATM   16  H   UNL     1     -10.544  12.283  68.457  1.00  0.00     0.000 HD 
HETATM   17  O   UNL     1      -7.472  11.665  68.965  1.00  0.00    -0.110 OA 
BRANCH  15  18
HETATM   18  C   UNL     1      -9.243  10.151  68.620  1.00  0.00    -0.157 A  
HETATM   19  C   UNL     1     -10.258   9.672  69.424  1.00  0.00    -0.209 A  
HETATM   20  C   UNL     1     -11.061  10.222  70.535  1.00  0.00    -0.381 C  
HETATM   21  O   UNL     1     -10.577   8.412  69.040  1.00  0.00    -0.218 OA 
HETATM   22  N   UNL     1      -9.761   8.018  68.006  1.00  0.00    -0.156 NA 
HETATM   23  C   UNL     1      -8.942   9.049  67.742  1.00  0.00    -0.127 A  
BRANCH  23  24
HETATM   24  C   UNL     1      -7.966   8.956  66.644  1.00  0.00    -0.103 A  
HETATM   25  C   UNL     1      -6.641   8.582  66.924  1.00  0.00    -0.058 A  
HETATM   26  C   UNL     1      -5.730   8.274  65.911  1.00  0.00    -0.040 A  
HETATM   27  F   UNL     1      -6.204   8.474  68.188  1.00  0.00    -0.047 F  
HETATM   28  C   UNL     1      -6.137   8.297  64.584  1.00  0.00    -0.060 A  
HETATM   29  C   UNL     1      -7.418   8.744  64.273  1.00  0.00    -0.108 A  
HETATM   30  C   UNL     1      -8.301   9.138  65.290  1.00  0.00    -0.146 A  
HETATM   31 CL   UNL     1      -9.761   9.907  64.767  1.00  0.00    -0.360 Cl 
ENDBRANCH  23  24
ENDBRANCH  15  18
ENDBRANCH  12  14
TORSDOF 3
ENDMDL
MODEL       51
REMARK 921   NORMALIZED FREE ENERGY PREDICTED BY IDOCK:   -5.83 KCAL/MOL
REMARK 922        TOTAL FREE ENERGY PREDICTED BY IDOCK:   -8.22 KCAL/MOL
REMARK 923 INTER-LIGAND FREE ENERGY PREDICTED BY IDOCK:   -8.12 KCAL/MOL
REMARK 924 INTRA-LIGAND FREE ENERGY PREDICTED BY IDOCK:   -0.10 KCAL/MOL
REMARK 927      BINDING AFFINITY PREDICTED BY RF-SCORE:    0.00 PKD
ROOT
HETATM    1  C   UNL     1     -10.424   7.580  71.244  1.00  0.00    -0.207 C  
HETATM    2  S   UNL     1     -10.620   7.478  69.407  1.00  0.00    -0.198 SA 
HETATM    3  C   UNL     1      -8.821   7.156  69.102  1.00  0.00    -0.135 C  
HETATM    4  C   UNL     1      -8.654   6.277  67.860  1.00  0.00    -0.115 C  
HETATM    5  CA  UNL     1      -8.296   6.557  70.430  1.00  0.00    -0.127 C  
HETATM    6  C   UNL     1      -8.135   8.503  68.778  1.00  0.00    -0.120 C  
HETATM    7  N   UNL     1      -9.021   7.218  71.527  1.00  0.00    -0.130 N  
HETATM    8  C   UNL     1      -8.492   5.043  70.643  1.00  0.00    -0.106 C  
HETATM    9  OXT UNL     1      -8.393   4.179  69.787  1.00  0.00    -0.061 OA 
HETATM   10  O   UNL     1      -8.658   4.718  71.955  1.00  0.00    -0.119 OA 
HETATM   11  C   UNL     1      -8.666   8.479  71.926  1.00  0.00    -0.203 C  
HETATM   12  CA  UNL     1     -10.127   9.005  71.795  1.00  0.00    -0.303 C  
HETATM   13  O   UNL     1      -7.555   8.918  72.102  1.00  0.00    -0.335 OA 
ENDROOT
BRANCH  12  14
HETATM   14  N   UNL     1     -10.387  10.092  70.821  1.00  0.00    -0.368 N  
HETATM   15  C   UNL     1     -11.602  10.718  70.716  1.00  0.00    -0.224 C  
HETATM   16  H   UNL     1      -9.630  10.385  70.202  1.00  0.00     0.000 HD 
HETATM   17  O   UNL     1     -12.532  10.501  71.484  1.00  0.00    -0.380 OA 
BRANCH  15  18
HETATM   18  C   UNL     1     -11.697  11.671  69.618  1.00  0.00    -0.418 A  
HETATM   19  C   UNL     1     -11.533  11.346  68.286  1.00  0.00    -0.299 A  
HETATM   20  C   UNL     1     -11.257  10.102  67.538  1.00  0.00    -0.123 C  
HETATM   21  O   UNL     1     -11.707  12.456  67.530  1.00  0.00    -0.352 OA 
HETATM   22  N   UNL     1     -11.953  13.539  68.339  1.00  0.00    -0.363 NA 
HETATM   23  C   UNL     1     -11.942  13.091  69.605  1.00  0.00    -0.302 A  
BRANCH  23  24
HETATM   24  C   UNL     1     -12.221  14.011  70.719  1.00  0.00    -0.438 A  
HETATM   25  C   UNL     1     -13.213  13.680  71.659  1.00  0.00    -0.367 A  
HETATM   26  C   UNL     1     -13.377  14.400  72.844  1.00  0.00    -0.575 A  
HETATM   27  F   UNL     1     -14.027  12.631  71.467  1.00  0.00    -0.048 F  
HETATM   28  C   UNL     1     -12.522  15.453  73.138  1.00  0.00    -0.572 A  
HETATM   29  C   UNL     1     -11.585  15.855  72.189  1.00  0.00    -0.515 A  
HETATM   30  C   UNL     1     -11.484  15.183  70.962  1.00  0.00    -0.330 A  
HETATM   31 CL   UNL     1     -10.466  15.928  69.775  1.00  0.00    -0.294 Cl 
ENDBRANCH  23  24
ENDBRANCH  15  18
ENDBRANCH  12  14
TORSDOF 3
ENDMDL
MODEL       52
REMARK 921   NORMALIZED FREE ENERGY PREDICTED BY IDOCK:   -5.81 KCAL/MOL
REMARK 922        TOTAL FREE ENERGY PREDICTED BY IDOCK:   -8.19 KCAL/MOL
REMARK 923 INTER-LIGAND FREE ENERGY PREDICTED BY IDOCK:   -7.84 KCAL/MOL
REMARK 924 INTRA-LIGAND FREE ENERGY PREDICTED BY IDOCK:   -0.35 KCAL/MOL
REMARK 927      BINDING AFFINITY PREDICTED BY RF-SCORE:    0.00 PKD
ROOT
HETATM    1  C   UNL     1     -11.461   7.689  70.208  1.00  0.00    -0.127 C  
HETATM    2  S   UNL     1     -10.915   6.377  69.023  1.00  0.00    -0.352 SA 
HETATM    3  C   UNL     1      -9.429   5.908  70.025  1.00  0.00    -0.159 C  
HETATM    4  C   UNL     1      -9.127   4.418  69.839  1.00  0.00    -0.173 C  
HETATM    5  CA  UNL     1      -9.769   6.353  71.469  1.00  0.00    -0.168 C  
HETATM    6  C   UNL     1      -8.208   6.673  69.468  1.00  0.00    -0.130 C  
HETATM    7  N   UNL     1     -10.558   7.592  71.371  1.00  0.00    -0.211 N  
HETATM    8  C   UNL     1     -10.605   5.382  72.324  1.00  0.00    -0.225 C  
HETATM    9  OXT UNL     1     -10.511   4.166  72.329  1.00  0.00    -0.158 OA 
HETATM   10  O   UNL     1     -11.403   6.029  73.218  1.00  0.00    -0.155 OA 
HETATM   11  C   UNL     1      -9.937   8.786  71.121  1.00  0.00    -0.248 C  
HETATM   12  CA  UNL     1     -10.887   9.108  69.929  1.00  0.00    -0.228 C  
HETATM   13  O   UNL     1      -8.920   9.213  71.613  1.00  0.00    -0.336 OA 
ENDROOT
BRANCH  12  14
HETATM   14  N   UNL     1     -10.283   9.257  68.583  1.00  0.00    -0.193 N  
HETATM   15  C   UNL     1     -10.847  10.026  67.599  1.00  0.00    -0.278 C  
HETATM   16  H   UNL     1      -9.411   8.766  68.381  1.00  0.00     0.000 HD 
HETATM   17  O   UNL     1     -11.834  10.728  67.784  1.00  0.00    -0.538 OA 
BRANCH  15  18
HETATM   18  C   UNL     1     -10.173   9.946  66.309  1.00  0.00    -0.282 A  
HETATM   19  C   UNL     1      -9.499   8.833  65.849  1.00  0.00    -0.208 A  
HETATM   20  C   UNL     1      -9.238   7.476  66.372  1.00  0.00    -0.212 C  
HETATM   21  O   UNL     1      -9.010   9.087  64.611  1.00  0.00    -0.174 OA 
HETATM   22  N   UNL     1      -9.316  10.375  64.242  1.00  0.00    -0.251 NA 
HETATM   23  C   UNL     1     -10.010  10.916  65.256  1.00  0.00    -0.273 A  
BRANCH  23  24
HETATM   24  C   UNL     1     -10.527  12.290  65.150  1.00  0.00    -0.320 A  
HETATM   25  C   UNL     1     -11.569  12.570  64.248  1.00  0.00    -0.371 A  
HETATM   26  C   UNL     1     -12.239  13.795  64.252  1.00  0.00    -0.444 A  
HETATM   27  F   UNL     1     -11.984  11.652  63.362  1.00  0.00    -0.535 F  
HETATM   28  C   UNL     1     -11.908  14.763  65.190  1.00  0.00    -0.313 A  
HETATM   29  C   UNL     1     -10.826  14.545  66.039  1.00  0.00    -0.310 A  
HETATM   30  C   UNL     1     -10.098  13.348  65.971  1.00  0.00    -0.304 A  
HETATM   31 CL   UNL     1      -8.634  13.300  66.894  1.00  0.00    -0.165 Cl 
ENDBRANCH  23  24
ENDBRANCH  15  18
ENDBRANCH  12  14
TORSDOF 3
ENDMDL
MODEL       53
REMARK 921   NORMALIZED FREE ENERGY PREDICTED BY IDOCK:   -5.79 KCAL/MOL
REMARK 922        TOTAL FREE ENERGY PREDICTED BY IDOCK:   -8.16 KCAL/MOL
REMARK 923 INTER-LIGAND FREE ENERGY PREDICTED BY IDOCK:   -8.14 KCAL/MOL
REMARK 924 INTRA-LIGAND FREE ENERGY PREDICTED BY IDOCK:   -0.03 KCAL/MOL
REMARK 927      BINDING AFFINITY PREDICTED BY RF-SCORE:    0.00 PKD
ROOT
HETATM    1  C   UNL     1      -9.800  17.979  68.140  1.00  0.00    -0.340 C  
HETATM    2  S   UNL     1      -8.363  17.075  68.876  1.00  0.00    -0.139 SA 
HETATM    3  C   UNL     1      -7.512  16.835  67.248  1.00  0.00    -0.171 C  
HETATM    4  C   UNL     1      -5.995  16.825  67.451  1.00  0.00    -0.190 C  
HETATM    5  CA  UNL     1      -8.065  17.964  66.342  1.00  0.00    -0.261 C  
HETATM    6  C   UNL     1      -7.889  15.438  66.705  1.00  0.00    -0.105 C  
HETATM    7  N   UNL     1      -9.474  18.172  66.713  1.00  0.00    -0.285 N  
HETATM    8  C   UNL     1      -7.389  19.344  66.450  1.00  0.00    -0.252 C  
HETATM    9  OXT UNL     1      -6.196  19.550  66.602  1.00  0.00    -0.173 OA 
HETATM   10  O   UNL     1      -8.254  20.369  66.212  1.00  0.00    -0.180 OA 
HETATM   11  C   UNL     1     -10.439  17.308  66.268  1.00  0.00    -0.268 C  
HETATM   12  CA  UNL     1     -10.992  17.078  67.707  1.00  0.00    -0.199 C  
HETATM   13  O   UNL     1     -10.570  16.846  65.160  1.00  0.00    -0.679 OA 
ENDROOT
BRANCH  12  14
HETATM   14  N   UNL     1     -10.936  15.703  68.258  1.00  0.00    -0.300 N  
HETATM   15  C   UNL     1     -11.728  14.685  67.791  1.00  0.00    -0.359 C  
HETATM   16  H   UNL     1     -10.282  15.506  69.016  1.00  0.00     0.000 HD 
HETATM   17  O   UNL     1     -12.466  14.806  66.821  1.00  0.00    -0.041 OA 
BRANCH  15  18
HETATM   18  C   UNL     1     -11.617  13.441  68.543  1.00  0.00    -0.368 A  
HETATM   19  C   UNL     1     -11.347  12.210  67.979  1.00  0.00    -0.295 A  
HETATM   20  C   UNL     1     -11.082  11.721  66.610  1.00  0.00    -0.364 C  
HETATM   21  O   UNL     1     -11.291  11.273  68.956  1.00  0.00    -0.227 OA 
HETATM   22  N   UNL     1     -11.556  11.852  70.174  1.00  0.00    -0.231 NA 
HETATM   23  C   UNL     1     -11.765  13.159  69.948  1.00  0.00    -0.257 A  
BRANCH  23  24
HETATM   24  C   UNL     1     -12.033  14.072  71.071  1.00  0.00    -0.313 A  
HETATM   25  C   UNL     1     -11.184  15.171  71.287  1.00  0.00    -0.275 A  
HETATM   26  C   UNL     1     -11.502  16.182  72.196  1.00  0.00    -0.292 A  
HETATM   27  F   UNL     1     -10.040  15.310  70.600  1.00  0.00    -0.228 F  
HETATM   28  C   UNL     1     -12.705  16.137  72.889  1.00  0.00    -0.509 A  
HETATM   29  C   UNL     1     -13.525  15.020  72.756  1.00  0.00    -0.574 A  
HETATM   30  C   UNL     1     -13.157  13.964  71.908  1.00  0.00    -0.385 A  
HETATM   31 CL   UNL     1     -14.124  12.532  72.020  1.00  0.00     0.123 Cl 
ENDBRANCH  23  24
ENDBRANCH  15  18
ENDBRANCH  12  14
TORSDOF 3
ENDMDL
MODEL       54
REMARK 921   NORMALIZED FREE ENERGY PREDICTED BY IDOCK:   -5.78 KCAL/MOL
REMARK 922        TOTAL FREE ENERGY PREDICTED BY IDOCK:   -8.16 KCAL/MOL
REMARK 923 INTER-LIGAND FREE ENERGY PREDICTED BY IDOCK:   -7.59 KCAL/MOL
REMARK 924 INTRA-LIGAND FREE ENERGY PREDICTED BY IDOCK:   -0.57 KCAL/MOL
REMARK 927      BINDING AFFINITY PREDICTED BY RF-SCORE:    0.00 PKD
ROOT
HETATM    1  C   UNL     1     -10.801   7.540  70.260  1.00  0.00    -0.246 C  
HETATM    2  S   UNL     1      -9.010   7.247  69.899  1.00  0.00    -0.141 SA 
HETATM    3  C   UNL     1      -8.425   8.551  71.078  1.00  0.00    -0.156 C  
HETATM    4  C   UNL     1      -7.066   8.152  71.661  1.00  0.00    -0.075 C  
HETATM    5  CA  UNL     1      -9.579   8.707  72.099  1.00  0.00    -0.307 C  
HETATM    6  C   UNL     1      -8.192   9.855  70.282  1.00  0.00    -0.102 C  
HETATM    7  N   UNL     1     -10.841   8.516  71.367  1.00  0.00    -0.244 N  
HETATM    8  C   UNL     1      -9.614   7.713  73.276  1.00  0.00    -0.268 C  
HETATM    9  OXT UNL     1      -8.647   7.281  73.881  1.00  0.00    -0.148 OA 
HETATM   10  O   UNL     1     -10.882   7.447  73.696  1.00  0.00    -0.346 OA 
HETATM   11  C   UNL     1     -11.352   9.526  70.597  1.00  0.00    -0.301 C  
HETATM   12  CA  UNL     1     -11.490   8.599  69.353  1.00  0.00     0.502 C  
HETATM   13  O   UNL     1     -11.432  10.700  70.869  1.00  0.00    -0.301 OA 
ENDROOT
BRANCH  12  14
HETATM   14  N   UNL     1     -10.712   8.948  68.140  1.00  0.00    -0.435 N  
HETATM   15  C   UNL     1     -11.003  10.039  67.361  1.00  0.00    -0.191 C  
HETATM   16  H   UNL     1      -9.928   8.352  67.873  1.00  0.00     0.000 HD 
HETATM   17  O   UNL     1     -11.859  10.862  67.661  1.00  0.00    -0.572 OA 
BRANCH  15  18
HETATM   18  C   UNL     1     -10.205  10.142  66.146  1.00  0.00    -0.285 A  
HETATM   19  C   UNL     1      -9.398   9.137  65.654  1.00  0.00    -0.235 A  
HETATM   20  C   UNL     1      -9.072   7.757  66.071  1.00  0.00    -0.169 C  
HETATM   21  O   UNL     1      -8.817   9.551  64.503  1.00  0.00    -0.196 OA 
HETATM   22  N   UNL     1      -9.196  10.844  64.228  1.00  0.00    -0.209 NA 
HETATM   23  C   UNL     1     -10.027  11.224  65.211  1.00  0.00    -0.253 A  
BRANCH  23  24
HETATM   24  C   UNL     1     -10.648  12.558  65.182  1.00  0.00    -0.322 A  
HETATM   25  C   UNL     1     -10.151  13.572  66.021  1.00  0.00    -0.310 A  
HETATM   26  C   UNL     1     -10.553  14.902  65.890  1.00  0.00    -0.334 A  
HETATM   27  F   UNL     1      -9.238  13.303  66.967  1.00  0.00    -0.203 F  
HETATM   28  C   UNL     1     -11.441  15.261  64.884  1.00  0.00    -0.343 A  
HETATM   29  C   UNL     1     -12.012  14.267  64.094  1.00  0.00    -0.401 A  
HETATM   30  C   UNL     1     -11.671  12.920  64.289  1.00  0.00    -0.386 A  
HETATM   31 CL   UNL     1     -12.629  11.766  63.424  1.00  0.00    -0.612 Cl 
ENDBRANCH  23  24
ENDBRANCH  15  18
ENDBRANCH  12  14
TORSDOF 3
ENDMDL
MODEL       55
REMARK 921   NORMALIZED FREE ENERGY PREDICTED BY IDOCK:   -5.76 KCAL/MOL
REMARK 922        TOTAL FREE ENERGY PREDICTED BY IDOCK:   -8.14 KCAL/MOL
REMARK 923 INTER-LIGAND FREE ENERGY PREDICTED BY IDOCK:   -6.90 KCAL/MOL
REMARK 924 INTRA-LIGAND FREE ENERGY PREDICTED BY IDOCK:   -1.24 KCAL/MOL
REMARK 927      BINDING AFFINITY PREDICTED BY RF-SCORE:    0.00 PKD
ROOT
HETATM    1  C   UNL     1      -9.157  14.122  68.187  1.00  0.00    -0.193 C  
HETATM    2  S   UNL     1      -8.834  15.024  66.604  1.00  0.00    -0.247 SA 
HETATM    3  C   UNL     1     -10.533  15.760  66.525  1.00  0.00    -0.303 C  
HETATM    4  C   UNL     1     -10.474  17.127  65.838  1.00  0.00    -0.265 C  
HETATM    5  CA  UNL     1     -11.032  15.760  67.991  1.00  0.00    -0.330 C  
HETATM    6  C   UNL     1     -11.410  14.858  65.627  1.00  0.00    -0.325 C  
HETATM    7  N   UNL     1     -10.495  14.552  68.637  1.00  0.00    -0.241 N  
HETATM    8  C   UNL     1     -10.602  16.944  68.878  1.00  0.00    -0.353 C  
HETATM    9  OXT UNL     1     -10.503  18.108  68.525  1.00  0.00    -0.348 OA 
HETATM   10  O   UNL     1     -10.466  16.592  70.187  1.00  0.00    -0.115 OA 
HETATM   11  C   UNL     1     -11.078  13.333  68.413  1.00  0.00    -0.270 C  
HETATM   12  CA  UNL     1      -9.719  12.681  68.019  1.00  0.00    -0.215 C  
HETATM   13  O   UNL     1     -12.255  13.065  68.389  1.00  0.00    -0.223 OA 
ENDROOT
BRANCH  12  14
HETATM   14  N   UNL     1      -9.583  12.139  66.645  1.00  0.00    -0.214 N  
HETATM   15  C   UNL     1     -10.050  10.901  66.288  1.00  0.00    -0.233 C  
HETATM   16  H   UNL     1      -9.123  12.712  65.937  1.00  0.00     0.000 HD 
HETATM   17  O   UNL     1     -10.702  10.190  67.043  1.00  0.00    -0.244 OA 
BRANCH  15  18
HETATM   18  C   UNL     1      -9.712  10.498  64.929  1.00  0.00    -0.360 A  
HETATM   19  C   UNL     1     -10.314  11.000  63.793  1.00  0.00    -0.364 A  
HETATM   20  C   UNL     1     -11.364  12.003  63.520  1.00  0.00    -0.528 C  
HETATM   21  O   UNL     1      -9.752  10.431  62.699  1.00  0.00    -0.298 OA 
HETATM   22  N   UNL     1      -8.797   9.520  63.085  1.00  0.00    -0.236 NA 
HETATM   23  C   UNL     1      -8.762   9.537  64.428  1.00  0.00    -0.208 A  
BRANCH  23  24
HETATM   24  C   UNL     1      -7.800   8.693  65.154  1.00  0.00    -0.110 A  
HETATM   25  C   UNL     1      -8.269   7.620  65.932  1.00  0.00    -0.133 A  
HETATM   26  C   UNL     1      -7.405   6.664  66.469  1.00  0.00    -0.074 A  
HETATM   27  F   UNL     1      -9.580   7.453  66.164  1.00  0.00    -0.213 F  
HETATM   28  C   UNL     1      -6.043   6.737  66.208  1.00  0.00    -0.034 A  
HETATM   29  C   UNL     1      -5.542   7.834  65.512  1.00  0.00    -0.037 A  
HETATM   30  C   UNL     1      -6.405   8.838  65.050  1.00  0.00    -0.064 A  
HETATM   31 CL   UNL     1      -5.643  10.262  64.427  1.00  0.00    -0.119 Cl 
ENDBRANCH  23  24
ENDBRANCH  15  18
ENDBRANCH  12  14
TORSDOF 3
ENDMDL
MODEL       56
REMARK 921   NORMALIZED FREE ENERGY PREDICTED BY IDOCK:   -5.76 KCAL/MOL
REMARK 922        TOTAL FREE ENERGY PREDICTED BY IDOCK:   -8.14 KCAL/MOL
REMARK 923 INTER-LIGAND FREE ENERGY PREDICTED BY IDOCK:   -6.80 KCAL/MOL
REMARK 924 INTRA-LIGAND FREE ENERGY PREDICTED BY IDOCK:   -1.34 KCAL/MOL
REMARK 927      BINDING AFFINITY PREDICTED BY RF-SCORE:    0.00 PKD
ROOT
HETATM    1  C   UNL     1      -8.600   7.751  69.471  1.00  0.00    -0.135 C  
HETATM    2  S   UNL     1      -8.962   9.008  70.779  1.00  0.00    -0.250 SA 
HETATM    3  C   UNL     1     -10.799   8.883  70.574  1.00  0.00    -0.236 C  
HETATM    4  C   UNL     1     -11.490   9.150  71.914  1.00  0.00    -0.423 C  
HETATM    5  CA  UNL     1     -11.034   7.480  69.961  1.00  0.00    -0.240 C  
HETATM    6  C   UNL     1     -11.258  10.005  69.615  1.00  0.00    -0.285 C  
HETATM    7  N   UNL     1      -9.906   7.203  69.057  1.00  0.00    -0.154 N  
HETATM    8  C   UNL     1     -11.099   6.290  70.937  1.00  0.00    -0.306 C  
HETATM    9  OXT UNL     1     -11.612   6.295  72.043  1.00  0.00    -0.297 OA 
HETATM   10  O   UNL     1     -10.635   5.135  70.383  1.00  0.00    -0.249 OA 
HETATM   11  C   UNL     1      -9.867   7.769  67.810  1.00  0.00    -0.161 C  
HETATM   12  CA  UNL     1      -8.429   8.326  68.035  1.00  0.00    -0.132 C  
HETATM   13  O   UNL     1     -10.767   7.873  67.012  1.00  0.00    -0.339 OA 
ENDROOT
BRANCH  12  14
HETATM   14  N   UNL     1      -8.242   9.796  67.995  1.00  0.00    -0.109 N  
HETATM   15  C   UNL     1      -8.155  10.500  66.822  1.00  0.00    -0.123 C  
HETATM   16  H   UNL     1      -8.175  10.305  68.877  1.00  0.00     0.000 HD 
HETATM   17  O   UNL     1      -8.326   9.988  65.722  1.00  0.00    -0.124 OA 
BRANCH  15  18
HETATM   18  C   UNL     1      -7.847  11.915  66.989  1.00  0.00    -0.152 A  
HETATM   19  C   UNL     1      -6.600  12.409  67.312  1.00  0.00    -0.136 A  
HETATM   20  C   UNL     1      -5.270  11.815  67.562  1.00  0.00    -0.074 C  
HETATM   21  O   UNL     1      -6.655  13.762  67.367  1.00  0.00    -0.257 OA 
HETATM   22  N   UNL     1      -7.938  14.188  67.120  1.00  0.00    -0.137 NA 
HETATM   23  C   UNL     1      -8.678  13.089  66.898  1.00  0.00    -0.152 A  
BRANCH  23  24
HETATM   24  C   UNL     1     -10.104  13.213  66.557  1.00  0.00    -0.280 A  
HETATM   25  C   UNL     1     -11.015  13.642  67.537  1.00  0.00    -0.268 A  
HETATM   26  C   UNL     1     -12.333  13.979  67.223  1.00  0.00    -0.195 A  
HETATM   27  F   UNL     1     -10.643  13.777  68.819  1.00  0.00    -0.235 F  
HETATM   28  C   UNL     1     -12.765  13.931  65.904  1.00  0.00    -0.466 A  
HETATM   29  C   UNL     1     -11.909  13.430  64.927  1.00  0.00    -0.403 A  
HETATM   30  C   UNL     1     -10.614  13.009  65.263  1.00  0.00    -0.304 A  
HETATM   31 CL   UNL     1      -9.743  12.177  64.019  1.00  0.00    -0.174 Cl 
ENDBRANCH  23  24
ENDBRANCH  15  18
ENDBRANCH  12  14
TORSDOF 3
ENDMDL
MODEL       57
REMARK 921   NORMALIZED FREE ENERGY PREDICTED BY IDOCK:   -5.72 KCAL/MOL
REMARK 922        TOTAL FREE ENERGY PREDICTED BY IDOCK:   -8.09 KCAL/MOL
REMARK 923 INTER-LIGAND FREE ENERGY PREDICTED BY IDOCK:   -6.74 KCAL/MOL
REMARK 924 INTRA-LIGAND FREE ENERGY PREDICTED BY IDOCK:   -1.35 KCAL/MOL
REMARK 927      BINDING AFFINITY PREDICTED BY RF-SCORE:    0.00 PKD
ROOT
HETATM    1  C   UNL     1     -11.411  10.727  67.424  1.00  0.00    -0.160 C  
HETATM    2  S   UNL     1     -11.365  12.017  68.749  1.00  0.00    -0.304 SA 
HETATM    3  C   UNL     1     -10.430  13.235  67.711  1.00  0.00    -0.239 C  
HETATM    4  C   UNL     1     -10.827  14.662  68.101  1.00  0.00    -0.256 C  
HETATM    5  CA  UNL     1     -10.734  12.825  66.249  1.00  0.00    -0.270 C  
HETATM    6  C   UNL     1      -8.926  13.096  68.038  1.00  0.00    -0.195 C  
HETATM    7  N   UNL     1     -10.837  11.357  66.218  1.00  0.00    -0.276 N  
HETATM    8  C   UNL     1     -12.041  13.356  65.629  1.00  0.00    -0.434 C  
HETATM    9  OXT UNL     1     -12.521  14.464  65.805  1.00  0.00    -0.396 OA 
HETATM   10  O   UNL     1     -12.571  12.497  64.715  1.00  0.00    -0.508 OA 
HETATM   11  C   UNL     1      -9.706  10.586  66.226  1.00  0.00    -0.205 C  
HETATM   12  CA  UNL     1     -10.212   9.735  67.429  1.00  0.00    -0.230 C  
HETATM   13  O   UNL     1      -8.692  10.748  65.590  1.00  0.00    -0.182 OA 
ENDROOT
BRANCH  12  14
HETATM   14  N   UNL     1      -9.416   9.763  68.680  1.00  0.00    -0.148 N  
HETATM   15  C   UNL     1      -8.263   9.038  68.840  1.00  0.00    -0.120 C  
HETATM   16  H   UNL     1      -9.739  10.345  69.453  1.00  0.00     0.000 HD 
HETATM   17  O   UNL     1      -7.749   8.394  67.933  1.00  0.00    -0.100 OA 
BRANCH  15  18
HETATM   18  C   UNL     1      -7.693   9.099  70.180  1.00  0.00    -0.105 A  
HETATM   19  C   UNL     1      -6.712   9.987  70.571  1.00  0.00    -0.115 A  
HETATM   20  C   UNL     1      -5.965  11.079  69.913  1.00  0.00    -0.099 C  
HETATM   21  O   UNL     1      -6.426   9.790  71.880  1.00  0.00    -0.288 OA 
HETATM   22  N   UNL     1      -7.180   8.752  72.373  1.00  0.00    -0.325 NA 
HETATM   23  C   UNL     1      -7.947   8.313  71.361  1.00  0.00    -0.119 A  
BRANCH  23  24
HETATM   24  C   UNL     1      -8.910   7.222  71.580  1.00  0.00    -0.123 A  
HETATM   25  C   UNL     1      -8.507   5.891  71.375  1.00  0.00    -0.128 A  
HETATM   26  C   UNL     1      -9.301   4.811  71.766  1.00  0.00    -0.186 A  
HETATM   27  F   UNL     1      -7.320   5.603  70.821  1.00  0.00    -0.072 F  
HETATM   28  C   UNL     1     -10.510   5.038  72.410  1.00  0.00    -0.275 A  
HETATM   29  C   UNL     1     -10.971   6.343  72.551  1.00  0.00    -0.283 A  
HETATM   30  C   UNL     1     -10.210   7.422  72.076  1.00  0.00    -0.191 A  
HETATM   31 CL   UNL     1     -10.998   8.964  72.081  1.00  0.00    -0.412 Cl 
ENDBRANCH  23  24
ENDBRANCH  15  18
ENDBRANCH  12  14
TORSDOF 3
ENDMDL
MODEL       58
REMARK 921   NORMALIZED FREE ENERGY PREDICTED BY IDOCK:   -5.70 KCAL/MOL
REMARK 922        TOTAL FREE ENERGY PREDICTED BY IDOCK:   -8.06 KCAL/MOL
REMARK 923 INTER-LIGAND FREE ENERGY PREDICTED BY IDOCK:   -6.88 KCAL/MOL
REMARK 924 INTRA-LIGAND FREE ENERGY PREDICTED BY IDOCK:   -1.18 KCAL/MOL
REMARK 927      BINDING AFFINITY PREDICTED BY RF-SCORE:    0.00 PKD
ROOT
HETATM    1  C   UNL     1      -9.840  11.048  68.586  1.00  0.00    -0.193 C  
HETATM    2  S   UNL     1     -10.532  10.544  66.946  1.00  0.00    -0.236 SA 
HETATM    3  C   UNL     1      -8.924   9.855  66.333  1.00  0.00    -0.147 C  
HETATM    4  C   UNL     1      -9.189   8.689  65.378  1.00  0.00    -0.103 C  
HETATM    5  CA  UNL     1      -8.127   9.511  67.616  1.00  0.00    -0.110 C  
HETATM    6  C   UNL     1      -8.215  10.948  65.501  1.00  0.00    -0.052 C  
HETATM    7  N   UNL     1      -8.459  10.530  68.625  1.00  0.00    -0.130 N  
HETATM    8  C   UNL     1      -8.416   8.149  68.276  1.00  0.00    -0.130 C  
HETATM    9  OXT UNL     1      -8.640   7.101  67.694  1.00  0.00    -0.122 OA 
HETATM   10  O   UNL     1      -8.256   8.182  69.629  1.00  0.00    -0.116 OA 
HETATM   11  C   UNL     1      -7.880  11.770  68.568  1.00  0.00    -0.144 C  
HETATM   12  CA  UNL     1      -9.260  12.491  68.639  1.00  0.00     0.030 C  
HETATM   13  O   UNL     1      -6.723  12.042  68.354  1.00  0.00    -0.057 OA 
ENDROOT
BRANCH  12  14
HETATM   14  N   UNL     1      -9.657  13.341  67.491  1.00  0.00    -0.212 N  
HETATM   15  C   UNL     1     -10.431  14.463  67.633  1.00  0.00    -0.245 C  
HETATM   16  H   UNL     1      -9.341  13.079  66.557  1.00  0.00     0.000 HD 
HETATM   17  O   UNL     1     -10.769  14.907  68.724  1.00  0.00    -0.236 OA 
BRANCH  15  18
HETATM   18  C   UNL     1     -10.818  15.092  66.377  1.00  0.00    -0.326 A  
HETATM   19  C   UNL     1     -11.770  14.589  65.512  1.00  0.00    -0.343 A  
HETATM   20  C   UNL     1     -12.661  13.410  65.507  1.00  0.00    -0.520 C  
HETATM   21  O   UNL     1     -11.901  15.426  64.455  1.00  0.00    -0.402 OA 
HETATM   22  N   UNL     1     -11.021  16.474  64.577  1.00  0.00    -0.845 NA 
HETATM   23  C   UNL     1     -10.350  16.289  65.725  1.00  0.00    -0.374 A  
BRANCH  23  24
HETATM   24  C   UNL     1      -9.353  17.277  66.168  1.00  0.00    -0.196 A  
HETATM   25  C   UNL     1      -8.011  16.886  66.318  1.00  0.00    -0.315 A  
HETATM   26  C   UNL     1      -6.991  17.816  66.529  1.00  0.00    -0.265 A  
HETATM   27  F   UNL     1      -7.650  15.597  66.232  1.00  0.00    -0.128 F  
HETATM   28  C   UNL     1      -7.285  19.173  66.557  1.00  0.00    -0.239 A  
HETATM   29  C   UNL     1      -8.614  19.581  66.494  1.00  0.00    -0.374 A  
HETATM   30  C   UNL     1      -9.644  18.637  66.372  1.00  0.00    -0.325 A  
HETATM   31 CL   UNL     1     -11.254  19.246  66.559  1.00  0.00    -0.027 Cl 
ENDBRANCH  23  24
ENDBRANCH  15  18
ENDBRANCH  12  14
TORSDOF 3
ENDMDL
MODEL       59
REMARK 921   NORMALIZED FREE ENERGY PREDICTED BY IDOCK:   -5.68 KCAL/MOL
REMARK 922        TOTAL FREE ENERGY PREDICTED BY IDOCK:   -8.04 KCAL/MOL
REMARK 923 INTER-LIGAND FREE ENERGY PREDICTED BY IDOCK:   -6.90 KCAL/MOL
REMARK 924 INTRA-LIGAND FREE ENERGY PREDICTED BY IDOCK:   -1.13 KCAL/MOL
REMARK 927      BINDING AFFINITY PREDICTED BY RF-SCORE:    0.00 PKD
ROOT
HETATM    1  C   UNL     1      -9.186  13.253  67.434  1.00  0.00    -0.216 C  
HETATM    2  S   UNL     1      -9.491  13.702  69.203  1.00  0.00     0.561 SA 
HETATM    3  C   UNL     1     -11.310  13.959  68.960  1.00  0.00    -0.283 C  
HETATM    4  C   UNL     1     -12.061  13.599  70.244  1.00  0.00    -0.427 C  
HETATM    5  CA  UNL     1     -11.665  13.117  67.710  1.00  0.00    -0.358 C  
HETATM    6  C   UNL     1     -11.557  15.466  68.718  1.00  0.00    -0.382 C  
HETATM    7  N   UNL     1     -10.515  13.185  66.794  1.00  0.00    -0.259 N  
HETATM    8  C   UNL     1     -11.945  11.618  67.930  1.00  0.00    -0.089 C  
HETATM    9  OXT UNL     1     -12.535  11.130  68.879  1.00  0.00    -0.460 OA 
HETATM   10  O   UNL     1     -11.583  10.858  66.860  1.00  0.00    -0.327 OA 
HETATM   11  C   UNL     1     -10.315  14.297  66.020  1.00  0.00    -0.309 C  
HETATM   12  CA  UNL     1      -8.841  14.451  66.502  1.00  0.00    -0.089 C  
HETATM   13  O   UNL     1     -11.134  14.921  65.389  1.00  0.00    -0.333 OA 
ENDROOT
BRANCH  12  14
HETATM   14  N   UNL     1      -8.476  15.691  67.228  1.00  0.00    -0.177 N  
HETATM   15  C   UNL     1      -7.179  16.022  67.524  1.00  0.00    -0.169 C  
HETATM   16  H   UNL     1      -9.221  16.324  67.520  1.00  0.00     0.000 HD 
HETATM   17  O   UNL     1      -6.218  15.375  67.125  1.00  0.00    -0.307 OA 
BRANCH  15  18
HETATM   18  C   UNL     1      -7.033  17.213  68.350  1.00  0.00    -0.195 A  
HETATM   19  C   UNL     1      -6.160  17.324  69.414  1.00  0.00    -0.236 A  
HETATM   20  C   UNL     1      -5.161  16.437  70.045  1.00  0.00    -0.153 C  
HETATM   21  O   UNL     1      -6.261  18.564  69.949  1.00  0.00    -0.238 OA 
HETATM   22  N   UNL     1      -7.221  19.285  69.280  1.00  0.00    -0.316 NA 
HETATM   23  C   UNL     1      -7.707  18.486  68.316  1.00  0.00    -0.293 A  
BRANCH  23  24
HETATM   24  C   UNL     1      -8.732  18.987  67.386  1.00  0.00    -0.301 A  
HETATM   25  C   UNL     1     -10.087  18.940  67.759  1.00  0.00    -0.369 A  
HETATM   26  C   UNL     1     -11.079  19.586  67.018  1.00  0.00    -0.278 A  
HETATM   27  F   UNL     1     -10.480  18.295  68.868  1.00  0.00    -0.356 F  
HETATM   28  C   UNL     1     -10.733  20.331  65.899  1.00  0.00    -0.144 A  
HETATM   29  C   UNL     1      -9.412  20.326  65.460  1.00  0.00     0.235 A  
HETATM   30  C   UNL     1      -8.434  19.602  66.158  1.00  0.00    -0.334 A  
HETATM   31 CL   UNL     1      -6.894  19.467  65.378  1.00  0.00    -0.302 Cl 
ENDBRANCH  23  24
ENDBRANCH  15  18
ENDBRANCH  12  14
TORSDOF 3
ENDMDL
MODEL       60
REMARK 921   NORMALIZED FREE ENERGY PREDICTED BY IDOCK:   -5.67 KCAL/MOL
REMARK 922        TOTAL FREE ENERGY PREDICTED BY IDOCK:   -8.03 KCAL/MOL
REMARK 923 INTER-LIGAND FREE ENERGY PREDICTED BY IDOCK:   -6.96 KCAL/MOL
REMARK 924 INTRA-LIGAND FREE ENERGY PREDICTED BY IDOCK:   -1.07 KCAL/MOL
REMARK 927      BINDING AFFINITY PREDICTED BY RF-SCORE:    0.00 PKD
ROOT
HETATM    1  C   UNL     1     -10.395  13.338  67.231  1.00  0.00    -0.247 C  
HETATM    2  S   UNL     1      -9.300  12.720  65.874  1.00  0.00     0.117 SA 
HETATM    3  C   UNL     1     -10.586  11.582  65.178  1.00  0.00    -0.293 C  
HETATM    4  C   UNL     1     -10.399  11.453  63.663  1.00  0.00    -0.463 C  
HETATM    5  CA  UNL     1     -11.937  12.179  65.644  1.00  0.00    -0.208 C  
HETATM    6  C   UNL     1     -10.356  10.172  65.767  1.00  0.00    -0.216 C  
HETATM    7  N   UNL     1     -11.725  12.748  66.985  1.00  0.00    -0.362 N  
HETATM    8  C   UNL     1     -12.533  13.315  64.790  1.00  0.00    -0.383 C  
HETATM    9  OXT UNL     1     -12.500  13.392  63.573  1.00  0.00    -0.738 OA 
HETATM   10  O   UNL     1     -13.256  14.200  65.531  1.00  0.00    -0.688 OA 
HETATM   11  C   UNL     1     -11.681  11.928  68.081  1.00  0.00    -0.320 C  
HETATM   12  CA  UNL     1     -10.322  12.526  68.556  1.00  0.00    -0.222 C  
HETATM   13  O   UNL     1     -12.408  11.002  68.348  1.00  0.00    -0.528 OA 
ENDROOT
BRANCH  12  14
HETATM   14  N   UNL     1      -9.156  11.615  68.638  1.00  0.00    -0.336 N  
HETATM   15  C   UNL     1      -9.110  10.547  69.497  1.00  0.00    -0.040 C  
HETATM   16  H   UNL     1      -8.355  11.790  68.031  1.00  0.00     0.000 HD 
HETATM   17  O   UNL     1     -10.062  10.204  70.186  1.00  0.00    -0.246 OA 
BRANCH  15  18
HETATM   18  C   UNL     1      -7.832   9.846  69.520  1.00  0.00    -0.140 A  
HETATM   19  C   UNL     1      -6.607  10.463  69.676  1.00  0.00    -0.085 A  
HETATM   20  C   UNL     1      -6.152  11.855  69.871  1.00  0.00    -0.153 C  
HETATM   21  O   UNL     1      -5.630   9.524  69.674  1.00  0.00    -0.033 OA 
HETATM   22  N   UNL     1      -6.179   8.279  69.483  1.00  0.00    -0.033 NA 
HETATM   23  C   UNL     1      -7.507   8.450  69.378  1.00  0.00    -0.089 A  
BRANCH  23  24
HETATM   24  C   UNL     1      -8.393   7.287  69.209  1.00  0.00    -0.132 A  
HETATM   25  C   UNL     1      -8.621   6.771  67.921  1.00  0.00    -0.122 A  
HETATM   26  C   UNL     1      -9.275   5.554  67.718  1.00  0.00    -0.110 A  
HETATM   27  F   UNL     1      -8.188   7.418  66.829  1.00  0.00    -0.111 F  
HETATM   28  C   UNL     1      -9.686   4.799  68.808  1.00  0.00    -0.235 A  
HETATM   29  C   UNL     1      -9.548   5.323  70.090  1.00  0.00    -0.241 A  
HETATM   30  C   UNL     1      -8.970   6.587  70.284  1.00  0.00    -0.155 A  
HETATM   31 CL   UNL     1      -9.084   7.233  71.886  1.00  0.00    -0.143 Cl 
ENDBRANCH  23  24
ENDBRANCH  15  18
ENDBRANCH  12  14
TORSDOF 3
ENDMDL
MODEL       61
REMARK 921   NORMALIZED FREE ENERGY PREDICTED BY IDOCK:   -5.65 KCAL/MOL
REMARK 922        TOTAL FREE ENERGY PREDICTED BY IDOCK:   -8.01 KCAL/MOL
REMARK 923 INTER-LIGAND FREE ENERGY PREDICTED BY IDOCK:   -7.47 KCAL/MOL
REMARK 924 INTRA-LIGAND FREE ENERGY PREDICTED BY IDOCK:   -0.54 KCAL/MOL
REMARK 927      BINDING AFFINITY PREDICTED BY RF-SCORE:    0.00 PKD
ROOT
HETATM    1  C   UNL     1      -7.618  16.790  66.310  1.00  0.00    -0.240 C  
HETATM    2  S   UNL     1      -9.342  17.349  65.937  1.00  0.00     0.152 SA 
HETATM    3  C   UNL     1      -9.565  18.184  67.576  1.00  0.00    -0.280 C  
HETATM    4  C   UNL     1     -10.498  19.388  67.422  1.00  0.00    -0.581 C  
HETATM    5  CA  UNL     1      -8.127  18.500  68.057  1.00  0.00    -0.271 C  
HETATM    6  C   UNL     1     -10.278  17.198  68.529  1.00  0.00    -0.346 C  
HETATM    7  N   UNL     1      -7.262  17.399  67.606  1.00  0.00    -0.162 N  
HETATM    8  C   UNL     1      -7.479  19.794  67.528  1.00  0.00    -0.271 C  
HETATM    9  OXT UNL     1      -8.046  20.859  67.346  1.00  0.00    -0.279 OA 
HETATM   10  O   UNL     1      -6.127  19.687  67.404  1.00  0.00    -0.188 OA 
HETATM   11  C   UNL     1      -7.253  16.208  68.282  1.00  0.00    -0.135 C  
HETATM   12  CA  UNL     1      -7.511  15.390  66.981  1.00  0.00    -0.131 C  
HETATM   13  O   UNL     1      -7.229  16.031  69.477  1.00  0.00    -0.215 OA 
ENDROOT
BRANCH  12  14
HETATM   14  N   UNL     1      -8.757  14.590  66.903  1.00  0.00    -0.303 N  
HETATM   15  C   UNL     1      -8.904  13.384  67.538  1.00  0.00    -0.210 C  
HETATM   16  H   UNL     1      -9.537  14.951  66.352  1.00  0.00     0.000 HD 
HETATM   17  O   UNL     1      -8.061  12.924  68.299  1.00  0.00    -0.143 OA 
BRANCH  15  18
HETATM   18  C   UNL     1     -10.152  12.693  67.239  1.00  0.00    -0.215 A  
HETATM   19  C   UNL     1     -11.094  13.139  66.334  1.00  0.00    -0.289 A  
HETATM   20  C   UNL     1     -11.207  14.299  65.426  1.00  0.00    -0.329 C  
HETATM   21  O   UNL     1     -12.118  12.253  66.281  1.00  0.00    -0.626 OA 
HETATM   22  N   UNL     1     -11.896  11.228  67.169  1.00  0.00    -0.452 NA 
HETATM   23  C   UNL     1     -10.719  11.477  67.766  1.00  0.00    -0.207 A  
BRANCH  23  24
HETATM   24  C   UNL     1     -10.172  10.529  68.749  1.00  0.00    -0.205 A  
HETATM   25  C   UNL     1     -10.721  10.479  70.042  1.00  0.00    -0.224 A  
HETATM   26  C   UNL     1     -10.392   9.467  70.946  1.00  0.00    -0.380 A  
HETATM   27  F   UNL     1     -11.615  11.392  70.452  1.00  0.00    -0.372 F  
HETATM   28  C   UNL     1      -9.527   8.450  70.563  1.00  0.00    -0.186 A  
HETATM   29  C   UNL     1      -8.905   8.520  69.319  1.00  0.00    -0.142 A  
HETATM   30  C   UNL     1      -9.171   9.588  68.449  1.00  0.00    -0.130 A  
HETATM   31 CL   UNL     1      -8.154   9.696  67.052  1.00  0.00    -0.112 Cl 
ENDBRANCH  23  24
ENDBRANCH  15  18
ENDBRANCH  12  14
TORSDOF 3
ENDMDL
MODEL       62
REMARK 921   NORMALIZED FREE ENERGY PREDICTED BY IDOCK:   -5.63 KCAL/MOL
REMARK 922        TOTAL FREE ENERGY PREDICTED BY IDOCK:   -7.98 KCAL/MOL
REMARK 923 INTER-LIGAND FREE ENERGY PREDICTED BY IDOCK:   -6.94 KCAL/MOL
REMARK 924 INTRA-LIGAND FREE ENERGY PREDICTED BY IDOCK:   -1.04 KCAL/MOL
REMARK 927      BINDING AFFINITY PREDICTED BY RF-SCORE:    0.00 PKD
ROOT
HETATM    1  C   UNL     1     -10.539   8.521  69.286  1.00  0.00    -0.181 C  
HETATM    2  S   UNL     1      -9.491   9.122  67.885  1.00  0.00    -0.142 SA 
HETATM    3  C   UNL     1      -7.898   8.864  68.795  1.00  0.00    -0.101 C  
HETATM    4  C   UNL     1      -6.786   8.508  67.804  1.00  0.00    -0.066 C  
HETATM    5  CA  UNL     1      -8.221   7.790  69.862  1.00  0.00    -0.125 C  
HETATM    6  C   UNL     1      -7.489  10.205  69.445  1.00  0.00    -0.119 C  
HETATM    7  N   UNL     1      -9.603   8.022  70.313  1.00  0.00    -0.171 N  
HETATM    8  C   UNL     1      -8.161   6.317  69.416  1.00  0.00    -0.114 C  
HETATM    9  OXT UNL     1      -7.349   5.832  68.645  1.00  0.00    -0.080 OA 
HETATM   10  O   UNL     1      -9.046   5.531  70.090  1.00  0.00    -0.132 OA 
HETATM   11  C   UNL     1      -9.879   9.026  71.202  1.00  0.00    -0.300 C  
HETATM   12  CA  UNL     1     -10.991   9.622  70.289  1.00  0.00    -0.285 C  
HETATM   13  O   UNL     1      -9.270   9.321  72.203  1.00  0.00    -0.185 OA 
ENDROOT
BRANCH  12  14
HETATM   14  N   UNL     1     -10.806  11.005  69.785  1.00  0.00    -0.442 N  
HETATM   15  C   UNL     1     -11.764  11.661  69.056  1.00  0.00    -0.324 C  
HETATM   16  H   UNL     1      -9.931  11.487  69.990  1.00  0.00     0.000 HD 
HETATM   17  O   UNL     1     -12.880  11.199  68.851  1.00  0.00     0.003 OA 
BRANCH  15  18
HETATM   18  C   UNL     1     -11.348  12.961  68.546  1.00  0.00    -0.324 A  
HETATM   19  C   UNL     1     -11.235  14.102  69.315  1.00  0.00    -0.269 A  
HETATM   20  C   UNL     1     -11.436  14.426  70.743  1.00  0.00    -0.140 C  
HETATM   21  O   UNL     1     -10.807  15.126  68.539  1.00  0.00    -0.234 OA 
HETATM   22  N   UNL     1     -10.661  14.698  67.240  1.00  0.00    -0.285 NA 
HETATM   23  C   UNL     1     -10.992  13.396  67.219  1.00  0.00    -0.272 A  
BRANCH  23  24
HETATM   24  C   UNL     1     -10.897  12.628  65.968  1.00  0.00    -0.306 A  
HETATM   25  C   UNL     1     -12.010  12.557  65.113  1.00  0.00    -0.434 A  
HETATM   26  C   UNL     1     -11.919  12.026  63.824  1.00  0.00    -0.588 A  
HETATM   27  F   UNL     1     -13.207  13.029  65.492  1.00  0.00    -0.344 F  
HETATM   28  C   UNL     1     -10.694  11.586  63.342  1.00  0.00    -0.444 A  
HETATM   29  C   UNL     1      -9.594  11.567  64.195  1.00  0.00    -0.178 A  
HETATM   30  C   UNL     1      -9.712  12.019  65.518  1.00  0.00    -0.202 A  
HETATM   31 CL   UNL     1      -8.352  11.713  66.545  1.00  0.00    -0.155 Cl 
ENDBRANCH  23  24
ENDBRANCH  15  18
ENDBRANCH  12  14
TORSDOF 3
ENDMDL
MODEL       63
REMARK 921   NORMALIZED FREE ENERGY PREDICTED BY IDOCK:   -5.61 KCAL/MOL
REMARK 922        TOTAL FREE ENERGY PREDICTED BY IDOCK:   -7.96 KCAL/MOL
REMARK 923 INTER-LIGAND FREE ENERGY PREDICTED BY IDOCK:   -6.60 KCAL/MOL
REMARK 924 INTRA-LIGAND FREE ENERGY PREDICTED BY IDOCK:   -1.36 KCAL/MOL
REMARK 927      BINDING AFFINITY PREDICTED BY RF-SCORE:    0.00 PKD
ROOT
HETATM    1  C   UNL     1      -7.691   8.442  67.353  1.00  0.00    -0.098 C  
HETATM    2  S   UNL     1      -9.315   8.346  66.473  1.00  0.00    -0.217 SA 
HETATM    3  C   UNL     1      -9.283  10.123  65.948  1.00  0.00    -0.162 C  
HETATM    4  C   UNL     1     -10.006  10.281  64.607  1.00  0.00    -0.377 C  
HETATM    5  CA  UNL     1      -7.784  10.511  65.957  1.00  0.00    -0.147 C  
HETATM    6  C   UNL     1     -10.089  10.947  66.978  1.00  0.00    -0.244 C  
HETATM    7  N   UNL     1      -7.150   9.787  67.070  1.00  0.00    -0.085 N  
HETATM    8  C   UNL     1      -6.962  10.164  64.701  1.00  0.00    -0.121 C  
HETATM    9  OXT UNL     1      -7.350  10.233  63.547  1.00  0.00    -0.141 OA 
HETATM   10  O   UNL     1      -5.659   9.892  64.990  1.00  0.00    -0.060 OA 
HETATM   11  C   UNL     1      -7.300  10.232  68.357  1.00  0.00    -0.084 C  
HETATM   12  CA  UNL     1      -7.779   8.836  68.856  1.00  0.00    -0.095 C  
HETATM   13  O   UNL     1      -7.227  11.367  68.764  1.00  0.00    -0.092 OA 
ENDROOT
BRANCH  12  14
HETATM   14  N   UNL     1      -9.145   8.736  69.423  1.00  0.00    -0.144 N  
HETATM   15  C   UNL     1      -9.423   9.006  70.739  1.00  0.00    -0.251 C  
HETATM   16  H   UNL     1      -9.910   8.454  68.810  1.00  0.00     0.000 HD 
HETATM   17  O   UNL     1      -8.588   9.446  71.520  1.00  0.00    -0.266 OA 
BRANCH  15  18
HETATM   18  C   UNL     1     -10.798   8.730  71.135  1.00  0.00    -0.335 A  
HETATM   19  C   UNL     1     -11.846   9.614  70.981  1.00  0.00    -0.347 A  
HETATM   20  C   UNL     1     -11.996  10.976  70.427  1.00  0.00    -0.459 C  
HETATM   21  O   UNL     1     -12.987   9.038  71.430  1.00  0.00    -0.322 OA 
HETATM   22  N   UNL     1     -12.716   7.783  71.919  1.00  0.00    -0.314 NA 
HETATM   23  C   UNL     1     -11.398   7.579  71.760  1.00  0.00    -0.254 A  
BRANCH  23  24
HETATM   24  C   UNL     1     -10.794   6.295  72.151  1.00  0.00    -0.281 A  
HETATM   25  C   UNL     1     -10.495   6.054  73.503  1.00  0.00    -0.262 A  
HETATM   26  C   UNL     1     -10.121   4.789  73.962  1.00  0.00    -0.226 A  
HETATM   27  F   UNL     1     -10.587   7.030  74.419  1.00  0.00    -0.355 F  
HETATM   28  C   UNL     1     -10.074   3.718  73.080  1.00  0.00    -0.217 A  
HETATM   29  C   UNL     1     -10.285   3.945  71.723  1.00  0.00    -0.116 A  
HETATM   30  C   UNL     1     -10.572   5.235  71.254  1.00  0.00    -0.172 A  
HETATM   31 CL   UNL     1     -10.563   5.434  69.533  1.00  0.00    -0.358 Cl 
ENDBRANCH  23  24
ENDBRANCH  15  18
ENDBRANCH  12  14
TORSDOF 3
ENDMDL
MODEL       64
REMARK 921   NORMALIZED FREE ENERGY PREDICTED BY IDOCK:   -5.60 KCAL/MOL
REMARK 922        TOTAL FREE ENERGY PREDICTED BY IDOCK:   -7.94 KCAL/MOL
REMARK 923 INTER-LIGAND FREE ENERGY PREDICTED BY IDOCK:   -6.88 KCAL/MOL
REMARK 924 INTRA-LIGAND FREE ENERGY PREDICTED BY IDOCK:   -1.06 KCAL/MOL
REMARK 927      BINDING AFFINITY PREDICTED BY RF-SCORE:    0.00 PKD
ROOT
HETATM    1  C   UNL     1     -10.289   8.559  68.822  1.00  0.00    -0.213 C  
HETATM    2  S   UNL     1      -9.858   8.223  67.055  1.00  0.00    -0.259 SA 
HETATM    3  C   UNL     1      -8.096   7.790  67.431  1.00  0.00    -0.123 C  
HETATM    4  C   UNL     1      -7.592   6.748  66.428  1.00  0.00    -0.089 C  
HETATM    5  CA  UNL     1      -8.105   7.351  68.916  1.00  0.00    -0.127 C  
HETATM    6  C   UNL     1      -7.231   9.053  67.219  1.00  0.00    -0.083 C  
HETATM    7  N   UNL     1      -9.102   8.180  69.612  1.00  0.00    -0.151 N  
HETATM    8  C   UNL     1      -8.489   5.888  69.212  1.00  0.00    -0.113 C  
HETATM    9  OXT UNL     1      -8.178   4.915  68.545  1.00  0.00    -0.085 OA 
HETATM   10  O   UNL     1      -9.117   5.746  70.412  1.00  0.00    -0.142 OA 
HETATM   11  C   UNL     1      -8.798   9.467  69.969  1.00  0.00    -0.223 C  
HETATM   12  CA  UNL     1     -10.078  10.031  69.282  1.00  0.00    -0.213 C  
HETATM   13  O   UNL     1      -7.780   9.880  70.471  1.00  0.00    -0.254 OA 
ENDROOT
BRANCH  12  14
HETATM   14  N   UNL     1      -9.899  10.989  68.165  1.00  0.00    -0.170 N  
HETATM   15  C   UNL     1     -10.952  11.629  67.563  1.00  0.00    -0.259 C  
HETATM   16  H   UNL     1      -8.955  11.180  67.830  1.00  0.00     0.000 HD 
HETATM   17  O   UNL     1     -12.106  11.539  67.964  1.00  0.00    -0.617 OA 
BRANCH  15  18
HETATM   18  C   UNL     1     -10.585  12.434  66.405  1.00  0.00    -0.271 A  
HETATM   19  C   UNL     1     -10.391  11.931  65.134  1.00  0.00    -0.277 A  
HETATM   20  C   UNL     1     -10.476  10.593  64.514  1.00  0.00    -0.266 C  
HETATM   21  O   UNL     1     -10.083  12.946  64.292  1.00  0.00    -0.339 OA 
HETATM   22  N   UNL     1     -10.032  14.131  64.988  1.00  0.00    -0.277 NA 
HETATM   23  C   UNL     1     -10.323  13.844  66.267  1.00  0.00    -0.293 A  
BRANCH  23  24
HETATM   24  C   UNL     1     -10.394  14.920  67.269  1.00  0.00    -0.251 A  
HETATM   25  C   UNL     1     -11.610  15.174  67.927  1.00  0.00    -0.311 A  
HETATM   26  C   UNL     1     -11.689  16.030  69.028  1.00  0.00    -0.322 A  
HETATM   27  F   UNL     1     -12.746  14.574  67.541  1.00  0.00    -0.134 F  
HETATM   28  C   UNL     1     -10.539  16.627  69.525  1.00  0.00    -0.308 A  
HETATM   29  C   UNL     1      -9.337  16.459  68.843  1.00  0.00    -0.249 A  
HETATM   30  C   UNL     1      -9.280  15.670  67.685  1.00  0.00    -0.193 A  
HETATM   31 CL   UNL     1      -7.798  15.743  66.792  1.00  0.00    -0.270 Cl 
ENDBRANCH  23  24
ENDBRANCH  15  18
ENDBRANCH  12  14
TORSDOF 3
ENDMDL
MODEL       65
REMARK 921   NORMALIZED FREE ENERGY PREDICTED BY IDOCK:   -5.59 KCAL/MOL
REMARK 922        TOTAL FREE ENERGY PREDICTED BY IDOCK:   -7.94 KCAL/MOL
REMARK 923 INTER-LIGAND FREE ENERGY PREDICTED BY IDOCK:   -6.41 KCAL/MOL
REMARK 924 INTRA-LIGAND FREE ENERGY PREDICTED BY IDOCK:   -1.53 KCAL/MOL
REMARK 927      BINDING AFFINITY PREDICTED BY RF-SCORE:    0.00 PKD
ROOT
HETATM    1  C   UNL     1      -7.420  11.670  68.676  1.00  0.00    -0.117 C  
HETATM    2  S   UNL     1      -9.157  11.937  68.100  1.00  0.00    -0.192 SA 
HETATM    3  C   UNL     1      -9.039  10.679  66.744  1.00  0.00    -0.152 C  
HETATM    4  C   UNL     1     -10.409  10.033  66.515  1.00  0.00    -0.268 C  
HETATM    5  CA  UNL     1      -7.907   9.722  67.191  1.00  0.00    -0.099 C  
HETATM    6  C   UNL     1      -8.678  11.413  65.433  1.00  0.00     0.085 C  
HETATM    7  N   UNL     1      -6.899  10.533  67.893  1.00  0.00    -0.069 N  
HETATM    8  C   UNL     1      -8.289   8.586  68.160  1.00  0.00    -0.127 C  
HETATM    9  OXT UNL     1      -9.324   7.942  68.138  1.00  0.00    -0.142 OA 
HETATM   10  O   UNL     1      -7.269   8.251  68.998  1.00  0.00    -0.070 OA 
HETATM   11  C   UNL     1      -6.010  11.294  67.182  1.00  0.00    -0.083 C  
HETATM   12  CA  UNL     1      -6.354  12.577  67.996  1.00  0.00    -0.087 C  
HETATM   13  O   UNL     1      -5.391  10.985  66.191  1.00  0.00    -0.108 OA 
ENDROOT
BRANCH  12  14
HETATM   14  N   UNL     1      -6.929  13.730  67.260  1.00  0.00    -0.287 N  
HETATM   15  C   UNL     1      -7.264  14.909  67.875  1.00  0.00    -0.153 C  
HETATM   16  H   UNL     1      -7.083  13.641  66.255  1.00  0.00     0.000 HD 
HETATM   17  O   UNL     1      -7.021  15.138  69.054  1.00  0.00    -0.113 OA 
BRANCH  15  18
HETATM   18  C   UNL     1      -7.929  15.873  67.009  1.00  0.00    -0.270 A  
HETATM   19  C   UNL     1      -7.291  16.915  66.366  1.00  0.00    -0.267 A  
HETATM   20  C   UNL     1      -5.897  17.397  66.282  1.00  0.00    -0.224 C  
HETATM   21  O   UNL     1      -8.193  17.605  65.627  1.00  0.00    -0.501 OA 
HETATM   22  N   UNL     1      -9.445  17.062  65.792  1.00  0.00    -0.530 NA 
HETATM   23  C   UNL     1      -9.311  16.021  66.630  1.00  0.00    -0.243 A  
BRANCH  23  24
HETATM   24  C   UNL     1     -10.478  15.194  66.977  1.00  0.00    -0.282 A  
HETATM   25  C   UNL     1     -11.041  14.349  66.004  1.00  0.00    -0.324 A  
HETATM   26  C   UNL     1     -12.007  13.393  66.327  1.00  0.00    -0.460 A  
HETATM   27  F   UNL     1     -10.647  14.406  64.723  1.00  0.00    -0.382 F  
HETATM   28  C   UNL     1     -12.408  13.232  67.646  1.00  0.00     0.005 A  
HETATM   29  C   UNL     1     -11.930  14.110  68.615  1.00  0.00    -0.373 A  
HETATM   30  C   UNL     1     -11.027  15.126  68.270  1.00  0.00    -0.276 A  
HETATM   31 CL   UNL     1     -10.704  16.301  69.501  1.00  0.00    -0.301 Cl 
ENDBRANCH  23  24
ENDBRANCH  15  18
ENDBRANCH  12  14
TORSDOF 3
ENDMDL
MODEL       66
REMARK 921   NORMALIZED FREE ENERGY PREDICTED BY IDOCK:   -5.57 KCAL/MOL
REMARK 922        TOTAL FREE ENERGY PREDICTED BY IDOCK:   -7.91 KCAL/MOL
REMARK 923 INTER-LIGAND FREE ENERGY PREDICTED BY IDOCK:   -6.50 KCAL/MOL
REMARK 924 INTRA-LIGAND FREE ENERGY PREDICTED BY IDOCK:   -1.41 KCAL/MOL
REMARK 927      BINDING AFFINITY PREDICTED BY RF-SCORE:    0.00 PKD
ROOT
HETATM    1  C   UNL     1     -11.423  11.400  67.359  1.00  0.00    -0.251 C  
HETATM    2  S   UNL     1     -10.468  12.044  68.807  1.00  0.00    -0.137 SA 
HETATM    3  C   UNL     1      -9.430  13.185  67.780  1.00  0.00    -0.209 C  
HETATM    4  C   UNL     1      -9.057  14.424  68.598  1.00  0.00    -0.178 C  
HETATM    5  CA  UNL     1     -10.270  13.444  66.505  1.00  0.00    -0.282 C  
HETATM    6  C   UNL     1      -8.103  12.466  67.448  1.00  0.00    -0.177 C  
HETATM    7  N   UNL     1     -10.993  12.200  66.196  1.00  0.00    -0.285 N  
HETATM    8  C   UNL     1     -11.341  14.550  66.584  1.00  0.00    -0.356 C  
HETATM    9  OXT UNL     1     -11.234  15.612  67.173  1.00  0.00    -0.269 OA 
HETATM   10  O   UNL     1     -12.416  14.291  65.788  1.00  0.00    -0.441 OA 
HETATM   11  C   UNL     1     -10.344  11.159  65.587  1.00  0.00    -0.254 C  
HETATM   12  CA  UNL     1     -10.811  10.144  66.673  1.00  0.00    -0.014 C  
HETATM   13  O   UNL     1      -9.576  11.204  64.655  1.00  0.00    -0.234 OA 
ENDROOT
BRANCH  12  14
HETATM   14  N   UNL     1      -9.768   9.468  67.481  1.00  0.00    -0.150 N  
HETATM   15  C   UNL     1      -9.469   8.137  67.340  1.00  0.00    -0.155 C  
HETATM   16  H   UNL     1      -9.252  10.014  68.171  1.00  0.00     0.000 HD 
HETATM   17  O   UNL     1      -9.966   7.431  66.471  1.00  0.00    -0.198 OA 
BRANCH  15  18
HETATM   18  C   UNL     1      -8.506   7.628  68.308  1.00  0.00    -0.125 A  
HETATM   19  C   UNL     1      -7.204   7.282  68.006  1.00  0.00    -0.091 A  
HETATM   20  C   UNL     1      -6.374   7.296  66.784  1.00  0.00    -0.047 C  
HETATM   21  O   UNL     1      -6.578   6.869  69.134  1.00  0.00    -0.045 OA 
HETATM   22  N   UNL     1      -7.453   6.900  70.193  1.00  0.00    -0.088 NA 
HETATM   23  C   UNL     1      -8.627   7.346  69.716  1.00  0.00    -0.140 A  
BRANCH  23  24
HETATM   24  C   UNL     1      -9.771   7.535  70.622  1.00  0.00    -0.175 A  
HETATM   25  C   UNL     1     -10.046   8.816  71.132  1.00  0.00    -0.247 A  
HETATM   26  C   UNL     1     -11.228   9.098  71.820  1.00  0.00    -0.451 A  
HETATM   27  F   UNL     1      -9.191   9.833  70.949  1.00  0.00    -0.257 F  
HETATM   28  C   UNL     1     -12.188   8.109  71.982  1.00  0.00    -0.385 A  
HETATM   29  C   UNL     1     -11.907   6.812  71.560  1.00  0.00    -0.378 A  
HETATM   30  C   UNL     1     -10.680   6.513  70.950  1.00  0.00    -0.242 A  
HETATM   31 CL   UNL     1     -10.348   4.832  70.702  1.00  0.00    -0.243 Cl 
ENDBRANCH  23  24
ENDBRANCH  15  18
ENDBRANCH  12  14
TORSDOF 3
ENDMDL
MODEL       67
REMARK 921   NORMALIZED FREE ENERGY PREDICTED BY IDOCK:   -5.57 KCAL/MOL
REMARK 922        TOTAL FREE ENERGY PREDICTED BY IDOCK:   -7.91 KCAL/MOL
REMARK 923 INTER-LIGAND FREE ENERGY PREDICTED BY IDOCK:   -6.67 KCAL/MOL
REMARK 924 INTRA-LIGAND FREE ENERGY PREDICTED BY IDOCK:   -1.23 KCAL/MOL
REMARK 927      BINDING AFFINITY PREDICTED BY RF-SCORE:    0.00 PKD
ROOT
HETATM    1  C   UNL     1     -10.493   6.044  70.353  1.00  0.00    -0.246 C  
HETATM    2  S   UNL     1      -8.663   6.150  70.599  1.00  0.00    -0.140 SA 
HETATM    3  C   UNL     1      -8.800   7.100  72.184  1.00  0.00    -0.128 C  
HETATM    4  C   UNL     1      -7.625   6.750  73.102  1.00  0.00    -0.086 C  
HETATM    5  CA  UNL     1     -10.209   6.758  72.729  1.00  0.00    -0.189 C  
HETATM    6  C   UNL     1      -8.667   8.605  71.860  1.00  0.00    -0.256 C  
HETATM    7  N   UNL     1     -11.104   6.613  71.570  1.00  0.00    -0.246 N  
HETATM    8  C   UNL     1     -10.350   5.457  73.541  1.00  0.00    -0.224 C  
HETATM    9  OXT UNL     1      -9.535   5.011  74.331  1.00  0.00    -0.121 OA 
HETATM   10  O   UNL     1     -11.579   4.886  73.402  1.00  0.00    -0.313 OA 
HETATM   11  C   UNL     1     -11.592   7.723  70.933  1.00  0.00    -0.274 C  
HETATM   12  CA  UNL     1     -11.116   7.214  69.539  1.00  0.00    -0.141 C  
HETATM   13  O   UNL     1     -12.037   8.730  71.429  1.00  0.00    -0.288 OA 
ENDROOT
BRANCH  12  14
HETATM   14  N   UNL     1     -10.120   8.033  68.806  1.00  0.00    -0.190 N  
HETATM   15  C   UNL     1     -10.063   8.079  67.437  1.00  0.00    -0.228 C  
HETATM   16  H   UNL     1      -9.450   8.584  69.343  1.00  0.00     0.000 HD 
HETATM   17  O   UNL     1     -10.889   7.532  66.716  1.00  0.00    -0.292 OA 
BRANCH  15  18
HETATM   18  C   UNL     1      -8.939   8.839  66.906  1.00  0.00    -0.155 A  
HETATM   19  C   UNL     1      -7.627   8.409  66.925  1.00  0.00    -0.091 A  
HETATM   20  C   UNL     1      -6.930   7.194  67.396  1.00  0.00    -0.079 C  
HETATM   21  O   UNL     1      -6.841   9.341  66.335  1.00  0.00    -0.080 OA 
HETATM   22  N   UNL     1      -7.604  10.416  65.946  1.00  0.00    -0.141 NA 
HETATM   23  C   UNL     1      -8.872  10.139  66.289  1.00  0.00    -0.148 A  
BRANCH  23  24
HETATM   24  C   UNL     1      -9.951  11.086  65.964  1.00  0.00    -0.285 A  
HETATM   25  C   UNL     1     -10.403  11.192  64.637  1.00  0.00    -0.330 A  
HETATM   26  C   UNL     1     -11.554  11.910  64.305  1.00  0.00    -0.405 A  
HETATM   27  F   UNL     1      -9.759  10.577  63.634  1.00  0.00    -0.276 F  
HETATM   28  C   UNL     1     -12.308  12.511  65.303  1.00  0.00    -0.469 A  
HETATM   29  C   UNL     1     -11.839  12.493  66.614  1.00  0.00    -0.422 A  
HETATM   30  C   UNL     1     -10.635  11.846  66.930  1.00  0.00    -0.230 A  
HETATM   31 CL   UNL     1     -10.035  12.106  68.533  1.00  0.00    -0.203 Cl 
ENDBRANCH  23  24
ENDBRANCH  15  18
ENDBRANCH  12  14
TORSDOF 3
ENDMDL
MODEL       68
REMARK 921   NORMALIZED FREE ENERGY PREDICTED BY IDOCK:   -5.53 KCAL/MOL
REMARK 922        TOTAL FREE ENERGY PREDICTED BY IDOCK:   -7.87 KCAL/MOL
REMARK 923 INTER-LIGAND FREE ENERGY PREDICTED BY IDOCK:   -6.79 KCAL/MOL
REMARK 924 INTRA-LIGAND FREE ENERGY PREDICTED BY IDOCK:   -1.08 KCAL/MOL
REMARK 927      BINDING AFFINITY PREDICTED BY RF-SCORE:    0.00 PKD
ROOT
HETATM    1  C   UNL     1      -9.873   7.797  68.868  1.00  0.00    -0.166 C  
HETATM    2  S   UNL     1     -10.981   7.090  67.566  1.00  0.00    -0.180 SA 
HETATM    3  C   UNL     1      -9.663   6.005  66.848  1.00  0.00    -0.148 C  
HETATM    4  C   UNL     1     -10.292   4.730  66.278  1.00  0.00    -0.329 C  
HETATM    5  CA  UNL     1      -8.648   5.801  68.000  1.00  0.00    -0.105 C  
HETATM    6  C   UNL     1      -9.022   6.746  65.652  1.00  0.00     0.019 C  
HETATM    7  N   UNL     1      -8.601   7.054  68.770  1.00  0.00    -0.125 N  
HETATM    8  C   UNL     1      -8.957   4.687  69.018  1.00  0.00    -0.110 C  
HETATM    9  OXT UNL     1      -9.447   3.599  68.766  1.00  0.00    -0.161 OA 
HETATM   10  O   UNL     1      -8.491   4.976  70.265  1.00  0.00    -0.096 OA 
HETATM   11  C   UNL     1      -7.890   8.126  68.299  1.00  0.00    -0.122 C  
HETATM   12  CA  UNL     1      -9.108   9.086  68.452  1.00  0.00    -0.133 C  
HETATM   13  O   UNL     1      -6.787   8.129  67.809  1.00  0.00    -0.070 OA 
ENDROOT
BRANCH  12  14
HETATM   14  N   UNL     1      -9.640   9.730  67.227  1.00  0.00    -0.153 N  
HETATM   15  C   UNL     1      -9.104  10.878  66.701  1.00  0.00    -0.162 C  
HETATM   16  H   UNL     1     -10.437   9.302  66.755  1.00  0.00     0.000 HD 
HETATM   17  O   UNL     1      -8.087  11.401  67.142  1.00  0.00    -0.140 OA 
BRANCH  15  18
HETATM   18  C   UNL     1      -9.840  11.424  65.569  1.00  0.00    -0.271 A  
HETATM   19  C   UNL     1      -9.807  10.903  64.291  1.00  0.00    -0.310 A  
HETATM   20  C   UNL     1      -9.140   9.753  63.646  1.00  0.00    -0.269 C  
HETATM   21  O   UNL     1     -10.618  11.633  63.488  1.00  0.00    -0.372 OA 
HETATM   22  N   UNL     1     -11.173  12.668  64.202  1.00  0.00    -0.358 NA 
HETATM   23  C   UNL     1     -10.711  12.567  65.459  1.00  0.00    -0.271 A  
BRANCH  23  24
HETATM   24  C   UNL     1     -11.159  13.515  66.492  1.00  0.00    -0.310 A  
HETATM   25  C   UNL     1     -11.786  13.028  67.653  1.00  0.00    -0.366 A  
HETATM   26  C   UNL     1     -12.041  13.849  68.753  1.00  0.00    -0.344 A  
HETATM   27  F   UNL     1     -12.137  11.738  67.762  1.00  0.00    -0.351 F  
HETATM   28  C   UNL     1     -11.639  15.178  68.734  1.00  0.00    -0.369 A  
HETATM   29  C   UNL     1     -11.093  15.706  67.568  1.00  0.00    -0.289 A  
HETATM   30  C   UNL     1     -10.920  14.899  66.434  1.00  0.00    -0.336 A  
HETATM   31 CL   UNL     1     -10.471  15.725  64.979  1.00  0.00    -0.396 Cl 
ENDBRANCH  23  24
ENDBRANCH  15  18
ENDBRANCH  12  14
TORSDOF 3
ENDMDL
MODEL       69
REMARK 921   NORMALIZED FREE ENERGY PREDICTED BY IDOCK:   -5.52 KCAL/MOL
REMARK 922        TOTAL FREE ENERGY PREDICTED BY IDOCK:   -7.85 KCAL/MOL
REMARK 923 INTER-LIGAND FREE ENERGY PREDICTED BY IDOCK:   -6.65 KCAL/MOL
REMARK 924 INTRA-LIGAND FREE ENERGY PREDICTED BY IDOCK:   -1.20 KCAL/MOL
REMARK 927      BINDING AFFINITY PREDICTED BY RF-SCORE:    0.00 PKD
ROOT
HETATM    1  C   UNL     1      -8.829  16.729  69.182  1.00  0.00    -0.105 C  
HETATM    2  S   UNL     1      -7.646  15.905  68.022  1.00  0.00    -0.134 SA 
HETATM    3  C   UNL     1      -7.605  17.334  66.843  1.00  0.00    -0.213 C  
HETATM    4  C   UNL     1      -6.231  17.412  66.171  1.00  0.00    -0.204 C  
HETATM    5  CA  UNL     1      -8.012  18.561  67.695  1.00  0.00    -0.246 C  
HETATM    6  C   UNL     1      -8.627  17.062  65.716  1.00  0.00     0.189 C  
HETATM    7  N   UNL     1      -9.009  18.103  68.676  1.00  0.00    -0.302 N  
HETATM    8  C   UNL     1      -6.899  19.250  68.510  1.00  0.00    -0.284 C  
HETATM    9  OXT UNL     1      -5.746  19.421  68.150  1.00  0.00    -0.196 OA 
HETATM   10  O   UNL     1      -7.365  19.801  69.665  1.00  0.00    -0.246 OA 
HETATM   11  C   UNL     1     -10.309  17.905  68.295  1.00  0.00    -0.383 C  
HETATM   12  CA  UNL     1     -10.333  16.464  68.886  1.00  0.00    -0.270 C  
HETATM   13  O   UNL     1     -10.996  18.612  67.598  1.00  0.00    -0.365 OA 
ENDROOT
BRANCH  12  14
HETATM   14  N   UNL     1     -10.571  15.336  67.953  1.00  0.00    -0.254 N  
HETATM   15  C   UNL     1     -10.940  14.086  68.380  1.00  0.00    -0.252 C  
HETATM   16  H   UNL     1     -10.456  15.497  66.952  1.00  0.00     0.000 HD 
HETATM   17  O   UNL     1     -11.199  13.831  69.550  1.00  0.00    -0.236 OA 
BRANCH  15  18
HETATM   18  C   UNL     1     -11.004  13.083  67.325  1.00  0.00    -0.288 A  
HETATM   19  C   UNL     1     -11.813  13.174  66.210  1.00  0.00    -0.401 A  
HETATM   20  C   UNL     1     -12.777  14.167  65.693  1.00  0.00    -0.469 C  
HETATM   21  O   UNL     1     -11.614  12.089  65.423  1.00  0.00    -0.343 OA 
HETATM   22  N   UNL     1     -10.704  11.245  66.013  1.00  0.00    -0.263 NA 
HETATM   23  C   UNL     1     -10.329  11.820  67.167  1.00  0.00    -0.215 A  
BRANCH  23  24
HETATM   24  C   UNL     1      -9.317  11.178  68.020  1.00  0.00    -0.166 A  
HETATM   25  C   UNL     1      -7.961  11.513  67.858  1.00  0.00    -0.126 A  
HETATM   26  C   UNL     1      -6.985  11.101  68.768  1.00  0.00    -0.088 A  
HETATM   27  F   UNL     1      -7.552  12.274  66.831  1.00  0.00    -0.149 F  
HETATM   28  C   UNL     1      -7.349  10.372  69.892  1.00  0.00    -0.149 A  
HETATM   29  C   UNL     1      -8.670   9.956  70.034  1.00  0.00    -0.188 A  
HETATM   30  C   UNL     1      -9.631  10.297  69.070  1.00  0.00    -0.203 A  
HETATM   31 CL   UNL     1     -11.168   9.515  69.225  1.00  0.00    -0.100 Cl 
ENDBRANCH  23  24
ENDBRANCH  15  18
ENDBRANCH  12  14
TORSDOF 3
ENDMDL
MODEL       70
REMARK 921   NORMALIZED FREE ENERGY PREDICTED BY IDOCK:   -5.51 KCAL/MOL
REMARK 922        TOTAL FREE ENERGY PREDICTED BY IDOCK:   -7.84 KCAL/MOL
REMARK 923 INTER-LIGAND FREE ENERGY PREDICTED BY IDOCK:   -6.49 KCAL/MOL
REMARK 924 INTRA-LIGAND FREE ENERGY PREDICTED BY IDOCK:   -1.35 KCAL/MOL
REMARK 927      BINDING AFFINITY PREDICTED BY RF-SCORE:    0.00 PKD
ROOT
HETATM    1  C   UNL     1      -9.145   8.052  70.327  1.00  0.00    -0.148 C  
HETATM    2  S   UNL     1     -10.561   7.281  69.419  1.00  0.00    -0.217 SA 
HETATM    3  C   UNL     1      -9.471   6.279  68.305  1.00  0.00    -0.117 C  
HETATM    4  C   UNL     1     -10.173   4.970  67.933  1.00  0.00    -0.147 C  
HETATM    5  CA  UNL     1      -8.138   6.135  69.080  1.00  0.00    -0.109 C  
HETATM    6  C   UNL     1      -9.278   7.060  66.985  1.00  0.00    -0.167 C  
HETATM    7  N   UNL     1      -7.926   7.388  69.823  1.00  0.00    -0.122 N  
HETATM    8  C   UNL     1      -8.051   5.003  70.122  1.00  0.00    -0.081 C  
HETATM    9  OXT UNL     1      -8.532   3.887  70.011  1.00  0.00    -0.062 OA 
HETATM   10  O   UNL     1      -7.237   5.318  71.167  1.00  0.00    -0.068 OA 
HETATM   11  C   UNL     1      -7.460   8.502  69.177  1.00  0.00    -0.088 C  
HETATM   12  CA  UNL     1      -8.622   9.386  69.720  1.00  0.00    -0.175 C  
HETATM   13  O   UNL     1      -6.566   8.573  68.369  1.00  0.00    -0.058 OA 
ENDROOT
BRANCH  12  14
HETATM   14  N   UNL     1      -9.545   9.998  68.734  1.00  0.00    -0.162 N  
HETATM   15  C   UNL     1      -9.256  11.166  68.075  1.00  0.00    -0.159 C  
HETATM   16  H   UNL     1     -10.431   9.532  68.537  1.00  0.00     0.000 HD 
HETATM   17  O   UNL     1      -8.176  11.737  68.174  1.00  0.00    -0.138 OA 
BRANCH  15  18
HETATM   18  C   UNL     1     -10.338  11.672  67.242  1.00  0.00    -0.232 A  
HETATM   19  C   UNL     1     -10.504  11.365  65.906  1.00  0.00    -0.258 A  
HETATM   20  C   UNL     1      -9.787  10.520  64.929  1.00  0.00    -0.379 C  
HETATM   21  O   UNL     1     -11.616  11.982  65.440  1.00  0.00    -0.343 OA 
HETATM   22  N   UNL     1     -12.187  12.734  66.439  1.00  0.00    -0.518 NA 
HETATM   23  C   UNL     1     -11.427  12.570  67.534  1.00  0.00    -0.336 A  
BRANCH  23  24
HETATM   24  C   UNL     1     -11.802  13.219  68.800  1.00  0.00    -0.371 A  
HETATM   25  C   UNL     1     -12.321  12.440  69.849  1.00  0.00    -0.048 A  
HETATM   26  C   UNL     1     -12.496  12.957  71.135  1.00  0.00    -0.344 A  
HETATM   27  F   UNL     1     -12.641  11.151  69.664  1.00  0.00    -0.319 F  
HETATM   28  C   UNL     1     -12.118  14.263  71.414  1.00  0.00    -0.354 A  
HETATM   29  C   UNL     1     -11.680  15.081  70.376  1.00  0.00    -0.336 A  
HETATM   30  C   UNL     1     -11.590  14.583  69.067  1.00  0.00    -0.298 A  
HETATM   31 CL   UNL     1     -11.278  15.755  67.832  1.00  0.00    -0.336 Cl 
ENDBRANCH  23  24
ENDBRANCH  15  18
ENDBRANCH  12  14
TORSDOF 3
ENDMDL
MODEL       71
REMARK 921   NORMALIZED FREE ENERGY PREDICTED BY IDOCK:   -5.51 KCAL/MOL
REMARK 922        TOTAL FREE ENERGY PREDICTED BY IDOCK:   -7.84 KCAL/MOL
REMARK 923 INTER-LIGAND FREE ENERGY PREDICTED BY IDOCK:   -6.70 KCAL/MOL
REMARK 924 INTRA-LIGAND FREE ENERGY PREDICTED BY IDOCK:   -1.14 KCAL/MOL
REMARK 927      BINDING AFFINITY PREDICTED BY RF-SCORE:    0.00 PKD
ROOT
HETATM    1  C   UNL     1     -11.755   7.301  71.133  1.00  0.00    -0.303 C  
HETATM    2  S   UNL     1     -11.284   6.102  69.805  1.00  0.00    -0.365 SA 
HETATM    3  C   UNL     1      -9.561   5.868  70.447  1.00  0.00    -0.168 C  
HETATM    4  C   UNL     1      -9.082   4.447  70.138  1.00  0.00    -0.167 C  
HETATM    5  CA  UNL     1      -9.644   6.243  71.947  1.00  0.00    -0.152 C  
HETATM    6  C   UNL     1      -8.623   6.822  69.675  1.00  0.00    -0.133 C  
HETATM    7  N   UNL     1     -10.617   7.340  72.072  1.00  0.00    -0.205 N  
HETATM    8  C   UNL     1     -10.116   5.144  72.919  1.00  0.00    -0.170 C  
HETATM    9  OXT UNL     1      -9.837   3.959  72.854  1.00  0.00    -0.129 OA 
HETATM   10  O   UNL     1     -10.791   5.650  73.989  1.00  0.00    -0.217 OA 
HETATM   11  C   UNL     1     -10.256   8.621  71.746  1.00  0.00    -0.308 C  
HETATM   12  CA  UNL     1     -11.480   8.796  70.798  1.00  0.00    -0.270 C  
HETATM   13  O   UNL     1      -9.234   9.200  72.027  1.00  0.00    -0.339 OA 
ENDROOT
BRANCH  12  14
HETATM   14  N   UNL     1     -11.212   9.049  69.361  1.00  0.00    -0.439 N  
HETATM   15  C   UNL     1     -10.461  10.110  68.924  1.00  0.00    -0.210 C  
HETATM   16  H   UNL     1     -11.603   8.408  68.670  1.00  0.00     0.000 HD 
HETATM   17  O   UNL     1      -9.872  10.868  69.684  1.00  0.00    -0.038 OA 
BRANCH  15  18
HETATM   18  C   UNL     1     -10.416  10.260  67.475  1.00  0.00    -0.293 A  
HETATM   19  C   UNL     1     -10.913  11.349  66.788  1.00  0.00    -0.291 A  
HETATM   20  C   UNL     1     -11.571  12.617  67.168  1.00  0.00    -0.434 C  
HETATM   21  O   UNL     1     -10.691  11.181  65.462  1.00  0.00    -0.251 OA 
HETATM   22  N   UNL     1     -10.080   9.970  65.240  1.00  0.00    -0.297 NA 
HETATM   23  C   UNL     1      -9.912   9.392  66.441  1.00  0.00    -0.276 A  
BRANCH  23  24
HETATM   24  C   UNL     1      -9.238   8.089  66.548  1.00  0.00    -0.236 A  
HETATM   25  C   UNL     1     -10.003   6.910  66.536  1.00  0.00    -0.081 A  
HETATM   26  C   UNL     1      -9.415   5.649  66.423  1.00  0.00    -0.170 A  
HETATM   27  F   UNL     1     -11.343   6.952  66.602  1.00  0.00    -0.408 F  
HETATM   28  C   UNL     1      -8.038   5.537  66.280  1.00  0.00    -0.106 A  
HETATM   29  C   UNL     1      -7.250   6.681  66.372  1.00  0.00    -0.072 A  
HETATM   30  C   UNL     1      -7.840   7.937  66.575  1.00  0.00    -0.098 A  
HETATM   31 CL   UNL     1      -6.750   9.237  66.924  1.00  0.00    -0.075 Cl 
ENDBRANCH  23  24
ENDBRANCH  15  18
ENDBRANCH  12  14
TORSDOF 3
ENDMDL
MODEL       72
REMARK 921   NORMALIZED FREE ENERGY PREDICTED BY IDOCK:   -5.50 KCAL/MOL
REMARK 922        TOTAL FREE ENERGY PREDICTED BY IDOCK:   -7.83 KCAL/MOL
REMARK 923 INTER-LIGAND FREE ENERGY PREDICTED BY IDOCK:   -7.10 KCAL/MOL
REMARK 924 INTRA-LIGAND FREE ENERGY PREDICTED BY IDOCK:   -0.73 KCAL/MOL
REMARK 927      BINDING AFFINITY PREDICTED BY RF-SCORE:    0.00 PKD
ROOT
HETATM    1  C   UNL     1     -10.539   6.182  70.554  1.00  0.00    -0.253 C  
HETATM    2  S   UNL     1      -8.729   6.324  70.909  1.00  0.00    -0.136 SA 
HETATM    3  C   UNL     1      -8.984   6.924  72.644  1.00  0.00    -0.128 C  
HETATM    4  C   UNL     1      -7.829   6.452  73.531  1.00  0.00    -0.092 C  
HETATM    5  CA  UNL     1     -10.391   6.411  73.037  1.00  0.00    -0.214 C  
HETATM    6  C   UNL     1      -8.925   8.468  72.635  1.00  0.00    -0.243 C  
HETATM    7  N   UNL     1     -11.230   6.462  71.828  1.00  0.00    -0.264 N  
HETATM    8  C   UNL     1     -10.490   4.966  73.563  1.00  0.00    -0.228 C  
HETATM    9  OXT UNL     1      -9.682   4.409  74.288  1.00  0.00    -0.117 OA 
HETATM   10  O   UNL     1     -11.677   4.377  73.250  1.00  0.00    -0.226 OA 
HETATM   11  C   UNL     1     -11.755   7.653  71.403  1.00  0.00    -0.283 C  
HETATM   12  CA  UNL     1     -11.196   7.462  69.961  1.00  0.00    -0.180 C  
HETATM   13  O   UNL     1     -12.277   8.515  72.068  1.00  0.00    -0.320 OA 
ENDROOT
BRANCH  12  14
HETATM   14  N   UNL     1     -10.220   8.459  69.460  1.00  0.00    -0.202 N  
HETATM   15  C   UNL     1     -10.578   9.740  69.123  1.00  0.00    -0.218 C  
HETATM   16  H   UNL     1      -9.244   8.182  69.361  1.00  0.00     0.000 HD 
HETATM   17  O   UNL     1     -11.703  10.188  69.305  1.00  0.00    -0.134 OA 
BRANCH  15  18
HETATM   18  C   UNL     1      -9.504  10.530  68.533  1.00  0.00    -0.164 A  
HETATM   19  C   UNL     1      -8.214  10.581  69.021  1.00  0.00    -0.145 A  
HETATM   20  C   UNL     1      -7.494   9.949  70.146  1.00  0.00    -0.178 C  
HETATM   21  O   UNL     1      -7.468  11.389  68.230  1.00  0.00    -0.089 OA 
HETATM   22  N   UNL     1      -8.250  11.913  67.228  1.00  0.00    -0.162 NA 
HETATM   23  C   UNL     1      -9.486  11.416  67.397  1.00  0.00    -0.167 A  
BRANCH  23  24
HETATM   24  C   UNL     1     -10.558  11.757  66.449  1.00  0.00    -0.293 A  
HETATM   25  C   UNL     1     -11.574  12.646  66.842  1.00  0.00    -0.373 A  
HETATM   26  C   UNL     1     -12.492  13.168  65.929  1.00  0.00    -0.386 A  
HETATM   27  F   UNL     1     -11.683  13.054  68.115  1.00  0.00    -0.307 F  
HETATM   28  C   UNL     1     -12.392  12.843  64.583  1.00  0.00    -0.501 A  
HETATM   29  C   UNL     1     -11.449  11.902  64.179  1.00  0.00    -0.449 A  
HETATM   30  C   UNL     1     -10.587  11.312  65.115  1.00  0.00    -0.280 A  
HETATM   31 CL   UNL     1      -9.639   9.983  64.537  1.00  0.00    -0.366 Cl 
ENDBRANCH  23  24
ENDBRANCH  15  18
ENDBRANCH  12  14
TORSDOF 3
ENDMDL
MODEL       73
REMARK 921   NORMALIZED FREE ENERGY PREDICTED BY IDOCK:   -5.47 KCAL/MOL
REMARK 922        TOTAL FREE ENERGY PREDICTED BY IDOCK:   -7.80 KCAL/MOL
REMARK 923 INTER-LIGAND FREE ENERGY PREDICTED BY IDOCK:   -6.50 KCAL/MOL
REMARK 924 INTRA-LIGAND FREE ENERGY PREDICTED BY IDOCK:   -1.30 KCAL/MOL
REMARK 927      BINDING AFFINITY PREDICTED BY RF-SCORE:    0.00 PKD
ROOT
HETATM    1  C   UNL     1      -9.682   5.784  66.643  1.00  0.00    -0.157 C  
HETATM    2  S   UNL     1      -7.883   6.144  66.404  1.00  0.00    -0.106 SA 
HETATM    3  C   UNL     1      -7.394   5.466  68.058  1.00  0.00    -0.073 C  
HETATM    4  C   UNL     1      -5.985   4.872  67.979  1.00  0.00    -0.026 C  
HETATM    5  CA  UNL     1      -8.525   4.476  68.429  1.00  0.00    -0.093 C  
HETATM    6  C   UNL     1      -7.317   6.641  69.059  1.00  0.00    -0.094 C  
HETATM    7  N   UNL     1      -9.785   5.034  67.910  1.00  0.00    -0.146 N  
HETATM    8  C   UNL     1      -8.425   3.049  67.856  1.00  0.00    -0.084 C  
HETATM    9  OXT UNL     1      -7.401   2.400  67.721  1.00  0.00    -0.054 OA 
HETATM   10  O   UNL     1      -9.646   2.491  67.630  1.00  0.00    -0.146 OA 
HETATM   11  C   UNL     1     -10.417   6.048  68.580  1.00  0.00    -0.241 C  
HETATM   12  CA  UNL     1     -10.501   6.932  67.300  1.00  0.00    -0.287 C  
HETATM   13  O   UNL     1     -10.606   6.150  69.768  1.00  0.00    -0.223 OA 
ENDROOT
BRANCH  12  14
HETATM   14  N   UNL     1      -9.800   8.238  67.314  1.00  0.00    -0.178 N  
HETATM   15  C   UNL     1     -10.227   9.301  68.068  1.00  0.00    -0.209 C  
HETATM   16  H   UNL     1      -8.965   8.351  66.738  1.00  0.00     0.000 HD 
HETATM   17  O   UNL     1     -11.157   9.223  68.862  1.00  0.00    -0.080 OA 
BRANCH  15  18
HETATM   18  C   UNL     1      -9.481  10.533  67.851  1.00  0.00    -0.157 A  
HETATM   19  C   UNL     1      -8.406  10.939  68.616  1.00  0.00    -0.148 A  
HETATM   20  C   UNL     1      -7.670  10.380  69.769  1.00  0.00    -0.126 C  
HETATM   21  O   UNL     1      -7.932  12.113  68.135  1.00  0.00    -0.133 OA 
HETATM   22  N   UNL     1      -8.699  12.526  67.072  1.00  0.00    -0.205 NA 
HETATM   23  C   UNL     1      -9.646  11.592  66.888  1.00  0.00    -0.186 A  
BRANCH  23  24
HETATM   24  C   UNL     1     -10.611  11.722  65.785  1.00  0.00    -0.312 A  
HETATM   25  C   UNL     1     -11.788  12.467  65.978  1.00  0.00    -0.395 A  
HETATM   26  C   UNL     1     -12.632  12.801  64.917  1.00  0.00    -0.541 A  
HETATM   27  F   UNL     1     -12.132  12.916  67.194  1.00  0.00    -0.418 F  
HETATM   28  C   UNL     1     -12.299  12.428  63.622  1.00  0.00    -0.647 A  
HETATM   29  C   UNL     1     -11.184  11.621  63.413  1.00  0.00    -0.401 A  
HETATM   30  C   UNL     1     -10.388  11.213  64.493  1.00  0.00    -0.337 A  
HETATM   31 CL   UNL     1      -9.190  10.014  64.139  1.00  0.00    -0.297 Cl 
ENDBRANCH  23  24
ENDBRANCH  15  18
ENDBRANCH  12  14
TORSDOF 3
ENDMDL
MODEL       74
REMARK 921   NORMALIZED FREE ENERGY PREDICTED BY IDOCK:   -5.47 KCAL/MOL
REMARK 922        TOTAL FREE ENERGY PREDICTED BY IDOCK:   -7.79 KCAL/MOL
REMARK 923 INTER-LIGAND FREE ENERGY PREDICTED BY IDOCK:   -6.92 KCAL/MOL
REMARK 924 INTRA-LIGAND FREE ENERGY PREDICTED BY IDOCK:   -0.87 KCAL/MOL
REMARK 927      BINDING AFFINITY PREDICTED BY RF-SCORE:    0.00 PKD
ROOT
HETATM    1  C   UNL     1      -9.291   8.536  66.647  1.00  0.00    -0.189 C  
HETATM    2  S   UNL     1      -8.097   9.609  67.567  1.00  0.00    -0.114 SA 
HETATM    3  C   UNL     1      -7.630   8.280  68.771  1.00  0.00    -0.101 C  
HETATM    4  C   UNL     1      -6.174   8.465  69.209  1.00  0.00    -0.038 C  
HETATM    5  CA  UNL     1      -7.952   6.953  68.041  1.00  0.00    -0.115 C  
HETATM    6  C   UNL     1      -8.493   8.452  70.041  1.00  0.00    -0.125 C  
HETATM    7  N   UNL     1      -9.154   7.184  67.223  1.00  0.00    -0.121 N  
HETATM    8  C   UNL     1      -6.882   6.405  67.077  1.00  0.00    -0.066 C  
HETATM    9  OXT UNL     1      -5.675   6.444  67.248  1.00  0.00    -0.012 OA 
HETATM   10  O   UNL     1      -7.423   5.716  66.034  1.00  0.00    -0.079 OA 
HETATM   11  C   UNL     1     -10.393   7.193  67.807  1.00  0.00    -0.202 C  
HETATM   12  CA  UNL     1     -10.753   8.573  67.178  1.00  0.00    -0.139 C  
HETATM   13  O   UNL     1     -10.832   6.428  68.631  1.00  0.00    -0.256 OA 
ENDROOT
BRANCH  12  14
HETATM   14  N   UNL     1     -11.028   9.702  68.099  1.00  0.00    -0.469 N  
HETATM   15  C   UNL     1     -11.405  10.944  67.656  1.00  0.00    -0.270 C  
HETATM   16  H   UNL     1     -10.932   9.549  69.103  1.00  0.00     0.000 HD 
HETATM   17  O   UNL     1     -11.642  11.189  66.480  1.00  0.00    -0.278 OA 
BRANCH  15  18
HETATM   18  C   UNL     1     -11.508  11.952  68.703  1.00  0.00    -0.350 A  
HETATM   19  C   UNL     1     -12.020  11.719  69.964  1.00  0.00    -0.344 A  
HETATM   20  C   UNL     1     -12.568  10.543  70.671  1.00  0.00    -0.457 C  
HETATM   21  O   UNL     1     -11.950  12.859  70.693  1.00  0.00    -0.299 OA 
HETATM   22  N   UNL     1     -11.427  13.873  69.927  1.00  0.00    -0.223 NA 
HETATM   23  C   UNL     1     -11.162  13.351  68.718  1.00  0.00    -0.275 A  
BRANCH  23  24
HETATM   24  C   UNL     1     -10.546  14.182  67.671  1.00  0.00    -0.253 A  
HETATM   25  C   UNL     1     -11.326  14.622  66.588  1.00  0.00    -0.356 A  
HETATM   26  C   UNL     1     -10.861  15.577  65.682  1.00  0.00    -0.354 A  
HETATM   27  F   UNL     1     -12.572  14.161  66.398  1.00  0.00    -0.480 F  
HETATM   28  C   UNL     1      -9.608  16.148  65.861  1.00  0.00    -0.359 A  
HETATM   29  C   UNL     1      -8.782  15.672  66.875  1.00  0.00    -0.283 A  
HETATM   30  C   UNL     1      -9.221  14.648  67.728  1.00  0.00    -0.196 A  
HETATM   31 CL   UNL     1      -8.021  13.973  68.778  1.00  0.00    -0.118 Cl 
ENDBRANCH  23  24
ENDBRANCH  15  18
ENDBRANCH  12  14
TORSDOF 3
ENDMDL
MODEL       75
REMARK 921   NORMALIZED FREE ENERGY PREDICTED BY IDOCK:   -5.44 KCAL/MOL
REMARK 922        TOTAL FREE ENERGY PREDICTED BY IDOCK:   -7.75 KCAL/MOL
REMARK 923 INTER-LIGAND FREE ENERGY PREDICTED BY IDOCK:   -6.95 KCAL/MOL
REMARK 924 INTRA-LIGAND FREE ENERGY PREDICTED BY IDOCK:   -0.80 KCAL/MOL
REMARK 927      BINDING AFFINITY PREDICTED BY RF-SCORE:    0.00 PKD
ROOT
HETATM    1  C   UNL     1      -9.092  10.365  69.075  1.00  0.00    -0.187 C  
HETATM    2  S   UNL     1     -10.611   9.865  68.144  1.00  0.00    -0.234 SA 
HETATM    3  C   UNL     1      -9.701   8.696  67.030  1.00  0.00    -0.201 C  
HETATM    4  C   UNL     1     -10.617   7.534  66.637  1.00  0.00    -0.109 C  
HETATM    5  CA  UNL     1      -8.424   8.313  67.818  1.00  0.00    -0.131 C  
HETATM    6  C   UNL     1      -9.357   9.442  65.721  1.00  0.00    -0.301 C  
HETATM    7  N   UNL     1      -8.003   9.502  68.577  1.00  0.00    -0.092 N  
HETATM    8  C   UNL     1      -8.550   7.174  68.848  1.00  0.00    -0.129 C  
HETATM    9  OXT UNL     1      -9.219   6.161  68.720  1.00  0.00    -0.125 OA 
HETATM   10  O   UNL     1      -7.707   7.331  69.906  1.00  0.00    -0.098 OA 
HETATM   11  C   UNL     1      -7.340  10.522  67.949  1.00  0.00    -0.089 C  
HETATM   12  CA  UNL     1      -8.336  11.592  68.489  1.00  0.00    -0.146 C  
HETATM   13  O   UNL     1      -6.438  10.441  67.150  1.00  0.00    -0.069 OA 
ENDROOT
BRANCH  12  14
HETATM   14  N   UNL     1      -9.123  12.366  67.499  1.00  0.00    -0.177 N  
HETATM   15  C   UNL     1      -8.678  13.544  66.957  1.00  0.00    -0.187 C  
HETATM   16  H   UNL     1     -10.034  12.008  67.211  1.00  0.00     0.000 HD 
HETATM   17  O   UNL     1      -7.558  13.994  67.168  1.00  0.00    -0.123 OA 
BRANCH  15  18
HETATM   18  C   UNL     1      -9.646  14.218  66.101  1.00  0.00    -0.300 A  
HETATM   19  C   UNL     1     -10.331  13.610  65.068  1.00  0.00    -0.374 A  
HETATM   20  C   UNL     1     -10.379  12.245  64.503  1.00  0.00    -0.339 C  
HETATM   21  O   UNL     1     -11.164  14.510  64.492  1.00  0.00    -0.360 OA 
HETATM   22  N   UNL     1     -11.023  15.733  65.102  1.00  0.00    -0.394 NA 
HETATM   23  C   UNL     1     -10.105  15.583  66.070  1.00  0.00    -0.332 A  
BRANCH  23  24
HETATM   24  C   UNL     1      -9.758  16.715  66.944  1.00  0.00    -0.261 A  
HETATM   25  C   UNL     1      -8.666  17.536  66.614  1.00  0.00    -0.263 A  
HETATM   26  C   UNL     1      -8.417  18.738  67.280  1.00  0.00    -0.283 A  
HETATM   27  F   UNL     1      -7.830  17.210  65.616  1.00  0.00    -0.248 F  
HETATM   28  C   UNL     1      -9.284  19.170  68.275  1.00  0.00    -0.385 A  
HETATM   29  C   UNL     1     -10.324  18.339  68.679  1.00  0.00    -0.301 A  
HETATM   30  C   UNL     1     -10.517  17.091  68.067  1.00  0.00    -0.353 A  
HETATM   31 CL   UNL     1     -11.677  16.050  68.821  1.00  0.00    -0.365 Cl 
ENDBRANCH  23  24
ENDBRANCH  15  18
ENDBRANCH  12  14
TORSDOF 3
ENDMDL
MODEL       76
REMARK 921   NORMALIZED FREE ENERGY PREDICTED BY IDOCK:   -5.43 KCAL/MOL
REMARK 922        TOTAL FREE ENERGY PREDICTED BY IDOCK:   -7.75 KCAL/MOL
REMARK 923 INTER-LIGAND FREE ENERGY PREDICTED BY IDOCK:   -6.83 KCAL/MOL
REMARK 924 INTRA-LIGAND FREE ENERGY PREDICTED BY IDOCK:   -0.91 KCAL/MOL
REMARK 927      BINDING AFFINITY PREDICTED BY RF-SCORE:    0.00 PKD
ROOT
HETATM    1  C   UNL     1     -10.530  16.579  68.003  1.00  0.00    -0.313 C  
HETATM    2  S   UNL     1      -8.830  16.870  68.672  1.00  0.00    -0.253 SA 
HETATM    3  C   UNL     1      -8.268  17.826  67.187  1.00  0.00    -0.219 C  
HETATM    4  C   UNL     1      -7.238  18.878  67.606  1.00  0.00    -0.236 C  
HETATM    5  CA  UNL     1      -9.571  18.372  66.552  1.00  0.00    -0.327 C  
HETATM    6  C   UNL     1      -7.537  16.855  66.234  1.00  0.00    -0.312 C  
HETATM    7  N   UNL     1     -10.615  17.353  66.749  1.00  0.00    -0.249 N  
HETATM    8  C   UNL     1     -10.140  19.681  67.132  1.00  0.00    -0.411 C  
HETATM    9  OXT UNL     1      -9.490  20.640  67.513  1.00  0.00    -0.400 OA 
HETATM   10  O   UNL     1     -11.499  19.738  67.056  1.00  0.00     0.038 OA 
HETATM   11  C   UNL     1     -10.657  16.245  65.945  1.00  0.00    -0.297 C  
HETATM   12  CA  UNL     1     -10.693  15.277  67.166  1.00  0.00    -0.316 C  
HETATM   13  O   UNL     1     -10.521  16.190  64.746  1.00  0.00    -0.592 OA 
ENDROOT
BRANCH  12  14
HETATM   14  N   UNL     1      -9.573  14.319  67.322  1.00  0.00    -0.226 N  
HETATM   15  C   UNL     1      -9.614  13.269  68.204  1.00  0.00    -0.227 C  
HETATM   16  H   UNL     1      -8.737  14.445  66.752  1.00  0.00     0.000 HD 
HETATM   17  O   UNL     1     -10.613  12.983  68.853  1.00  0.00    -0.215 OA 
BRANCH  15  18
HETATM   18  C   UNL     1      -8.371  12.515  68.303  1.00  0.00    -0.167 A  
HETATM   19  C   UNL     1      -7.149  13.065  68.632  1.00  0.00    -0.103 A  
HETATM   20  C   UNL     1      -6.670  14.419  68.983  1.00  0.00    -0.107 C  
HETATM   21  O   UNL     1      -6.210  12.089  68.657  1.00  0.00    -0.051 OA 
HETATM   22  N   UNL     1      -6.779  10.886  68.312  1.00  0.00    -0.062 NA 
HETATM   23  C   UNL     1      -8.081  11.121  68.085  1.00  0.00    -0.128 A  
BRANCH  23  24
HETATM   24  C   UNL     1      -8.984  10.012  67.735  1.00  0.00    -0.133 A  
HETATM   25  C   UNL     1      -9.059   9.576  66.401  1.00  0.00    -0.159 A  
HETATM   26  C   UNL     1      -9.729   8.404  66.044  1.00  0.00    -0.146 A  
HETATM   27  F   UNL     1      -8.457  10.256  65.413  1.00  0.00    -0.137 F  
HETATM   28  C   UNL     1     -10.313   7.614  67.025  1.00  0.00    -0.400 A  
HETATM   29  C   UNL     1     -10.326   8.065  68.342  1.00  0.00    -0.236 A  
HETATM   30  C   UNL     1      -9.728   9.287  68.682  1.00  0.00    -0.150 A  
HETATM   31 CL   UNL     1     -10.028   9.854  70.290  1.00  0.00    -0.301 Cl 
ENDBRANCH  23  24
ENDBRANCH  15  18
ENDBRANCH  12  14
TORSDOF 3
ENDMDL
MODEL       77
REMARK 921   NORMALIZED FREE ENERGY PREDICTED BY IDOCK:   -5.42 KCAL/MOL
REMARK 922        TOTAL FREE ENERGY PREDICTED BY IDOCK:   -7.73 KCAL/MOL
REMARK 923 INTER-LIGAND FREE ENERGY PREDICTED BY IDOCK:   -6.74 KCAL/MOL
REMARK 924 INTRA-LIGAND FREE ENERGY PREDICTED BY IDOCK:   -0.98 KCAL/MOL
REMARK 927      BINDING AFFINITY PREDICTED BY RF-SCORE:    0.00 PKD
ROOT
HETATM    1  C   UNL     1      -8.087  15.438  67.896  1.00  0.00    -0.140 C  
HETATM    2  S   UNL     1      -8.848  15.172  66.231  1.00  0.00    -0.057 SA 
HETATM    3  C   UNL     1     -10.381  16.132  66.634  1.00  0.00    -0.296 C  
HETATM    4  C   UNL     1     -10.920  16.805  65.368  1.00  0.00    -0.062 C  
HETATM    5  CA  UNL     1      -9.960  17.086  67.779  1.00  0.00    -0.280 C  
HETATM    6  C   UNL     1     -11.469  15.137  67.096  1.00  0.00    -0.254 C  
HETATM    7  N   UNL     1      -8.983  16.367  68.612  1.00  0.00    -0.223 N  
HETATM    8  C   UNL     1      -9.282  18.410  67.376  1.00  0.00    -0.271 C  
HETATM    9  OXT UNL     1      -9.571  19.101  66.413  1.00  0.00    -0.337 OA 
HETATM   10  O   UNL     1      -8.382  18.838  68.304  1.00  0.00    -0.307 OA 
HETATM   11  C   UNL     1      -9.406  15.428  69.515  1.00  0.00    -0.252 C  
HETATM   12  CA  UNL     1      -8.428  14.352  68.956  1.00  0.00    -0.001 C  
HETATM   13  O   UNL     1     -10.337  15.500  70.281  1.00  0.00    -0.306 OA 
ENDROOT
BRANCH  12  14
HETATM   14  N   UNL     1      -9.014  13.116  68.382  1.00  0.00    -0.308 N  
HETATM   15  C   UNL     1      -8.412  11.889  68.497  1.00  0.00    -0.113 C  
HETATM   16  H   UNL     1      -9.900  13.182  67.882  1.00  0.00     0.000 HD 
HETATM   17  O   UNL     1      -7.403  11.701  69.164  1.00  0.00    -0.102 OA 
BRANCH  15  18
HETATM   18  C   UNL     1      -9.076  10.821  67.761  1.00  0.00    -0.151 A  
HETATM   19  C   UNL     1      -8.675  10.359  66.523  1.00  0.00    -0.136 A  
HETATM   20  C   UNL     1      -7.577  10.684  65.590  1.00  0.00    -0.100 C  
HETATM   21  O   UNL     1      -9.493   9.352  66.135  1.00  0.00    -0.187 OA 
HETATM   22  N   UNL     1     -10.468   9.150  67.082  1.00  0.00    -0.265 NA 
HETATM   23  C   UNL     1     -10.242  10.032  68.069  1.00  0.00    -0.181 A  
BRANCH  23  24
HETATM   24  C   UNL     1     -11.098  10.041  69.266  1.00  0.00    -0.248 A  
HETATM   25  C   UNL     1     -11.102   8.926  70.123  1.00  0.00    -0.201 A  
HETATM   26  C   UNL     1     -11.724   8.958  71.372  1.00  0.00    -0.385 A  
HETATM   27  F   UNL     1     -10.474   7.789  69.785  1.00  0.00    -0.210 F  
HETATM   28  C   UNL     1     -12.331  10.125  71.815  1.00  0.00    -0.401 A  
HETATM   29  C   UNL     1     -12.415  11.216  70.954  1.00  0.00    -0.509 A  
HETATM   30  C   UNL     1     -11.865  11.149  69.665  1.00  0.00    -0.348 A  
HETATM   31 CL   UNL     1     -12.252  12.466  68.609  1.00  0.00    -0.113 Cl 
ENDBRANCH  23  24
ENDBRANCH  15  18
ENDBRANCH  12  14
TORSDOF 3
ENDMDL
MODEL       78
REMARK 921   NORMALIZED FREE ENERGY PREDICTED BY IDOCK:   -5.41 KCAL/MOL
REMARK 922        TOTAL FREE ENERGY PREDICTED BY IDOCK:   -7.72 KCAL/MOL
REMARK 923 INTER-LIGAND FREE ENERGY PREDICTED BY IDOCK:   -6.32 KCAL/MOL
REMARK 924 INTRA-LIGAND FREE ENERGY PREDICTED BY IDOCK:   -1.39 KCAL/MOL
REMARK 927      BINDING AFFINITY PREDICTED BY RF-SCORE:    0.00 PKD
ROOT
HETATM    1  C   UNL     1     -11.047  11.031  67.014  1.00  0.00    -0.244 C  
HETATM    2  S   UNL     1      -9.855  11.387  68.384  1.00  0.00    -0.209 SA 
HETATM    3  C   UNL     1      -8.711  12.370  67.308  1.00  0.00    -0.191 C  
HETATM    4  C   UNL     1      -8.027  13.460  68.138  1.00  0.00    -0.150 C  
HETATM    5  CA  UNL     1      -9.597  12.867  66.139  1.00  0.00    -0.210 C  
HETATM    6  C   UNL     1      -7.588  11.432  66.810  1.00  0.00    -0.143 C  
HETATM    7  N   UNL     1     -10.576  11.806  65.850  1.00  0.00    -0.262 N  
HETATM    8  C   UNL     1     -10.417  14.150  66.375  1.00  0.00    -0.283 C  
HETATM    9  OXT UNL     1     -10.049  15.132  66.998  1.00  0.00    -0.239 OA 
HETATM   10  O   UNL     1     -11.590  14.154  65.683  1.00  0.00    -0.325 OA 
HETATM   11  C   UNL     1     -10.204  10.701  65.132  1.00  0.00    -0.299 C  
HETATM   12  CA  UNL     1     -10.760   9.728  66.214  1.00  0.00     0.114 C  
HETATM   13  O   UNL     1      -9.531  10.657  64.130  1.00  0.00    -0.232 OA 
ENDROOT
BRANCH  12  14
HETATM   14  N   UNL     1      -9.802   8.813  66.880  1.00  0.00    -0.206 N  
HETATM   15  C   UNL     1     -10.101   7.506  67.164  1.00  0.00    -0.247 C  
HETATM   16  H   UNL     1      -8.882   9.172  67.138  1.00  0.00     0.000 HD 
HETATM   17  O   UNL     1     -11.139   6.965  66.801  1.00  0.00    -0.321 OA 
BRANCH  15  18
HETATM   18  C   UNL     1      -9.079   6.806  67.932  1.00  0.00    -0.114 A  
HETATM   19  C   UNL     1      -8.029   6.103  67.375  1.00  0.00    -0.105 A  
HETATM   20  C   UNL     1      -7.567   5.827  66.000  1.00  0.00    -0.087 C  
HETATM   21  O   UNL     1      -7.256   5.595  68.365  1.00  0.00    -0.072 OA 
HETATM   22  N   UNL     1      -7.792   5.917  69.589  1.00  0.00    -0.096 NA 
HETATM   23  C   UNL     1      -8.899   6.641  69.352  1.00  0.00    -0.134 A  
BRANCH  23  24
HETATM   24  C   UNL     1      -9.685   7.180  70.472  1.00  0.00    -0.176 A  
HETATM   25  C   UNL     1     -10.933   6.612  70.780  1.00  0.00    -0.270 A  
HETATM   26  C   UNL     1     -11.625   6.936  71.949  1.00  0.00    -0.321 A  
HETATM   27  F   UNL     1     -11.500   5.704  69.971  1.00  0.00    -0.365 F  
HETATM   28  C   UNL     1     -11.062   7.815  72.865  1.00  0.00    -0.457 A  
HETATM   29  C   UNL     1      -9.868   8.456  72.547  1.00  0.00    -0.359 A  
HETATM   30  C   UNL     1      -9.221   8.193  71.330  1.00  0.00    -0.153 A  
HETATM   31 CL   UNL     1      -7.890   9.230  70.943  1.00  0.00    -0.170 Cl 
ENDBRANCH  23  24
ENDBRANCH  15  18
ENDBRANCH  12  14
TORSDOF 3
ENDMDL
MODEL       79
REMARK 921   NORMALIZED FREE ENERGY PREDICTED BY IDOCK:   -5.38 KCAL/MOL
REMARK 922        TOTAL FREE ENERGY PREDICTED BY IDOCK:   -7.69 KCAL/MOL
REMARK 923 INTER-LIGAND FREE ENERGY PREDICTED BY IDOCK:   -6.36 KCAL/MOL
REMARK 924 INTRA-LIGAND FREE ENERGY PREDICTED BY IDOCK:   -1.33 KCAL/MOL
REMARK 927      BINDING AFFINITY PREDICTED BY RF-SCORE:    0.00 PKD
ROOT
HETATM    1  C   UNL     1      -9.012  11.942  67.851  1.00  0.00    -0.179 C  
HETATM    2  S   UNL     1      -8.193  10.900  66.561  1.00  0.00    -0.160 SA 
HETATM    3  C   UNL     1      -9.741  10.685  65.566  1.00  0.00    -0.237 C  
HETATM    4  C   UNL     1      -9.390  10.555  64.081  1.00  0.00    -0.309 C  
HETATM    5  CA  UNL     1     -10.627  11.896  65.947  1.00  0.00    -0.266 C  
HETATM    6  C   UNL     1     -10.399   9.348  65.977  1.00  0.00    -0.081 C  
HETATM    7  N   UNL     1     -10.386  12.185  67.370  1.00  0.00    -0.204 N  
HETATM    8  C   UNL     1     -10.372  13.216  65.195  1.00  0.00    -0.311 C  
HETATM    9  OXT UNL     1     -10.091  13.327  64.013  1.00  0.00    -0.337 OA 
HETATM   10  O   UNL     1     -10.633  14.311  65.962  1.00  0.00    -0.288 OA 
HETATM   11  C   UNL     1     -10.974  11.417  68.339  1.00  0.00    -0.215 C  
HETATM   12  CA  UNL     1      -9.613  11.153  69.050  1.00  0.00    -0.083 C  
HETATM   13  O   UNL     1     -12.115  11.025  68.386  1.00  0.00    -0.594 OA 
ENDROOT
BRANCH  12  14
HETATM   14  N   UNL     1      -9.141   9.750  69.142  1.00  0.00    -0.155 N  
HETATM   15  C   UNL     1      -8.018   9.391  69.842  1.00  0.00    -0.130 C  
HETATM   16  H   UNL     1      -9.673   9.023  68.664  1.00  0.00     0.000 HD 
HETATM   17  O   UNL     1      -7.378  10.180  70.527  1.00  0.00    -0.292 OA 
BRANCH  15  18
HETATM   18  C   UNL     1      -7.649   7.987  69.711  1.00  0.00    -0.092 A  
HETATM   19  C   UNL     1      -6.455   7.541  69.180  1.00  0.00    -0.040 A  
HETATM   20  C   UNL     1      -5.246   8.189  68.631  1.00  0.00    -0.031 C  
HETATM   21  O   UNL     1      -6.424   6.187  69.224  1.00  0.00    -0.039 OA 
HETATM   22  N   UNL     1      -7.601   5.710  69.749  1.00  0.00    -0.074 NA 
HETATM   23  C   UNL     1      -8.360   6.779  70.041  1.00  0.00    -0.135 A  
BRANCH  23  24
HETATM   24  C   UNL     1      -9.680   6.601  70.666  1.00  0.00    -0.183 A  
HETATM   25  C   UNL     1      -9.777   6.510  72.066  1.00  0.00    -0.149 A  
HETATM   26  C   UNL     1     -11.007   6.553  72.725  1.00  0.00    -0.286 A  
HETATM   27  F   UNL     1      -8.680   6.410  72.832  1.00  0.00    -0.124 F  
HETATM   28  C   UNL     1     -12.177   6.728  71.998  1.00  0.00    -0.331 A  
HETATM   29  C   UNL     1     -12.118   6.737  70.607  1.00  0.00    -0.371 A  
HETATM   30  C   UNL     1     -10.888   6.604  69.946  1.00  0.00    -0.278 A  
HETATM   31 CL   UNL     1     -10.971   6.376  68.232  1.00  0.00    -0.383 Cl 
ENDBRANCH  23  24
ENDBRANCH  15  18
ENDBRANCH  12  14
TORSDOF 3
ENDMDL
MODEL       80
REMARK 921   NORMALIZED FREE ENERGY PREDICTED BY IDOCK:   -5.37 KCAL/MOL
REMARK 922        TOTAL FREE ENERGY PREDICTED BY IDOCK:   -7.67 KCAL/MOL
REMARK 923 INTER-LIGAND FREE ENERGY PREDICTED BY IDOCK:   -6.93 KCAL/MOL
REMARK 924 INTRA-LIGAND FREE ENERGY PREDICTED BY IDOCK:   -0.74 KCAL/MOL
REMARK 927      BINDING AFFINITY PREDICTED BY RF-SCORE:    0.00 PKD
ROOT
HETATM    1  C   UNL     1      -8.733  11.426  68.828  1.00  0.00    -0.076 C  
HETATM    2  S   UNL     1     -10.181  10.936  67.785  1.00  0.00    -0.188 SA 
HETATM    3  C   UNL     1      -9.156   9.960  66.590  1.00  0.00    -0.147 C  
HETATM    4  C   UNL     1      -9.977   8.793  66.034  1.00  0.00    -0.153 C  
HETATM    5  CA  UNL     1      -7.884   9.573  67.384  1.00  0.00    -0.102 C  
HETATM    6  C   UNL     1      -8.818  10.868  65.386  1.00  0.00    -0.192 C  
HETATM    7  N   UNL     1      -7.572  10.694  68.285  1.00  0.00    -0.094 N  
HETATM    8  C   UNL     1      -7.968   8.320  68.277  1.00  0.00    -0.119 C  
HETATM    9  OXT UNL     1      -8.561   7.288  68.012  1.00  0.00    -0.125 OA 
HETATM   10  O   UNL     1      -7.174   8.412  69.380  1.00  0.00    -0.057 OA 
HETATM   11  C   UNL     1      -6.958  11.818  67.800  1.00  0.00    -0.094 C  
HETATM   12  CA  UNL     1      -8.042  12.756  68.412  1.00  0.00    -0.129 C  
HETATM   13  O   UNL     1      -6.025  11.885  67.036  1.00  0.00    -0.139 OA 
ENDROOT
BRANCH  12  14
HETATM   14  N   UNL     1      -8.846  13.584  67.481  1.00  0.00    -0.197 N  
HETATM   15  C   UNL     1      -8.352  14.713  66.879  1.00  0.00    -0.126 C  
HETATM   16  H   UNL     1      -9.806  13.302  67.280  1.00  0.00     0.000 HD 
HETATM   17  O   UNL     1      -7.184  15.067  66.983  1.00  0.00    -0.161 OA 
BRANCH  15  18
HETATM   18  C   UNL     1      -9.331  15.458  66.098  1.00  0.00    -0.367 A  
HETATM   19  C   UNL     1     -10.163  14.897  65.150  1.00  0.00    -0.375 A  
HETATM   20  C   UNL     1     -10.388  13.533  64.629  1.00  0.00    -0.406 C  
HETATM   21  O   UNL     1     -10.962  15.860  64.630  1.00  0.00    -0.528 OA 
HETATM   22  N   UNL     1     -10.654  17.076  65.191  1.00  0.00    -0.687 NA 
HETATM   23  C   UNL     1      -9.666  16.859  66.075  1.00  0.00    -0.233 A  
BRANCH  23  24
HETATM   24  C   UNL     1      -9.137  17.970  66.883  1.00  0.00    -0.273 A  
HETATM   25  C   UNL     1      -9.939  18.537  67.889  1.00  0.00    -0.346 A  
HETATM   26  C   UNL     1      -9.424  19.441  68.820  1.00  0.00    -0.464 A  
HETATM   27  F   UNL     1     -11.232  18.204  68.014  1.00  0.00    -0.264 F  
HETATM   28  C   UNL     1      -8.077  19.774  68.792  1.00  0.00    -0.230 A  
HETATM   29  C   UNL     1      -7.279  19.293  67.757  1.00  0.00    -0.274 A  
HETATM   30  C   UNL     1      -7.822  18.455  66.771  1.00  0.00    -0.235 A  
HETATM   31 CL   UNL     1      -6.802  18.131  65.410  1.00  0.00    -0.150 Cl 
ENDBRANCH  23  24
ENDBRANCH  15  18
ENDBRANCH  12  14
TORSDOF 3
ENDMDL
MODEL       81
REMARK 921   NORMALIZED FREE ENERGY PREDICTED BY IDOCK:   -5.34 KCAL/MOL
REMARK 922        TOTAL FREE ENERGY PREDICTED BY IDOCK:   -7.64 KCAL/MOL
REMARK 923 INTER-LIGAND FREE ENERGY PREDICTED BY IDOCK:   -6.70 KCAL/MOL
REMARK 924 INTRA-LIGAND FREE ENERGY PREDICTED BY IDOCK:   -0.95 KCAL/MOL
REMARK 927      BINDING AFFINITY PREDICTED BY RF-SCORE:    0.00 PKD
ROOT
HETATM    1  C   UNL     1      -8.683  11.578  66.359  1.00  0.00    -0.179 C  
HETATM    2  S   UNL     1      -6.887  11.426  66.778  1.00  0.00    -0.106 SA 
HETATM    3  C   UNL     1      -7.183  10.283  68.206  1.00  0.00    -0.083 C  
HETATM    4  C   UNL     1      -5.997   9.327  68.360  1.00  0.00    -0.045 C  
HETATM    5  CA  UNL     1      -8.551   9.621  67.906  1.00  0.00    -0.122 C  
HETATM    6  C   UNL     1      -7.234  11.128  69.500  1.00  0.00    -0.058 C  
HETATM    7  N   UNL     1      -9.391  10.632  67.243  1.00  0.00    -0.150 N  
HETATM    8  C   UNL     1      -8.546   8.395  66.974  1.00  0.00    -0.122 C  
HETATM    9  OXT UNL     1      -7.701   7.515  66.947  1.00  0.00    -0.105 OA 
HETATM   10  O   UNL     1      -9.689   8.294  66.240  1.00  0.00    -0.230 OA 
HETATM   11  C   UNL     1      -9.999  11.613  67.980  1.00  0.00    -0.188 C  
HETATM   12  CA  UNL     1      -9.429  12.743  67.072  1.00  0.00    -0.233 C  
HETATM   13  O   UNL     1     -10.581  11.500  69.033  1.00  0.00    -0.210 OA 
ENDROOT
BRANCH  12  14
HETATM   14  N   UNL     1      -8.526  13.741  67.694  1.00  0.00    -0.169 N  
HETATM   15  C   UNL     1      -8.984  14.758  68.492  1.00  0.00    -0.182 C  
HETATM   16  H   UNL     1      -7.523  13.670  67.521  1.00  0.00     0.000 HD 
HETATM   17  O   UNL     1     -10.156  14.860  68.835  1.00  0.00    -0.224 OA 
BRANCH  15  18
HETATM   18  C   UNL     1      -7.960  15.708  68.907  1.00  0.00    -0.193 A  
HETATM   19  C   UNL     1      -6.873  15.389  69.695  1.00  0.00    -0.185 A  
HETATM   20  C   UNL     1      -6.364  14.155  70.328  1.00  0.00    -0.121 C  
HETATM   21  O   UNL     1      -6.109  16.494  69.873  1.00  0.00    -0.208 OA 
HETATM   22  N   UNL     1      -6.688  17.569  69.241  1.00  0.00    -0.245 NA 
HETATM   23  C   UNL     1      -7.812  17.120  68.659  1.00  0.00    -0.265 A  
BRANCH  23  24
HETATM   24  C   UNL     1      -8.646  18.030  67.858  1.00  0.00    -0.258 A  
HETATM   25  C   UNL     1      -9.910  18.414  68.338  1.00  0.00    -0.371 A  
HETATM   26  C   UNL     1     -10.652  19.430  67.733  1.00  0.00    -0.538 A  
HETATM   27  F   UNL     1     -10.443  17.837  69.425  1.00  0.00    -0.353 F  
HETATM   28  C   UNL     1     -10.128  20.118  66.646  1.00  0.00    -0.584 A  
HETATM   29  C   UNL     1      -8.917  19.703  66.099  1.00  0.00    -0.375 A  
HETATM   30  C   UNL     1      -8.217  18.623  66.657  1.00  0.00    -0.278 A  
HETATM   31 CL   UNL     1      -6.864  18.046  65.744  1.00  0.00    -0.319 Cl 
ENDBRANCH  23  24
ENDBRANCH  15  18
ENDBRANCH  12  14
TORSDOF 3
ENDMDL
MODEL       82
REMARK 921   NORMALIZED FREE ENERGY PREDICTED BY IDOCK:   -5.33 KCAL/MOL
REMARK 922        TOTAL FREE ENERGY PREDICTED BY IDOCK:   -7.63 KCAL/MOL
REMARK 923 INTER-LIGAND FREE ENERGY PREDICTED BY IDOCK:   -6.48 KCAL/MOL
REMARK 924 INTRA-LIGAND FREE ENERGY PREDICTED BY IDOCK:   -1.15 KCAL/MOL
REMARK 927      BINDING AFFINITY PREDICTED BY RF-SCORE:    0.00 PKD
ROOT
HETATM    1  C   UNL     1      -7.746   5.912  68.674  1.00  0.00    -0.094 C  
HETATM    2  S   UNL     1      -9.385   5.063  68.539  1.00  0.00    -0.134 SA 
HETATM    3  C   UNL     1      -9.700   5.663  66.814  1.00  0.00    -0.154 C  
HETATM    4  C   UNL     1     -10.528   4.629  66.047  1.00  0.00    -0.303 C  
HETATM    5  CA  UNL     1      -8.294   5.965  66.238  1.00  0.00    -0.117 C  
HETATM    6  C   UNL     1     -10.565   6.941  66.896  1.00  0.00    -0.372 C  
HETATM    7  N   UNL     1      -7.470   6.483  67.342  1.00  0.00    -0.090 N  
HETATM    8  C   UNL     1      -7.511   4.780  65.642  1.00  0.00    -0.081 C  
HETATM    9  OXT UNL     1      -7.982   3.861  64.992  1.00  0.00    -0.091 OA 
HETATM   10  O   UNL     1      -6.164   4.919  65.789  1.00  0.00    -0.032 OA 
HETATM   11  C   UNL     1      -7.608   7.782  67.754  1.00  0.00    -0.113 C  
HETATM   12  CA  UNL     1      -7.800   7.359  69.242  1.00  0.00    -0.116 C  
HETATM   13  O   UNL     1      -7.706   8.773  67.071  1.00  0.00    -0.093 OA 
ENDROOT
BRANCH  12  14
HETATM   14  N   UNL     1      -9.087   7.700  69.896  1.00  0.00    -0.147 N  
HETATM   15  C   UNL     1      -9.275   8.861  70.600  1.00  0.00    -0.213 C  
HETATM   16  H   UNL     1      -9.863   7.043  69.820  1.00  0.00     0.000 HD 
HETATM   17  O   UNL     1      -8.433   9.750  70.658  1.00  0.00    -0.200 OA 
BRANCH  15  18
HETATM   18  C   UNL     1     -10.563   8.957  71.274  1.00  0.00    -0.351 A  
HETATM   19  C   UNL     1     -11.504   9.935  71.023  1.00  0.00    -0.388 A  
HETATM   20  C   UNL     1     -11.595  11.091  70.107  1.00  0.00    -0.421 C  
HETATM   21  O   UNL     1     -12.592   9.720  71.802  1.00  0.00    -0.373 OA 
HETATM   22  N   UNL     1     -12.382   8.625  72.605  1.00  0.00    -0.315 NA 
HETATM   23  C   UNL     1     -11.160   8.153  72.310  1.00  0.00    -0.344 A  
BRANCH  23  24
HETATM   24  C   UNL     1     -10.652   6.943  72.976  1.00  0.00    -0.307 A  
HETATM   25  C   UNL     1     -11.395   5.752  72.909  1.00  0.00    -0.252 A  
HETATM   26  C   UNL     1     -10.871   4.530  73.336  1.00  0.00    -0.350 A  
HETATM   27  F   UNL     1     -12.636   5.736  72.398  1.00  0.00    -0.319 F  
HETATM   28  C   UNL     1      -9.567   4.462  73.809  1.00  0.00    -0.141 A  
HETATM   29  C   UNL     1      -8.839   5.639  73.964  1.00  0.00    -0.119 A  
HETATM   30  C   UNL     1      -9.402   6.876  73.617  1.00  0.00    -0.178 A  
HETATM   31 CL   UNL     1      -8.500   8.276  74.089  1.00  0.00    -0.270 Cl 
ENDBRANCH  23  24
ENDBRANCH  15  18
ENDBRANCH  12  14
TORSDOF 3
ENDMDL
MODEL       83
REMARK 921   NORMALIZED FREE ENERGY PREDICTED BY IDOCK:   -5.33 KCAL/MOL
REMARK 922        TOTAL FREE ENERGY PREDICTED BY IDOCK:   -7.63 KCAL/MOL
REMARK 923 INTER-LIGAND FREE ENERGY PREDICTED BY IDOCK:   -6.09 KCAL/MOL
REMARK 924 INTRA-LIGAND FREE ENERGY PREDICTED BY IDOCK:   -1.54 KCAL/MOL
REMARK 927      BINDING AFFINITY PREDICTED BY RF-SCORE:    0.00 PKD
ROOT
HETATM    1  C   UNL     1     -10.341   7.806  69.169  1.00  0.00    -0.215 C  
HETATM    2  S   UNL     1      -8.768   8.139  68.253  1.00  0.00    -0.133 SA 
HETATM    3  C   UNL     1      -7.699   7.929  69.752  1.00  0.00    -0.099 C  
HETATM    4  C   UNL     1      -6.333   7.372  69.342  1.00  0.00    -0.035 C  
HETATM    5  CA  UNL     1      -8.531   7.042  70.711  1.00  0.00    -0.135 C  
HETATM    6  C   UNL     1      -7.436   9.326  70.359  1.00  0.00    -0.124 C  
HETATM    7  N   UNL     1      -9.944   7.412  70.535  1.00  0.00    -0.184 N  
HETATM    8  C   UNL     1      -8.460   5.518  70.494  1.00  0.00    -0.123 C  
HETATM    9  OXT UNL     1      -7.468   4.883  70.176  1.00  0.00    -0.056 OA 
HETATM   10  O   UNL     1      -9.618   4.889  70.836  1.00  0.00    -0.154 OA 
HETATM   11  C   UNL     1     -10.437   8.548  71.119  1.00  0.00    -0.221 C  
HETATM   12  CA  UNL     1     -11.029   9.065  69.773  1.00  0.00    -0.166 C  
HETATM   13  O   UNL     1     -10.242   8.952  72.240  1.00  0.00    -0.296 OA 
ENDROOT
BRANCH  12  14
HETATM   14  N   UNL     1     -10.512  10.347  69.237  1.00  0.00    -0.220 N  
HETATM   15  C   UNL     1     -11.308  11.247  68.576  1.00  0.00    -0.276 C  
HETATM   16  H   UNL     1      -9.524  10.568  69.365  1.00  0.00     0.000 HD 
HETATM   17  O   UNL     1     -12.520  11.111  68.466  1.00  0.00    -0.452 OA 
BRANCH  15  18
HETATM   18  C   UNL     1     -10.592  12.387  68.016  1.00  0.00    -0.238 A  
HETATM   19  C   UNL     1     -10.686  13.678  68.494  1.00  0.00    -0.255 A  
HETATM   20  C   UNL     1     -11.412  14.336  69.600  1.00  0.00    -0.334 C  
HETATM   21  O   UNL     1      -9.879  14.485  67.763  1.00  0.00    -0.217 OA 
HETATM   22  N   UNL     1      -9.266  13.759  66.771  1.00  0.00    -0.253 NA 
HETATM   23  C   UNL     1      -9.689  12.490  66.898  1.00  0.00    -0.232 A  
BRANCH  23  24
HETATM   24  C   UNL     1      -9.174  11.444  66.000  1.00  0.00    -0.229 A  
HETATM   25  C   UNL     1      -9.988  10.964  64.959  1.00  0.00    -0.298 A  
HETATM   26  C   UNL     1      -9.487  10.133  63.954  1.00  0.00    -0.332 A  
HETATM   27  F   UNL     1     -11.280  11.313  64.871  1.00  0.00    -0.325 F  
HETATM   28  C   UNL     1      -8.142   9.791  63.945  1.00  0.00    -0.150 A  
HETATM   29  C   UNL     1      -7.333  10.183  65.008  1.00  0.00    -0.139 A  
HETATM   30  C   UNL     1      -7.862  10.944  66.061  1.00  0.00    -0.121 A  
HETATM   31 CL   UNL     1      -6.829  11.153  67.436  1.00  0.00    -0.083 Cl 
ENDBRANCH  23  24
ENDBRANCH  15  18
ENDBRANCH  12  14
TORSDOF 3
ENDMDL
MODEL       84
REMARK 921   NORMALIZED FREE ENERGY PREDICTED BY IDOCK:   -5.28 KCAL/MOL
REMARK 922        TOTAL FREE ENERGY PREDICTED BY IDOCK:   -7.57 KCAL/MOL
REMARK 923 INTER-LIGAND FREE ENERGY PREDICTED BY IDOCK:   -6.66 KCAL/MOL
REMARK 924 INTRA-LIGAND FREE ENERGY PREDICTED BY IDOCK:   -0.91 KCAL/MOL
REMARK 927      BINDING AFFINITY PREDICTED BY RF-SCORE:    0.00 PKD
ROOT
HETATM    1  C   UNL     1     -10.609   9.038  68.289  1.00  0.00    -0.163 C  
HETATM    2  S   UNL     1      -8.806   8.652  68.138  1.00  0.00    -0.142 SA 
HETATM    3  C   UNL     1      -8.626   8.173  69.919  1.00  0.00    -0.130 C  
HETATM    4  C   UNL     1      -7.548   7.095  70.060  1.00  0.00    -0.091 C  
HETATM    5  CA  UNL     1     -10.052   7.765  70.365  1.00  0.00    -0.194 C  
HETATM    6  C   UNL     1      -8.117   9.404  70.702  1.00  0.00    -0.197 C  
HETATM    7  N   UNL     1     -11.000   8.640  69.656  1.00  0.00    -0.153 N  
HETATM    8  C   UNL     1     -10.496   6.322  70.061  1.00  0.00    -0.218 C  
HETATM    9  OXT UNL     1      -9.795   5.326  70.125  1.00  0.00    -0.184 OA 
HETATM   10  O   UNL     1     -11.836   6.225  69.837  1.00  0.00    -0.340 OA 
HETATM   11  C   UNL     1     -11.205   9.924  70.085  1.00  0.00    -0.289 C  
HETATM   12  CA  UNL     1     -10.936  10.512  68.667  1.00  0.00    -0.248 C  
HETATM   13  O   UNL     1     -11.351  10.316  71.218  1.00  0.00    -0.277 OA 
ENDROOT
BRANCH  12  14
HETATM   14  N   UNL     1      -9.791  11.440  68.508  1.00  0.00    -0.195 N  
HETATM   15  C   UNL     1      -9.711  12.350  67.485  1.00  0.00    -0.191 C  
HETATM   16  H   UNL     1      -9.031  11.400  69.188  1.00  0.00     0.000 HD 
HETATM   17  O   UNL     1     -10.620  12.536  66.686  1.00  0.00    -0.234 OA 
BRANCH  15  18
HETATM   18  C   UNL     1      -8.454  13.085  67.428  1.00  0.00    -0.200 A  
HETATM   19  C   UNL     1      -7.209  12.495  67.334  1.00  0.00    -0.146 A  
HETATM   20  C   UNL     1      -6.712  11.107  67.247  1.00  0.00    -0.091 C  
HETATM   21  O   UNL     1      -6.260  13.460  67.281  1.00  0.00    -0.313 OA 
HETATM   22  N   UNL     1      -6.847  14.699  67.374  1.00  0.00    -0.261 NA 
HETATM   23  C   UNL     1      -8.171  14.497  67.473  1.00  0.00    -0.187 A  
BRANCH  23  24
HETATM   24  C   UNL     1      -9.092  15.642  67.545  1.00  0.00    -0.198 A  
HETATM   25  C   UNL     1      -9.243  16.335  68.759  1.00  0.00    -0.240 A  
HETATM   26  C   UNL     1      -9.933  17.546  68.837  1.00  0.00    -0.313 A  
HETATM   27  F   UNL     1      -8.698  15.871  69.894  1.00  0.00    -0.172 F  
HETATM   28  C   UNL     1     -10.461  18.118  67.687  1.00  0.00    -0.432 A  
HETATM   29  C   UNL     1     -10.399  17.414  66.488  1.00  0.00    -0.312 A  
HETATM   30  C   UNL     1      -9.782  16.156  66.432  1.00  0.00    -0.286 A  
HETATM   31 CL   UNL     1      -9.990  15.276  64.955  1.00  0.00    -0.264 Cl 
ENDBRANCH  23  24
ENDBRANCH  15  18
ENDBRANCH  12  14
TORSDOF 3
ENDMDL
MODEL       85
REMARK 921   NORMALIZED FREE ENERGY PREDICTED BY IDOCK:   -5.26 KCAL/MOL
REMARK 922        TOTAL FREE ENERGY PREDICTED BY IDOCK:   -7.54 KCAL/MOL
REMARK 923 INTER-LIGAND FREE ENERGY PREDICTED BY IDOCK:   -6.74 KCAL/MOL
REMARK 924 INTRA-LIGAND FREE ENERGY PREDICTED BY IDOCK:   -0.81 KCAL/MOL
REMARK 927      BINDING AFFINITY PREDICTED BY RF-SCORE:    0.00 PKD
ROOT
HETATM    1  C   UNL     1     -11.382  15.041  66.729  1.00  0.00    -0.293 C  
HETATM    2  S   UNL     1      -9.980  14.775  65.551  1.00  0.00    -0.319 SA 
HETATM    3  C   UNL     1     -10.171  12.932  65.536  1.00  0.00    -0.287 C  
HETATM    4  C   UNL     1      -9.755  12.378  64.170  1.00  0.00    -0.025 C  
HETATM    5  CA  UNL     1     -11.644  12.684  65.945  1.00  0.00    -0.396 C  
HETATM    6  C   UNL     1      -9.188  12.334  66.567  1.00  0.00    -0.219 C  
HETATM    7  N   UNL     1     -12.007  13.718  66.927  1.00  0.00    -0.411 N  
HETATM    8  C   UNL     1     -12.705  12.766  64.830  1.00  0.00    -0.404 C  
HETATM    9  OXT UNL     1     -12.574  12.372  63.683  1.00  0.00    -0.658 OA 
HETATM   10  O   UNL     1     -13.909  13.209  65.288  1.00  0.00     0.320 OA 
HETATM   11  C   UNL     1     -11.599  13.604  68.230  1.00  0.00    -0.339 C  
HETATM   12  CA  UNL     1     -10.987  15.037  68.234  1.00  0.00    -0.271 C  
HETATM   13  O   UNL     1     -11.615  12.621  68.931  1.00  0.00    -0.274 OA 
ENDROOT
BRANCH  12  14
HETATM   14  N   UNL     1      -9.529  15.166  68.472  1.00  0.00    -0.197 N  
HETATM   15  C   UNL     1      -8.905  16.380  68.603  1.00  0.00    -0.234 C  
HETATM   16  H   UNL     1      -8.968  14.317  68.540  1.00  0.00     0.000 HD 
HETATM   17  O   UNL     1      -9.513  17.443  68.635  1.00  0.00    -0.272 OA 
BRANCH  15  18
HETATM   18  C   UNL     1      -7.453  16.303  68.706  1.00  0.00    -0.195 A  
HETATM   19  C   UNL     1      -6.766  15.258  69.289  1.00  0.00    -0.148 A  
HETATM   20  C   UNL     1      -7.147  13.981  69.929  1.00  0.00     0.232 C  
HETATM   21  O   UNL     1      -5.435  15.491  69.198  1.00  0.00    -0.096 OA 
HETATM   22  N   UNL     1      -5.213  16.703  68.590  1.00  0.00    -0.120 NA 
HETATM   23  C   UNL     1      -6.418  17.216  68.292  1.00  0.00    -0.153 A  
BRANCH  23  24
HETATM   24  C   UNL     1      -6.521  18.503  67.586  1.00  0.00    -0.204 A  
HETATM   25  C   UNL     1      -6.509  18.525  66.181  1.00  0.00    -0.221 A  
HETATM   26  C   UNL     1      -6.813  19.680  65.457  1.00  0.00    -0.321 A  
HETATM   27  F   UNL     1      -6.234  17.419  65.472  1.00  0.00    -0.129 F  
HETATM   28  C   UNL     1      -7.176  20.841  66.127  1.00  0.00    -0.048 A  
HETATM   29  C   UNL     1      -7.115  20.871  67.517  1.00  0.00    -0.389 A  
HETATM   30  C   UNL     1      -6.723  19.733  68.237  1.00  0.00    -0.280 A  
HETATM   31 CL   UNL     1      -6.445  19.968  69.930  1.00  0.00    -0.387 Cl 
ENDBRANCH  23  24
ENDBRANCH  15  18
ENDBRANCH  12  14
TORSDOF 3
ENDMDL
MODEL       86
REMARK 921   NORMALIZED FREE ENERGY PREDICTED BY IDOCK:   -5.23 KCAL/MOL
REMARK 922        TOTAL FREE ENERGY PREDICTED BY IDOCK:   -7.51 KCAL/MOL
REMARK 923 INTER-LIGAND FREE ENERGY PREDICTED BY IDOCK:   -6.16 KCAL/MOL
REMARK 924 INTRA-LIGAND FREE ENERGY PREDICTED BY IDOCK:   -1.35 KCAL/MOL
REMARK 927      BINDING AFFINITY PREDICTED BY RF-SCORE:    0.00 PKD
ROOT
HETATM    1  C   UNL     1      -8.047  15.773  68.766  1.00  0.00    -0.179 C  
HETATM    2  S   UNL     1      -7.454  15.923  67.021  1.00  0.00    -0.197 SA 
HETATM    3  C   UNL     1      -8.342  17.521  66.718  1.00  0.00    -0.251 C  
HETATM    4  C   UNL     1      -7.553  18.372  65.720  1.00  0.00    -0.072 C  
HETATM    5  CA  UNL     1      -8.538  18.137  68.126  1.00  0.00    -0.274 C  
HETATM    6  C   UNL     1      -9.697  17.202  66.046  1.00  0.00    -0.213 C  
HETATM    7  N   UNL     1      -8.770  17.026  69.062  1.00  0.00    -0.190 N  
HETATM    8  C   UNL     1      -7.361  18.944  68.707  1.00  0.00    -0.322 C  
HETATM    9  OXT UNL     1      -6.621  19.687  68.083  1.00  0.00    -0.244 OA 
HETATM   10  O   UNL     1      -7.296  18.866  70.065  1.00  0.00     0.371 OA 
HETATM   11  C   UNL     1      -9.999  16.424  69.127  1.00  0.00    -0.273 C  
HETATM   12  CA  UNL     1      -9.387  15.003  68.942  1.00  0.00    -0.208 C  
HETATM   13  O   UNL     1     -11.085  16.952  69.139  1.00  0.00    -0.222 OA 
ENDROOT
BRANCH  12  14
HETATM   14  N   UNL     1      -9.794  14.225  67.746  1.00  0.00    -0.220 N  
HETATM   15  C   UNL     1     -10.885  13.395  67.738  1.00  0.00    -0.252 C  
HETATM   16  H   UNL     1      -9.238  14.311  66.895  1.00  0.00     0.000 HD 
HETATM   17  O   UNL     1     -11.664  13.309  68.680  1.00  0.00    -0.299 OA 
BRANCH  15  18
HETATM   18  C   UNL     1     -11.048  12.624  66.513  1.00  0.00    -0.320 A  
HETATM   19  C   UNL     1     -11.719  13.071  65.392  1.00  0.00    -0.364 A  
HETATM   20  C   UNL     1     -12.421  14.317  65.020  1.00  0.00    -0.409 C  
HETATM   21  O   UNL     1     -11.665  12.120  64.429  1.00  0.00    -0.347 OA 
HETATM   22  N   UNL     1     -10.992  11.017  64.898  1.00  0.00    -0.142 NA 
HETATM   23  C   UNL     1     -10.618  11.295  66.158  1.00  0.00    -0.258 A  
BRANCH  23  24
HETATM   24  C   UNL     1      -9.832  10.320  66.930  1.00  0.00    -0.244 A  
HETATM   25  C   UNL     1     -10.419   9.673  68.031  1.00  0.00    -0.229 A  
HETATM   26  C   UNL     1      -9.803   8.593  68.668  1.00  0.00    -0.180 A  
HETATM   27  F   UNL     1     -11.620  10.049  68.497  1.00  0.00    -0.222 F  
HETATM   28  C   UNL     1      -8.592   8.107  68.192  1.00  0.00    -0.129 A  
HETATM   29  C   UNL     1      -7.949   8.781  67.157  1.00  0.00    -0.096 A  
HETATM   30  C   UNL     1      -8.531   9.919  66.579  1.00  0.00    -0.125 A  
HETATM   31 CL   UNL     1      -7.526  10.808  65.484  1.00  0.00    -0.056 Cl 
ENDBRANCH  23  24
ENDBRANCH  15  18
ENDBRANCH  12  14
TORSDOF 3
ENDMDL
MODEL       87
REMARK 921   NORMALIZED FREE ENERGY PREDICTED BY IDOCK:   -5.19 KCAL/MOL
REMARK 922        TOTAL FREE ENERGY PREDICTED BY IDOCK:   -7.47 KCAL/MOL
REMARK 923 INTER-LIGAND FREE ENERGY PREDICTED BY IDOCK:   -6.41 KCAL/MOL
REMARK 924 INTRA-LIGAND FREE ENERGY PREDICTED BY IDOCK:   -1.06 KCAL/MOL
REMARK 927      BINDING AFFINITY PREDICTED BY RF-SCORE:    0.00 PKD
ROOT
HETATM    1  C   UNL     1     -10.912   8.097  71.077  1.00  0.00    -0.244 C  
HETATM    2  S   UNL     1     -10.609   7.255  69.458  1.00  0.00    -0.230 SA 
HETATM    3  C   UNL     1      -9.031   6.461  70.019  1.00  0.00    -0.146 C  
HETATM    4  C   UNL     1      -8.844   5.118  69.308  1.00  0.00    -0.115 C  
HETATM    5  CA  UNL     1      -9.145   6.399  71.562  1.00  0.00    -0.144 C  
HETATM    6  C   UNL     1      -7.853   7.358  69.573  1.00  0.00    -0.121 C  
HETATM    7  N   UNL     1      -9.867   7.606  71.997  1.00  0.00    -0.163 N  
HETATM    8  C   UNL     1      -9.914   5.206  72.160  1.00  0.00    -0.187 C  
HETATM    9  OXT UNL     1      -9.891   4.057  71.749  1.00  0.00    -0.165 OA 
HETATM   10  O   UNL     1     -10.544   5.523  73.325  1.00  0.00    -0.212 OA 
HETATM   11  C   UNL     1      -9.216   8.809  72.068  1.00  0.00    -0.224 C  
HETATM   12  CA  UNL     1     -10.299   9.522  71.203  1.00  0.00    -0.260 C  
HETATM   13  O   UNL     1      -8.119   9.036  72.518  1.00  0.00    -0.331 OA 
ENDROOT
BRANCH  12  14
HETATM   14  N   UNL     1      -9.874  10.108  69.909  1.00  0.00    -0.369 N  
HETATM   15  C   UNL     1     -10.712  10.862  69.127  1.00  0.00    -0.226 C  
HETATM   16  H   UNL     1      -8.920   9.944  69.587  1.00  0.00     0.000 HD 
HETATM   17  O   UNL     1     -11.837  11.192  69.481  1.00  0.00    -0.295 OA 
BRANCH  15  18
HETATM   18  C   UNL     1     -10.152  11.243  67.837  1.00  0.00    -0.195 A  
HETATM   19  C   UNL     1      -9.975  10.377  66.776  1.00  0.00    -0.206 A  
HETATM   20  C   UNL     1     -10.250   8.946  66.535  1.00  0.00    -0.319 C  
HETATM   21  O   UNL     1      -9.454  11.057  65.726  1.00  0.00    -0.194 OA 
HETATM   22  N   UNL     1      -9.243  12.369  66.076  1.00  0.00    -0.120 NA 
HETATM   23  C   UNL     1      -9.648  12.502  67.350  1.00  0.00    -0.192 A  
BRANCH  23  24
HETATM   24  C   UNL     1      -9.591  13.815  68.011  1.00  0.00    -0.214 A  
HETATM   25  C   UNL     1      -8.443  14.177  68.736  1.00  0.00    -0.069 A  
HETATM   26  C   UNL     1      -8.244  15.477  69.205  1.00  0.00    -0.247 A  
HETATM   27  F   UNL     1      -7.469  13.287  68.982  1.00  0.00    -0.107 F  
HETATM   28  C   UNL     1      -9.178  16.465  68.924  1.00  0.00    -0.259 A  
HETATM   29  C   UNL     1     -10.363  16.117  68.281  1.00  0.00    -0.266 A  
HETATM   30  C   UNL     1     -10.598  14.790  67.892  1.00  0.00    -0.248 A  
HETATM   31 CL   UNL     1     -12.199  14.438  67.334  1.00  0.00    -0.341 Cl 
ENDBRANCH  23  24
ENDBRANCH  15  18
ENDBRANCH  12  14
TORSDOF 3
ENDMDL
MODEL       88
REMARK 921   NORMALIZED FREE ENERGY PREDICTED BY IDOCK:   -5.19 KCAL/MOL
REMARK 922        TOTAL FREE ENERGY PREDICTED BY IDOCK:   -7.46 KCAL/MOL
REMARK 923 INTER-LIGAND FREE ENERGY PREDICTED BY IDOCK:   -5.91 KCAL/MOL
REMARK 924 INTRA-LIGAND FREE ENERGY PREDICTED BY IDOCK:   -1.55 KCAL/MOL
REMARK 927      BINDING AFFINITY PREDICTED BY RF-SCORE:    0.00 PKD
ROOT
HETATM    1  C   UNL     1      -8.873  12.033  67.447  1.00  0.00    -0.178 C  
HETATM    2  S   UNL     1      -7.934  10.924  66.303  1.00  0.00    -0.146 SA 
HETATM    3  C   UNL     1      -9.452  10.336  65.417  1.00  0.00    -0.232 C  
HETATM    4  C   UNL     1      -9.112  10.021  63.958  1.00  0.00    -0.296 C  
HETATM    5  CA  UNL     1     -10.498  11.456  65.641  1.00  0.00    -0.262 C  
HETATM    6  C   UNL     1      -9.901   9.004  66.058  1.00  0.00    -0.312 C  
HETATM    7  N   UNL     1     -10.276  12.001  66.990  1.00  0.00    -0.203 N  
HETATM    8  C   UNL     1     -10.451  12.662  64.682  1.00  0.00    -0.337 C  
HETATM    9  OXT UNL     1     -10.210  12.620  63.487  1.00  0.00    -0.387 OA 
HETATM   10  O   UNL     1     -10.855  13.817  65.279  1.00  0.00    -0.299 OA 
HETATM   11  C   UNL     1     -10.729  11.323  68.090  1.00  0.00    -0.204 C  
HETATM   12  CA  UNL     1      -9.332  11.370  68.778  1.00  0.00    -0.106 C  
HETATM   13  O   UNL     1     -11.800  10.786  68.244  1.00  0.00    -0.504 OA 
ENDROOT
BRANCH  12  14
HETATM   14  N   UNL     1      -8.660  10.080  69.068  1.00  0.00    -0.142 N  
HETATM   15  C   UNL     1      -9.127   9.196  70.007  1.00  0.00    -0.192 C  
HETATM   16  H   UNL     1      -7.815   9.841  68.549  1.00  0.00     0.000 HD 
HETATM   17  O   UNL     1     -10.185   9.354  70.603  1.00  0.00    -0.246 OA 
BRANCH  15  18
HETATM   18  C   UNL     1      -8.262   8.046  70.235  1.00  0.00    -0.123 A  
HETATM   19  C   UNL     1      -7.407   7.914  71.311  1.00  0.00    -0.068 A  
HETATM   20  C   UNL     1      -7.078   8.736  72.495  1.00  0.00     0.064 C  
HETATM   21  O   UNL     1      -6.768   6.722  71.232  1.00  0.00    -0.055 OA 
HETATM   22  N   UNL     1      -7.156   6.059  70.092  1.00  0.00    -0.069 NA 
HETATM   23  C   UNL     1      -8.051   6.844  69.470  1.00  0.00    -0.130 A  
BRANCH  23  24
HETATM   24  C   UNL     1      -8.695   6.391  68.227  1.00  0.00    -0.116 A  
HETATM   25  C   UNL     1      -7.936   6.298  67.047  1.00  0.00    -0.109 A  
HETATM   26  C   UNL     1      -8.431   5.680  65.897  1.00  0.00    -0.136 A  
HETATM   27  F   UNL     1      -6.682   6.774  66.990  1.00  0.00    -0.050 F  
HETATM   28  C   UNL     1      -9.694   5.103  65.910  1.00  0.00    -0.159 A  
HETATM   29  C   UNL     1     -10.499   5.254  67.035  1.00  0.00    -0.290 A  
HETATM   30  C   UNL     1     -10.029   5.953  68.157  1.00  0.00    -0.145 A  
HETATM   31 CL   UNL     1     -11.204   6.288  69.385  1.00  0.00    -0.481 Cl 
ENDBRANCH  23  24
ENDBRANCH  15  18
ENDBRANCH  12  14
TORSDOF 3
ENDMDL
MODEL       89
REMARK 921   NORMALIZED FREE ENERGY PREDICTED BY IDOCK:   -5.18 KCAL/MOL
REMARK 922        TOTAL FREE ENERGY PREDICTED BY IDOCK:   -7.46 KCAL/MOL
REMARK 923 INTER-LIGAND FREE ENERGY PREDICTED BY IDOCK:   -7.11 KCAL/MOL
REMARK 924 INTRA-LIGAND FREE ENERGY PREDICTED BY IDOCK:   -0.35 KCAL/MOL
REMARK 927      BINDING AFFINITY PREDICTED BY RF-SCORE:    0.00 PKD
ROOT
HETATM    1  C   UNL     1      -9.530  14.422  66.968  1.00  0.00    -0.248 C  
HETATM    2  S   UNL     1      -9.968  13.164  65.684  1.00  0.00    -0.179 SA 
HETATM    3  C   UNL     1     -11.681  13.826  65.433  1.00  0.00    -0.335 C  
HETATM    4  C   UNL     1     -12.118  13.599  63.983  1.00  0.00    -0.474 C  
HETATM    5  CA  UNL     1     -11.605  15.303  65.892  1.00  0.00     0.003 C  
HETATM    6  C   UNL     1     -12.651  13.007  66.314  1.00  0.00     0.091 C  
HETATM    7  N   UNL     1     -10.667  15.363  67.024  1.00  0.00    -0.317 N  
HETATM    8  C   UNL     1     -11.098  16.332  64.864  1.00  0.00    -0.290 C  
HETATM    9  OXT UNL     1     -11.341  16.334  63.669  1.00  0.00    -0.653 OA 
HETATM   10  O   UNL     1     -10.436  17.369  65.448  1.00  0.00    -0.648 OA 
HETATM   11  C   UNL     1     -11.067  14.968  68.273  1.00  0.00    -0.286 C  
HETATM   12  CA  UNL     1      -9.851  14.006  68.432  1.00  0.00    -0.232 C  
HETATM   13  O   UNL     1     -12.105  15.221  68.836  1.00  0.00    -0.286 OA 
ENDROOT
BRANCH  12  14
HETATM   14  N   UNL     1     -10.131  12.559  68.598  1.00  0.00    -0.378 N  
HETATM   15  C   UNL     1     -10.979  12.074  69.560  1.00  0.00     0.007 C  
HETATM   16  H   UNL     1      -9.673  11.898  67.970  1.00  0.00     0.000 HD 
HETATM   17  O   UNL     1     -11.647  12.800  70.287  1.00  0.00    -0.163 OA 
BRANCH  15  18
HETATM   18  C   UNL     1     -11.027  10.620  69.644  1.00  0.00    -0.331 A  
HETATM   19  C   UNL     1     -11.937   9.912  70.403  1.00  0.00    -0.195 A  
HETATM   20  C   UNL     1     -13.069  10.269  71.284  1.00  0.00    -0.492 C  
HETATM   21  O   UNL     1     -11.719   8.585  70.240  1.00  0.00    -0.094 OA 
HETATM   22  N   UNL     1     -10.645   8.387  69.406  1.00  0.00    -0.219 NA 
HETATM   23  C   UNL     1     -10.205   9.602  69.041  1.00  0.00    -0.199 A  
BRANCH  23  24
HETATM   24  C   UNL     1      -9.079   9.731  68.103  1.00  0.00    -0.125 A  
HETATM   25  C   UNL     1      -9.302   9.562  66.725  1.00  0.00    -0.153 A  
HETATM   26  C   UNL     1      -8.328   9.877  65.776  1.00  0.00    -0.131 A  
HETATM   27  F   UNL     1     -10.480   9.117  66.263  1.00  0.00    -0.331 F  
HETATM   28  C   UNL     1      -7.111  10.409  66.181  1.00  0.00    -0.130 A  
HETATM   29  C   UNL     1      -6.833  10.509  67.541  1.00  0.00    -0.075 A  
HETATM   30  C   UNL     1      -7.782  10.108  68.494  1.00  0.00    -0.090 A  
HETATM   31 CL   UNL     1      -7.227  10.044  70.133  1.00  0.00    -0.154 Cl 
ENDBRANCH  23  24
ENDBRANCH  15  18
ENDBRANCH  12  14
TORSDOF 3
ENDMDL
MODEL       90
REMARK 921   NORMALIZED FREE ENERGY PREDICTED BY IDOCK:   -5.17 KCAL/MOL
REMARK 922        TOTAL FREE ENERGY PREDICTED BY IDOCK:   -7.44 KCAL/MOL
REMARK 923 INTER-LIGAND FREE ENERGY PREDICTED BY IDOCK:   -6.17 KCAL/MOL
REMARK 924 INTRA-LIGAND FREE ENERGY PREDICTED BY IDOCK:   -1.27 KCAL/MOL
REMARK 927      BINDING AFFINITY PREDICTED BY RF-SCORE:    0.00 PKD
ROOT
HETATM    1  C   UNL     1      -7.054   6.528  68.520  1.00  0.00    -0.083 C  
HETATM    2  S   UNL     1      -8.688   5.842  69.051  1.00  0.00    -0.113 SA 
HETATM    3  C   UNL     1      -8.938   4.878  67.488  1.00  0.00    -0.108 C  
HETATM    4  C   UNL     1      -9.740   3.608  67.784  1.00  0.00    -0.109 C  
HETATM    5  CA  UNL     1      -7.511   4.661  66.925  1.00  0.00    -0.086 C  
HETATM    6  C   UNL     1      -9.802   5.726  66.528  1.00  0.00    -0.193 C  
HETATM    7  N   UNL     1      -6.727   5.865  67.243  1.00  0.00    -0.059 N  
HETATM    8  C   UNL     1      -6.710   3.470  67.487  1.00  0.00    -0.042 C  
HETATM    9  OXT UNL     1      -7.159   2.374  67.777  1.00  0.00    -0.047 OA 
HETATM   10  O   UNL     1      -5.369   3.708  67.507  1.00  0.00    -0.014 OA 
HETATM   11  C   UNL     1      -6.876   7.002  66.494  1.00  0.00    -0.061 C  
HETATM   12  CA  UNL     1      -7.125   7.881  67.756  1.00  0.00    -0.086 C  
HETATM   13  O   UNL     1      -6.947   7.096  65.292  1.00  0.00    -0.053 OA 
ENDROOT
BRANCH  12  14
HETATM   14  N   UNL     1      -8.433   8.569  67.873  1.00  0.00    -0.130 N  
HETATM   15  C   UNL     1      -8.548   9.884  68.244  1.00  0.00    -0.115 C  
HETATM   16  H   UNL     1      -9.283   8.042  67.671  1.00  0.00     0.000 HD 
HETATM   17  O   UNL     1      -7.580  10.617  68.407  1.00  0.00    -0.091 OA 
BRANCH  15  18
HETATM   18  C   UNL     1      -9.919  10.342  68.424  1.00  0.00    -0.177 A  
HETATM   19  C   UNL     1     -10.669  10.133  69.564  1.00  0.00    -0.249 A  
HETATM   20  C   UNL     1     -10.431   9.482  70.869  1.00  0.00    -0.382 C  
HETATM   21  O   UNL     1     -11.888  10.704  69.410  1.00  0.00    -0.283 OA 
HETATM   22  N   UNL     1     -11.984  11.270  68.161  1.00  0.00    -0.641 NA 
HETATM   23  C   UNL     1     -10.810  11.055  67.544  1.00  0.00    -0.263 A  
BRANCH  23  24
HETATM   24  C   UNL     1     -10.577  11.583  66.190  1.00  0.00    -0.314 A  
HETATM   25  C   UNL     1     -10.394  10.690  65.121  1.00  0.00    -0.261 A  
HETATM   26  C   UNL     1     -10.380  11.121  63.792  1.00  0.00    -0.447 A  
HETATM   27  F   UNL     1     -10.257   9.372  65.333  1.00  0.00    -0.341 F  
HETATM   28  C   UNL     1     -10.588  12.462  63.497  1.00  0.00    -0.451 A  
HETATM   29  C   UNL     1     -10.688  13.380  64.539  1.00  0.00    -0.434 A  
HETATM   30  C   UNL     1     -10.612  12.953  65.873  1.00  0.00    -0.269 A  
HETATM   31 CL   UNL     1     -10.496  14.206  67.062  1.00  0.00    -0.270 Cl 
ENDBRANCH  23  24
ENDBRANCH  15  18
ENDBRANCH  12  14
TORSDOF 3
ENDMDL
MODEL       91
REMARK 921   NORMALIZED FREE ENERGY PREDICTED BY IDOCK:   -5.16 KCAL/MOL
REMARK 922        TOTAL FREE ENERGY PREDICTED BY IDOCK:   -7.43 KCAL/MOL
REMARK 923 INTER-LIGAND FREE ENERGY PREDICTED BY IDOCK:   -5.78 KCAL/MOL
REMARK 924 INTRA-LIGAND FREE ENERGY PREDICTED BY IDOCK:   -1.65 KCAL/MOL
REMARK 927      BINDING AFFINITY PREDICTED BY RF-SCORE:    0.00 PKD
ROOT
HETATM    1  C   UNL     1     -10.152   9.102  66.103  1.00  0.00    -0.208 C  
HETATM    2  S   UNL     1     -10.658   9.343  67.866  1.00  0.00    -0.211 SA 
HETATM    3  C   UNL     1      -9.930  11.043  67.978  1.00  0.00    -0.173 C  
HETATM    4  C   UNL     1     -10.747  11.894  68.955  1.00  0.00    -0.236 C  
HETATM    5  CA  UNL     1      -9.882  11.551  66.516  1.00  0.00    -0.202 C  
HETATM    6  C   UNL     1      -8.513  10.925  68.584  1.00  0.00    -0.152 C  
HETATM    7  N   UNL     1      -9.586  10.391  65.659  1.00  0.00    -0.209 N  
HETATM    8  C   UNL     1     -11.170  12.180  65.950  1.00  0.00    -0.339 C  
HETATM    9  OXT UNL     1     -11.948  12.895  66.559  1.00  0.00    -0.396 OA 
HETATM   10  O   UNL     1     -11.303  11.977  64.610  1.00  0.00    -0.316 OA 
HETATM   11  C   UNL     1      -8.306   9.915  65.563  1.00  0.00    -0.140 C  
HETATM   12  CA  UNL     1      -8.749   8.461  65.902  1.00  0.00    -0.169 C  
HETATM   13  O   UNL     1      -7.284  10.547  65.436  1.00  0.00    -0.138 OA 
ENDROOT
BRANCH  12  14
HETATM   14  N   UNL     1      -8.194   7.836  67.128  1.00  0.00    -0.117 N  
HETATM   15  C   UNL     1      -8.449   6.534  67.476  1.00  0.00    -0.120 C  
HETATM   16  H   UNL     1      -7.599   8.398  67.736  1.00  0.00     0.000 HD 
HETATM   17  O   UNL     1      -9.068   5.760  66.755  1.00  0.00    -0.121 OA 
BRANCH  15  18
HETATM   18  C   UNL     1      -7.919   6.143  68.775  1.00  0.00    -0.101 A  
HETATM   19  C   UNL     1      -6.709   5.506  68.965  1.00  0.00    -0.053 A  
HETATM   20  C   UNL     1      -5.617   5.048  68.082  1.00  0.00    -0.016 C  
HETATM   21  O   UNL     1      -6.511   5.307  70.290  1.00  0.00    -0.032 OA 
HETATM   22  N   UNL     1      -7.593   5.771  70.999  1.00  0.00    -0.093 NA 
HETATM   23  C   UNL     1      -8.460   6.272  70.105  1.00  0.00    -0.134 A  
BRANCH  23  24
HETATM   24  C   UNL     1      -9.715   6.892  70.557  1.00  0.00    -0.177 A  
HETATM   25  C   UNL     1     -10.942   6.281  70.243  1.00  0.00    -0.337 A  
HETATM   26  C   UNL     1     -12.144   6.701  70.817  1.00  0.00    -0.364 A  
HETATM   27  F   UNL     1     -11.003   5.241  69.398  1.00  0.00    -0.330 F  
HETATM   28  C   UNL     1     -12.144   7.726  71.754  1.00  0.00    -0.332 A  
HETATM   29  C   UNL     1     -10.957   8.403  72.020  1.00  0.00    -0.394 A  
HETATM   30  C   UNL     1      -9.767   8.035  71.374  1.00  0.00    -0.164 A  
HETATM   31 CL   UNL     1      -8.424   9.106  71.596  1.00  0.00    -0.013 Cl 
ENDBRANCH  23  24
ENDBRANCH  15  18
ENDBRANCH  12  14
TORSDOF 3
ENDMDL
MODEL       92
REMARK 921   NORMALIZED FREE ENERGY PREDICTED BY IDOCK:   -5.15 KCAL/MOL
REMARK 922        TOTAL FREE ENERGY PREDICTED BY IDOCK:   -7.42 KCAL/MOL
REMARK 923 INTER-LIGAND FREE ENERGY PREDICTED BY IDOCK:   -6.15 KCAL/MOL
REMARK 924 INTRA-LIGAND FREE ENERGY PREDICTED BY IDOCK:   -1.27 KCAL/MOL
REMARK 927      BINDING AFFINITY PREDICTED BY RF-SCORE:    0.00 PKD
ROOT
HETATM    1  C   UNL     1      -7.581  10.790  69.274  1.00  0.00    -0.129 C  
HETATM    2  S   UNL     1      -9.132  10.028  68.615  1.00  0.00    -0.145 SA 
HETATM    3  C   UNL     1      -8.341   9.466  67.036  1.00  0.00    -0.127 C  
HETATM    4  C   UNL     1      -9.009   8.176  66.551  1.00  0.00    -0.191 C  
HETATM    5  CA  UNL     1      -6.832   9.363  67.365  1.00  0.00    -0.080 C  
HETATM    6  C   UNL     1      -8.614  10.533  65.952  1.00  0.00    -0.170 C  
HETATM    7  N   UNL     1      -6.515  10.444  68.313  1.00  0.00    -0.059 N  
HETATM    8  C   UNL     1      -6.345   8.060  68.028  1.00  0.00    -0.051 C  
HETATM    9  OXT UNL     1      -6.742   6.934  67.776  1.00  0.00    -0.062 OA 
HETATM   10  O   UNL     1      -5.288   8.263  68.862  1.00  0.00    -0.030 OA 
HETATM   11  C   UNL     1      -6.356  11.728  67.866  1.00  0.00    -0.057 C  
HETATM   12  CA  UNL     1      -7.375  12.287  68.903  1.00  0.00    -0.041 C  
HETATM   13  O   UNL     1      -5.751  12.107  66.892  1.00  0.00    -0.252 OA 
ENDROOT
BRANCH  12  14
HETATM   14  N   UNL     1      -8.596  12.950  68.385  1.00  0.00    -0.290 N  
HETATM   15  C   UNL     1      -8.912  14.253  68.676  1.00  0.00    -0.154 C  
HETATM   16  H   UNL     1      -9.227  12.416  67.787  1.00  0.00     0.000 HD 
HETATM   17  O   UNL     1      -8.165  14.997  69.300  1.00  0.00    -0.182 OA 
BRANCH  15  18
HETATM   18  C   UNL     1     -10.212  14.684  68.179  1.00  0.00    -0.231 A  
HETATM   19  C   UNL     1     -10.479  14.997  66.861  1.00  0.00    -0.279 A  
HETATM   20  C   UNL     1      -9.696  15.006  65.607  1.00  0.00    -0.344 C  
HETATM   21  O   UNL     1     -11.784  15.337  66.736  1.00  0.00    -0.159 OA 
HETATM   22  N   UNL     1     -12.397  15.293  67.966  1.00  0.00     0.303 NA 
HETATM   23  C   UNL     1     -11.465  14.910  68.853  1.00  0.00    -0.299 A  
BRANCH  23  24
HETATM   24  C   UNL     1     -11.822  14.723  70.268  1.00  0.00    -0.357 A  
HETATM   25  C   UNL     1     -11.798  15.826  71.140  1.00  0.00    -0.425 A  
HETATM   26  C   UNL     1     -12.325  15.758  72.432  1.00  0.00    -0.548 A  
HETATM   27  F   UNL     1     -11.294  17.007  70.751  1.00  0.00    -0.172 F  
HETATM   28  C   UNL     1     -12.926  14.587  72.874  1.00  0.00    -0.582 A  
HETATM   29  C   UNL     1     -12.889  13.456  72.063  1.00  0.00    -0.328 A  
HETATM   30  C   UNL     1     -12.279  13.505  70.801  1.00  0.00    -0.338 A  
HETATM   31 CL   UNL     1     -12.075  11.983  70.001  1.00  0.00    -0.375 Cl 
ENDBRANCH  23  24
ENDBRANCH  15  18
ENDBRANCH  12  14
TORSDOF 3
ENDMDL
MODEL       93
REMARK 921   NORMALIZED FREE ENERGY PREDICTED BY IDOCK:   -5.12 KCAL/MOL
REMARK 922        TOTAL FREE ENERGY PREDICTED BY IDOCK:   -7.39 KCAL/MOL
REMARK 923 INTER-LIGAND FREE ENERGY PREDICTED BY IDOCK:   -5.92 KCAL/MOL
REMARK 924 INTRA-LIGAND FREE ENERGY PREDICTED BY IDOCK:   -1.47 KCAL/MOL
REMARK 927      BINDING AFFINITY PREDICTED BY RF-SCORE:    0.00 PKD
ROOT
HETATM    1  C   UNL     1      -9.128   6.290  73.026  1.00  0.00    -0.129 C  
HETATM    2  S   UNL     1      -8.683   6.170  71.234  1.00  0.00    -0.132 SA 
HETATM    3  C   UNL     1      -6.928   6.701  71.501  1.00  0.00    -0.071 C  
HETATM    4  C   UNL     1      -6.020   6.031  70.466  1.00  0.00    -0.029 C  
HETATM    5  CA  UNL     1      -6.632   6.358  72.982  1.00  0.00    -0.069 C  
HETATM    6  C   UNL     1      -6.837   8.222  71.242  1.00  0.00    -0.059 C  
HETATM    7  N   UNL     1      -7.872   6.587  73.741  1.00  0.00    -0.094 N  
HETATM    8  C   UNL     1      -6.203   4.912  73.295  1.00  0.00    -0.038 C  
HETATM    9  OXT UNL     1      -5.478   4.213  72.607  1.00  0.00    -0.003 OA 
HETATM   10  O   UNL     1      -6.606   4.504  74.531  1.00  0.00    -0.059 OA 
HETATM   11  C   UNL     1      -8.245   7.859  74.084  1.00  0.00    -0.251 C  
HETATM   12  CA  UNL     1      -9.669   7.677  73.478  1.00  0.00    -0.299 C  
HETATM   13  O   UNL     1      -7.552   8.744  74.525  1.00  0.00    -0.407 OA 
ENDROOT
BRANCH  12  14
HETATM   14  N   UNL     1     -10.063   8.562  72.356  1.00  0.00    -0.311 N  
HETATM   15  C   UNL     1     -11.316   8.541  71.800  1.00  0.00    -0.307 C  
HETATM   16  H   UNL     1      -9.373   9.214  71.982  1.00  0.00     0.000 HD 
HETATM   17  O   UNL     1     -12.234   7.866  72.251  1.00  0.00    -0.316 OA 
BRANCH  15  18
HETATM   18  C   UNL     1     -11.471   9.394  70.629  1.00  0.00    -0.344 A  
HETATM   19  C   UNL     1     -12.142  10.601  70.625  1.00  0.00    -0.365 A  
HETATM   20  C   UNL     1     -12.849  11.409  71.640  1.00  0.00    -0.497 C  
HETATM   21  O   UNL     1     -12.080  11.144  69.386  1.00  0.00    -0.333 OA 
HETATM   22  N   UNL     1     -11.403  10.299  68.539  1.00  0.00    -0.213 NA 
HETATM   23  C   UNL     1     -11.034   9.231  69.266  1.00  0.00    -0.085 A  
BRANCH  23  24
HETATM   24  C   UNL     1     -10.244   8.153  68.650  1.00  0.00    -0.226 A  
HETATM   25  C   UNL     1     -10.768   6.849  68.606  1.00  0.00    -0.216 A  
HETATM   26  C   UNL     1     -10.167   5.837  67.856  1.00  0.00    -0.231 A  
HETATM   27  F   UNL     1     -11.894   6.532  69.263  1.00  0.00    -0.364 F  
HETATM   28  C   UNL     1      -9.039   6.115  67.096  1.00  0.00    -0.114 A  
HETATM   29  C   UNL     1      -8.452   7.374  67.186  1.00  0.00    -0.118 A  
HETATM   30  C   UNL     1      -9.009   8.362  68.011  1.00  0.00    -0.138 A  
HETATM   31 CL   UNL     1      -8.054   9.788  68.234  1.00  0.00    -0.104 Cl 
ENDBRANCH  23  24
ENDBRANCH  15  18
ENDBRANCH  12  14
TORSDOF 3
ENDMDL
MODEL       94
REMARK 921   NORMALIZED FREE ENERGY PREDICTED BY IDOCK:   -5.09 KCAL/MOL
REMARK 922        TOTAL FREE ENERGY PREDICTED BY IDOCK:   -7.35 KCAL/MOL
REMARK 923 INTER-LIGAND FREE ENERGY PREDICTED BY IDOCK:   -6.53 KCAL/MOL
REMARK 924 INTRA-LIGAND FREE ENERGY PREDICTED BY IDOCK:   -0.82 KCAL/MOL
REMARK 927      BINDING AFFINITY PREDICTED BY RF-SCORE:    0.00 PKD
ROOT
HETATM    1  C   UNL     1     -11.008   9.851  68.051  1.00  0.00    -0.213 C  
HETATM    2  S   UNL     1     -10.107   9.873  66.436  1.00  0.00    -0.225 SA 
HETATM    3  C   UNL     1      -8.773   8.724  67.015  1.00  0.00    -0.123 C  
HETATM    4  C   UNL     1      -8.264   7.885  65.839  1.00  0.00    -0.126 C  
HETATM    5  CA  UNL     1      -9.413   7.933  68.183  1.00  0.00    -0.147 C  
HETATM    6  C   UNL     1      -7.575   9.574  67.495  1.00  0.00    -0.095 C  
HETATM    7  N   UNL     1     -10.317   8.853  68.891  1.00  0.00    -0.210 N  
HETATM    8  C   UNL     1     -10.262   6.701  67.814  1.00  0.00    -0.170 C  
HETATM    9  OXT UNL     1     -10.023   5.905  66.921  1.00  0.00    -0.145 OA 
HETATM   10  O   UNL     1     -11.277   6.485  68.696  1.00  0.00    -0.289 OA 
HETATM   11  C   UNL     1      -9.812   9.781  69.763  1.00  0.00    -0.234 C  
HETATM   12  CA  UNL     1     -10.570  10.949  69.063  1.00  0.00    -0.216 C  
HETATM   13  O   UNL     1      -8.957   9.626  70.601  1.00  0.00    -0.209 OA 
ENDROOT
BRANCH  12  14
HETATM   14  N   UNL     1      -9.762  12.035  68.459  1.00  0.00    -0.313 N  
HETATM   15  C   UNL     1     -10.114  13.357  68.546  1.00  0.00    -0.207 C  
HETATM   16  H   UNL     1      -8.909  11.788  67.956  1.00  0.00     0.000 HD 
HETATM   17  O   UNL     1     -11.063  13.751  69.213  1.00  0.00    -0.251 OA 
BRANCH  15  18
HETATM   18  C   UNL     1      -9.262  14.260  67.783  1.00  0.00    -0.194 A  
HETATM   19  C   UNL     1      -8.152  14.903  68.293  1.00  0.00    -0.132 A  
HETATM   20  C   UNL     1      -7.465  14.928  69.601  1.00  0.00    -0.126 C  
HETATM   21  O   UNL     1      -7.578  15.647  67.317  1.00  0.00    -0.175 OA 
HETATM   22  N   UNL     1      -8.310  15.542  66.159  1.00  0.00     0.017 NA 
HETATM   23  C   UNL     1      -9.337  14.717  66.419  1.00  0.00    -0.291 A  
BRANCH  23  24
HETATM   24  C   UNL     1     -10.290  14.363  65.356  1.00  0.00    -0.400 A  
HETATM   25  C   UNL     1     -10.304  13.053  64.846  1.00  0.00    -0.324 A  
HETATM   26  C   UNL     1     -11.316  12.602  63.996  1.00  0.00    -0.466 A  
HETATM   27  F   UNL     1      -9.356  12.167  65.185  1.00  0.00    -0.150 F  
HETATM   28  C   UNL     1     -12.367  13.445  63.662  1.00  0.00    -0.422 A  
HETATM   29  C   UNL     1     -12.335  14.771  64.084  1.00  0.00    -0.259 A  
HETATM   30  C   UNL     1     -11.270  15.244  64.865  1.00  0.00    -0.415 A  
HETATM   31 CL   UNL     1     -11.216  16.957  65.112  1.00  0.00    -0.025 Cl 
ENDBRANCH  23  24
ENDBRANCH  15  18
ENDBRANCH  12  14
TORSDOF 3
ENDMDL
MODEL       95
REMARK 921   NORMALIZED FREE ENERGY PREDICTED BY IDOCK:   -5.08 KCAL/MOL
REMARK 922        TOTAL FREE ENERGY PREDICTED BY IDOCK:   -7.34 KCAL/MOL
REMARK 923 INTER-LIGAND FREE ENERGY PREDICTED BY IDOCK:   -6.50 KCAL/MOL
REMARK 924 INTRA-LIGAND FREE ENERGY PREDICTED BY IDOCK:   -0.84 KCAL/MOL
REMARK 927      BINDING AFFINITY PREDICTED BY RF-SCORE:    0.00 PKD
ROOT
HETATM    1  C   UNL     1     -10.795   6.483  68.131  1.00  0.00    -0.295 C  
HETATM    2  S   UNL     1     -10.574   5.590  66.526  1.00  0.00    -0.217 SA 
HETATM    3  C   UNL     1      -8.896   4.940  66.970  1.00  0.00    -0.106 C  
HETATM    4  C   UNL     1      -8.671   3.582  66.299  1.00  0.00    -0.123 C  
HETATM    5  CA  UNL     1      -8.867   4.942  68.518  1.00  0.00    -0.102 C  
HETATM    6  C   UNL     1      -7.835   5.897  66.382  1.00  0.00    -0.101 C  
HETATM    7  N   UNL     1      -9.637   6.113  68.969  1.00  0.00    -0.126 N  
HETATM    8  C   UNL     1      -9.486   3.726  69.233  1.00  0.00    -0.182 C  
HETATM    9  OXT UNL     1      -9.412   2.564  68.868  1.00  0.00    -0.162 OA 
HETATM   10  O   UNL     1     -10.032   4.051  70.437  1.00  0.00    -0.182 OA 
HETATM   11  C   UNL     1      -9.078   7.362  68.931  1.00  0.00    -0.136 C  
HETATM   12  CA  UNL     1     -10.284   7.953  68.142  1.00  0.00    -0.205 C  
HETATM   13  O   UNL     1      -7.965   7.689  69.268  1.00  0.00    -0.121 OA 
ENDROOT
BRANCH  12  14
HETATM   14  N   UNL     1     -10.023   8.507  66.791  1.00  0.00    -0.256 N  
HETATM   15  C   UNL     1      -9.349   9.685  66.592  1.00  0.00    -0.156 C  
HETATM   16  H   UNL     1     -10.357   7.991  65.977  1.00  0.00     0.000 HD 
HETATM   17  O   UNL     1      -8.826  10.316  67.502  1.00  0.00    -0.128 OA 
BRANCH  15  18
HETATM   18  C   UNL     1      -9.302  10.125  65.203  1.00  0.00    -0.290 A  
HETATM   19  C   UNL     1      -8.640   9.455  64.194  1.00  0.00    -0.198 A  
HETATM   20  C   UNL     1      -7.849   8.210  64.107  1.00  0.00    -0.142 C  
HETATM   21  O   UNL     1      -8.813  10.119  63.027  1.00  0.00    -0.180 OA 
HETATM   22  N   UNL     1      -9.559  11.254  63.241  1.00  0.00    -0.328 NA 
HETATM   23  C   UNL     1      -9.857  11.283  64.550  1.00  0.00    -0.270 A  
BRANCH  23  24
HETATM   24  C   UNL     1     -10.693  12.364  65.096  1.00  0.00    -0.327 A  
HETATM   25  C   UNL     1     -12.026  12.493  64.666  1.00  0.00    -0.404 A  
HETATM   26  C   UNL     1     -12.924  13.357  65.295  1.00  0.00    -0.258 A  
HETATM   27  F   UNL     1     -12.499  11.762  63.646  1.00  0.00    -0.556 F  
HETATM   28  C   UNL     1     -12.520  14.091  66.402  1.00  0.00    -0.395 A  
HETATM   29  C   UNL     1     -11.185  14.046  66.797  1.00  0.00    -0.323 A  
HETATM   30  C   UNL     1     -10.266  13.243  66.106  1.00  0.00    -0.296 A  
HETATM   31 CL   UNL     1      -8.601  13.464  66.530  1.00  0.00     0.067 Cl 
ENDBRANCH  23  24
ENDBRANCH  15  18
ENDBRANCH  12  14
TORSDOF 3
ENDMDL
MODEL       96
REMARK 921   NORMALIZED FREE ENERGY PREDICTED BY IDOCK:   -5.08 KCAL/MOL
REMARK 922        TOTAL FREE ENERGY PREDICTED BY IDOCK:   -7.33 KCAL/MOL
REMARK 923 INTER-LIGAND FREE ENERGY PREDICTED BY IDOCK:   -6.10 KCAL/MOL
REMARK 924 INTRA-LIGAND FREE ENERGY PREDICTED BY IDOCK:   -1.23 KCAL/MOL
REMARK 927      BINDING AFFINITY PREDICTED BY RF-SCORE:    0.00 PKD
ROOT
HETATM    1  C   UNL     1      -9.176  12.027  67.925  1.00  0.00    -0.190 C  
HETATM    2  S   UNL     1      -8.359  11.021  66.605  1.00  0.00    -0.159 SA 
HETATM    3  C   UNL     1      -9.931  10.738  65.665  1.00  0.00    -0.260 C  
HETATM    4  C   UNL     1      -9.628  10.623  64.169  1.00  0.00    -0.353 C  
HETATM    5  CA  UNL     1     -10.855  11.910  66.079  1.00  0.00    -0.299 C  
HETATM    6  C   UNL     1     -10.516   9.375  66.098  1.00  0.00    -0.027 C  
HETATM    7  N   UNL     1     -10.576  12.210  67.493  1.00  0.00    -0.210 N  
HETATM    8  C   UNL     1     -10.685  13.240  65.320  1.00  0.00    -0.311 C  
HETATM    9  OXT UNL     1     -10.451  13.362  64.129  1.00  0.00    -0.393 OA 
HETATM   10  O   UNL     1     -10.966  14.323  66.097  1.00  0.00    -0.304 OA 
HETATM   11  C   UNL     1     -11.095  11.418  68.481  1.00  0.00    -0.235 C  
HETATM   12  CA  UNL     1      -9.700  11.213  69.143  1.00  0.00    -0.028 C  
HETATM   13  O   UNL     1     -12.216  10.976  68.569  1.00  0.00    -0.582 OA 
ENDROOT
BRANCH  12  14
HETATM   14  N   UNL     1      -9.165   9.832  69.217  1.00  0.00    -0.179 N  
HETATM   15  C   UNL     1      -8.005   9.522  69.880  1.00  0.00    -0.149 C  
HETATM   16  H   UNL     1      -9.680   9.083  68.755  1.00  0.00     0.000 HD 
HETATM   17  O   UNL     1      -7.378  10.338  70.545  1.00  0.00    -0.281 OA 
BRANCH  15  18
HETATM   18  C   UNL     1      -7.579   8.136  69.733  1.00  0.00    -0.090 A  
HETATM   19  C   UNL     1      -6.502   7.727  68.972  1.00  0.00    -0.037 A  
HETATM   20  C   UNL     1      -5.488   8.408  68.142  1.00  0.00    -0.035 C  
HETATM   21  O   UNL     1      -6.370   6.382  69.070  1.00  0.00    -0.035 OA 
HETATM   22  N   UNL     1      -7.370   5.871  69.863  1.00  0.00    -0.073 NA 
HETATM   23  C   UNL     1      -8.118   6.911  70.267  1.00  0.00    -0.120 A  
BRANCH  23  24
HETATM   24  C   UNL     1      -9.255   6.697  71.176  1.00  0.00    -0.159 A  
HETATM   25  C   UNL     1     -10.566   6.855  70.693  1.00  0.00    -0.222 A  
HETATM   26  C   UNL     1     -11.680   6.465  71.439  1.00  0.00    -0.364 A  
HETATM   27  F   UNL     1     -10.799   7.362  69.473  1.00  0.00    -0.230 F  
HETATM   28  C   UNL     1     -11.507   5.867  72.681  1.00  0.00    -0.319 A  
HETATM   29  C   UNL     1     -10.226   5.774  73.218  1.00  0.00    -0.217 A  
HETATM   30  C   UNL     1      -9.118   6.249  72.501  1.00  0.00    -0.141 A  
HETATM   31 CL   UNL     1      -7.623   6.309  73.373  1.00  0.00    -0.095 Cl 
ENDBRANCH  23  24
ENDBRANCH  15  18
ENDBRANCH  12  14
TORSDOF 3
ENDMDL
MODEL       97
REMARK 921   NORMALIZED FREE ENERGY PREDICTED BY IDOCK:   -5.06 KCAL/MOL
REMARK 922        TOTAL FREE ENERGY PREDICTED BY IDOCK:   -7.31 KCAL/MOL
REMARK 923 INTER-LIGAND FREE ENERGY PREDICTED BY IDOCK:   -6.28 KCAL/MOL
REMARK 924 INTRA-LIGAND FREE ENERGY PREDICTED BY IDOCK:   -1.03 KCAL/MOL
REMARK 927      BINDING AFFINITY PREDICTED BY RF-SCORE:    0.00 PKD
ROOT
HETATM    1  C   UNL     1      -9.504   6.681  66.346  1.00  0.00    -0.123 C  
HETATM    2  S   UNL     1      -7.682   6.986  66.452  1.00  0.00    -0.107 SA 
HETATM    3  C   UNL     1      -7.510   6.171  68.107  1.00  0.00    -0.090 C  
HETATM    4  C   UNL     1      -6.125   5.528  68.228  1.00  0.00    -0.025 C  
HETATM    5  CA  UNL     1      -8.715   5.203  68.199  1.00  0.00    -0.102 C  
HETATM    6  C   UNL     1      -7.579   7.266  69.195  1.00  0.00    -0.102 C  
HETATM    7  N   UNL     1      -9.848   5.846  67.515  1.00  0.00    -0.118 N  
HETATM    8  C   UNL     1      -8.553   3.818  67.543  1.00  0.00    -0.102 C  
HETATM    9  OXT UNL     1      -7.539   3.140  67.537  1.00  0.00    -0.064 OA 
HETATM   10  O   UNL     1      -9.730   3.327  67.065  1.00  0.00    -0.117 OA 
HETATM   11  C   UNL     1     -10.561   6.833  68.142  1.00  0.00    -0.230 C  
HETATM   12  CA  UNL     1     -10.395   7.810  66.939  1.00  0.00    -0.326 C  
HETATM   13  O   UNL     1     -10.953   6.856  69.284  1.00  0.00    -0.244 OA 
ENDROOT
BRANCH  12  14
HETATM   14  N   UNL     1      -9.672   9.083  67.176  1.00  0.00    -0.169 N  
HETATM   15  C   UNL     1     -10.306  10.230  67.581  1.00  0.00    -0.220 C  
HETATM   16  H   UNL     1      -8.663   9.106  67.031  1.00  0.00     0.000 HD 
HETATM   17  O   UNL     1     -11.494  10.267  67.876  1.00  0.00    -0.346 OA 
BRANCH  15  18
HETATM   18  C   UNL     1      -9.446  11.405  67.639  1.00  0.00    -0.165 A  
HETATM   19  C   UNL     1      -8.407  11.570  68.533  1.00  0.00    -0.146 A  
HETATM   20  C   UNL     1      -7.816  10.753  69.612  1.00  0.00     0.023 C  
HETATM   21  O   UNL     1      -7.802  12.759  68.302  1.00  0.00    -0.129 OA 
HETATM   22  N   UNL     1      -8.444  13.420  67.282  1.00  0.00    -0.202 NA 
HETATM   23  C   UNL     1      -9.446  12.625  66.872  1.00  0.00    -0.229 A  
BRANCH  23  24
HETATM   24  C   UNL     1     -10.304  13.034  65.749  1.00  0.00    -0.296 A  
HETATM   25  C   UNL     1     -10.359  12.236  64.593  1.00  0.00    -0.301 A  
HETATM   26  C   UNL     1     -11.304  12.455  63.589  1.00  0.00    -0.556 A  
HETATM   27  F   UNL     1      -9.519  11.204  64.422  1.00  0.00    -0.231 F  
HETATM   28  C   UNL     1     -12.250  13.461  63.735  1.00  0.00    -0.482 A  
HETATM   29  C   UNL     1     -12.167  14.319  64.828  1.00  0.00    -0.456 A  
HETATM   30  C   UNL     1     -11.159  14.150  65.790  1.00  0.00    -0.309 A  
HETATM   31 CL   UNL     1     -11.007  15.420  66.956  1.00  0.00    -0.321 Cl 
ENDBRANCH  23  24
ENDBRANCH  15  18
ENDBRANCH  12  14
TORSDOF 3
ENDMDL
MODEL       98
REMARK 921   NORMALIZED FREE ENERGY PREDICTED BY IDOCK:   -5.05 KCAL/MOL
REMARK 922        TOTAL FREE ENERGY PREDICTED BY IDOCK:   -7.30 KCAL/MOL
REMARK 923 INTER-LIGAND FREE ENERGY PREDICTED BY IDOCK:   -5.70 KCAL/MOL
REMARK 924 INTRA-LIGAND FREE ENERGY PREDICTED BY IDOCK:   -1.60 KCAL/MOL
REMARK 927      BINDING AFFINITY PREDICTED BY RF-SCORE:    0.00 PKD
ROOT
HETATM    1  C   UNL     1      -8.907  10.129  66.708  1.00  0.00    -0.132 C  
HETATM    2  S   UNL     1     -10.658   9.803  67.209  1.00  0.00    -0.228 SA 
HETATM    3  C   UNL     1     -10.542  10.818  68.755  1.00  0.00    -0.200 C  
HETATM    4  C   UNL     1     -11.904  11.442  69.069  1.00  0.00    -0.415 C  
HETATM    5  CA  UNL     1      -9.387  11.815  68.488  1.00  0.00    -0.156 C  
HETATM    6  C   UNL     1     -10.214   9.872  69.932  1.00  0.00    -0.298 C  
HETATM    7  N   UNL     1      -8.381  11.112  67.676  1.00  0.00    -0.120 N  
HETATM    8  C   UNL     1      -9.736  13.101  67.715  1.00  0.00    -0.218 C  
HETATM    9  OXT UNL     1     -10.761  13.752  67.828  1.00  0.00    -0.242 OA 
HETATM   10  O   UNL     1      -8.697  13.551  66.957  1.00  0.00    -0.216 OA 
HETATM   11  C   UNL     1      -7.516  10.228  68.263  1.00  0.00    -0.086 C  
HETATM   12  CA  UNL     1      -7.867   9.103  67.244  1.00  0.00    -0.099 C  
HETATM   13  O   UNL     1      -6.909  10.359  69.299  1.00  0.00    -0.058 OA 
ENDROOT
BRANCH  12  14
HETATM   14  N   UNL     1      -8.472   7.856  67.772  1.00  0.00    -0.125 N  
HETATM   15  C   UNL     1      -7.737   6.886  68.404  1.00  0.00    -0.116 C  
HETATM   16  H   UNL     1      -9.476   7.714  67.660  1.00  0.00     0.000 HD 
HETATM   17  O   UNL     1      -6.549   7.018  68.671  1.00  0.00    -0.050 OA 
BRANCH  15  18
HETATM   18  C   UNL     1      -8.487   5.683  68.738  1.00  0.00    -0.102 A  
HETATM   19  C   UNL     1      -8.370   4.480  68.071  1.00  0.00    -0.094 A  
HETATM   20  C   UNL     1      -7.558   3.983  66.941  1.00  0.00    -0.084 C  
HETATM   21  O   UNL     1      -9.189   3.567  68.647  1.00  0.00    -0.137 OA 
HETATM   22  N   UNL     1      -9.887   4.150  69.678  1.00  0.00    -0.198 NA 
HETATM   23  C   UNL     1      -9.486   5.430  69.745  1.00  0.00    -0.151 A  
BRANCH  23  24
HETATM   24  C   UNL     1     -10.023   6.320  70.787  1.00  0.00    -0.220 A  
HETATM   25  C   UNL     1     -11.383   6.673  70.762  1.00  0.00    -0.336 A  
HETATM   26  C   UNL     1     -11.993   7.336  71.830  1.00  0.00    -0.342 A  
HETATM   27  F   UNL     1     -12.163   6.357  69.718  1.00  0.00    -0.378 F  
HETATM   28  C   UNL     1     -11.261   7.630  72.972  1.00  0.00    -0.388 A  
HETATM   29  C   UNL     1      -9.894   7.367  72.989  1.00  0.00    -0.279 A  
HETATM   30  C   UNL     1      -9.267   6.782  71.879  1.00  0.00    -0.142 A  
HETATM   31 CL   UNL     1      -7.537   6.738  71.923  1.00  0.00    -0.094 Cl 
ENDBRANCH  23  24
ENDBRANCH  15  18
ENDBRANCH  12  14
TORSDOF 3
ENDMDL
MODEL       99
REMARK 921   NORMALIZED FREE ENERGY PREDICTED BY IDOCK:   -5.01 KCAL/MOL
REMARK 922        TOTAL FREE ENERGY PREDICTED BY IDOCK:   -7.25 KCAL/MOL
REMARK 923 INTER-LIGAND FREE ENERGY PREDICTED BY IDOCK:   -6.15 KCAL/MOL
REMARK 924 INTRA-LIGAND FREE ENERGY PREDICTED BY IDOCK:   -1.10 KCAL/MOL
REMARK 927      BINDING AFFINITY PREDICTED BY RF-SCORE:    0.00 PKD
ROOT
HETATM    1  C   UNL     1      -7.428   7.396  68.980  1.00  0.00    -0.100 C  
HETATM    2  S   UNL     1      -8.713   7.099  70.278  1.00  0.00    -0.144 SA 
HETATM    3  C   UNL     1      -9.417   5.612  69.425  1.00  0.00    -0.131 C  
HETATM    4  C   UNL     1      -9.961   4.627  70.463  1.00  0.00    -0.295 C  
HETATM    5  CA  UNL     1      -8.266   5.086  68.532  1.00  0.00    -0.085 C  
HETATM    6  C   UNL     1     -10.627   6.067  68.579  1.00  0.00    -0.325 C  
HETATM    7  N   UNL     1      -7.518   6.257  68.046  1.00  0.00    -0.088 N  
HETATM    8  C   UNL     1      -7.226   4.165  69.199  1.00  0.00    -0.051 C  
HETATM    9  OXT UNL     1      -7.457   3.310  70.038  1.00  0.00    -0.044 OA 
HETATM   10  O   UNL     1      -5.987   4.293  68.649  1.00  0.00    -0.024 OA 
HETATM   11  C   UNL     1      -8.010   7.008  67.012  1.00  0.00    -0.116 C  
HETATM   12  CA  UNL     1      -7.870   8.334  67.820  1.00  0.00    -0.114 C  
HETATM   13  O   UNL     1      -8.505   6.621  65.981  1.00  0.00    -0.130 OA 
ENDROOT
BRANCH  12  14
HETATM   14  N   UNL     1      -9.104   9.103  68.107  1.00  0.00    -0.132 N  
HETATM   15  C   UNL     1      -9.092  10.302  68.773  1.00  0.00    -0.159 C  
HETATM   16  H   UNL     1      -9.999   8.726  67.796  1.00  0.00     0.000 HD 
HETATM   17  O   UNL     1      -8.058  10.876  69.093  1.00  0.00    -0.149 OA 
BRANCH  15  18
HETATM   18  C   UNL     1     -10.412  10.841  69.069  1.00  0.00    -0.239 A  
HETATM   19  C   UNL     1     -11.205  10.433  70.123  1.00  0.00    -0.321 A  
HETATM   20  C   UNL     1     -11.063   9.456  71.223  1.00  0.00    -0.446 C  
HETATM   21  O   UNL     1     -12.355  11.149  70.123  1.00  0.00    -0.304 OA 
HETATM   22  N   UNL     1     -12.365  12.015  69.056  1.00  0.00    -0.077 NA 
HETATM   23  C   UNL     1     -11.206  11.840  68.400  1.00  0.00    -0.251 A  
BRANCH  23  24
HETATM   24  C   UNL     1     -10.891  12.662  67.220  1.00  0.00    -0.277 A  
HETATM   25  C   UNL     1     -10.886  12.070  65.945  1.00  0.00    -0.288 A  
HETATM   26  C   UNL     1     -10.803  12.832  64.778  1.00  0.00    -0.335 A  
HETATM   27  F   UNL     1     -10.992  10.741  65.797  1.00  0.00    -0.250 F  
HETATM   28  C   UNL     1     -10.762  14.217  64.856  1.00  0.00    -0.448 A  
HETATM   29  C   UNL     1     -10.682  14.825  66.106  1.00  0.00    -0.314 A  
HETATM   30  C   UNL     1     -10.675  14.050  67.275  1.00  0.00    -0.278 A  
HETATM   31 CL   UNL     1     -10.320  14.899  68.743  1.00  0.00    -0.237 Cl 
ENDBRANCH  23  24
ENDBRANCH  15  18
ENDBRANCH  12  14
TORSDOF 3
ENDMDL
MODEL      100
REMARK 921   NORMALIZED FREE ENERGY PREDICTED BY IDOCK:   -4.97 KCAL/MOL
REMARK 922        TOTAL FREE ENERGY PREDICTED BY IDOCK:   -7.21 KCAL/MOL
REMARK 923 INTER-LIGAND FREE ENERGY PREDICTED BY IDOCK:   -6.31 KCAL/MOL
REMARK 924 INTRA-LIGAND FREE ENERGY PREDICTED BY IDOCK:   -0.90 KCAL/MOL
REMARK 927      BINDING AFFINITY PREDICTED BY RF-SCORE:    0.00 PKD
ROOT
HETATM    1  C   UNL     1      -9.008   9.081  67.287  1.00  0.00    -0.127 C  
HETATM    2  S   UNL     1      -8.119   8.675  68.858  1.00  0.00    -0.120 SA 
HETATM    3  C   UNL     1      -9.678   8.381  69.817  1.00  0.00    -0.180 C  
HETATM    4  C   UNL     1      -9.433   7.319  70.893  1.00  0.00    -0.159 C  
HETATM    5  CA  UNL     1     -10.739   8.027  68.746  1.00  0.00    -0.045 C  
HETATM    6  C   UNL     1     -10.040   9.684  70.564  1.00  0.00    -0.338 C  
HETATM    7  N   UNL     1     -10.438   8.827  67.548  1.00  0.00    -0.272 N  
HETATM    8  C   UNL     1     -10.798   6.561  68.274  1.00  0.00    -0.288 C  
HETATM    9  OXT UNL     1     -10.641   5.574  68.974  1.00  0.00    -0.236 OA 
HETATM   10  O   UNL     1     -11.193   6.446  66.976  1.00  0.00    -0.373 OA 
HETATM   11  C   UNL     1     -10.790  10.149  67.496  1.00  0.00    -0.290 C  
HETATM   12  CA  UNL     1      -9.350  10.587  67.096  1.00  0.00    -0.154 C  
HETATM   13  O   UNL     1     -11.831  10.656  67.842  1.00  0.00    -0.485 OA 
ENDROOT
BRANCH  12  14
HETATM   14  N   UNL     1      -8.619  11.490  68.018  1.00  0.00    -0.143 N  
HETATM   15  C   UNL     1      -8.237  12.758  67.663  1.00  0.00    -0.175 C  
HETATM   16  H   UNL     1      -8.392  11.154  68.954  1.00  0.00     0.000 HD 
HETATM   17  O   UNL     1      -8.555  13.278  66.601  1.00  0.00    -0.088 OA 
BRANCH  15  18
HETATM   18  C   UNL     1      -7.422  13.443  68.659  1.00  0.00    -0.104 A  
HETATM   19  C   UNL     1      -6.364  12.866  69.332  1.00  0.00    -0.109 A  
HETATM   20  C   UNL     1      -5.710  11.541  69.316  1.00  0.00    -0.052 C  
HETATM   21  O   UNL     1      -5.812  13.780  70.166  1.00  0.00    -0.121 OA 
HETATM   22  N   UNL     1      -6.509  14.962  70.091  1.00  0.00    -0.171 NA 
HETATM   23  C   UNL     1      -7.491  14.779  69.193  1.00  0.00    -0.153 A  
BRANCH  23  24
HETATM   24  C   UNL     1      -8.397  15.887  68.851  1.00  0.00    -0.226 A  
HETATM   25  C   UNL     1      -9.766  15.780  69.151  1.00  0.00    -0.250 A  
HETATM   26  C   UNL     1     -10.633  16.869  69.045  1.00  0.00    -0.338 A  
HETATM   27  F   UNL     1     -10.293  14.624  69.585  1.00  0.00    -0.215 F  
HETATM   28  C   UNL     1     -10.141  18.112  68.670  1.00  0.00    -0.406 A  
HETATM   29  C   UNL     1      -8.807  18.228  68.287  1.00  0.00    -0.301 A  
HETATM   30  C   UNL     1      -7.961  17.109  68.310  1.00  0.00    -0.236 A  
HETATM   31 CL   UNL     1      -6.407  17.322  67.577  1.00  0.00    -0.159 Cl 
ENDBRANCH  23  24
ENDBRANCH  15  18
ENDBRANCH  12  14
TORSDOF 3
ENDMDL
MODEL      101
REMARK 921   NORMALIZED FREE ENERGY PREDICTED BY IDOCK:   -4.93 KCAL/MOL
REMARK 922        TOTAL FREE ENERGY PREDICTED BY IDOCK:   -7.16 KCAL/MOL
REMARK 923 INTER-LIGAND FREE ENERGY PREDICTED BY IDOCK:   -7.09 KCAL/MOL
REMARK 924 INTRA-LIGAND FREE ENERGY PREDICTED BY IDOCK:   -0.07 KCAL/MOL
REMARK 927      BINDING AFFINITY PREDICTED BY RF-SCORE:    0.00 PKD
ROOT
HETATM    1  C   UNL     1     -10.456  13.460  67.359  1.00  0.00    -0.243 C  
HETATM    2  S   UNL     1      -9.272  12.832  66.084  1.00  0.00     0.060 SA 
HETATM    3  C   UNL     1     -10.504  11.678  65.320  1.00  0.00    -0.273 C  
HETATM    4  C   UNL     1     -10.218  11.531  63.823  1.00  0.00    -0.429 C  
HETATM    5  CA  UNL     1     -11.885  12.273  65.690  1.00  0.00    -0.360 C  
HETATM    6  C   UNL     1     -10.305  10.277  65.942  1.00  0.00    -0.241 C  
HETATM    7  N   UNL     1     -11.765  12.859  67.035  1.00  0.00    -0.371 N  
HETATM    8  C   UNL     1     -12.431  13.394  64.785  1.00  0.00    -0.365 C  
HETATM    9  OXT UNL     1     -12.319  13.456  63.572  1.00  0.00    -0.711 OA 
HETATM   10  O   UNL     1     -13.205  14.283  65.466  1.00  0.00    -0.641 OA 
HETATM   11  C   UNL     1     -11.787  12.053  68.142  1.00  0.00    -0.286 C  
HETATM   12  CA  UNL     1     -10.466  12.666  68.697  1.00  0.00    -0.205 C  
HETATM   13  O   UNL     1     -12.526  11.126  68.372  1.00  0.00    -0.390 OA 
ENDROOT
BRANCH  12  14
HETATM   14  N   UNL     1      -9.302  11.762  68.866  1.00  0.00    -0.406 N  
HETATM   15  C   UNL     1      -9.370  10.592  69.579  1.00  0.00     0.019 C  
HETATM   16  H   UNL     1      -8.415  12.022  68.435  1.00  0.00     0.000 HD 
HETATM   17  O   UNL     1     -10.416  10.154  70.042  1.00  0.00    -0.264 OA 
BRANCH  15  18
HETATM   18  C   UNL     1      -8.094   9.907  69.736  1.00  0.00    -0.185 A  
HETATM   19  C   UNL     1      -6.921  10.290  69.118  1.00  0.00    -0.066 A  
HETATM   20  C   UNL     1      -6.527  11.382  68.204  1.00  0.00    -0.056 C  
HETATM   21  O   UNL     1      -5.923   9.455  69.495  1.00  0.00    -0.033 OA 
HETATM   22  N   UNL     1      -6.417   8.487  70.337  1.00  0.00    -0.035 NA 
HETATM   23  C   UNL     1      -7.728   8.735  70.490  1.00  0.00    -0.089 A  
BRANCH  23  24
HETATM   24  C   UNL     1      -8.542   7.891  71.378  1.00  0.00    -0.141 A  
HETATM   25  C   UNL     1      -8.389   8.002  72.771  1.00  0.00    -0.167 A  
HETATM   26  C   UNL     1      -9.271   7.389  73.663  1.00  0.00    -0.291 A  
HETATM   27  F   UNL     1      -7.398   8.734  73.303  1.00  0.00    -0.110 F  
HETATM   28  C   UNL     1     -10.360   6.676  73.179  1.00  0.00    -0.256 A  
HETATM   29  C   UNL     1     -10.489   6.480  71.807  1.00  0.00    -0.239 A  
HETATM   30  C   UNL     1      -9.549   7.023  70.919  1.00  0.00    -0.167 A  
HETATM   31 CL   UNL     1      -9.675   6.502  69.273  1.00  0.00    -0.149 Cl 
ENDBRANCH  23  24
ENDBRANCH  15  18
ENDBRANCH  12  14
TORSDOF 3
ENDMDL
MODEL      102
REMARK 921   NORMALIZED FREE ENERGY PREDICTED BY IDOCK:   -4.92 KCAL/MOL
REMARK 922        TOTAL FREE ENERGY PREDICTED BY IDOCK:   -7.15 KCAL/MOL
REMARK 923 INTER-LIGAND FREE ENERGY PREDICTED BY IDOCK:   -6.32 KCAL/MOL
REMARK 924 INTRA-LIGAND FREE ENERGY PREDICTED BY IDOCK:   -0.83 KCAL/MOL
REMARK 927      BINDING AFFINITY PREDICTED BY RF-SCORE:    0.00 PKD
ROOT
HETATM    1  C   UNL     1     -10.365   8.695  68.298  1.00  0.00    -0.207 C  
HETATM    2  S   UNL     1      -8.564   8.268  68.308  1.00  0.00    -0.133 SA 
HETATM    3  C   UNL     1      -8.524   7.918  70.127  1.00  0.00    -0.129 C  
HETATM    4  C   UNL     1      -7.483   6.836  70.425  1.00  0.00    -0.087 C  
HETATM    5  CA  UNL     1      -9.987   7.569  70.495  1.00  0.00    -0.184 C  
HETATM    6  C   UNL     1      -8.046   9.195  70.855  1.00  0.00    -0.201 C  
HETATM    7  N   UNL     1     -10.862   8.404  69.657  1.00  0.00    -0.195 N  
HETATM    8  C   UNL     1     -10.440   6.114  70.264  1.00  0.00    -0.229 C  
HETATM    9  OXT UNL     1      -9.767   5.114  70.451  1.00  0.00    -0.172 OA 
HETATM   10  O   UNL     1     -11.762   6.023  69.949  1.00  0.00    -0.223 OA 
HETATM   11  C   UNL     1     -11.070   9.720  69.975  1.00  0.00    -0.267 C  
HETATM   12  CA  UNL     1     -10.686  10.197  68.543  1.00  0.00    -0.230 C  
HETATM   13  O   UNL     1     -11.288  10.196  71.063  1.00  0.00    -0.347 OA 
ENDROOT
BRANCH  12  14
HETATM   14  N   UNL     1      -9.512  11.092  68.403  1.00  0.00    -0.182 N  
HETATM   15  C   UNL     1      -9.239  11.781  67.249  1.00  0.00    -0.173 C  
HETATM   16  H   UNL     1      -8.881  11.200  69.197  1.00  0.00     0.000 HD 
HETATM   17  O   UNL     1      -9.993  11.790  66.283  1.00  0.00    -0.208 OA 
BRANCH  15  18
HETATM   18  C   UNL     1      -7.976  12.508  67.264  1.00  0.00    -0.173 A  
HETATM   19  C   UNL     1      -6.733  11.914  67.178  1.00  0.00    -0.142 A  
HETATM   20  C   UNL     1      -6.241  10.528  67.037  1.00  0.00    -0.066 C  
HETATM   21  O   UNL     1      -5.776  12.873  67.199  1.00  0.00    -0.347 OA 
HETATM   22  N   UNL     1      -6.359  14.111  67.336  1.00  0.00    -0.308 NA 
HETATM   23  C   UNL     1      -7.686  13.914  67.386  1.00  0.00    -0.148 A  
BRANCH  23  24
HETATM   24  C   UNL     1      -8.602  15.061  67.487  1.00  0.00    -0.192 A  
HETATM   25  C   UNL     1      -9.586  15.251  66.501  1.00  0.00    -0.271 A  
HETATM   26  C   UNL     1     -10.610  16.188  66.650  1.00  0.00    -0.274 A  
HETATM   27  F   UNL     1      -9.598  14.510  65.383  1.00  0.00    -0.329 F  
HETATM   28  C   UNL     1     -10.698  16.939  67.815  1.00  0.00    -0.315 A  
HETATM   29  C   UNL     1      -9.691  16.831  68.771  1.00  0.00    -0.261 A  
HETATM   30  C   UNL     1      -8.616  15.952  68.575  1.00  0.00    -0.190 A  
HETATM   31 CL   UNL     1      -7.310  16.092  69.704  1.00  0.00    -0.132 Cl 
ENDBRANCH  23  24
ENDBRANCH  15  18
ENDBRANCH  12  14
TORSDOF 3
ENDMDL
MODEL      103
REMARK 921   NORMALIZED FREE ENERGY PREDICTED BY IDOCK:   -4.90 KCAL/MOL
REMARK 922        TOTAL FREE ENERGY PREDICTED BY IDOCK:   -7.12 KCAL/MOL
REMARK 923 INTER-LIGAND FREE ENERGY PREDICTED BY IDOCK:   -5.97 KCAL/MOL
REMARK 924 INTRA-LIGAND FREE ENERGY PREDICTED BY IDOCK:   -1.15 KCAL/MOL
REMARK 927      BINDING AFFINITY PREDICTED BY RF-SCORE:    0.00 PKD
ROOT
HETATM    1  C   UNL     1     -10.495   9.396  68.583  1.00  0.00    -0.209 C  
HETATM    2  S   UNL     1     -10.259   9.256  66.753  1.00  0.00    -0.239 SA 
HETATM    3  C   UNL     1      -8.528   8.609  66.895  1.00  0.00    -0.112 C  
HETATM    4  C   UNL     1      -8.230   7.665  65.727  1.00  0.00    -0.133 C  
HETATM    5  CA  UNL     1      -8.456   7.980  68.308  1.00  0.00    -0.123 C  
HETATM    6  C   UNL     1      -7.552   9.799  66.754  1.00  0.00    -0.095 C  
HETATM    7  N   UNL     1      -9.291   8.802  69.198  1.00  0.00    -0.149 N  
HETATM    8  C   UNL     1      -8.969   6.534  68.459  1.00  0.00    -0.126 C  
HETATM    9  OXT UNL     1      -8.825   5.633  67.650  1.00  0.00    -0.108 OA 
HETATM   10  O   UNL     1      -9.502   6.297  69.690  1.00  0.00    -0.145 OA 
HETATM   11  C   UNL     1      -8.820   9.995  69.677  1.00  0.00    -0.199 C  
HETATM   12  CA  UNL     1     -10.086  10.766  69.196  1.00  0.00    -0.205 C  
HETATM   13  O   UNL     1      -7.723  10.237  70.121  1.00  0.00    -0.147 OA 
ENDROOT
BRANCH  12  14
HETATM   14  N   UNL     1      -9.902  11.842  68.193  1.00  0.00    -0.184 N  
HETATM   15  C   UNL     1     -10.604  13.019  68.232  1.00  0.00    -0.247 C  
HETATM   16  H   UNL     1      -9.225  11.700  67.442  1.00  0.00     0.000 HD 
HETATM   17  O   UNL     1     -11.360  13.314  69.149  1.00  0.00    -0.266 OA 
BRANCH  15  18
HETATM   18  C   UNL     1     -10.375  13.896  67.091  1.00  0.00    -0.265 A  
HETATM   19  C   UNL     1     -11.129  13.885  65.934  1.00  0.00    -0.291 A  
HETATM   20  C   UNL     1     -12.300  13.123  65.454  1.00  0.00    -0.532 C  
HETATM   21  O   UNL     1     -10.664  14.836  65.088  1.00  0.00    -0.358 OA 
HETATM   22  N   UNL     1      -9.579  15.469  65.647  1.00  0.00    -0.325 NA 
HETATM   23  C   UNL     1      -9.380  14.911  66.852  1.00  0.00    -0.241 A  
BRANCH  23  24
HETATM   24  C   UNL     1      -8.306  15.404  67.729  1.00  0.00    -0.156 A  
HETATM   25  C   UNL     1      -8.344  16.731  68.191  1.00  0.00    -0.201 A  
HETATM   26  C   UNL     1      -7.478  17.192  69.184  1.00  0.00    -0.147 A  
HETATM   27  F   UNL     1      -9.243  17.606  67.714  1.00  0.00    -0.240 F  
HETATM   28  C   UNL     1      -6.571  16.321  69.772  1.00  0.00    -0.126 A  
HETATM   29  C   UNL     1      -6.455  15.025  69.276  1.00  0.00    -0.124 A  
HETATM   30  C   UNL     1      -7.267  14.593  68.217  1.00  0.00    -0.117 A  
HETATM   31 CL   UNL     1      -6.857  13.058  67.528  1.00  0.00    -0.159 Cl 
ENDBRANCH  23  24
ENDBRANCH  15  18
ENDBRANCH  12  14
TORSDOF 3
ENDMDL
MODEL      104
REMARK 921   NORMALIZED FREE ENERGY PREDICTED BY IDOCK:   -4.88 KCAL/MOL
REMARK 922        TOTAL FREE ENERGY PREDICTED BY IDOCK:   -7.10 KCAL/MOL
REMARK 923 INTER-LIGAND FREE ENERGY PREDICTED BY IDOCK:   -6.32 KCAL/MOL
REMARK 924 INTRA-LIGAND FREE ENERGY PREDICTED BY IDOCK:   -0.77 KCAL/MOL
REMARK 927      BINDING AFFINITY PREDICTED BY RF-SCORE:    0.00 PKD
ROOT
HETATM    1  C   UNL     1      -9.492  12.673  68.627  1.00  0.00     0.005 C  
HETATM    2  S   UNL     1      -9.002  13.373  66.986  1.00  0.00    -0.205 SA 
HETATM    3  C   UNL     1     -10.739  13.805  66.506  1.00  0.00    -0.284 C  
HETATM    4  C   UNL     1     -10.736  15.049  65.612  1.00  0.00    -0.365 C  
HETATM    5  CA  UNL     1     -11.498  13.940  67.849  1.00  0.00    -0.318 C  
HETATM    6  C   UNL     1     -11.306  12.652  65.647  1.00  0.00    -0.357 C  
HETATM    7  N   UNL     1     -10.936  12.942  68.773  1.00  0.00    -0.251 N  
HETATM    8  C   UNL     1     -11.402  15.295  68.576  1.00  0.00    -0.327 C  
HETATM    9  OXT UNL     1     -11.396  16.395  68.048  1.00  0.00    -0.288 OA 
HETATM   10  O   UNL     1     -11.467  15.166  69.930  1.00  0.00    -0.251 OA 
HETATM   11  C   UNL     1     -11.299  11.626  68.670  1.00  0.00    -0.267 C  
HETATM   12  CA  UNL     1      -9.816  11.151  68.622  1.00  0.00    -0.202 C  
HETATM   13  O   UNL     1     -12.405  11.171  68.503  1.00  0.00    -0.561 OA 
ENDROOT
BRANCH  12  14
HETATM   14  N   UNL     1      -9.356  10.443  67.403  1.00  0.00    -0.145 N  
HETATM   15  C   UNL     1      -9.728   9.156  67.108  1.00  0.00    -0.182 C  
HETATM   16  H   UNL     1      -8.737  10.933  66.757  1.00  0.00     0.000 HD 
HETATM   17  O   UNL     1     -10.545   8.530  67.772  1.00  0.00    -0.232 OA 
BRANCH  15  18
HETATM   18  C   UNL     1      -9.074   8.593  65.934  1.00  0.00    -0.259 A  
HETATM   19  C   UNL     1      -8.981   9.229  64.712  1.00  0.00    -0.168 A  
HETATM   20  C   UNL     1      -9.415  10.535  64.176  1.00  0.00    -0.342 C  
HETATM   21  O   UNL     1      -8.295   8.441  63.849  1.00  0.00    -0.147 OA 
HETATM   22  N   UNL     1      -7.953   7.261  64.465  1.00  0.00    -0.129 NA 
HETATM   23  C   UNL     1      -8.420   7.326  65.722  1.00  0.00    -0.143 A  
BRANCH  23  24
HETATM   24  C   UNL     1      -8.175   6.222  66.662  1.00  0.00    -0.111 A  
HETATM   25  C   UNL     1      -6.968   6.180  67.381  1.00  0.00    -0.069 A  
HETATM   26  C   UNL     1      -6.765   5.284  68.433  1.00  0.00    -0.054 A  
HETATM   27  F   UNL     1      -5.966   7.028  67.104  1.00  0.00    -0.021 F  
HETATM   28  C   UNL     1      -7.787   4.427  68.819  1.00  0.00    -0.070 A  
HETATM   29  C   UNL     1      -8.961   4.389  68.073  1.00  0.00    -0.142 A  
HETATM   30  C   UNL     1      -9.125   5.229  66.961  1.00  0.00    -0.112 A  
HETATM   31 CL   UNL     1     -10.511   4.913  65.972  1.00  0.00    -0.328 Cl 
ENDBRANCH  23  24
ENDBRANCH  15  18
ENDBRANCH  12  14
TORSDOF 3
ENDMDL
MODEL      105
REMARK 921   NORMALIZED FREE ENERGY PREDICTED BY IDOCK:   -4.87 KCAL/MOL
REMARK 922        TOTAL FREE ENERGY PREDICTED BY IDOCK:   -7.09 KCAL/MOL
REMARK 923 INTER-LIGAND FREE ENERGY PREDICTED BY IDOCK:   -5.98 KCAL/MOL
REMARK 924 INTRA-LIGAND FREE ENERGY PREDICTED BY IDOCK:   -1.11 KCAL/MOL
REMARK 927      BINDING AFFINITY PREDICTED BY RF-SCORE:    0.00 PKD
ROOT
HETATM    1  C   UNL     1      -7.129  10.740  68.215  1.00  0.00    -0.078 C  
HETATM    2  S   UNL     1      -8.923  10.323  68.039  1.00  0.00    -0.133 SA 
HETATM    3  C   UNL     1      -8.684   9.390  66.456  1.00  0.00    -0.134 C  
HETATM    4  C   UNL     1      -9.716   8.263  66.357  1.00  0.00    -0.300 C  
HETATM    5  CA  UNL     1      -7.200   8.947  66.477  1.00  0.00    -0.085 C  
HETATM    6  C   UNL     1      -8.972  10.350  65.280  1.00  0.00    -0.212 C  
HETATM    7  N   UNL     1      -6.432  10.019  67.131  1.00  0.00    -0.068 N  
HETATM    8  C   UNL     1      -6.865   7.654  67.246  1.00  0.00    -0.069 C  
HETATM    9  OXT UNL     1      -7.548   6.644  67.285  1.00  0.00    -0.096 OA 
HETATM   10  O   UNL     1      -5.618   7.681  67.793  1.00  0.00    -0.032 OA 
HETATM   11  C   UNL     1      -6.110  11.156  66.440  1.00  0.00    -0.137 C  
HETATM   12  CA  UNL     1      -6.697  12.079  67.550  1.00  0.00    -0.120 C  
HETATM   13  O   UNL     1      -5.693  11.246  65.310  1.00  0.00    -0.053 OA 
ENDROOT
BRANCH  12  14
HETATM   14  N   UNL     1      -7.831  12.962  67.187  1.00  0.00    -0.353 N  
HETATM   15  C   UNL     1      -8.358  13.884  68.054  1.00  0.00    -0.166 C  
HETATM   16  H   UNL     1      -8.236  12.880  66.254  1.00  0.00     0.000 HD 
HETATM   17  O   UNL     1      -7.872  14.120  69.153  1.00  0.00    -0.063 OA 
BRANCH  15  18
HETATM   18  C   UNL     1      -9.546  14.568  67.559  1.00  0.00    -0.210 A  
HETATM   19  C   UNL     1      -9.529  15.585  66.626  1.00  0.00    -0.259 A  
HETATM   20  C   UNL     1      -8.479  16.279  65.852  1.00  0.00     0.023 C  
HETATM   21  O   UNL     1     -10.800  15.981  66.373  1.00  0.00    -0.269 OA 
HETATM   22  N   UNL     1     -11.677  15.266  67.153  1.00  0.00    -0.149 NA 
HETATM   23  C   UNL     1     -10.941  14.413  67.884  1.00  0.00    -0.262 A  
BRANCH  23  24
HETATM   24  C   UNL     1     -11.597  13.465  68.799  1.00  0.00    -0.363 A  
HETATM   25  C   UNL     1     -11.775  12.129  68.402  1.00  0.00    -0.332 A  
HETATM   26  C   UNL     1     -12.195  11.142  69.296  1.00  0.00    -0.295 A  
HETATM   27  F   UNL     1     -11.515  11.739  67.144  1.00  0.00    -0.328 F  
HETATM   28  C   UNL     1     -12.412  11.463  70.629  1.00  0.00    -0.419 A  
HETATM   29  C   UNL     1     -12.325  12.793  71.032  1.00  0.00    -0.316 A  
HETATM   30  C   UNL     1     -11.990  13.795  70.109  1.00  0.00    -0.334 A  
HETATM   31 CL   UNL     1     -12.160  15.425  70.668  1.00  0.00    -0.369 Cl 
ENDBRANCH  23  24
ENDBRANCH  15  18
ENDBRANCH  12  14
TORSDOF 3
ENDMDL
MODEL      106
REMARK 921   NORMALIZED FREE ENERGY PREDICTED BY IDOCK:   -4.87 KCAL/MOL
REMARK 922        TOTAL FREE ENERGY PREDICTED BY IDOCK:   -7.08 KCAL/MOL
REMARK 923 INTER-LIGAND FREE ENERGY PREDICTED BY IDOCK:   -5.60 KCAL/MOL
REMARK 924 INTRA-LIGAND FREE ENERGY PREDICTED BY IDOCK:   -1.48 KCAL/MOL
REMARK 927      BINDING AFFINITY PREDICTED BY RF-SCORE:    0.00 PKD
ROOT
HETATM    1  C   UNL     1     -10.361  13.410  67.011  1.00  0.00    -0.247 C  
HETATM    2  S   UNL     1      -9.273  13.089  65.550  1.00  0.00     0.641 SA 
HETATM    3  C   UNL     1     -10.448  11.884  64.775  1.00  0.00    -0.289 C  
HETATM    4  C   UNL     1     -10.328  11.949  63.250  1.00  0.00    -0.432 C  
HETATM    5  CA  UNL     1     -11.834  12.251  65.360  1.00  0.00    -0.360 C  
HETATM    6  C   UNL     1     -10.019  10.457  65.186  1.00  0.00    -0.390 C  
HETATM    7  N   UNL     1     -11.621  12.688  66.749  1.00  0.00    -0.354 N  
HETATM    8  C   UNL     1     -12.607  13.391  64.669  1.00  0.00    -0.265 C  
HETATM    9  OXT UNL     1     -12.648  13.607  63.469  1.00  0.00    -0.754 OA 
HETATM   10  O   UNL     1     -13.391  14.090  65.537  1.00  0.00    -0.673 OA 
HETATM   11  C   UNL     1     -11.420  11.763  67.739  1.00  0.00    -0.311 C  
HETATM   12  CA  UNL     1     -10.121  12.470  68.228  1.00  0.00    -0.228 C  
HETATM   13  O   UNL     1     -12.016  10.729  67.923  1.00  0.00    -0.518 OA 
ENDROOT
BRANCH  12  14
HETATM   14  N   UNL     1      -8.850  11.709  68.157  1.00  0.00    -0.158 N  
HETATM   15  C   UNL     1      -8.600  10.611  68.939  1.00  0.00    -0.158 C  
HETATM   16  H   UNL     1      -8.132  12.015  67.500  1.00  0.00     0.000 HD 
HETATM   17  O   UNL     1      -9.441  10.114  69.680  1.00  0.00    -0.222 OA 
BRANCH  15  18
HETATM   18  C   UNL     1      -7.251  10.075  68.814  1.00  0.00    -0.076 A  
HETATM   19  C   UNL     1      -6.249  10.260  69.746  1.00  0.00    -0.060 A  
HETATM   20  C   UNL     1      -6.145  10.946  71.050  1.00  0.00     0.206 C  
HETATM   21  O   UNL     1      -5.131   9.616  69.334  1.00  0.00    -0.036 OA 
HETATM   22  N   UNL     1      -5.355   9.024  68.114  1.00  0.00    -0.034 NA 
HETATM   23  C   UNL     1      -6.626   9.297  67.776  1.00  0.00    -0.063 A  
BRANCH  23  24
HETATM   24  C   UNL     1      -7.192   8.760  66.528  1.00  0.00    -0.081 A  
HETATM   25  C   UNL     1      -6.800   9.313  65.296  1.00  0.00    -0.081 A  
HETATM   26  C   UNL     1      -7.135   8.716  64.079  1.00  0.00    -0.090 A  
HETATM   27  F   UNL     1      -6.054  10.427  65.242  1.00  0.00    -0.097 F  
HETATM   28  C   UNL     1      -7.843   7.522  64.065  1.00  0.00    -0.127 A  
HETATM   29  C   UNL     1      -8.316   6.998  65.265  1.00  0.00    -0.100 A  
HETATM   30  C   UNL     1      -8.052   7.649  66.479  1.00  0.00    -0.119 A  
HETATM   31 CL   UNL     1      -8.899   7.043  67.862  1.00  0.00    -0.124 Cl 
ENDBRANCH  23  24
ENDBRANCH  15  18
ENDBRANCH  12  14
TORSDOF 3
ENDMDL
MODEL      107
REMARK 921   NORMALIZED FREE ENERGY PREDICTED BY IDOCK:   -4.86 KCAL/MOL
REMARK 922        TOTAL FREE ENERGY PREDICTED BY IDOCK:   -7.08 KCAL/MOL
REMARK 923 INTER-LIGAND FREE ENERGY PREDICTED BY IDOCK:   -5.77 KCAL/MOL
REMARK 924 INTRA-LIGAND FREE ENERGY PREDICTED BY IDOCK:   -1.31 KCAL/MOL
REMARK 927      BINDING AFFINITY PREDICTED BY RF-SCORE:    0.00 PKD
ROOT
HETATM    1  C   UNL     1      -9.841   9.523  67.294  1.00  0.00    -0.177 C  
HETATM    2  S   UNL     1      -9.789   9.743  65.458  1.00  0.00    -0.252 SA 
HETATM    3  C   UNL     1      -8.047   9.131  65.303  1.00  0.00    -0.124 C  
HETATM    4  C   UNL     1      -7.859   8.437  63.952  1.00  0.00    -0.151 C  
HETATM    5  CA  UNL     1      -7.826   8.246  66.555  1.00  0.00    -0.093 C  
HETATM    6  C   UNL     1      -7.102  10.355  65.301  1.00  0.00    -0.098 C  
HETATM    7  N   UNL     1      -8.576   8.859  67.663  1.00  0.00    -0.124 N  
HETATM    8  C   UNL     1      -8.307   6.784  66.473  1.00  0.00    -0.121 C  
HETATM    9  OXT UNL     1      -8.237   6.058  65.496  1.00  0.00    -0.129 OA 
HETATM   10  O   UNL     1      -8.710   6.300  67.681  1.00  0.00    -0.114 OA 
HETATM   11  C   UNL     1      -8.070   9.952  68.316  1.00  0.00    -0.104 C  
HETATM   12  CA  UNL     1      -9.386  10.762  68.118  1.00  0.00    -0.155 C  
HETATM   13  O   UNL     1      -6.937  10.136  68.689  1.00  0.00    -0.060 OA 
ENDROOT
BRANCH  12  14
HETATM   14  N   UNL     1      -9.315  12.015  67.328  1.00  0.00    -0.176 N  
HETATM   15  C   UNL     1     -10.126  13.093  67.574  1.00  0.00    -0.222 C  
HETATM   16  H   UNL     1      -8.635  12.077  66.570  1.00  0.00     0.000 HD 
HETATM   17  O   UNL     1     -10.897  13.144  68.525  1.00  0.00    -0.246 OA 
BRANCH  15  18
HETATM   18  C   UNL     1      -9.992  14.181  66.614  1.00  0.00    -0.280 A  
HETATM   19  C   UNL     1     -10.645  14.233  65.398  1.00  0.00    -0.354 A  
HETATM   20  C   UNL     1     -11.607  13.365  64.688  1.00  0.00    -0.386 C  
HETATM   21  O   UNL     1     -10.317  15.384  64.763  1.00  0.00    -0.315 OA 
HETATM   22  N   UNL     1      -9.419  16.096  65.521  1.00  0.00    -0.409 NA 
HETATM   23  C   UNL     1      -9.201  15.384  66.639  1.00  0.00    -0.275 A  
BRANCH  23  24
HETATM   24  C   UNL     1      -8.309  15.906  67.687  1.00  0.00    -0.165 A  
HETATM   25  C   UNL     1      -7.043  15.323  67.872  1.00  0.00    -0.141 A  
HETATM   26  C   UNL     1      -6.077  15.902  68.698  1.00  0.00    -0.101 A  
HETATM   27  F   UNL     1      -6.698  14.197  67.230  1.00  0.00    -0.192 F  
HETATM   28  C   UNL     1      -6.343  17.107  69.336  1.00  0.00    -0.238 A  
HETATM   29  C   UNL     1      -7.616  17.661  69.237  1.00  0.00     0.057 A  
HETATM   30  C   UNL     1      -8.611  17.029  68.477  1.00  0.00    -0.257 A  
HETATM   31 CL   UNL     1     -10.210  17.675  68.637  1.00  0.00    -0.365 Cl 
ENDBRANCH  23  24
ENDBRANCH  15  18
ENDBRANCH  12  14
TORSDOF 3
ENDMDL
MODEL      108
REMARK 921   NORMALIZED FREE ENERGY PREDICTED BY IDOCK:   -4.86 KCAL/MOL
REMARK 922        TOTAL FREE ENERGY PREDICTED BY IDOCK:   -7.07 KCAL/MOL
REMARK 923 INTER-LIGAND FREE ENERGY PREDICTED BY IDOCK:   -6.95 KCAL/MOL
REMARK 924 INTRA-LIGAND FREE ENERGY PREDICTED BY IDOCK:   -0.12 KCAL/MOL
REMARK 927      BINDING AFFINITY PREDICTED BY RF-SCORE:    0.00 PKD
ROOT
HETATM    1  C   UNL     1      -8.471   7.164  71.543  1.00  0.00    -0.115 C  
HETATM    2  S   UNL     1      -8.911   6.697  69.808  1.00  0.00    -0.143 SA 
HETATM    3  C   UNL     1      -7.169   6.827  69.192  1.00  0.00    -0.091 C  
HETATM    4  C   UNL     1      -6.944   5.826  68.056  1.00  0.00    -0.065 C  
HETATM    5  CA  UNL     1      -6.289   6.630  70.451  1.00  0.00    -0.043 C  
HETATM    6  C   UNL     1      -6.975   8.233  68.579  1.00  0.00    -0.069 C  
HETATM    7  N   UNL     1      -6.998   7.249  71.582  1.00  0.00    -0.059 N  
HETATM    8  C   UNL     1      -5.990   5.180  70.878  1.00  0.00    -0.021 C  
HETATM    9  OXT UNL     1      -5.773   4.241  70.130  1.00  0.00    -0.012 OA 
HETATM   10  O   UNL     1      -5.845   5.053  72.226  1.00  0.00    -0.018 OA 
HETATM   11  C   UNL     1      -6.976   8.608  71.749  1.00  0.00    -0.084 C  
HETATM   12  CA  UNL     1      -8.529   8.688  71.850  1.00  0.00    -0.143 C  
HETATM   13  O   UNL     1      -6.033   9.355  71.647  1.00  0.00    -0.100 OA 
ENDROOT
BRANCH  12  14
HETATM   14  N   UNL     1      -9.249   9.479  70.823  1.00  0.00    -0.276 N  
HETATM   15  C   UNL     1     -10.609   9.655  70.843  1.00  0.00    -0.316 C  
HETATM   16  H   UNL     1      -8.711   9.910  70.071  1.00  0.00     0.000 HD 
HETATM   17  O   UNL     1     -11.319   9.261  71.760  1.00  0.00    -0.369 OA 
BRANCH  15  18
HETATM   18  C   UNL     1     -11.143  10.357  69.683  1.00  0.00    -0.328 A  
HETATM   19  C   UNL     1     -11.041   9.905  68.382  1.00  0.00    -0.139 A  
HETATM   20  C   UNL     1     -10.461   8.713  67.730  1.00  0.00    -0.287 C  
HETATM   21  O   UNL     1     -11.660  10.781  67.554  1.00  0.00    -0.510 OA 
HETATM   22  N   UNL     1     -12.151  11.841  68.278  1.00  0.00    -0.506 NA 
HETATM   23  C   UNL     1     -11.843  11.611  69.565  1.00  0.00    -0.348 A  
BRANCH  23  24
HETATM   24  C   UNL     1     -12.274  12.553  70.610  1.00  0.00    -0.365 A  
HETATM   25  C   UNL     1     -11.803  13.877  70.586  1.00  0.00    -0.218 A  
HETATM   26  C   UNL     1     -12.335  14.865  71.418  1.00  0.00    -0.397 A  
HETATM   27  F   UNL     1     -10.837  14.254  69.735  1.00  0.00    -0.239 F  
HETATM   28  C   UNL     1     -13.385  14.559  72.273  1.00  0.00    -0.495 A  
HETATM   29  C   UNL     1     -13.815  13.239  72.377  1.00  0.00    -0.630 A  
HETATM   30  C   UNL     1     -13.216  12.233  71.604  1.00  0.00    -0.257 A  
HETATM   31 CL   UNL     1     -13.660  10.608  72.004  1.00  0.00    -0.306 Cl 
ENDBRANCH  23  24
ENDBRANCH  15  18
ENDBRANCH  12  14
TORSDOF 3
ENDMDL
MODEL      109
REMARK 921   NORMALIZED FREE ENERGY PREDICTED BY IDOCK:   -4.85 KCAL/MOL
REMARK 922        TOTAL FREE ENERGY PREDICTED BY IDOCK:   -7.07 KCAL/MOL
REMARK 923 INTER-LIGAND FREE ENERGY PREDICTED BY IDOCK:   -6.24 KCAL/MOL
REMARK 924 INTRA-LIGAND FREE ENERGY PREDICTED BY IDOCK:   -0.82 KCAL/MOL
REMARK 927      BINDING AFFINITY PREDICTED BY RF-SCORE:    0.00 PKD
ROOT
HETATM    1  C   UNL     1      -7.824  10.962  69.156  1.00  0.00    -0.119 C  
HETATM    2  S   UNL     1      -9.583  10.596  68.712  1.00  0.00    -0.192 SA 
HETATM    3  C   UNL     1      -9.157   9.927  67.037  1.00  0.00    -0.138 C  
HETATM    4  C   UNL     1     -10.161   8.841  66.641  1.00  0.00    -0.340 C  
HETATM    5  CA  UNL     1      -7.682   9.472  67.156  1.00  0.00    -0.091 C  
HETATM    6  C   UNL     1      -9.318  11.067  66.005  1.00  0.00    -0.225 C  
HETATM    7  N   UNL     1      -7.003  10.418  68.057  1.00  0.00    -0.077 N  
HETATM    8  C   UNL     1      -7.425   8.070  67.739  1.00  0.00    -0.094 C  
HETATM    9  OXT UNL     1      -8.099   7.073  67.538  1.00  0.00    -0.111 OA 
HETATM   10  O   UNL     1      -6.249   7.996  68.422  1.00  0.00    -0.046 OA 
HETATM   11  C   UNL     1      -6.613  11.648  67.598  1.00  0.00    -0.082 C  
HETATM   12  CA  UNL     1      -7.331  12.386  68.768  1.00  0.00    -0.076 C  
HETATM   13  O   UNL     1      -6.071  11.914  66.553  1.00  0.00    -0.155 OA 
ENDROOT
BRANCH  12  14
HETATM   14  N   UNL     1      -8.424  13.327  68.425  1.00  0.00    -0.249 N  
HETATM   15  C   UNL     1      -8.492  14.599  68.932  1.00  0.00    -0.136 C  
HETATM   16  H   UNL     1      -9.156  13.015  67.786  1.00  0.00     0.000 HD 
HETATM   17  O   UNL     1      -7.608  15.090  69.623  1.00  0.00    -0.198 OA 
BRANCH  15  18
HETATM   18  C   UNL     1      -9.704  15.326  68.577  1.00  0.00    -0.211 A  
HETATM   19  C   UNL     1     -10.985  14.882  68.839  1.00  0.00    -0.251 A  
HETATM   20  C   UNL     1     -11.568  13.694  69.496  1.00  0.00    -0.361 C  
HETATM   21  O   UNL     1     -11.876  15.803  68.400  1.00  0.00    -0.338 OA 
HETATM   22  N   UNL     1     -11.212  16.852  67.810  1.00  0.00    -0.114 NA 
HETATM   23  C   UNL     1      -9.900  16.581  67.897  1.00  0.00    -0.240 A  
BRANCH  23  24
HETATM   24  C   UNL     1      -8.909  17.544  67.390  1.00  0.00    -0.230 A  
HETATM   25  C   UNL     1      -7.938  17.117  66.468  1.00  0.00    -0.289 A  
HETATM   26  C   UNL     1      -7.111  18.019  65.795  1.00  0.00    -0.242 A  
HETATM   27  F   UNL     1      -7.787  15.817  66.172  1.00  0.00    -0.211 F  
HETATM   28  C   UNL     1      -7.263  19.383  66.001  1.00  0.00    -0.301 A  
HETATM   29  C   UNL     1      -8.158  19.829  66.969  1.00  0.00    -0.327 A  
HETATM   30  C   UNL     1      -8.923  18.914  67.706  1.00  0.00    -0.291 A  
HETATM   31 CL   UNL     1      -9.806  19.570  69.044  1.00  0.00    -0.511 Cl 
ENDBRANCH  23  24
ENDBRANCH  15  18
ENDBRANCH  12  14
TORSDOF 3
ENDMDL
MODEL      110
REMARK 921   NORMALIZED FREE ENERGY PREDICTED BY IDOCK:   -4.81 KCAL/MOL
REMARK 922        TOTAL FREE ENERGY PREDICTED BY IDOCK:   -7.02 KCAL/MOL
REMARK 923 INTER-LIGAND FREE ENERGY PREDICTED BY IDOCK:   -5.98 KCAL/MOL
REMARK 924 INTRA-LIGAND FREE ENERGY PREDICTED BY IDOCK:   -1.04 KCAL/MOL
REMARK 927      BINDING AFFINITY PREDICTED BY RF-SCORE:    0.00 PKD
ROOT
HETATM    1  C   UNL     1     -10.563   7.075  69.467  1.00  0.00    -0.234 C  
HETATM    2  S   UNL     1      -8.955   7.957  69.707  1.00  0.00    -0.145 SA 
HETATM    3  C   UNL     1      -8.820   7.497  71.497  1.00  0.00    -0.124 C  
HETATM    4  C   UNL     1      -7.346   7.355  71.887  1.00  0.00    -0.079 C  
HETATM    5  CA  UNL     1      -9.683   6.219  71.643  1.00  0.00    -0.161 C  
HETATM    6  C   UNL     1      -9.384   8.662  72.341  1.00  0.00    -0.284 C  
HETATM    7  N   UNL     1     -10.829   6.358  70.730  1.00  0.00    -0.252 N  
HETATM    8  C   UNL     1      -9.015   4.877  71.286  1.00  0.00    -0.133 C  
HETATM    9  OXT UNL     1      -7.859   4.565  71.519  1.00  0.00    -0.082 OA 
HETATM   10  O   UNL     1      -9.901   3.971  70.787  1.00  0.00    -0.194 OA 
HETATM   11  C   UNL     1     -11.894   7.147  71.076  1.00  0.00    -0.333 C  
HETATM   12  CA  UNL     1     -11.832   7.935  69.733  1.00  0.00     0.646 C  
HETATM   13  O   UNL     1     -12.454   7.214  72.143  1.00  0.00    -0.256 OA 
ENDROOT
BRANCH  12  14
HETATM   14  N   UNL     1     -11.565   9.393  69.797  1.00  0.00    -0.442 N  
HETATM   15  C   UNL     1     -12.553  10.316  70.027  1.00  0.00     0.006 C  
HETATM   16  H   UNL     1     -10.609   9.722  69.665  1.00  0.00     0.000 HD 
HETATM   17  O   UNL     1     -13.707  10.006  70.296  1.00  0.00     0.198 OA 
BRANCH  15  18
HETATM   18  C   UNL     1     -12.116  11.703  69.929  1.00  0.00    -0.373 A  
HETATM   19  C   UNL     1     -12.433  12.688  70.844  1.00  0.00    -0.278 A  
HETATM   20  C   UNL     1     -13.203  12.738  72.104  1.00  0.00    -0.546 C  
HETATM   21  O   UNL     1     -11.852  13.852  70.468  1.00  0.00    -0.302 OA 
HETATM   22  N   UNL     1     -11.172  13.675  69.287  1.00  0.00    -0.252 NA 
HETATM   23  C   UNL     1     -11.325  12.387  68.938  1.00  0.00    -0.294 A  
BRANCH  23  24
HETATM   24  C   UNL     1     -10.672  11.864  67.727  1.00  0.00    -0.243 A  
HETATM   25  C   UNL     1      -9.492  11.108  67.848  1.00  0.00    -0.175 A  
HETATM   26  C   UNL     1      -8.946  10.414  66.767  1.00  0.00    -0.153 A  
HETATM   27  F   UNL     1      -8.857  10.998  69.025  1.00  0.00    -0.160 F  
HETATM   28  C   UNL     1      -9.592  10.427  65.538  1.00  0.00    -0.290 A  
HETATM   29  C   UNL     1     -10.714  11.234  65.368  1.00  0.00    -0.291 A  
HETATM   30  C   UNL     1     -11.207  12.000  66.434  1.00  0.00    -0.337 A  
HETATM   31 CL   UNL     1     -12.443  13.145  66.034  1.00  0.00    -0.416 Cl 
ENDBRANCH  23  24
ENDBRANCH  15  18
ENDBRANCH  12  14
TORSDOF 3
ENDMDL
MODEL      111
REMARK 921   NORMALIZED FREE ENERGY PREDICTED BY IDOCK:   -4.81 KCAL/MOL
REMARK 922        TOTAL FREE ENERGY PREDICTED BY IDOCK:   -7.02 KCAL/MOL
REMARK 923 INTER-LIGAND FREE ENERGY PREDICTED BY IDOCK:   -6.52 KCAL/MOL
REMARK 924 INTRA-LIGAND FREE ENERGY PREDICTED BY IDOCK:   -0.50 KCAL/MOL
REMARK 927      BINDING AFFINITY PREDICTED BY RF-SCORE:    0.00 PKD
ROOT
HETATM    1  C   UNL     1     -10.484  13.817  67.979  1.00  0.00    -0.244 C  
HETATM    2  S   UNL     1     -10.672  15.591  67.490  1.00  0.00    -0.304 SA 
HETATM    3  C   UNL     1     -10.416  15.256  65.686  1.00  0.00    -0.358 C  
HETATM    4  C   UNL     1     -11.218  16.260  64.852  1.00  0.00    -0.243 C  
HETATM    5  CA  UNL     1     -10.798  13.767  65.502  1.00  0.00    -0.299 C  
HETATM    6  C   UNL     1      -8.927  15.505  65.353  1.00  0.00     0.876 C  
HETATM    7  N   UNL     1     -10.381  13.053  66.720  1.00  0.00    -0.252 N  
HETATM    8  C   UNL     1     -12.293  13.444  65.310  1.00  0.00    -0.469 C  
HETATM    9  OXT UNL     1     -13.095  14.108  64.676  1.00  0.00    -0.509 OA 
HETATM   10  O   UNL     1     -12.632  12.227  65.817  1.00  0.00    -0.455 OA 
HETATM   11  C   UNL     1      -9.066  12.719  66.907  1.00  0.00    -0.221 C  
HETATM   12  CA  UNL     1      -9.030  13.379  68.318  1.00  0.00    -0.176 C  
HETATM   13  O   UNL     1      -8.297  12.249  66.103  1.00  0.00     0.159 OA 
ENDROOT
BRANCH  12  14
HETATM   14  N   UNL     1      -8.096  14.511  68.529  1.00  0.00    -0.142 N  
HETATM   15  C   UNL     1      -8.344  15.518  69.426  1.00  0.00    -0.249 C  
HETATM   16  H   UNL     1      -7.234  14.542  67.984  1.00  0.00     0.000 HD 
HETATM   17  O   UNL     1      -9.300  15.509  70.191  1.00  0.00    -0.040 OA 
BRANCH  15  18
HETATM   18  C   UNL     1      -7.371  16.603  69.399  1.00  0.00    -0.095 A  
HETATM   19  C   UNL     1      -6.143  16.566  70.029  1.00  0.00    -0.151 A  
HETATM   20  C   UNL     1      -5.413  15.572  70.843  1.00  0.00    -0.059 C  
HETATM   21  O   UNL     1      -5.481  17.723  69.787  1.00  0.00    -0.192 OA 
HETATM   22  N   UNL     1      -6.263  18.559  69.026  1.00  0.00    -0.231 NA 
HETATM   23  C   UNL     1      -7.413  17.907  68.788  1.00  0.00    -0.268 A  
BRANCH  23  24
HETATM   24  C   UNL     1      -8.455  18.525  67.953  1.00  0.00    -0.292 A  
HETATM   25  C   UNL     1      -9.703  18.837  68.522  1.00  0.00    -0.380 A  
HETATM   26  C   UNL     1     -10.650  19.609  67.845  1.00  0.00    -0.492 A  
HETATM   27  F   UNL     1     -10.023  18.430  69.759  1.00  0.00    -0.017 F  
HETATM   28  C   UNL     1     -10.355  20.124  66.590  1.00  0.00    -0.508 A  
HETATM   29  C   UNL     1      -9.163  19.761  65.969  1.00  0.00    -0.338 A  
HETATM   30  C   UNL     1      -8.253  18.913  66.617  1.00  0.00    -0.286 A  
HETATM   31 CL   UNL     1      -6.937  18.337  65.650  1.00  0.00    -0.287 Cl 
ENDBRANCH  23  24
ENDBRANCH  15  18
ENDBRANCH  12  14
TORSDOF 3
ENDMDL
MODEL      112
REMARK 921   NORMALIZED FREE ENERGY PREDICTED BY IDOCK:   -4.80 KCAL/MOL
REMARK 922        TOTAL FREE ENERGY PREDICTED BY IDOCK:   -7.01 KCAL/MOL
REMARK 923 INTER-LIGAND FREE ENERGY PREDICTED BY IDOCK:   -5.95 KCAL/MOL
REMARK 924 INTRA-LIGAND FREE ENERGY PREDICTED BY IDOCK:   -1.06 KCAL/MOL
REMARK 927      BINDING AFFINITY PREDICTED BY RF-SCORE:    0.00 PKD
ROOT
HETATM    1  C   UNL     1      -9.725  16.264  68.791  1.00  0.00    -0.240 C  
HETATM    2  S   UNL     1      -7.987  15.691  68.521  1.00  0.00    -0.147 SA 
HETATM    3  C   UNL     1      -7.537  17.140  67.457  1.00  0.00    -0.170 C  
HETATM    4  C   UNL     1      -6.053  17.475  67.636  1.00  0.00    -0.165 C  
HETATM    5  CA  UNL     1      -8.535  18.253  67.863  1.00  0.00    -0.254 C  
HETATM    6  C   UNL     1      -7.716  16.730  65.978  1.00  0.00    -0.028 C  
HETATM    7  N   UNL     1      -9.817  17.601  68.173  1.00  0.00    -0.302 N  
HETATM    8  C   UNL     1      -8.177  19.099  69.100  1.00  0.00    -0.122 C  
HETATM    9  OXT UNL     1      -7.060  19.477  69.414  1.00  0.00    -0.350 OA 
HETATM   10  O   UNL     1      -9.280  19.527  69.775  1.00  0.00     0.147 OA 
HETATM   11  C   UNL     1     -10.645  17.192  67.162  1.00  0.00    -0.244 C  
HETATM   12  CA  UNL     1     -10.757  15.752  67.744  1.00  0.00    -0.307 C  
HETATM   13  O   UNL     1     -10.941  17.791  66.156  1.00  0.00    -0.037 OA 
ENDROOT
BRANCH  12  14
HETATM   14  N   UNL     1     -10.260  14.629  66.913  1.00  0.00    -0.260 N  
HETATM   15  C   UNL     1     -11.006  13.504  66.667  1.00  0.00    -0.288 C  
HETATM   16  H   UNL     1      -9.327  14.695  66.508  1.00  0.00     0.000 HD 
HETATM   17  O   UNL     1     -12.170  13.383  67.028  1.00  0.00    -0.353 OA 
BRANCH  15  18
HETATM   18  C   UNL     1     -10.299  12.461  65.934  1.00  0.00    -0.282 A  
HETATM   19  C   UNL     1     -10.475  12.194  64.591  1.00  0.00    -0.299 A  
HETATM   20  C   UNL     1     -11.300  12.770  63.509  1.00  0.00    -0.480 C  
HETATM   21  O   UNL     1      -9.654  11.182  64.224  1.00  0.00    -0.235 OA 
HETATM   22  N   UNL     1      -8.947  10.735  65.315  1.00  0.00    -0.191 NA 
HETATM   23  C   UNL     1      -9.327  11.486  66.361  1.00  0.00    -0.209 A  
BRANCH  23  24
HETATM   24  C   UNL     1      -8.713  11.282  67.682  1.00  0.00    -0.131 A  
HETATM   25  C   UNL     1      -9.323  10.412  68.603  1.00  0.00    -0.167 A  
HETATM   26  C   UNL     1      -8.684  10.017  69.780  1.00  0.00    -0.198 A  
HETATM   27  F   UNL     1     -10.540   9.898  68.369  1.00  0.00    -0.203 F  
HETATM   28  C   UNL     1      -7.395  10.455  70.049  1.00  0.00    -0.121 A  
HETATM   29  C   UNL     1      -6.800  11.382  69.198  1.00  0.00    -0.111 A  
HETATM   30  C   UNL     1      -7.482  11.845  68.062  1.00  0.00    -0.107 A  
HETATM   31 CL   UNL     1      -6.747  13.173  67.229  1.00  0.00    -0.093 Cl 
ENDBRANCH  23  24
ENDBRANCH  15  18
ENDBRANCH  12  14
TORSDOF 3
ENDMDL
MODEL      113
REMARK 921   NORMALIZED FREE ENERGY PREDICTED BY IDOCK:   -4.77 KCAL/MOL
REMARK 922        TOTAL FREE ENERGY PREDICTED BY IDOCK:   -6.97 KCAL/MOL
REMARK 923 INTER-LIGAND FREE ENERGY PREDICTED BY IDOCK:   -5.79 KCAL/MOL
REMARK 924 INTRA-LIGAND FREE ENERGY PREDICTED BY IDOCK:   -1.18 KCAL/MOL
REMARK 927      BINDING AFFINITY PREDICTED BY RF-SCORE:    0.00 PKD
ROOT
HETATM    1  C   UNL     1     -10.555  13.427  67.115  1.00  0.00    -0.259 C  
HETATM    2  S   UNL     1      -9.391  13.082  65.719  1.00  0.00     0.257 SA 
HETATM    3  C   UNL     1     -10.528  11.872  64.897  1.00  0.00    -0.287 C  
HETATM    4  C   UNL     1     -10.325  11.916  63.380  1.00  0.00    -0.481 C  
HETATM    5  CA  UNL     1     -11.942  12.253  65.401  1.00  0.00    -0.332 C  
HETATM    6  C   UNL     1     -10.130  10.449  65.349  1.00  0.00    -0.354 C  
HETATM    7  N   UNL     1     -11.803  12.707  66.794  1.00  0.00    -0.397 N  
HETATM    8  C   UNL     1     -12.670  13.387  64.654  1.00  0.00    -0.186 C  
HETATM    9  OXT UNL     1     -12.645  13.588  63.451  1.00  0.00    -0.740 OA 
HETATM   10  O   UNL     1     -13.496  14.101  65.469  1.00  0.00    -0.643 OA 
HETATM   11  C   UNL     1     -11.661  11.795  67.806  1.00  0.00    -0.304 C  
HETATM   12  CA  UNL     1     -10.386  12.503  68.355  1.00  0.00    -0.230 C  
HETATM   13  O   UNL     1     -12.271  10.767  67.970  1.00  0.00    -0.297 OA 
ENDROOT
BRANCH  12  14
HETATM   14  N   UNL     1      -9.118  11.735  68.363  1.00  0.00    -0.214 N  
HETATM   15  C   UNL     1      -8.906  10.663  69.192  1.00  0.00    -0.122 C  
HETATM   16  H   UNL     1      -8.372  12.016  67.727  1.00  0.00     0.000 HD 
HETATM   17  O   UNL     1      -9.779  10.195  69.913  1.00  0.00    -0.222 OA 
BRANCH  15  18
HETATM   18  C   UNL     1      -7.555  10.119  69.142  1.00  0.00    -0.103 A  
HETATM   19  C   UNL     1      -7.253   8.809  68.827  1.00  0.00    -0.075 A  
HETATM   20  C   UNL     1      -8.036   7.614  68.452  1.00  0.00    -0.124 C  
HETATM   21  O   UNL     1      -5.908   8.643  68.850  1.00  0.00    -0.039 OA 
HETATM   22  N   UNL     1      -5.298   9.819  69.213  1.00  0.00    -0.036 NA 
HETATM   23  C   UNL     1      -6.274  10.722  69.404  1.00  0.00    -0.059 A  
BRANCH  23  24
HETATM   24  C   UNL     1      -5.939  12.110  69.762  1.00  0.00    -0.137 A  
HETATM   25  C   UNL     1      -6.000  13.113  68.779  1.00  0.00    -0.076 A  
HETATM   26  C   UNL     1      -5.901  14.468  69.100  1.00  0.00    -0.092 A  
HETATM   27  F   UNL     1      -6.188  12.806  67.486  1.00  0.00    -0.109 F  
HETATM   28  C   UNL     1      -5.776  14.859  70.426  1.00  0.00    -0.145 A  
HETATM   29  C   UNL     1      -5.630  13.885  71.411  1.00  0.00    -0.231 A  
HETATM   30  C   UNL     1      -5.641  12.524  71.072  1.00  0.00    -0.079 A  
HETATM   31 CL   UNL     1      -5.200  11.427  72.337  1.00  0.00     0.325 Cl 
ENDBRANCH  23  24
ENDBRANCH  15  18
ENDBRANCH  12  14
TORSDOF 3
ENDMDL
MODEL      114
REMARK 921   NORMALIZED FREE ENERGY PREDICTED BY IDOCK:   -4.75 KCAL/MOL
REMARK 922        TOTAL FREE ENERGY PREDICTED BY IDOCK:   -6.94 KCAL/MOL
REMARK 923 INTER-LIGAND FREE ENERGY PREDICTED BY IDOCK:   -5.37 KCAL/MOL
REMARK 924 INTRA-LIGAND FREE ENERGY PREDICTED BY IDOCK:   -1.57 KCAL/MOL
REMARK 927      BINDING AFFINITY PREDICTED BY RF-SCORE:    0.00 PKD
ROOT
HETATM    1  C   UNL     1      -9.581  11.449  65.858  1.00  0.00    -0.227 C  
HETATM    2  S   UNL     1     -11.161  11.158  66.776  1.00  0.00    -0.137 SA 
HETATM    3  C   UNL     1     -10.631  12.135  68.258  1.00  0.00    -0.217 C  
HETATM    4  C   UNL     1     -11.852  12.787  68.913  1.00  0.00    -0.351 C  
HETATM    5  CA  UNL     1      -9.550  13.107  67.726  1.00  0.00    -0.208 C  
HETATM    6  C   UNL     1     -10.049  11.155  69.302  1.00  0.00    -0.068 C  
HETATM    7  N   UNL     1      -8.800  12.397  66.677  1.00  0.00    -0.191 N  
HETATM    8  C   UNL     1     -10.041  14.419  67.083  1.00  0.00    -0.253 C  
HETATM    9  OXT UNL     1     -10.985  15.094  67.459  1.00  0.00    -0.294 OA 
HETATM   10  O   UNL     1      -9.211  14.858  66.097  1.00  0.00    -0.287 OA 
HETATM   11  C   UNL     1      -7.843  11.478  67.016  1.00  0.00    -0.161 C  
HETATM   12  CA  UNL     1      -8.473  10.385  66.101  1.00  0.00    -0.147 C  
HETATM   13  O   UNL     1      -6.993  11.570  67.869  1.00  0.00    -0.069 OA 
ENDROOT
BRANCH  12  14
HETATM   14  N   UNL     1      -8.964   9.143  66.745  1.00  0.00    -0.126 N  
HETATM   15  C   UNL     1      -8.121   8.177  67.232  1.00  0.00    -0.121 C  
HETATM   16  H   UNL     1      -9.971   9.001  66.828  1.00  0.00     0.000 HD 
HETATM   17  O   UNL     1      -6.904   8.310  67.265  1.00  0.00    -0.068 OA 
BRANCH  15  18
HETATM   18  C   UNL     1      -8.793   6.977  67.713  1.00  0.00    -0.123 A  
HETATM   19  C   UNL     1      -9.130   5.900  66.919  1.00  0.00    -0.120 A  
HETATM   20  C   UNL     1      -8.964   5.559  65.491  1.00  0.00    -0.133 C  
HETATM   21  O   UNL     1      -9.720   4.948  67.682  1.00  0.00    -0.144 OA 
HETATM   22  N   UNL     1      -9.818   5.386  68.981  1.00  0.00    -0.154 NA 
HETATM   23  C   UNL     1      -9.273   6.612  69.022  1.00  0.00    -0.131 A  
BRANCH  23  24
HETATM   24  C   UNL     1      -9.184   7.341  70.297  1.00  0.00    -0.155 A  
HETATM   25  C   UNL     1     -10.353   7.852  70.886  1.00  0.00    -0.200 A  
HETATM   26  C   UNL     1     -10.363   8.363  72.186  1.00  0.00    -0.397 A  
HETATM   27  F   UNL     1     -11.523   7.839  70.229  1.00  0.00    -0.274 F  
HETATM   28  C   UNL     1      -9.203   8.341  72.947  1.00  0.00    -0.329 A  
HETATM   29  C   UNL     1      -8.013   7.919  72.361  1.00  0.00    -0.151 A  
HETATM   30  C   UNL     1      -7.990   7.490  71.026  1.00  0.00    -0.095 A  
HETATM   31 CL   UNL     1      -6.421   7.232  70.341  1.00  0.00    -0.042 Cl 
ENDBRANCH  23  24
ENDBRANCH  15  18
ENDBRANCH  12  14
TORSDOF 3
ENDMDL
MODEL      115
REMARK 921   NORMALIZED FREE ENERGY PREDICTED BY IDOCK:   -4.73 KCAL/MOL
REMARK 922        TOTAL FREE ENERGY PREDICTED BY IDOCK:   -6.92 KCAL/MOL
REMARK 923 INTER-LIGAND FREE ENERGY PREDICTED BY IDOCK:   -5.32 KCAL/MOL
REMARK 924 INTRA-LIGAND FREE ENERGY PREDICTED BY IDOCK:   -1.60 KCAL/MOL
REMARK 927      BINDING AFFINITY PREDICTED BY RF-SCORE:    0.00 PKD
ROOT
HETATM    1  C   UNL     1      -9.111  11.610  65.955  1.00  0.00    -0.182 C  
HETATM    2  S   UNL     1     -10.775  10.906  66.354  1.00  0.00    -0.145 SA 
HETATM    3  C   UNL     1     -10.546  11.059  68.186  1.00  0.00    -0.191 C  
HETATM    4  C   UNL     1     -11.898  11.313  68.859  1.00  0.00    -0.413 C  
HETATM    5  CA  UNL     1      -9.485  12.174  68.360  1.00  0.00    -0.179 C  
HETATM    6  C   UNL     1     -10.037   9.704  68.726  1.00  0.00    -0.193 C  
HETATM    7  N   UNL     1      -8.537  12.056  67.240  1.00  0.00    -0.169 N  
HETATM    8  C   UNL     1      -9.988  13.631  68.339  1.00  0.00    -0.235 C  
HETATM    9  OXT UNL     1     -11.029  14.038  68.826  1.00  0.00    -0.246 OA 
HETATM   10  O   UNL     1      -9.066  14.493  67.827  1.00  0.00    -0.181 OA 
HETATM   11  C   UNL     1      -7.564  11.092  67.260  1.00  0.00    -0.111 C  
HETATM   12  CA  UNL     1      -7.963  10.565  65.849  1.00  0.00    -0.154 C  
HETATM   13  O   UNL     1      -6.855  10.770  68.183  1.00  0.00    -0.066 OA 
ENDROOT
BRANCH  12  14
HETATM   14  N   UNL     1      -8.436   9.163  65.741  1.00  0.00    -0.134 N  
HETATM   15  C   UNL     1      -7.599   8.087  65.888  1.00  0.00    -0.086 C  
HETATM   16  H   UNL     1      -9.423   8.993  65.550  1.00  0.00     0.000 HD 
HETATM   17  O   UNL     1      -6.424   8.195  66.217  1.00  0.00    -0.046 OA 
BRANCH  15  18
HETATM   18  C   UNL     1      -8.224   6.797  65.624  1.00  0.00    -0.134 A  
HETATM   19  C   UNL     1      -8.150   6.126  64.420  1.00  0.00    -0.102 A  
HETATM   20  C   UNL     1      -7.499   6.379  63.118  1.00  0.00    -0.072 C  
HETATM   21  O   UNL     1      -8.819   4.952  64.520  1.00  0.00    -0.152 OA 
HETATM   22  N   UNL     1      -9.378   4.838  65.770  1.00  0.00    -0.154 NA 
HETATM   23  C   UNL     1      -9.040   5.945  66.451  1.00  0.00    -0.149 A  
BRANCH  23  24
HETATM   24  C   UNL     1      -9.453   6.107  67.854  1.00  0.00    -0.115 A  
HETATM   25  C   UNL     1     -10.802   6.364  68.153  1.00  0.00    -0.308 A  
HETATM   26  C   UNL     1     -11.291   6.318  69.460  1.00  0.00    -0.475 A  
HETATM   27  F   UNL     1     -11.688   6.635  67.182  1.00  0.00    -0.291 F  
HETATM   28  C   UNL     1     -10.443   5.974  70.505  1.00  0.00    -0.303 A  
HETATM   29  C   UNL     1      -9.086   5.796  70.249  1.00  0.00    -0.160 A  
HETATM   30  C   UNL     1      -8.584   5.931  68.946  1.00  0.00    -0.110 A  
HETATM   31 CL   UNL     1      -6.859   5.936  68.797  1.00  0.00    -0.064 Cl 
ENDBRANCH  23  24
ENDBRANCH  15  18
ENDBRANCH  12  14
TORSDOF 3
ENDMDL
MODEL      116
REMARK 921   NORMALIZED FREE ENERGY PREDICTED BY IDOCK:   -4.71 KCAL/MOL
REMARK 922        TOTAL FREE ENERGY PREDICTED BY IDOCK:   -6.90 KCAL/MOL
REMARK 923 INTER-LIGAND FREE ENERGY PREDICTED BY IDOCK:   -5.58 KCAL/MOL
REMARK 924 INTRA-LIGAND FREE ENERGY PREDICTED BY IDOCK:   -1.32 KCAL/MOL
REMARK 927      BINDING AFFINITY PREDICTED BY RF-SCORE:    0.00 PKD
ROOT
HETATM    1  C   UNL     1     -10.630   8.811  66.830  1.00  0.00    -0.193 C  
HETATM    2  S   UNL     1     -11.014  10.177  68.017  1.00  0.00    -0.240 SA 
HETATM    3  C   UNL     1      -9.505  11.159  67.577  1.00  0.00    -0.168 C  
HETATM    4  C   UNL     1      -9.795  12.655  67.733  1.00  0.00    -0.212 C  
HETATM    5  CA  UNL     1      -9.129  10.688  66.151  1.00  0.00    -0.170 C  
HETATM    6  C   UNL     1      -8.394  10.822  68.597  1.00  0.00    -0.141 C  
HETATM    7  N   UNL     1      -9.449   9.254  66.064  1.00  0.00    -0.227 N  
HETATM    8  C   UNL     1      -9.863  11.360  64.974  1.00  0.00    -0.261 C  
HETATM    9  OXT UNL     1     -10.175  12.537  64.900  1.00  0.00    -0.288 OA 
HETATM   10  O   UNL     1     -10.021  10.522  63.912  1.00  0.00    -0.325 OA 
HETATM   11  C   UNL     1      -8.610   8.326  66.619  1.00  0.00    -0.129 C  
HETATM   12  CA  UNL     1      -9.769   7.655  67.415  1.00  0.00    -0.161 C  
HETATM   13  O   UNL     1      -7.404   8.285  66.562  1.00  0.00    -0.079 OA 
ENDROOT
BRANCH  12  14
HETATM   14  N   UNL     1      -9.684   7.659  68.895  1.00  0.00    -0.154 N  
HETATM   15  C   UNL     1     -10.529   6.924  69.687  1.00  0.00    -0.218 C  
HETATM   16  H   UNL     1      -8.969   8.232  69.343  1.00  0.00     0.000 HD 
HETATM   17  O   UNL     1     -11.348   6.133  69.234  1.00  0.00    -0.416 OA 
BRANCH  15  18
HETATM   18  C   UNL     1     -10.370   7.156  71.117  1.00  0.00    -0.214 A  
HETATM   19  C   UNL     1     -11.172   7.995  71.865  1.00  0.00    -0.280 A  
HETATM   20  C   UNL     1     -12.344   8.850  71.584  1.00  0.00    -0.405 C  
HETATM   21  O   UNL     1     -10.768   7.965  73.158  1.00  0.00    -0.368 OA 
HETATM   22  N   UNL     1      -9.676   7.141  73.287  1.00  0.00    -0.188 NA 
HETATM   23  C   UNL     1      -9.412   6.649  72.065  1.00  0.00    -0.148 A  
BRANCH  23  24
HETATM   24  C   UNL     1      -8.314   5.688  71.875  1.00  0.00    -0.120 A  
HETATM   25  C   UNL     1      -6.983   6.139  71.919  1.00  0.00    -0.077 A  
HETATM   26  C   UNL     1      -5.904   5.254  71.956  1.00  0.00    -0.021 A  
HETATM   27  F   UNL     1      -6.696   7.449  71.960  1.00  0.00    -0.053 F  
HETATM   28  C   UNL     1      -6.132   3.885  71.989  1.00  0.00    -0.013 A  
HETATM   29  C   UNL     1      -7.434   3.409  71.862  1.00  0.00    -0.052 A  
HETATM   30  C   UNL     1      -8.509   4.302  71.735  1.00  0.00    -0.105 A  
HETATM   31 CL   UNL     1     -10.037   3.594  71.333  1.00  0.00    -0.154 Cl 
ENDBRANCH  23  24
ENDBRANCH  15  18
ENDBRANCH  12  14
TORSDOF 3
ENDMDL
MODEL      117
REMARK 921   NORMALIZED FREE ENERGY PREDICTED BY IDOCK:   -4.71 KCAL/MOL
REMARK 922        TOTAL FREE ENERGY PREDICTED BY IDOCK:   -6.89 KCAL/MOL
REMARK 923 INTER-LIGAND FREE ENERGY PREDICTED BY IDOCK:   -6.28 KCAL/MOL
REMARK 924 INTRA-LIGAND FREE ENERGY PREDICTED BY IDOCK:   -0.62 KCAL/MOL
REMARK 927      BINDING AFFINITY PREDICTED BY RF-SCORE:    0.00 PKD
ROOT
HETATM    1  C   UNL     1      -7.903   8.976  69.437  1.00  0.00    -0.094 C  
HETATM    2  S   UNL     1      -9.680   8.560  69.738  1.00  0.00    -0.182 SA 
HETATM    3  C   UNL     1      -9.888   7.696  68.112  1.00  0.00    -0.164 C  
HETATM    4  C   UNL     1     -10.917   6.570  68.250  1.00  0.00    -0.362 C  
HETATM    5  CA  UNL     1      -8.458   7.258  67.711  1.00  0.00    -0.121 C  
HETATM    6  C   UNL     1     -10.477   8.704  67.099  1.00  0.00    -0.360 C  
HETATM    7  N   UNL     1      -7.533   8.304  68.176  1.00  0.00    -0.095 N  
HETATM    8  C   UNL     1      -7.937   5.935  68.305  1.00  0.00    -0.109 C  
HETATM    9  OXT UNL     1      -8.591   4.922  68.486  1.00  0.00    -0.094 OA 
HETATM   10  O   UNL     1      -6.588   5.944  68.494  1.00  0.00    -0.050 OA 
HETATM   11  C   UNL     1      -7.401   9.471  67.471  1.00  0.00    -0.090 C  
HETATM   12  CA  UNL     1      -7.657  10.343  68.736  1.00  0.00    -0.097 C  
HETATM   13  O   UNL     1      -7.306   9.610  66.275  1.00  0.00    -0.092 OA 
ENDROOT
BRANCH  12  14
HETATM   14  N   UNL     1      -8.841  11.237  68.732  1.00  0.00    -0.296 N  
HETATM   15  C   UNL     1      -8.904  12.378  67.975  1.00  0.00    -0.187 C  
HETATM   16  H   UNL     1      -9.640  10.993  69.317  1.00  0.00     0.000 HD 
HETATM   17  O   UNL     1      -8.035  12.694  67.171  1.00  0.00    -0.170 OA 
BRANCH  15  18
HETATM   18  C   UNL     1     -10.095  13.187  68.201  1.00  0.00    -0.237 A  
HETATM   19  C   UNL     1     -11.332  12.677  68.540  1.00  0.00    -0.296 A  
HETATM   20  C   UNL     1     -11.874  11.326  68.792  1.00  0.00    -0.396 C  
HETATM   21  O   UNL     1     -12.209  13.697  68.697  1.00  0.00    -0.339 OA 
HETATM   22  N   UNL     1     -11.587  14.894  68.433  1.00  0.00    -0.315 NA 
HETATM   23  C   UNL     1     -10.311  14.610  68.123  1.00  0.00    -0.230 A  
BRANCH  23  24
HETATM   24  C   UNL     1      -9.361  15.694  67.828  1.00  0.00    -0.202 A  
HETATM   25  C   UNL     1      -8.311  15.957  68.726  1.00  0.00    -0.206 A  
HETATM   26  C   UNL     1      -7.264  16.823  68.404  1.00  0.00    -0.191 A  
HETATM   27  F   UNL     1      -8.257  15.357  69.925  1.00  0.00    -0.228 F  
HETATM   28  C   UNL     1      -7.221  17.422  67.152  1.00  0.00    -0.201 A  
HETATM   29  C   UNL     1      -8.289  17.245  66.276  1.00  0.00    -0.289 A  
HETATM   30  C   UNL     1      -9.382  16.445  66.640  1.00  0.00    -0.259 A  
HETATM   31 CL   UNL     1     -10.749  16.506  65.579  1.00  0.00    -0.325 Cl 
ENDBRANCH  23  24
ENDBRANCH  15  18
ENDBRANCH  12  14
TORSDOF 3
ENDMDL
MODEL      118
REMARK 921   NORMALIZED FREE ENERGY PREDICTED BY IDOCK:   -4.70 KCAL/MOL
REMARK 922        TOTAL FREE ENERGY PREDICTED BY IDOCK:   -6.89 KCAL/MOL
REMARK 923 INTER-LIGAND FREE ENERGY PREDICTED BY IDOCK:   -6.23 KCAL/MOL
REMARK 924 INTRA-LIGAND FREE ENERGY PREDICTED BY IDOCK:   -0.66 KCAL/MOL
REMARK 927      BINDING AFFINITY PREDICTED BY RF-SCORE:    0.00 PKD
ROOT
HETATM    1  C   UNL     1      -9.947  10.161  66.492  1.00  0.00    -0.224 C  
HETATM    2  S   UNL     1      -8.138   9.856  66.732  1.00  0.00    -0.117 SA 
HETATM    3  C   UNL     1      -8.376   8.876  68.287  1.00  0.00    -0.125 C  
HETATM    4  C   UNL     1      -7.278   7.816  68.406  1.00  0.00    -0.093 C  
HETATM    5  CA  UNL     1      -9.826   8.340  68.198  1.00  0.00    -0.172 C  
HETATM    6  C   UNL     1      -8.197   9.828  69.491  1.00  0.00    -0.146 C  
HETATM    7  N   UNL     1     -10.636   9.374  67.534  1.00  0.00    -0.277 N  
HETATM    8  C   UNL     1     -10.047   7.045  67.393  1.00  0.00    -0.195 C  
HETATM    9  OXT UNL     1      -9.299   6.082  67.363  1.00  0.00    -0.112 OA 
HETATM   10  O   UNL     1     -11.271   7.004  66.797  1.00  0.00    -0.229 OA 
HETATM   11  C   UNL     1     -11.059  10.473  68.232  1.00  0.00    -0.284 C  
HETATM   12  CA  UNL     1     -10.490  11.455  67.164  1.00  0.00    -0.224 C  
HETATM   13  O   UNL     1     -11.524  10.513  69.346  1.00  0.00    -0.247 OA 
ENDROOT
BRANCH  12  14
HETATM   14  N   UNL     1      -9.430  12.401  67.588  1.00  0.00    -0.185 N  
HETATM   15  C   UNL     1      -9.142  13.549  66.895  1.00  0.00    -0.239 C  
HETATM   16  H   UNL     1      -8.894  12.190  68.429  1.00  0.00     0.000 HD 
HETATM   17  O   UNL     1      -9.800  13.931  65.935  1.00  0.00    -0.298 OA 
BRANCH  15  18
HETATM   18  C   UNL     1      -7.987  14.282  67.397  1.00  0.00    -0.211 A  
HETATM   19  C   UNL     1      -6.784  13.702  67.744  1.00  0.00    -0.170 A  
HETATM   20  C   UNL     1      -6.243  12.326  67.735  1.00  0.00    -0.101 C  
HETATM   21  O   UNL     1      -5.922  14.665  68.149  1.00  0.00    -0.116 OA 
HETATM   22  N   UNL     1      -6.542  15.891  68.115  1.00  0.00    -0.118 NA 
HETATM   23  C   UNL     1      -7.793  15.683  67.673  1.00  0.00    -0.154 A  
BRANCH  23  24
HETATM   24  C   UNL     1      -8.709  16.819  67.481  1.00  0.00    -0.206 A  
HETATM   25  C   UNL     1      -8.451  17.752  66.462  1.00  0.00    -0.260 A  
HETATM   26  C   UNL     1      -9.385  18.723  66.095  1.00  0.00    -0.173 A  
HETATM   27  F   UNL     1      -7.299  17.727  65.774  1.00  0.00    -0.320 F  
HETATM   28  C   UNL     1     -10.626  18.760  66.718  1.00  0.00    -0.458 A  
HETATM   29  C   UNL     1     -10.877  17.902  67.785  1.00  0.00    -0.237 A  
HETATM   30  C   UNL     1      -9.900  16.988  68.208  1.00  0.00    -0.278 A  
HETATM   31 CL   UNL     1     -10.232  16.160  69.692  1.00  0.00    -0.260 Cl 
ENDBRANCH  23  24
ENDBRANCH  15  18
ENDBRANCH  12  14
TORSDOF 3
ENDMDL
MODEL      119
REMARK 921   NORMALIZED FREE ENERGY PREDICTED BY IDOCK:   -4.70 KCAL/MOL
REMARK 922        TOTAL FREE ENERGY PREDICTED BY IDOCK:   -6.89 KCAL/MOL
REMARK 923 INTER-LIGAND FREE ENERGY PREDICTED BY IDOCK:   -5.57 KCAL/MOL
REMARK 924 INTRA-LIGAND FREE ENERGY PREDICTED BY IDOCK:   -1.31 KCAL/MOL
REMARK 927      BINDING AFFINITY PREDICTED BY RF-SCORE:    0.00 PKD
ROOT
HETATM    1  C   UNL     1      -9.420   4.530  71.724  1.00  0.00    -0.149 C  
HETATM    2  S   UNL     1      -8.310   6.009  71.748  1.00  0.00    -0.119 SA 
HETATM    3  C   UNL     1      -7.877   5.818  73.540  1.00  0.00    -0.105 C  
HETATM    4  C   UNL     1      -6.455   6.328  73.787  1.00  0.00    -0.070 C  
HETATM    5  CA  UNL     1      -8.122   4.321  73.848  1.00  0.00    -0.092 C  
HETATM    6  C   UNL     1      -8.816   6.728  74.364  1.00  0.00    -0.204 C  
HETATM    7  N   UNL     1      -9.281   3.892  73.048  1.00  0.00    -0.109 N  
HETATM    8  C   UNL     1      -6.984   3.339  73.507  1.00  0.00    -0.040 C  
HETATM    9  OXT UNL     1      -5.790   3.549  73.642  1.00  0.00    -0.003 OA 
HETATM   10  O   UNL     1      -7.446   2.107  73.156  1.00  0.00    -0.038 OA 
HETATM   11  C   UNL     1     -10.551   4.209  73.451  1.00  0.00    -0.199 C  
HETATM   12  CA  UNL     1     -10.911   4.820  72.063  1.00  0.00     0.027 C  
HETATM   13  O   UNL     1     -11.017   4.144  74.563  1.00  0.00    -0.195 OA 
ENDROOT
BRANCH  12  14
HETATM   14  N   UNL     1     -11.268   6.259  72.013  1.00  0.00    -0.266 N  
HETATM   15  C   UNL     1     -11.579   6.904  70.843  1.00  0.00    -0.337 C  
HETATM   16  H   UNL     1     -11.283   6.790  72.884  1.00  0.00     0.000 HD 
HETATM   17  O   UNL     1     -11.684   6.324  69.770  1.00  0.00    -0.403 OA 
BRANCH  15  18
HETATM   18  C   UNL     1     -11.780   8.340  70.982  1.00  0.00    -0.293 A  
HETATM   19  C   UNL     1     -12.864   8.920  71.610  1.00  0.00    -0.349 A  
HETATM   20  C   UNL     1     -14.065   8.414  72.305  1.00  0.00    -0.399 C  
HETATM   21  O   UNL     1     -12.730  10.268  71.581  1.00  0.00    -0.392 OA 
HETATM   22  N   UNL     1     -11.581  10.609  70.908  1.00  0.00    -0.293 NA 
HETATM   23  C   UNL     1     -10.996   9.461  70.529  1.00  0.00    -0.274 A  
BRANCH  23  24
HETATM   24  C   UNL     1      -9.709   9.486  69.817  1.00  0.00    -0.234 A  
HETATM   25  C   UNL     1      -8.514   9.332  70.541  1.00  0.00    -0.216 A  
HETATM   26  C   UNL     1      -7.285   9.137  69.905  1.00  0.00    -0.062 A  
HETATM   27  F   UNL     1      -8.510   9.333  71.882  1.00  0.00    -0.092 F  
HETATM   28  C   UNL     1      -7.227   9.053  68.520  1.00  0.00    -0.073 A  
HETATM   29  C   UNL     1      -8.381   9.286  67.777  1.00  0.00    -0.116 A  
HETATM   30  C   UNL     1      -9.596   9.570  68.418  1.00  0.00    -0.142 A  
HETATM   31 CL   UNL     1     -10.890  10.086  67.390  1.00  0.00    -0.337 Cl 
ENDBRANCH  23  24
ENDBRANCH  15  18
ENDBRANCH  12  14
TORSDOF 3
ENDMDL
MODEL      120
REMARK 921   NORMALIZED FREE ENERGY PREDICTED BY IDOCK:   -4.68 KCAL/MOL
REMARK 922        TOTAL FREE ENERGY PREDICTED BY IDOCK:   -6.87 KCAL/MOL
REMARK 923 INTER-LIGAND FREE ENERGY PREDICTED BY IDOCK:   -5.75 KCAL/MOL
REMARK 924 INTRA-LIGAND FREE ENERGY PREDICTED BY IDOCK:   -1.12 KCAL/MOL
REMARK 927      BINDING AFFINITY PREDICTED BY RF-SCORE:    0.00 PKD
ROOT
HETATM    1  C   UNL     1      -8.662  14.317  67.789  1.00  0.00    -0.179 C  
HETATM    2  S   UNL     1      -9.275  14.802  69.466  1.00  0.00     0.232 SA 
HETATM    3  C   UNL     1     -10.999  15.144  68.879  1.00  0.00    -0.254 C  
HETATM    4  C   UNL     1     -11.999  14.837  69.998  1.00  0.00    -0.369 C  
HETATM    5  CA  UNL     1     -11.151  14.304  67.587  1.00  0.00    -0.292 C  
HETATM    6  C   UNL     1     -11.121  16.657  68.588  1.00  0.00    -0.294 C  
HETATM    7  N   UNL     1      -9.846  14.304  66.908  1.00  0.00    -0.256 N  
HETATM    8  C   UNL     1     -11.543  12.823  67.756  1.00  0.00    -0.353 C  
HETATM    9  OXT UNL     1     -12.326  12.376  68.577  1.00  0.00    -0.102 OA 
HETATM   10  O   UNL     1     -11.022  12.031  66.777  1.00  0.00    -0.256 OA 
HETATM   11  C   UNL     1      -9.447  15.394  66.181  1.00  0.00    -0.336 C  
HETATM   12  CA  UNL     1      -8.086  15.483  66.935  1.00  0.00    -0.249 C  
HETATM   13  O   UNL     1     -10.099  16.049  65.404  1.00  0.00    -0.442 OA 
ENDROOT
BRANCH  12  14
HETATM   14  N   UNL     1      -7.806  16.714  67.713  1.00  0.00    -0.162 N  
HETATM   15  C   UNL     1      -6.630  16.909  68.393  1.00  0.00    -0.155 C  
HETATM   16  H   UNL     1      -8.516  17.446  67.745  1.00  0.00     0.000 HD 
HETATM   17  O   UNL     1      -5.686  16.131  68.327  1.00  0.00    -0.097 OA 
BRANCH  15  18
HETATM   18  C   UNL     1      -6.593  18.123  69.198  1.00  0.00    -0.259 A  
HETATM   19  C   UNL     1      -5.942  18.236  70.410  1.00  0.00    -0.004 A  
HETATM   20  C   UNL     1      -5.130  17.332  71.251  1.00  0.00    -0.060 C  
HETATM   21  O   UNL     1      -6.086  19.498  70.880  1.00  0.00    -0.162 OA 
HETATM   22  N   UNL     1      -6.860  20.233  70.014  1.00  0.00    -0.133 NA 
HETATM   23  C   UNL     1      -7.185  19.421  68.995  1.00  0.00    -0.362 A  
BRANCH  23  24
HETATM   24  C   UNL     1      -7.982  19.929  67.867  1.00  0.00    -0.323 A  
HETATM   25  C   UNL     1      -7.355  20.181  66.635  1.00  0.00    -0.268 A  
HETATM   26  C   UNL     1      -8.086  20.460  65.478  1.00  0.00     0.314 A  
HETATM   27  F   UNL     1      -6.019  20.132  66.513  1.00  0.00    -0.172 F  
HETATM   28  C   UNL     1      -9.473  20.455  65.517  1.00  0.00     0.304 A  
HETATM   29  C   UNL     1     -10.118  20.291  66.740  1.00  0.00    -0.556 A  
HETATM   30  C   UNL     1      -9.377  20.100  67.916  1.00  0.00    -0.290 A  
HETATM   31 CL   UNL     1     -10.275  20.162  69.395  1.00  0.00    -0.218 Cl 
ENDBRANCH  23  24
ENDBRANCH  15  18
ENDBRANCH  12  14
TORSDOF 3
ENDMDL
MODEL      121
REMARK 921   NORMALIZED FREE ENERGY PREDICTED BY IDOCK:   -4.67 KCAL/MOL
REMARK 922        TOTAL FREE ENERGY PREDICTED BY IDOCK:   -6.85 KCAL/MOL
REMARK 923 INTER-LIGAND FREE ENERGY PREDICTED BY IDOCK:   -5.37 KCAL/MOL
REMARK 924 INTRA-LIGAND FREE ENERGY PREDICTED BY IDOCK:   -1.48 KCAL/MOL
REMARK 927      BINDING AFFINITY PREDICTED BY RF-SCORE:    0.00 PKD
ROOT
HETATM    1  C   UNL     1      -7.392   6.863  68.643  1.00  0.00    -0.094 C  
HETATM    2  S   UNL     1      -7.887   6.030  70.219  1.00  0.00    -0.103 SA 
HETATM    3  C   UNL     1      -8.623   4.560  69.362  1.00  0.00    -0.081 C  
HETATM    4  C   UNL     1      -8.463   3.315  70.238  1.00  0.00    -0.095 C  
HETATM    5  CA  UNL     1      -7.918   4.512  67.984  1.00  0.00    -0.084 C  
HETATM    6  C   UNL     1     -10.143   4.797  69.214  1.00  0.00    -0.217 C  
HETATM    7  N   UNL     1      -7.686   5.903  67.562  1.00  0.00    -0.096 N  
HETATM    8  C   UNL     1      -6.546   3.814  67.922  1.00  0.00    -0.042 C  
HETATM    9  OXT UNL     1      -6.223   2.809  68.532  1.00  0.00    -0.027 OA 
HETATM   10  O   UNL     1      -5.727   4.358  66.979  1.00  0.00    -0.020 OA 
HETATM   11  C   UNL     1      -8.712   6.645  67.040  1.00  0.00    -0.113 C  
HETATM   12  CA  UNL     1      -8.463   7.815  68.038  1.00  0.00    -0.123 C  
HETATM   13  O   UNL     1      -9.538   6.304  66.227  1.00  0.00    -0.153 OA 
ENDROOT
BRANCH  12  14
HETATM   14  N   UNL     1      -9.554   8.167  68.978  1.00  0.00    -0.155 N  
HETATM   15  C   UNL     1      -9.438   9.171  69.905  1.00  0.00    -0.186 C  
HETATM   16  H   UNL     1     -10.426   7.640  68.934  1.00  0.00     0.000 HD 
HETATM   17  O   UNL     1      -8.468   9.918  69.961  1.00  0.00    -0.193 OA 
BRANCH  15  18
HETATM   18  C   UNL     1     -10.567   9.281  70.820  1.00  0.00    -0.351 A  
HETATM   19  C   UNL     1     -11.621  10.158  70.657  1.00  0.00    -0.343 A  
HETATM   20  C   UNL     1     -11.994  11.169  69.647  1.00  0.00    -0.429 C  
HETATM   21  O   UNL     1     -12.505   9.988  71.668  1.00  0.00    -0.376 OA 
HETATM   22  N   UNL     1     -12.043   9.028  72.537  1.00  0.00    -0.221 NA 
HETATM   23  C   UNL     1     -10.869   8.593  72.049  1.00  0.00    -0.360 A  
BRANCH  23  24
HETATM   24  C   UNL     1     -10.134   7.519  72.736  1.00  0.00    -0.293 A  
HETATM   25  C   UNL     1      -8.835   7.766  73.213  1.00  0.00    -0.221 A  
HETATM   26  C   UNL     1      -8.173   6.865  74.050  1.00  0.00    -0.151 A  
HETATM   27  F   UNL     1      -8.187   8.900  72.907  1.00  0.00    -0.121 F  
HETATM   28  C   UNL     1      -8.813   5.704  74.463  1.00  0.00    -0.118 A  
HETATM   29  C   UNL     1     -10.066   5.396  73.940  1.00  0.00    -0.232 A  
HETATM   30  C   UNL     1     -10.690   6.262  73.030  1.00  0.00    -0.253 A  
HETATM   31 CL   UNL     1     -12.117   5.652  72.263  1.00  0.00    -0.121 Cl 
ENDBRANCH  23  24
ENDBRANCH  15  18
ENDBRANCH  12  14
TORSDOF 3
ENDMDL
MODEL      122
REMARK 921   NORMALIZED FREE ENERGY PREDICTED BY IDOCK:   -4.67 KCAL/MOL
REMARK 922        TOTAL FREE ENERGY PREDICTED BY IDOCK:   -6.85 KCAL/MOL
REMARK 923 INTER-LIGAND FREE ENERGY PREDICTED BY IDOCK:   -5.39 KCAL/MOL
REMARK 924 INTRA-LIGAND FREE ENERGY PREDICTED BY IDOCK:   -1.46 KCAL/MOL
REMARK 927      BINDING AFFINITY PREDICTED BY RF-SCORE:    0.00 PKD
ROOT
HETATM    1  C   UNL     1      -9.402   5.806  69.697  1.00  0.00    -0.139 C  
HETATM    2  S   UNL     1     -10.797   5.975  68.494  1.00  0.00    -0.253 SA 
HETATM    3  C   UNL     1      -9.764   5.505  67.029  1.00  0.00    -0.146 C  
HETATM    4  C   UNL     1     -10.631   4.789  65.990  1.00  0.00    -0.300 C  
HETATM    5  CA  UNL     1      -8.594   4.679  67.619  1.00  0.00    -0.103 C  
HETATM    6  C   UNL     1      -9.259   6.802  66.357  1.00  0.00    -0.185 C  
HETATM    7  N   UNL     1      -8.264   5.260  68.930  1.00  0.00    -0.089 N  
HETATM    8  C   UNL     1      -8.851   3.181  67.871  1.00  0.00    -0.132 C  
HETATM    9  OXT UNL     1      -9.503   2.434  67.160  1.00  0.00    -0.083 OA 
HETATM   10  O   UNL     1      -8.142   2.701  68.930  1.00  0.00    -0.052 OA 
HETATM   11  C   UNL     1      -7.525   6.410  69.008  1.00  0.00    -0.095 C  
HETATM   12  CA  UNL     1      -8.573   7.103  69.929  1.00  0.00    -0.141 C  
HETATM   13  O   UNL     1      -6.532   6.699  68.384  1.00  0.00    -0.045 OA 
ENDROOT
BRANCH  12  14
HETATM   14  N   UNL     1      -9.231   8.333  69.426  1.00  0.00    -0.154 N  
HETATM   15  C   UNL     1      -9.414   9.446  70.205  1.00  0.00    -0.251 C  
HETATM   16  H   UNL     1      -9.561   8.352  68.461  1.00  0.00     0.000 HD 
HETATM   17  O   UNL     1      -8.961   9.548  71.339  1.00  0.00    -0.209 OA 
BRANCH  15  18
HETATM   18  C   UNL     1     -10.189  10.505  69.572  1.00  0.00    -0.230 A  
HETATM   19  C   UNL     1     -11.429  10.931  70.006  1.00  0.00    -0.329 A  
HETATM   20  C   UNL     1     -12.330  10.568  71.119  1.00  0.00    -0.510 C  
HETATM   21  O   UNL     1     -11.859  11.940  69.210  1.00  0.00    -0.296 OA 
HETATM   22  N   UNL     1     -10.938  12.178  68.218  1.00  0.00    -0.220 NA 
HETATM   23  C   UNL     1      -9.925  11.317  68.411  1.00  0.00    -0.197 A  
BRANCH  23  24
HETATM   24  C   UNL     1      -8.748  11.349  67.530  1.00  0.00    -0.140 A  
HETATM   25  C   UNL     1      -7.553  11.930  67.991  1.00  0.00    -0.122 A  
HETATM   26  C   UNL     1      -6.352  11.805  67.290  1.00  0.00    -0.132 A  
HETATM   27  F   UNL     1      -7.513  12.606  69.149  1.00  0.00    -0.073 F  
HETATM   28  C   UNL     1      -6.308  11.057  66.120  1.00  0.00    -0.096 A  
HETATM   29  C   UNL     1      -7.491  10.542  65.598  1.00  0.00    -0.129 A  
HETATM   30  C   UNL     1      -8.710  10.747  66.260  1.00  0.00    -0.169 A  
HETATM   31 CL   UNL     1     -10.132  10.279  65.389  1.00  0.00    -0.367 Cl 
ENDBRANCH  23  24
ENDBRANCH  15  18
ENDBRANCH  12  14
TORSDOF 3
ENDMDL
MODEL      123
REMARK 921   NORMALIZED FREE ENERGY PREDICTED BY IDOCK:   -4.65 KCAL/MOL
REMARK 922        TOTAL FREE ENERGY PREDICTED BY IDOCK:   -6.83 KCAL/MOL
REMARK 923 INTER-LIGAND FREE ENERGY PREDICTED BY IDOCK:   -5.42 KCAL/MOL
REMARK 924 INTRA-LIGAND FREE ENERGY PREDICTED BY IDOCK:   -1.42 KCAL/MOL
REMARK 927      BINDING AFFINITY PREDICTED BY RF-SCORE:    0.00 PKD
ROOT
HETATM    1  C   UNL     1      -7.087   9.159  68.165  1.00  0.00    -0.078 C  
HETATM    2  S   UNL     1      -8.218   8.201  67.057  1.00  0.00    -0.116 SA 
HETATM    3  C   UNL     1      -8.690   9.679  66.044  1.00  0.00    -0.138 C  
HETATM    4  C   UNL     1      -8.984   9.250  64.604  1.00  0.00    -0.202 C  
HETATM    5  CA  UNL     1      -7.518  10.675  66.227  1.00  0.00    -0.137 C  
HETATM    6  C   UNL     1     -10.012  10.250  66.607  1.00  0.00    -0.270 C  
HETATM    7  N   UNL     1      -7.025  10.524  67.605  1.00  0.00    -0.078 N  
HETATM    8  C   UNL     1      -6.291  10.489  65.314  1.00  0.00    -0.080 C  
HETATM    9  OXT UNL     1      -6.313  10.162  64.138  1.00  0.00    -0.127 OA 
HETATM   10  O   UNL     1      -5.131  10.871  65.916  1.00  0.00    -0.094 OA 
HETATM   11  C   UNL     1      -7.706  11.095  68.647  1.00  0.00    -0.135 C  
HETATM   12  CA  UNL     1      -7.760   9.752  69.436  1.00  0.00    -0.109 C  
HETATM   13  O   UNL     1      -8.183  12.203  68.705  1.00  0.00    -0.073 OA 
ENDROOT
BRANCH  12  14
HETATM   14  N   UNL     1      -9.094   9.177  69.733  1.00  0.00    -0.156 N  
HETATM   15  C   UNL     1      -9.527   8.932  71.011  1.00  0.00    -0.252 C  
HETATM   16  H   UNL     1      -9.715   8.955  68.955  1.00  0.00     0.000 HD 
HETATM   17  O   UNL     1      -8.891   9.260  72.005  1.00  0.00    -0.245 OA 
BRANCH  15  18
HETATM   18  C   UNL     1     -10.812   8.250  71.092  1.00  0.00    -0.276 A  
HETATM   19  C   UNL     1     -11.963   8.812  71.609  1.00  0.00    -0.332 A  
HETATM   20  C   UNL     1     -12.320  10.125  72.184  1.00  0.00     0.025 C  
HETATM   21  O   UNL     1     -12.978   7.920  71.514  1.00  0.00    -0.323 OA 
HETATM   22  N   UNL     1     -12.519   6.745  70.970  1.00  0.00    -0.337 NA 
HETATM   23  C   UNL     1     -11.211   6.918  70.715  1.00  0.00    -0.294 A  
BRANCH  23  24
HETATM   24  C   UNL     1     -10.432   5.843  70.081  1.00  0.00    -0.329 A  
HETATM   25  C   UNL     1     -10.581   5.599  68.705  1.00  0.00    -0.198 A  
HETATM   26  C   UNL     1      -9.723   4.743  68.009  1.00  0.00    -0.202 A  
HETATM   27  F   UNL     1     -11.541   6.208  67.992  1.00  0.00    -0.317 F  
HETATM   28  C   UNL     1      -8.665   4.136  68.671  1.00  0.00    -0.126 A  
HETATM   29  C   UNL     1      -8.543   4.294  70.049  1.00  0.00    -0.101 A  
HETATM   30  C   UNL     1      -9.461   5.084  70.758  1.00  0.00    -0.169 A  
HETATM   31 CL   UNL     1      -9.356   4.998  72.484  1.00  0.00    -0.147 Cl 
ENDBRANCH  23  24
ENDBRANCH  15  18
ENDBRANCH  12  14
TORSDOF 3
ENDMDL
MODEL      124
REMARK 921   NORMALIZED FREE ENERGY PREDICTED BY IDOCK:   -4.65 KCAL/MOL
REMARK 922        TOTAL FREE ENERGY PREDICTED BY IDOCK:   -6.83 KCAL/MOL
REMARK 923 INTER-LIGAND FREE ENERGY PREDICTED BY IDOCK:   -5.39 KCAL/MOL
REMARK 924 INTRA-LIGAND FREE ENERGY PREDICTED BY IDOCK:   -1.44 KCAL/MOL
REMARK 927      BINDING AFFINITY PREDICTED BY RF-SCORE:    0.00 PKD
ROOT
HETATM    1  C   UNL     1      -8.012  10.687  66.889  1.00  0.00    -0.124 C  
HETATM    2  S   UNL     1      -9.828  10.402  66.682  1.00  0.00    -0.210 SA 
HETATM    3  C   UNL     1     -10.291  11.451  68.137  1.00  0.00    -0.188 C  
HETATM    4  C   UNL     1     -11.654  12.105  67.893  1.00  0.00    -0.413 C  
HETATM    5  CA  UNL     1      -9.098  12.422  68.320  1.00  0.00    -0.183 C  
HETATM    6  C   UNL     1     -10.463  10.528  69.365  1.00  0.00    -0.264 C  
HETATM    7  N   UNL     1      -7.874  11.684  67.968  1.00  0.00    -0.121 N  
HETATM    8  C   UNL     1      -9.092  13.695  67.452  1.00  0.00    -0.222 C  
HETATM    9  OXT UNL     1     -10.066  14.365  67.152  1.00  0.00    -0.249 OA 
HETATM   10  O   UNL     1      -7.831  14.110  67.145  1.00  0.00    -0.158 OA 
HETATM   11  C   UNL     1      -7.323  10.801  68.858  1.00  0.00    -0.104 C  
HETATM   12  CA  UNL     1      -7.283   9.657  67.800  1.00  0.00    -0.085 C  
HETATM   13  O   UNL     1      -7.158  10.946  70.045  1.00  0.00    -0.119 OA 
ENDROOT
BRANCH  12  14
HETATM   14  N   UNL     1      -8.074   8.433  68.073  1.00  0.00    -0.122 N  
HETATM   15  C   UNL     1      -7.580   7.378  68.796  1.00  0.00    -0.107 C  
HETATM   16  H   UNL     1      -9.025   8.374  67.709  1.00  0.00     0.000 HD 
HETATM   17  O   UNL     1      -6.490   7.405  69.354  1.00  0.00    -0.035 OA 
BRANCH  15  18
HETATM   18  C   UNL     1      -8.461   6.218  68.850  1.00  0.00    -0.120 A  
HETATM   19  C   UNL     1      -8.694   5.365  67.790  1.00  0.00    -0.106 A  
HETATM   20  C   UNL     1      -8.214   5.272  66.396  1.00  0.00    -0.109 C  
HETATM   21  O   UNL     1      -9.541   4.384  68.183  1.00  0.00    -0.149 OA 
HETATM   22  N   UNL     1      -9.914   4.585  69.491  1.00  0.00    -0.206 NA 
HETATM   23  C   UNL     1      -9.281   5.692  69.912  1.00  0.00    -0.146 A  
BRANCH  23  24
HETATM   24  C   UNL     1      -9.439   6.154  71.300  1.00  0.00    -0.177 A  
HETATM   25  C   UNL     1      -8.355   6.054  72.190  1.00  0.00    -0.110 A  
HETATM   26  C   UNL     1      -8.374   6.663  73.447  1.00  0.00    -0.127 A  
HETATM   27  F   UNL     1      -7.238   5.392  71.852  1.00  0.00    -0.074 F  
HETATM   28  C   UNL     1      -9.470   7.423  73.832  1.00  0.00    -0.312 A  
HETATM   29  C   UNL     1     -10.590   7.469  73.006  1.00  0.00    -0.422 A  
HETATM   30  C   UNL     1     -10.600   6.783  71.782  1.00  0.00    -0.213 A  
HETATM   31 CL   UNL     1     -12.127   6.710  70.969  1.00  0.00    -0.418 Cl 
ENDBRANCH  23  24
ENDBRANCH  15  18
ENDBRANCH  12  14
TORSDOF 3
ENDMDL
MODEL      125
REMARK 921   NORMALIZED FREE ENERGY PREDICTED BY IDOCK:   -4.65 KCAL/MOL
REMARK 922        TOTAL FREE ENERGY PREDICTED BY IDOCK:   -6.83 KCAL/MOL
REMARK 923 INTER-LIGAND FREE ENERGY PREDICTED BY IDOCK:   -5.71 KCAL/MOL
REMARK 924 INTRA-LIGAND FREE ENERGY PREDICTED BY IDOCK:   -1.12 KCAL/MOL
REMARK 927      BINDING AFFINITY PREDICTED BY RF-SCORE:    0.00 PKD
ROOT
HETATM    1  C   UNL     1      -9.531   7.353  70.631  1.00  0.00    -0.164 C  
HETATM    2  S   UNL     1      -9.472   9.186  70.874  1.00  0.00    -0.268 SA 
HETATM    3  C   UNL     1     -11.169   9.463  70.184  1.00  0.00    -0.219 C  
HETATM    4  C   UNL     1     -11.817  10.670  70.870  1.00  0.00    -0.433 C  
HETATM    5  CA  UNL     1     -11.897   8.109  70.370  1.00  0.00     0.096 C  
HETATM    6  C   UNL     1     -11.031   9.833  68.690  1.00  0.00    -0.189 C  
HETATM    7  N   UNL     1     -10.900   7.044  70.173  1.00  0.00    -0.246 N  
HETATM    8  C   UNL     1     -12.541   7.841  71.744  1.00  0.00    -0.329 C  
HETATM    9  OXT UNL     1     -13.113   8.661  72.442  1.00  0.00    -0.373 OA 
HETATM   10  O   UNL     1     -12.539   6.518  72.071  1.00  0.00    -0.319 OA 
HETATM   11  C   UNL     1     -10.510   6.691  68.909  1.00  0.00    -0.212 C  
HETATM   12  CA  UNL     1      -9.000   6.853  69.257  1.00  0.00    -0.137 C  
HETATM   13  O   UNL     1     -11.205   6.522  67.936  1.00  0.00    -0.292 OA 
ENDROOT
BRANCH  12  14
HETATM   14  N   UNL     1      -8.223   7.871  68.508  1.00  0.00    -0.126 N  
HETATM   15  C   UNL     1      -8.154   7.890  67.139  1.00  0.00    -0.117 C  
HETATM   16  H   UNL     1      -7.720   8.586  69.033  1.00  0.00     0.000 HD 
HETATM   17  O   UNL     1      -8.806   7.135  66.428  1.00  0.00    -0.135 OA 
BRANCH  15  18
HETATM   18  C   UNL     1      -7.243   8.888  66.595  1.00  0.00    -0.085 A  
HETATM   19  C   UNL     1      -5.972   8.614  66.129  1.00  0.00    -0.048 A  
HETATM   20  C   UNL     1      -5.148   7.395  65.991  1.00  0.00    -0.024 C  
HETATM   21  O   UNL     1      -5.405   9.757  65.675  1.00  0.00    -0.041 OA 
HETATM   22  N   UNL     1      -6.267  10.812  65.861  1.00  0.00    -0.133 NA 
HETATM   23  C   UNL     1      -7.379  10.312  66.424  1.00  0.00    -0.114 A  
BRANCH  23  24
HETATM   24  C   UNL     1      -8.523  11.192  66.712  1.00  0.00    -0.153 A  
HETATM   25  C   UNL     1      -8.574  11.883  67.935  1.00  0.00    -0.162 A  
HETATM   26  C   UNL     1      -9.515  12.885  68.179  1.00  0.00    -0.218 A  
HETATM   27  F   UNL     1      -7.692  11.626  68.914  1.00  0.00    -0.123 F  
HETATM   28  C   UNL     1     -10.411  13.250  67.183  1.00  0.00    -0.248 A  
HETATM   29  C   UNL     1     -10.437  12.527  65.993  1.00  0.00    -0.282 A  
HETATM   30  C   UNL     1      -9.548  11.462  65.788  1.00  0.00    -0.233 A  
HETATM   31 CL   UNL     1      -9.845  10.488  64.388  1.00  0.00    -0.382 Cl 
ENDBRANCH  23  24
ENDBRANCH  15  18
ENDBRANCH  12  14
TORSDOF 3
ENDMDL
MODEL      126
REMARK 921   NORMALIZED FREE ENERGY PREDICTED BY IDOCK:   -4.65 KCAL/MOL
REMARK 922        TOTAL FREE ENERGY PREDICTED BY IDOCK:   -6.83 KCAL/MOL
REMARK 923 INTER-LIGAND FREE ENERGY PREDICTED BY IDOCK:   -5.38 KCAL/MOL
REMARK 924 INTRA-LIGAND FREE ENERGY PREDICTED BY IDOCK:   -1.44 KCAL/MOL
REMARK 927      BINDING AFFINITY PREDICTED BY RF-SCORE:    0.00 PKD
ROOT
HETATM    1  C   UNL     1     -11.217   7.981  71.688  1.00  0.00    -0.255 C  
HETATM    2  S   UNL     1     -11.487   6.616  70.469  1.00  0.00    -0.394 SA 
HETATM    3  C   UNL     1      -9.885   5.772  70.863  1.00  0.00    -0.179 C  
HETATM    4  C   UNL     1     -10.034   4.260  70.670  1.00  0.00    -0.218 C  
HETATM    5  CA  UNL     1      -9.534   6.239  72.297  1.00  0.00    -0.149 C  
HETATM    6  C   UNL     1      -8.826   6.240  69.839  1.00  0.00    -0.141 C  
HETATM    7  N   UNL     1      -9.988   7.633  72.428  1.00  0.00    -0.189 N  
HETATM    8  C   UNL     1     -10.183   5.469  73.464  1.00  0.00    -0.209 C  
HETATM    9  OXT UNL     1     -10.381   4.267  73.510  1.00  0.00    -0.150 OA 
HETATM   10  O   UNL     1     -10.404   6.260  74.551  1.00  0.00    -0.316 OA 
HETATM   11  C   UNL     1      -9.249   8.651  71.888  1.00  0.00    -0.275 C  
HETATM   12  CA  UNL     1     -10.478   9.229  71.125  1.00  0.00    -0.331 C  
HETATM   13  O   UNL     1      -8.052   8.806  71.931  1.00  0.00    -0.282 OA 
ENDROOT
BRANCH  12  14
HETATM   14  N   UNL     1     -10.416   9.272  69.644  1.00  0.00    -0.216 N  
HETATM   15  C   UNL     1      -9.503  10.036  68.963  1.00  0.00    -0.187 C  
HETATM   16  H   UNL     1     -11.080   8.711  69.110  1.00  0.00     0.000 HD 
HETATM   17  O   UNL     1      -8.608  10.660  69.520  1.00  0.00    -0.097 OA 
BRANCH  15  18
HETATM   18  C   UNL     1      -9.681  10.043  67.517  1.00  0.00    -0.189 A  
HETATM   19  C   UNL     1     -10.666  10.749  66.855  1.00  0.00    -0.252 A  
HETATM   20  C   UNL     1     -11.757  11.658  67.263  1.00  0.00    -0.255 C  
HETATM   21  O   UNL     1     -10.536  10.554  65.521  1.00  0.00    -0.187 OA 
HETATM   22  N   UNL     1      -9.494   9.693  65.273  1.00  0.00    -0.268 NA 
HETATM   23  C   UNL     1      -8.969   9.363  66.465  1.00  0.00    -0.148 A  
BRANCH  23  24
HETATM   24  C   UNL     1      -7.796   8.478  66.538  1.00  0.00    -0.096 A  
HETATM   25  C   UNL     1      -6.528   9.029  66.793  1.00  0.00    -0.064 A  
HETATM   26  C   UNL     1      -5.420   8.230  67.081  1.00  0.00    -0.037 A  
HETATM   27  F   UNL     1      -6.337  10.357  66.800  1.00  0.00    -0.063 F  
HETATM   28  C   UNL     1      -5.562   6.851  67.160  1.00  0.00    -0.017 A  
HETATM   29  C   UNL     1      -6.785   6.274  66.831  1.00  0.00    -0.061 A  
HETATM   30  C   UNL     1      -7.873   7.077  66.455  1.00  0.00    -0.106 A  
HETATM   31 CL   UNL     1      -9.252   6.237  65.830  1.00  0.00    -0.053 Cl 
ENDBRANCH  23  24
ENDBRANCH  15  18
ENDBRANCH  12  14
TORSDOF 3
ENDMDL
MODEL      127
REMARK 921   NORMALIZED FREE ENERGY PREDICTED BY IDOCK:   -4.64 KCAL/MOL
REMARK 922        TOTAL FREE ENERGY PREDICTED BY IDOCK:   -6.82 KCAL/MOL
REMARK 923 INTER-LIGAND FREE ENERGY PREDICTED BY IDOCK:   -5.76 KCAL/MOL
REMARK 924 INTRA-LIGAND FREE ENERGY PREDICTED BY IDOCK:   -1.06 KCAL/MOL
REMARK 927      BINDING AFFINITY PREDICTED BY RF-SCORE:    0.00 PKD
ROOT
HETATM    1  C   UNL     1      -9.217   6.657  68.682  1.00  0.00    -0.128 C  
HETATM    2  S   UNL     1      -7.669   7.341  69.429  1.00  0.00    -0.108 SA 
HETATM    3  C   UNL     1      -8.356   7.370  71.149  1.00  0.00    -0.114 C  
HETATM    4  C   UNL     1      -7.232   7.138  72.162  1.00  0.00    -0.072 C  
HETATM    5  CA  UNL     1      -9.488   6.312  71.141  1.00  0.00    -0.170 C  
HETATM    6  C   UNL     1      -8.907   8.787  71.427  1.00  0.00    -0.292 C  
HETATM    7  N   UNL     1     -10.118   6.355  69.812  1.00  0.00    -0.171 N  
HETATM    8  C   UNL     1      -9.077   4.845  71.370  1.00  0.00    -0.142 C  
HETATM    9  OXT UNL     1      -8.215   4.452  72.139  1.00  0.00    -0.102 OA 
HETATM   10  O   UNL     1      -9.889   3.969  70.716  1.00  0.00    -0.194 OA 
HETATM   11  C   UNL     1     -11.009   7.348  69.503  1.00  0.00    -0.139 C  
HETATM   12  CA  UNL     1     -10.242   7.724  68.201  1.00  0.00    -0.202 C  
HETATM   13  O   UNL     1     -11.908   7.779  70.186  1.00  0.00     0.020 OA 
ENDROOT
BRANCH  12  14
HETATM   14  N   UNL     1      -9.680   9.093  68.100  1.00  0.00    -0.151 N  
HETATM   15  C   UNL     1      -9.541   9.750  66.904  1.00  0.00    -0.180 C  
HETATM   16  H   UNL     1      -9.385   9.565  68.954  1.00  0.00     0.000 HD 
HETATM   17  O   UNL     1      -9.960   9.301  65.844  1.00  0.00    -0.307 OA 
BRANCH  15  18
HETATM   18  C   UNL     1      -8.855  11.032  66.997  1.00  0.00    -0.143 A  
HETATM   19  C   UNL     1      -7.557  11.193  67.437  1.00  0.00    -0.113 A  
HETATM   20  C   UNL     1      -6.489  10.285  67.903  1.00  0.00    -0.061 C  
HETATM   21  O   UNL     1      -7.223  12.505  67.379  1.00  0.00    -0.138 OA 
HETATM   22  N   UNL     1      -8.296  13.240  66.935  1.00  0.00    -0.075 NA 
HETATM   23  C   UNL     1      -9.296  12.373  66.707  1.00  0.00    -0.220 A  
BRANCH  23  24
HETATM   24  C   UNL     1     -10.584  12.849  66.177  1.00  0.00    -0.287 A  
HETATM   25  C   UNL     1     -11.506  13.461  67.044  1.00  0.00    -0.337 A  
HETATM   26  C   UNL     1     -12.643  14.117  66.568  1.00  0.00    -0.164 A  
HETATM   27  F   UNL     1     -11.312  13.465  68.371  1.00  0.00    -0.258 F  
HETATM   28  C   UNL     1     -12.868  14.211  65.201  1.00  0.00    -0.321 A  
HETATM   29  C   UNL     1     -12.016  13.545  64.325  1.00  0.00    -0.479 A  
HETATM   30  C   UNL     1     -10.924  12.812  64.813  1.00  0.00    -0.305 A  
HETATM   31 CL   UNL     1     -10.095  11.828  63.654  1.00  0.00    -0.402 Cl 
ENDBRANCH  23  24
ENDBRANCH  15  18
ENDBRANCH  12  14
TORSDOF 3
ENDMDL
MODEL      128
REMARK 921   NORMALIZED FREE ENERGY PREDICTED BY IDOCK:   -4.61 KCAL/MOL
REMARK 922        TOTAL FREE ENERGY PREDICTED BY IDOCK:   -6.78 KCAL/MOL
REMARK 923 INTER-LIGAND FREE ENERGY PREDICTED BY IDOCK:   -5.72 KCAL/MOL
REMARK 924 INTRA-LIGAND FREE ENERGY PREDICTED BY IDOCK:   -1.06 KCAL/MOL
REMARK 927      BINDING AFFINITY PREDICTED BY RF-SCORE:    0.00 PKD
ROOT
HETATM    1  C   UNL     1     -10.126  12.740  68.140  1.00  0.00    -0.239 C  
HETATM    2  S   UNL     1      -9.037  11.925  66.886  1.00  0.00    -0.201 SA 
HETATM    3  C   UNL     1     -10.447  11.123  65.991  1.00  0.00    -0.256 C  
HETATM    4  C   UNL     1     -10.110  10.991  64.503  1.00  0.00    -0.380 C  
HETATM    5  CA  UNL     1     -11.679  11.997  66.330  1.00  0.00    -0.252 C  
HETATM    6  C   UNL     1     -10.607   9.683  66.530  1.00  0.00    -0.142 C  
HETATM    7  N   UNL     1     -11.513  12.470  67.714  1.00  0.00    -0.300 N  
HETATM    8  C   UNL     1     -11.902  13.258  65.473  1.00  0.00    -0.370 C  
HETATM    9  OXT UNL     1     -11.704  13.356  64.274  1.00  0.00    -0.376 OA 
HETATM   10  O   UNL     1     -12.497  14.265  66.172  1.00  0.00    -0.442 OA 
HETATM   11  C   UNL     1     -11.785  11.635  68.765  1.00  0.00    -0.330 C  
HETATM   12  CA  UNL     1     -10.396  11.901  69.421  1.00  0.00     0.290 C  
HETATM   13  O   UNL     1     -12.726  10.890  68.900  1.00  0.00    -0.200 OA 
ENDROOT
BRANCH  12  14
HETATM   14  N   UNL     1      -9.479  10.748  69.589  1.00  0.00    -0.403 N  
HETATM   15  C   UNL     1      -9.864   9.574  70.184  1.00  0.00    -0.244 C  
HETATM   16  H   UNL     1      -8.521  10.832  69.248  1.00  0.00     0.000 HD 
HETATM   17  O   UNL     1     -11.018   9.350  70.530  1.00  0.00    -0.235 OA 
BRANCH  15  18
HETATM   18  C   UNL     1      -8.788   8.609  70.368  1.00  0.00    -0.170 A  
HETATM   19  C   UNL     1      -8.384   8.114  71.592  1.00  0.00    -0.131 A  
HETATM   20  C   UNL     1      -8.813   8.307  72.992  1.00  0.00    -0.302 C  
HETATM   21  O   UNL     1      -7.380   7.225  71.405  1.00  0.00    -0.075 OA 
HETATM   22  N   UNL     1      -7.074   7.139  70.068  1.00  0.00    -0.065 NA 
HETATM   23  C   UNL     1      -7.906   7.973  69.423  1.00  0.00    -0.113 A  
BRANCH  23  24
HETATM   24  C   UNL     1      -7.860   8.077  67.956  1.00  0.00    -0.126 A  
HETATM   25  C   UNL     1      -7.045   9.053  67.356  1.00  0.00    -0.079 A  
HETATM   26  C   UNL     1      -6.797   9.066  65.982  1.00  0.00    -0.080 A  
HETATM   27  F   UNL     1      -6.443  10.000  68.091  1.00  0.00    -0.053 F  
HETATM   28  C   UNL     1      -7.332   8.072  65.173  1.00  0.00    -0.074 A  
HETATM   29  C   UNL     1      -8.208   7.143  65.727  1.00  0.00    -0.132 A  
HETATM   30  C   UNL     1      -8.525   7.189  67.092  1.00  0.00    -0.121 A  
HETATM   31 CL   UNL     1      -9.810   6.148  67.606  1.00  0.00    -0.120 Cl 
ENDBRANCH  23  24
ENDBRANCH  15  18
ENDBRANCH  12  14
TORSDOF 3
ENDMDL
MODEL      129
REMARK 921   NORMALIZED FREE ENERGY PREDICTED BY IDOCK:   -4.60 KCAL/MOL
REMARK 922        TOTAL FREE ENERGY PREDICTED BY IDOCK:   -6.77 KCAL/MOL
REMARK 923 INTER-LIGAND FREE ENERGY PREDICTED BY IDOCK:   -5.59 KCAL/MOL
REMARK 924 INTRA-LIGAND FREE ENERGY PREDICTED BY IDOCK:   -1.18 KCAL/MOL
REMARK 927      BINDING AFFINITY PREDICTED BY RF-SCORE:    0.00 PKD
ROOT
HETATM    1  C   UNL     1      -7.496   7.400  67.966  1.00  0.00    -0.105 C  
HETATM    2  S   UNL     1      -8.633   6.117  68.661  1.00  0.00    -0.112 SA 
HETATM    3  C   UNL     1      -9.440   5.762  67.031  1.00  0.00    -0.124 C  
HETATM    4  C   UNL     1      -9.876   4.295  66.977  1.00  0.00    -0.216 C  
HETATM    5  CA  UNL     1      -8.399   6.198  65.971  1.00  0.00    -0.136 C  
HETATM    6  C   UNL     1     -10.732   6.605  66.937  1.00  0.00    -0.401 C  
HETATM    7  N   UNL     1      -7.698   7.377  66.504  1.00  0.00    -0.092 N  
HETATM    8  C   UNL     1      -7.301   5.180  65.607  1.00  0.00    -0.073 C  
HETATM    9  OXT UNL     1      -7.446   3.973  65.502  1.00  0.00    -0.078 OA 
HETATM   10  O   UNL     1      -6.128   5.779  65.261  1.00  0.00    -0.027 OA 
HETATM   11  C   UNL     1      -8.294   8.610  66.462  1.00  0.00    -0.108 C  
HETATM   12  CA  UNL     1      -8.053   8.852  67.982  1.00  0.00    -0.106 C  
HETATM   13  O   UNL     1      -8.902   9.111  65.547  1.00  0.00    -0.167 OA 
ENDROOT
BRANCH  12  14
HETATM   14  N   UNL     1      -9.242   9.029  68.851  1.00  0.00    -0.139 N  
HETATM   15  C   UNL     1      -9.724  10.263  69.205  1.00  0.00    -0.225 C  
HETATM   16  H   UNL     1      -9.721   8.198  69.201  1.00  0.00     0.000 HD 
HETATM   17  O   UNL     1      -9.275  11.309  68.752  1.00  0.00    -0.182 OA 
BRANCH  15  18
HETATM   18  C   UNL     1     -10.821  10.230  70.164  1.00  0.00    -0.362 A  
HETATM   19  C   UNL     1     -11.762  11.230  70.308  1.00  0.00    -0.324 A  
HETATM   20  C   UNL     1     -12.022  12.526  69.648  1.00  0.00    -0.339 C  
HETATM   21  O   UNL     1     -12.649  10.875  71.268  1.00  0.00    -0.377 OA 
HETATM   22  N   UNL     1     -12.298   9.658  71.802  1.00  0.00    -0.387 NA 
HETATM   23  C   UNL     1     -11.191   9.254  71.157  1.00  0.00    -0.343 A  
BRANCH  23  24
HETATM   24  C   UNL     1     -10.584   7.951  71.472  1.00  0.00    -0.262 A  
HETATM   25  C   UNL     1      -9.318   7.907  72.084  1.00  0.00    -0.169 A  
HETATM   26  C   UNL     1      -8.786   6.721  72.595  1.00  0.00    -0.131 A  
HETATM   27  F   UNL     1      -8.579   9.017  72.230  1.00  0.00    -0.193 F  
HETATM   28  C   UNL     1      -9.529   5.549  72.541  1.00  0.00    -0.160 A  
HETATM   29  C   UNL     1     -10.748   5.547  71.868  1.00  0.00    -0.292 A  
HETATM   30  C   UNL     1     -11.237   6.722  71.278  1.00  0.00    -0.276 A  
HETATM   31 CL   UNL     1     -12.626   6.535  70.262  1.00  0.00     0.321 Cl 
ENDBRANCH  23  24
ENDBRANCH  15  18
ENDBRANCH  12  14
TORSDOF 3
ENDMDL
MODEL      130
REMARK 921   NORMALIZED FREE ENERGY PREDICTED BY IDOCK:   -4.57 KCAL/MOL
REMARK 922        TOTAL FREE ENERGY PREDICTED BY IDOCK:   -6.73 KCAL/MOL
REMARK 923 INTER-LIGAND FREE ENERGY PREDICTED BY IDOCK:   -5.43 KCAL/MOL
REMARK 924 INTRA-LIGAND FREE ENERGY PREDICTED BY IDOCK:   -1.30 KCAL/MOL
REMARK 927      BINDING AFFINITY PREDICTED BY RF-SCORE:    0.00 PKD
ROOT
HETATM    1  C   UNL     1     -10.707  13.679  66.822  1.00  0.00    -0.272 C  
HETATM    2  S   UNL     1     -11.848  12.274  67.205  1.00  0.00    -0.153 SA 
HETATM    3  C   UNL     1     -11.343  12.178  68.985  1.00  0.00    -0.276 C  
HETATM    4  C   UNL     1     -12.525  11.706  69.836  1.00  0.00    -0.123 C  
HETATM    5  CA  UNL     1     -10.792  13.588  69.316  1.00  0.00    -0.063 C  
HETATM    6  C   UNL     1     -10.248  11.096  69.120  1.00  0.00    -0.163 C  
HETATM    7  N   UNL     1     -10.114  14.088  68.110  1.00  0.00    -0.238 N  
HETATM    8  C   UNL     1     -11.820  14.668  69.705  1.00  0.00    -0.316 C  
HETATM    9  OXT UNL     1     -12.820  14.498  70.383  1.00  0.00    -0.349 OA 
HETATM   10  O   UNL     1     -11.430  15.918  69.328  1.00  0.00    -0.336 OA 
HETATM   11  C   UNL     1      -8.858  13.645  67.792  1.00  0.00    -0.190 C  
HETATM   12  CA  UNL     1      -9.286  13.261  66.344  1.00  0.00    -0.174 C  
HETATM   13  O   UNL     1      -7.913  13.496  68.529  1.00  0.00    -0.142 OA 
ENDROOT
BRANCH  12  14
HETATM   14  N   UNL     1      -9.182  11.837  65.945  1.00  0.00    -0.333 N  
HETATM   15  C   UNL     1      -8.008  11.132  66.017  1.00  0.00    -0.041 C  
HETATM   16  H   UNL     1     -10.018  11.362  65.604  1.00  0.00     0.000 HD 
HETATM   17  O   UNL     1      -6.984  11.591  66.507  1.00  0.00    -0.106 OA 
BRANCH  15  18
HETATM   18  C   UNL     1      -8.078   9.785  65.464  1.00  0.00    -0.125 A  
HETATM   19  C   UNL     1      -7.780   9.462  64.156  1.00  0.00    -0.117 A  
HETATM   20  C   UNL     1      -7.322  10.215  62.969  1.00  0.00    -0.139 C  
HETATM   21  O   UNL     1      -7.927   8.127  63.980  1.00  0.00    -0.140 OA 
HETATM   22  N   UNL     1      -8.356   7.546  65.149  1.00  0.00    -0.120 NA 
HETATM   23  C   UNL     1      -8.464   8.530  66.057  1.00  0.00    -0.140 A  
BRANCH  23  24
HETATM   24  C   UNL     1      -8.866   8.222  67.438  1.00  0.00    -0.135 A  
HETATM   25  C   UNL     1     -10.189   7.830  67.704  1.00  0.00    -0.219 A  
HETATM   26  C   UNL     1     -10.575   7.326  68.948  1.00  0.00    -0.207 A  
HETATM   27  F   UNL     1     -11.135   7.895  66.755  1.00  0.00    -0.336 F  
HETATM   28  C   UNL     1      -9.630   7.165  69.953  1.00  0.00    -0.163 A  
HETATM   29  C   UNL     1      -8.332   7.622  69.745  1.00  0.00    -0.133 A  
HETATM   30  C   UNL     1      -7.972   8.210  68.523  1.00  0.00    -0.126 A  
HETATM   31 CL   UNL     1      -6.412   8.962  68.477  1.00  0.00    -0.054 Cl 
ENDBRANCH  23  24
ENDBRANCH  15  18
ENDBRANCH  12  14
TORSDOF 3
ENDMDL
MODEL      131
REMARK 921   NORMALIZED FREE ENERGY PREDICTED BY IDOCK:   -4.54 KCAL/MOL
REMARK 922        TOTAL FREE ENERGY PREDICTED BY IDOCK:   -6.71 KCAL/MOL
REMARK 923 INTER-LIGAND FREE ENERGY PREDICTED BY IDOCK:   -5.54 KCAL/MOL
REMARK 924 INTRA-LIGAND FREE ENERGY PREDICTED BY IDOCK:   -1.17 KCAL/MOL
REMARK 927      BINDING AFFINITY PREDICTED BY RF-SCORE:    0.00 PKD
ROOT
HETATM    1  C   UNL     1      -7.229   7.147  68.307  1.00  0.00    -0.091 C  
HETATM    2  S   UNL     1      -8.714   6.358  69.078  1.00  0.00    -0.123 SA 
HETATM    3  C   UNL     1      -9.265   5.551  67.504  1.00  0.00    -0.110 C  
HETATM    4  C   UNL     1      -9.976   4.231  67.818  1.00  0.00    -0.066 C  
HETATM    5  CA  UNL     1      -7.981   5.438  66.647  1.00  0.00    -0.105 C  
HETATM    6  C   UNL     1     -10.316   6.464  66.833  1.00  0.00    -0.306 C  
HETATM    7  N   UNL     1      -7.161   6.629  66.926  1.00  0.00    -0.076 N  
HETATM    8  C   UNL     1      -7.068   4.224  66.906  1.00  0.00    -0.067 C  
HETATM    9  OXT UNL     1      -7.437   3.090  67.161  1.00  0.00    -0.068 OA 
HETATM   10  O   UNL     1      -5.754   4.502  66.681  1.00  0.00    -0.017 OA 
HETATM   11  C   UNL     1      -7.473   7.831  66.348  1.00  0.00    -0.084 C  
HETATM   12  CA  UNL     1      -7.469   8.568  67.721  1.00  0.00    -0.097 C  
HETATM   13  O   UNL     1      -7.787   8.045  65.202  1.00  0.00    -0.101 OA 
ENDROOT
BRANCH  12  14
HETATM   14  N   UNL     1      -8.735   9.197  68.171  1.00  0.00    -0.129 N  
HETATM   15  C   UNL     1      -8.774  10.176  69.131  1.00  0.00    -0.170 C  
HETATM   16  H   UNL     1      -9.611   8.889  67.750  1.00  0.00     0.000 HD 
HETATM   17  O   UNL     1      -7.766  10.676  69.615  1.00  0.00    -0.146 OA 
BRANCH  15  18
HETATM   18  C   UNL     1     -10.118  10.579  69.526  1.00  0.00    -0.208 A  
HETATM   19  C   UNL     1     -10.881   9.926  70.474  1.00  0.00    -0.326 A  
HETATM   20  C   UNL     1     -10.683   8.755  71.353  1.00  0.00    -0.356 C  
HETATM   21  O   UNL     1     -12.064  10.570  70.617  1.00  0.00    -0.296 OA 
HETATM   22  N   UNL     1     -12.125  11.633  69.747  1.00  0.00    -0.303 NA 
HETATM   23  C   UNL     1     -10.965  11.652  69.072  1.00  0.00    -0.233 A  
BRANCH  23  24
HETATM   24  C   UNL     1     -10.699  12.710  68.085  1.00  0.00    -0.242 A  
HETATM   25  C   UNL     1     -10.702  14.055  68.494  1.00  0.00    -0.256 A  
HETATM   26  C   UNL     1     -10.253  15.081  67.659  1.00  0.00    -0.236 A  
HETATM   27  F   UNL     1     -11.108  14.405  69.723  1.00  0.00    -0.256 F  
HETATM   28  C   UNL     1      -9.753  14.781  66.400  1.00  0.00    -0.311 A  
HETATM   29  C   UNL     1      -9.816  13.469  65.938  1.00  0.00    -0.255 A  
HETATM   30  C   UNL     1     -10.350  12.455  66.747  1.00  0.00    -0.221 A  
HETATM   31 CL   UNL     1     -10.606  10.927  65.973  1.00  0.00    -0.286 Cl 
ENDBRANCH  23  24
ENDBRANCH  15  18
ENDBRANCH  12  14
TORSDOF 3
ENDMDL
MODEL      132
REMARK 921   NORMALIZED FREE ENERGY PREDICTED BY IDOCK:   -4.52 KCAL/MOL
REMARK 922        TOTAL FREE ENERGY PREDICTED BY IDOCK:   -6.68 KCAL/MOL
REMARK 923 INTER-LIGAND FREE ENERGY PREDICTED BY IDOCK:   -6.76 KCAL/MOL
REMARK 924 INTRA-LIGAND FREE ENERGY PREDICTED BY IDOCK:    0.08 KCAL/MOL
REMARK 927      BINDING AFFINITY PREDICTED BY RF-SCORE:    0.00 PKD
ROOT
HETATM    1  C   UNL     1      -7.842   8.558  67.959  1.00  0.00    -0.103 C  
HETATM    2  S   UNL     1      -9.287   8.329  66.826  1.00  0.00    -0.197 SA 
HETATM    3  C   UNL     1      -9.050   9.962  65.982  1.00  0.00    -0.158 C  
HETATM    4  C   UNL     1      -9.511   9.865  64.526  1.00  0.00    -0.328 C  
HETATM    5  CA  UNL     1      -7.555  10.304  66.196  1.00  0.00    -0.124 C  
HETATM    6  C   UNL     1      -9.972  10.998  66.664  1.00  0.00    -0.249 C  
HETATM    7  N   UNL     1      -7.176   9.803  67.527  1.00  0.00    -0.089 N  
HETATM    8  C   UNL     1      -6.546   9.689  65.207  1.00  0.00    -0.087 C  
HETATM    9  OXT UNL     1      -6.717   9.535  64.010  1.00  0.00    -0.093 OA 
HETATM   10  O   UNL     1      -5.335   9.447  65.782  1.00  0.00    -0.039 OA 
HETATM   11  C   UNL     1      -7.524  10.503  68.652  1.00  0.00    -0.095 C  
HETATM   12  CA  UNL     1      -8.171   9.249  69.313  1.00  0.00    -0.108 C  
HETATM   13  O   UNL     1      -7.452  11.694  68.838  1.00  0.00    -0.116 OA 
ENDROOT
BRANCH  12  14
HETATM   14  N   UNL     1      -9.620   9.301  69.624  1.00  0.00    -0.173 N  
HETATM   15  C   UNL     1     -10.104   9.273  70.907  1.00  0.00    -0.302 C  
HETATM   16  H   UNL     1     -10.284   9.361  68.852  1.00  0.00     0.000 HD 
HETATM   17  O   UNL     1      -9.379   9.304  71.894  1.00  0.00    -0.299 OA 
BRANCH  15  18
HETATM   18  C   UNL     1     -11.557   9.206  71.002  1.00  0.00    -0.370 A  
HETATM   19  C   UNL     1     -12.269   8.057  71.282  1.00  0.00    -0.287 A  
HETATM   20  C   UNL     1     -11.917   6.652  71.573  1.00  0.00    -0.402 C  
HETATM   21  O   UNL     1     -13.592   8.348  71.318  1.00  0.00    -0.248 OA 
HETATM   22  N   UNL     1     -13.786   9.678  71.029  1.00  0.00    -0.167 NA 
HETATM   23  C   UNL     1     -12.571  10.214  70.826  1.00  0.00    -0.317 A  
BRANCH  23  24
HETATM   24  C   UNL     1     -12.435  11.651  70.537  1.00  0.00    -0.344 A  
HETATM   25  C   UNL     1     -12.664  12.588  71.559  1.00  0.00    -0.220 A  
HETATM   26  C   UNL     1     -12.349  13.939  71.407  1.00  0.00    -0.383 A  
HETATM   27  F   UNL     1     -13.171  12.212  72.743  1.00  0.00    -0.298 F  
HETATM   28  C   UNL     1     -11.756  14.384  70.233  1.00  0.00    -0.355 A  
HETATM   29  C   UNL     1     -11.594  13.494  69.174  1.00  0.00    -0.359 A  
HETATM   30  C   UNL     1     -11.995  12.156  69.301  1.00  0.00    -0.262 A  
HETATM   31 CL   UNL     1     -11.976  11.220  67.844  1.00  0.00    -0.192 Cl 
ENDBRANCH  23  24
ENDBRANCH  15  18
ENDBRANCH  12  14
TORSDOF 3
ENDMDL
MODEL      133
REMARK 921   NORMALIZED FREE ENERGY PREDICTED BY IDOCK:   -4.50 KCAL/MOL
REMARK 922        TOTAL FREE ENERGY PREDICTED BY IDOCK:   -6.65 KCAL/MOL
REMARK 923 INTER-LIGAND FREE ENERGY PREDICTED BY IDOCK:   -5.01 KCAL/MOL
REMARK 924 INTRA-LIGAND FREE ENERGY PREDICTED BY IDOCK:   -1.65 KCAL/MOL
REMARK 927      BINDING AFFINITY PREDICTED BY RF-SCORE:    0.00 PKD
ROOT
HETATM    1  C   UNL     1     -10.498   8.199  72.442  1.00  0.00    -0.319 C  
HETATM    2  S   UNL     1      -9.179   9.018  71.436  1.00  0.00    -0.155 SA 
HETATM    3  C   UNL     1     -10.272   9.258  69.959  1.00  0.00    -0.215 C  
HETATM    4  C   UNL     1      -9.860  10.527  69.209  1.00  0.00    -0.225 C  
HETATM    5  CA  UNL     1     -11.713   9.246  70.528  1.00  0.00    -0.176 C  
HETATM    6  C   UNL     1     -10.037   8.080  68.987  1.00  0.00    -0.206 C  
HETATM    7  N   UNL     1     -11.736   8.287  71.644  1.00  0.00    -0.276 N  
HETATM    8  C   UNL     1     -12.253  10.573  71.096  1.00  0.00    -0.391 C  
HETATM    9  OXT UNL     1     -12.049  11.686  70.640  1.00  0.00    -0.368 OA 
HETATM   10  O   UNL     1     -13.133  10.382  72.118  1.00  0.00    -0.445 OA 
HETATM   11  C   UNL     1     -11.796   6.942  71.395  1.00  0.00    -0.330 C  
HETATM   12  CA  UNL     1     -10.564   6.650  72.303  1.00  0.00    -0.214 C  
HETATM   13  O   UNL     1     -12.492   6.364  70.595  1.00  0.00    -0.076 OA 
ENDROOT
BRANCH  12  14
HETATM   14  N   UNL     1      -9.364   6.053  71.670  1.00  0.00    -0.149 N  
HETATM   15  C   UNL     1      -9.240   4.706  71.442  1.00  0.00    -0.142 C  
HETATM   16  H   UNL     1      -8.599   6.668  71.392  1.00  0.00     0.000 HD 
HETATM   17  O   UNL     1     -10.146   3.908  71.650  1.00  0.00    -0.173 OA 
BRANCH  15  18
HETATM   18  C   UNL     1      -7.939   4.299  70.927  1.00  0.00    -0.067 A  
HETATM   19  C   UNL     1      -6.856   3.965  71.716  1.00  0.00    -0.026 A  
HETATM   20  C   UNL     1      -6.608   3.877  73.170  1.00  0.00    -0.037 C  
HETATM   21  O   UNL     1      -5.815   3.615  70.923  1.00  0.00    -0.013 OA 
HETATM   22  N   UNL     1      -6.171   3.742  69.601  1.00  0.00    -0.027 NA 
HETATM   23  C   UNL     1      -7.447   4.163  69.579  1.00  0.00    -0.054 A  
BRANCH  23  24
HETATM   24  C   UNL     1      -8.141   4.355  68.297  1.00  0.00    -0.082 A  
HETATM   25  C   UNL     1      -7.863   5.494  67.522  1.00  0.00    -0.101 A  
HETATM   26  C   UNL     1      -8.327   5.627  66.212  1.00  0.00    -0.114 A  
HETATM   27  F   UNL     1      -7.109   6.493  68.004  1.00  0.00    -0.073 F  
HETATM   28  C   UNL     1      -9.053   4.599  65.626  1.00  0.00    -0.142 A  
HETATM   29  C   UNL     1      -9.414   3.497  66.396  1.00  0.00    -0.164 A  
HETATM   30  C   UNL     1      -9.021   3.409  67.740  1.00  0.00    -0.145 A  
HETATM   31 CL   UNL     1      -9.738   2.126  68.655  1.00  0.00    -0.102 Cl 
ENDBRANCH  23  24
ENDBRANCH  15  18
ENDBRANCH  12  14
TORSDOF 3
ENDMDL
MODEL      134
REMARK 921   NORMALIZED FREE ENERGY PREDICTED BY IDOCK:   -4.49 KCAL/MOL
REMARK 922        TOTAL FREE ENERGY PREDICTED BY IDOCK:   -6.64 KCAL/MOL
REMARK 923 INTER-LIGAND FREE ENERGY PREDICTED BY IDOCK:   -5.27 KCAL/MOL
REMARK 924 INTRA-LIGAND FREE ENERGY PREDICTED BY IDOCK:   -1.37 KCAL/MOL
REMARK 927      BINDING AFFINITY PREDICTED BY RF-SCORE:    0.00 PKD
ROOT
HETATM    1  C   UNL     1     -10.637   8.785  72.201  1.00  0.00    -0.316 C  
HETATM    2  S   UNL     1      -9.249   8.633  70.987  1.00  0.00    -0.224 SA 
HETATM    3  C   UNL     1     -10.358   8.739  69.507  1.00  0.00    -0.213 C  
HETATM    4  C   UNL     1      -9.613   9.407  68.347  1.00  0.00    -0.157 C  
HETATM    5  CA  UNL     1     -11.622   9.477  70.012  1.00  0.00    -0.048 C  
HETATM    6  C   UNL     1     -10.688   7.302  69.044  1.00  0.00    -0.183 C  
HETATM    7  N   UNL     1     -11.850   9.054  71.404  1.00  0.00    -0.303 N  
HETATM    8  C   UNL     1     -11.572  11.017  70.039  1.00  0.00    -0.344 C  
HETATM    9  OXT UNL     1     -11.040  11.733  69.207  1.00  0.00    -0.242 OA 
HETATM   10  O   UNL     1     -12.325  11.546  71.043  1.00  0.00    -0.371 OA 
HETATM   11  C   UNL     1     -12.422   7.839  71.670  1.00  0.00    -0.326 C  
HETATM   12  CA  UNL     1     -11.274   7.436  72.644  1.00  0.00    -0.332 C  
HETATM   13  O   UNL     1     -13.374   7.331  71.128  1.00  0.00    -0.331 OA 
ENDROOT
BRANCH  12  14
HETATM   14  N   UNL     1     -10.460   6.246  72.299  1.00  0.00    -0.195 N  
HETATM   15  C   UNL     1     -10.416   5.125  73.088  1.00  0.00    -0.211 C  
HETATM   16  H   UNL     1      -9.910   6.262  71.440  1.00  0.00     0.000 HD 
HETATM   17  O   UNL     1     -11.119   4.980  74.080  1.00  0.00    -0.275 OA 
BRANCH  15  18
HETATM   18  C   UNL     1      -9.464   4.114  72.647  1.00  0.00    -0.168 A  
HETATM   19  C   UNL     1      -9.726   2.759  72.608  1.00  0.00    -0.127 A  
HETATM   20  C   UNL     1     -10.892   1.909  72.926  1.00  0.00    -0.226 C  
HETATM   21  O   UNL     1      -8.640   2.106  72.130  1.00  0.00    -0.063 OA 
HETATM   22  N   UNL     1      -7.629   3.003  71.877  1.00  0.00    -0.051 NA 
HETATM   23  C   UNL     1      -8.101   4.221  72.190  1.00  0.00    -0.091 A  
BRANCH  23  24
HETATM   24  C   UNL     1      -7.265   5.415  71.987  1.00  0.00    -0.087 A  
HETATM   25  C   UNL     1      -6.878   6.186  73.097  1.00  0.00    -0.075 A  
HETATM   26  C   UNL     1      -5.921   7.198  72.995  1.00  0.00    -0.055 A  
HETATM   27  F   UNL     1      -7.394   5.958  74.314  1.00  0.00    -0.086 F  
HETATM   28  C   UNL     1      -5.295   7.439  71.780  1.00  0.00    -0.036 A  
HETATM   29  C   UNL     1      -5.718   6.748  70.648  1.00  0.00    -0.024 A  
HETATM   30  C   UNL     1      -6.743   5.794  70.738  1.00  0.00    -0.052 A  
HETATM   31 CL   UNL     1      -7.348   5.191  69.232  1.00  0.00    -0.057 Cl 
ENDBRANCH  23  24
ENDBRANCH  15  18
ENDBRANCH  12  14
TORSDOF 3
ENDMDL
MODEL      135
REMARK 921   NORMALIZED FREE ENERGY PREDICTED BY IDOCK:   -4.49 KCAL/MOL
REMARK 922        TOTAL FREE ENERGY PREDICTED BY IDOCK:   -6.64 KCAL/MOL
REMARK 923 INTER-LIGAND FREE ENERGY PREDICTED BY IDOCK:   -5.41 KCAL/MOL
REMARK 924 INTRA-LIGAND FREE ENERGY PREDICTED BY IDOCK:   -1.22 KCAL/MOL
REMARK 927      BINDING AFFINITY PREDICTED BY RF-SCORE:    0.00 PKD
ROOT
HETATM    1  C   UNL     1      -9.702  12.025  66.158  1.00  0.00    -0.238 C  
HETATM    2  S   UNL     1     -11.518  12.115  66.495  1.00  0.00    -0.353 SA 
HETATM    3  C   UNL     1     -11.357  13.509  67.705  1.00  0.00    -0.296 C  
HETATM    4  C   UNL     1     -12.610  14.387  67.656  1.00  0.00     0.486 C  
HETATM    5  CA  UNL     1     -10.027  14.207  67.329  1.00  0.00    -0.249 C  
HETATM    6  C   UNL     1     -11.300  12.910  69.129  1.00  0.00    -0.329 C  
HETATM    7  N   UNL     1      -9.094  13.160  66.879  1.00  0.00    -0.233 N  
HETATM    8  C   UNL     1     -10.077  15.248  66.194  1.00  0.00    -0.296 C  
HETATM    9  OXT UNL     1     -10.978  16.044  65.990  1.00  0.00    -0.233 OA 
HETATM   10  O   UNL     1      -8.916  15.303  65.485  1.00  0.00     0.143 OA 
HETATM   11  C   UNL     1      -8.451  12.371  67.794  1.00  0.00    -0.169 C  
HETATM   12  CA  UNL     1      -8.907  11.061  67.085  1.00  0.00    -0.140 C  
HETATM   13  O   UNL     1      -7.920  12.709  68.825  1.00  0.00    -0.059 OA 
ENDROOT
BRANCH  12  14
HETATM   14  N   UNL     1      -9.764  10.123  67.850  1.00  0.00    -0.145 N  
HETATM   15  C   UNL     1      -9.295   9.386  68.908  1.00  0.00    -0.154 C  
HETATM   16  H   UNL     1     -10.742  10.021  67.578  1.00  0.00     0.000 HD 
HETATM   17  O   UNL     1      -8.167   9.520  69.366  1.00  0.00    -0.107 OA 
BRANCH  15  18
HETATM   18  C   UNL     1     -10.253   8.432  69.450  1.00  0.00    -0.208 A  
HETATM   19  C   UNL     1     -11.205   8.736  70.403  1.00  0.00    -0.223 A  
HETATM   20  C   UNL     1     -11.600   9.956  71.136  1.00  0.00    -0.468 C  
HETATM   21  O   UNL     1     -11.943   7.631  70.667  1.00  0.00    -0.223 OA 
HETATM   22  N   UNL     1     -11.477   6.570  69.928  1.00  0.00    -0.408 NA 
HETATM   23  C   UNL     1     -10.451   7.028  69.193  1.00  0.00    -0.207 A  
BRANCH  23  24
HETATM   24  C   UNL     1      -9.757   6.134  68.251  1.00  0.00    -0.129 A  
HETATM   25  C   UNL     1     -10.288   5.936  66.965  1.00  0.00    -0.243 A  
HETATM   26  C   UNL     1      -9.573   5.275  65.964  1.00  0.00    -0.166 A  
HETATM   27  F   UNL     1     -11.501   6.407  66.636  1.00  0.00    -0.391 F  
HETATM   28  C   UNL     1      -8.284   4.825  66.216  1.00  0.00    -0.107 A  
HETATM   29  C   UNL     1      -7.766   4.933  67.504  1.00  0.00    -0.091 A  
HETATM   30  C   UNL     1      -8.524   5.519  68.529  1.00  0.00    -0.100 A  
HETATM   31 CL   UNL     1      -7.877   5.367  70.128  1.00  0.00    -0.080 Cl 
ENDBRANCH  23  24
ENDBRANCH  15  18
ENDBRANCH  12  14
TORSDOF 3
ENDMDL
MODEL      136
REMARK 921   NORMALIZED FREE ENERGY PREDICTED BY IDOCK:   -4.48 KCAL/MOL
REMARK 922        TOTAL FREE ENERGY PREDICTED BY IDOCK:   -6.63 KCAL/MOL
REMARK 923 INTER-LIGAND FREE ENERGY PREDICTED BY IDOCK:   -5.43 KCAL/MOL
REMARK 924 INTRA-LIGAND FREE ENERGY PREDICTED BY IDOCK:   -1.20 KCAL/MOL
REMARK 927      BINDING AFFINITY PREDICTED BY RF-SCORE:    0.00 PKD
ROOT
HETATM    1  C   UNL     1      -9.003  15.416  68.117  1.00  0.00    -0.176 C  
HETATM    2  S   UNL     1      -8.813  15.754  66.308  1.00  0.00    -0.311 SA 
HETATM    3  C   UNL     1     -10.548  16.375  66.110  1.00  0.00    -0.255 C  
HETATM    4  C   UNL     1     -10.596  17.440  65.011  1.00  0.00     0.382 C  
HETATM    5  CA  UNL     1     -10.964  16.846  67.525  1.00  0.00    -0.120 C  
HETATM    6  C   UNL     1     -11.429  15.203  65.620  1.00  0.00    -0.192 C  
HETATM    7  N   UNL     1     -10.333  15.934  68.493  1.00  0.00    -0.226 N  
HETATM    8  C   UNL     1     -10.543  18.268  67.944  1.00  0.00    -0.370 C  
HETATM    9  OXT UNL     1     -10.521  19.252  67.223  1.00  0.00    -0.402 OA 
HETATM   10  O   UNL     1     -10.316  18.371  69.283  1.00  0.00    -0.193 OA 
HETATM   11  C   UNL     1     -10.867  14.694  68.721  1.00  0.00    -0.255 C  
HETATM   12  CA  UNL     1      -9.502  13.986  68.470  1.00  0.00    -0.191 C  
HETATM   13  O   UNL     1     -12.029  14.400  68.869  1.00  0.00    -0.318 OA 
ENDROOT
BRANCH  12  14
HETATM   14  N   UNL     1      -9.417  13.025  67.344  1.00  0.00    -0.203 N  
HETATM   15  C   UNL     1     -10.014  11.791  67.376  1.00  0.00    -0.184 C  
HETATM   16  H   UNL     1      -8.893  13.293  66.511  1.00  0.00     0.000 HD 
HETATM   17  O   UNL     1     -10.744  11.427  68.290  1.00  0.00    -0.184 OA 
BRANCH  15  18
HETATM   18  C   UNL     1      -9.713  10.945  66.229  1.00  0.00    -0.245 A  
HETATM   19  C   UNL     1     -10.358  11.023  65.011  1.00  0.00    -0.295 A  
HETATM   20  C   UNL     1     -11.431  11.867  64.446  1.00  0.00    -0.393 C  
HETATM   21  O   UNL     1      -9.822  10.113  64.161  1.00  0.00    -0.305 OA 
HETATM   22  N   UNL     1      -8.843   9.394  64.804  1.00  0.00    -0.201 NA 
HETATM   23  C   UNL     1      -8.765   9.873  66.056  1.00  0.00    -0.137 A  
BRANCH  23  24
HETATM   24  C   UNL     1      -7.768   9.334  66.995  1.00  0.00    -0.095 A  
HETATM   25  C   UNL     1      -6.663  10.123  67.359  1.00  0.00    -0.073 A  
HETATM   26  C   UNL     1      -5.804   9.756  68.396  1.00  0.00    -0.043 A  
HETATM   27  F   UNL     1      -6.407  11.286  66.740  1.00  0.00    -0.088 F  
HETATM   28  C   UNL     1      -6.052   8.601  69.126  1.00  0.00    -0.043 A  
HETATM   29  C   UNL     1      -7.089   7.759  68.733  1.00  0.00    -0.076 A  
HETATM   30  C   UNL     1      -7.896   8.088  67.634  1.00  0.00    -0.122 A  
HETATM   31 CL   UNL     1      -8.980   6.851  67.094  1.00  0.00    -0.118 Cl 
ENDBRANCH  23  24
ENDBRANCH  15  18
ENDBRANCH  12  14
TORSDOF 3
ENDMDL
MODEL      137
REMARK 921   NORMALIZED FREE ENERGY PREDICTED BY IDOCK:   -4.47 KCAL/MOL
REMARK 922        TOTAL FREE ENERGY PREDICTED BY IDOCK:   -6.62 KCAL/MOL
REMARK 923 INTER-LIGAND FREE ENERGY PREDICTED BY IDOCK:   -4.98 KCAL/MOL
REMARK 924 INTRA-LIGAND FREE ENERGY PREDICTED BY IDOCK:   -1.64 KCAL/MOL
REMARK 927      BINDING AFFINITY PREDICTED BY RF-SCORE:    0.00 PKD
ROOT
HETATM    1  C   UNL     1     -10.183   8.444  69.581  1.00  0.00    -0.209 C  
HETATM    2  S   UNL     1      -9.102   7.692  68.281  1.00  0.00    -0.135 SA 
HETATM    3  C   UNL     1      -8.185   6.617  69.480  1.00  0.00    -0.130 C  
HETATM    4  C   UNL     1      -7.753   5.321  68.790  1.00  0.00    -0.083 C  
HETATM    5  CA  UNL     1      -9.148   6.455  70.682  1.00  0.00    -0.148 C  
HETATM    6  C   UNL     1      -6.886   7.347  69.890  1.00  0.00    -0.055 C  
HETATM    7  N   UNL     1      -9.879   7.723  70.833  1.00  0.00    -0.176 N  
HETATM    8  C   UNL     1     -10.223   5.355  70.576  1.00  0.00    -0.256 C  
HETATM    9  OXT UNL     1     -10.076   4.253  70.074  1.00  0.00    -0.196 OA 
HETATM   10  O   UNL     1     -11.366   5.677  71.243  1.00  0.00    -0.165 OA 
HETATM   11  C   UNL     1      -9.277   8.799  71.429  1.00  0.00    -0.255 C  
HETATM   12  CA  UNL     1      -9.621   9.739  70.235  1.00  0.00    -0.208 C  
HETATM   13  O   UNL     1      -8.604   8.813  72.432  1.00  0.00    -0.395 OA 
ENDROOT
BRANCH  12  14
HETATM   14  N   UNL     1      -8.496  10.349  69.488  1.00  0.00    -0.315 N  
HETATM   15  C   UNL     1      -8.677  11.330  68.546  1.00  0.00    -0.156 C  
HETATM   16  H   UNL     1      -7.548  10.026  69.681  1.00  0.00     0.000 HD 
HETATM   17  O   UNL     1      -9.765  11.847  68.324  1.00  0.00    -0.192 OA 
BRANCH  15  18
HETATM   18  C   UNL     1      -7.465  11.713  67.833  1.00  0.00    -0.105 A  
HETATM   19  C   UNL     1      -6.615  12.727  68.226  1.00  0.00    -0.085 A  
HETATM   20  C   UNL     1      -6.572  13.678  69.356  1.00  0.00    -0.090 C  
HETATM   21  O   UNL     1      -5.579  12.804  67.357  1.00  0.00    -0.232 OA 
HETATM   22  N   UNL     1      -5.737  11.875  66.357  1.00  0.00    -0.198 NA 
HETATM   23  C   UNL     1      -6.875  11.210  66.618  1.00  0.00    -0.137 A  
BRANCH  23  24
HETATM   24  C   UNL     1      -7.305  10.107  65.745  1.00  0.00    -0.128 A  
HETATM   25  C   UNL     1      -8.429  10.277  64.918  1.00  0.00    -0.177 A  
HETATM   26  C   UNL     1      -8.760   9.355  63.923  1.00  0.00    -0.225 A  
HETATM   27  F   UNL     1      -9.217  11.357  65.032  1.00  0.00    -0.215 F  
HETATM   28  C   UNL     1      -7.947   8.251  63.704  1.00  0.00    -0.153 A  
HETATM   29  C   UNL     1      -6.876   8.015  64.561  1.00  0.00    -0.063 A  
HETATM   30  C   UNL     1      -6.601   8.897  65.616  1.00  0.00    -0.064 A  
HETATM   31 CL   UNL     1      -5.410   8.365  66.756  1.00  0.00    -0.032 Cl 
ENDBRANCH  23  24
ENDBRANCH  15  18
ENDBRANCH  12  14
TORSDOF 3
ENDMDL
MODEL      138
REMARK 921   NORMALIZED FREE ENERGY PREDICTED BY IDOCK:   -4.41 KCAL/MOL
REMARK 922        TOTAL FREE ENERGY PREDICTED BY IDOCK:   -6.55 KCAL/MOL
REMARK 923 INTER-LIGAND FREE ENERGY PREDICTED BY IDOCK:   -6.72 KCAL/MOL
REMARK 924 INTRA-LIGAND FREE ENERGY PREDICTED BY IDOCK:    0.17 KCAL/MOL
REMARK 927      BINDING AFFINITY PREDICTED BY RF-SCORE:    0.00 PKD
ROOT
HETATM    1  C   UNL     1      -9.528  13.401  66.246  1.00  0.00    -0.183 C  
HETATM    2  S   UNL     1      -9.451  13.729  68.065  1.00  0.00    -0.212 SA 
HETATM    3  C   UNL     1     -11.286  13.613  68.296  1.00  0.00    -0.289 C  
HETATM    4  C   UNL     1     -11.601  13.071  69.693  1.00  0.00    -0.322 C  
HETATM    5  CA  UNL     1     -11.780  12.750  67.109  1.00  0.00    -0.380 C  
HETATM    6  C   UNL     1     -11.873  15.042  68.240  1.00  0.00    -0.295 C  
HETATM    7  N   UNL     1     -10.937  13.077  65.948  1.00  0.00    -0.269 N  
HETATM    8  C   UNL     1     -11.701  11.220  67.274  1.00  0.00     0.042 C  
HETATM    9  OXT UNL     1     -11.923  10.595  68.298  1.00  0.00    -0.462 OA 
HETATM   10  O   UNL     1     -11.485  10.579  66.092  1.00  0.00     0.287 OA 
HETATM   11  C   UNL     1     -11.160  14.227  65.237  1.00  0.00    -0.335 C  
HETATM   12  CA  UNL     1      -9.670  14.667  65.354  1.00  0.00    -0.141 C  
HETATM   13  O   UNL     1     -12.218  14.685  64.877  1.00  0.00    -0.401 OA 
ENDROOT
BRANCH  12  14
HETATM   14  N   UNL     1      -9.378  15.937  66.064  1.00  0.00    -0.342 N  
HETATM   15  C   UNL     1      -9.920  17.138  65.686  1.00  0.00    -0.015 C  
HETATM   16  H   UNL     1      -8.748  15.915  66.865  1.00  0.00     0.000 HD 
HETATM   17  O   UNL     1     -10.762  17.241  64.802  1.00  0.00    -0.679 OA 
BRANCH  15  18
HETATM   18  C   UNL     1      -9.416  18.287  66.426  1.00  0.00    -0.290 A  
HETATM   19  C   UNL     1      -9.929  19.565  66.329  1.00  0.00    -0.450 A  
HETATM   20  C   UNL     1     -11.032  20.196  65.575  1.00  0.00     0.010 C  
HETATM   21  O   UNL     1      -9.247  20.386  67.163  1.00  0.00    -0.374 OA 
HETATM   22  N   UNL     1      -8.252  19.684  67.800  1.00  0.00    -0.296 NA 
HETATM   23  C   UNL     1      -8.329  18.416  67.364  1.00  0.00    -0.252 A  
BRANCH  23  24
HETATM   24  C   UNL     1      -7.416  17.392  67.896  1.00  0.00    -0.195 A  
HETATM   25  C   UNL     1      -6.136  17.244  67.333  1.00  0.00    -0.141 A  
HETATM   26  C   UNL     1      -5.157  16.444  67.924  1.00  0.00    -0.127 A  
HETATM   27  F   UNL     1      -5.793  17.897  66.212  1.00  0.00    -0.160 F  
HETATM   28  C   UNL     1      -5.422  15.797  69.124  1.00  0.00    -0.102 A  
HETATM   29  C   UNL     1      -6.706  15.859  69.660  1.00  0.00    -0.173 A  
HETATM   30  C   UNL     1      -7.712  16.592  69.014  1.00  0.00    -0.221 A  
HETATM   31 CL   UNL     1      -9.315  16.386  69.636  1.00  0.00     0.046 Cl 
ENDBRANCH  23  24
ENDBRANCH  15  18
ENDBRANCH  12  14
TORSDOF 3
ENDMDL
MODEL      139
REMARK 921   NORMALIZED FREE ENERGY PREDICTED BY IDOCK:   -4.40 KCAL/MOL
REMARK 922        TOTAL FREE ENERGY PREDICTED BY IDOCK:   -6.53 KCAL/MOL
REMARK 923 INTER-LIGAND FREE ENERGY PREDICTED BY IDOCK:   -5.36 KCAL/MOL
REMARK 924 INTRA-LIGAND FREE ENERGY PREDICTED BY IDOCK:   -1.17 KCAL/MOL
REMARK 927      BINDING AFFINITY PREDICTED BY RF-SCORE:    0.00 PKD
ROOT
HETATM    1  C   UNL     1      -9.934   7.720  68.824  1.00  0.00    -0.176 C  
HETATM    2  S   UNL     1      -8.098   7.660  68.606  1.00  0.00    -0.129 SA 
HETATM    3  C   UNL     1      -7.752   7.644  70.426  1.00  0.00    -0.090 C  
HETATM    4  C   UNL     1      -6.471   6.853  70.703  1.00  0.00    -0.051 C  
HETATM    5  CA  UNL     1      -9.045   7.085  71.069  1.00  0.00    -0.151 C  
HETATM    6  C   UNL     1      -7.475   9.095  70.879  1.00  0.00    -0.136 C  
HETATM    7  N   UNL     1     -10.180   7.577  70.272  1.00  0.00    -0.202 N  
HETATM    8  C   UNL     1      -9.195   5.552  71.123  1.00  0.00    -0.149 C  
HETATM    9  OXT UNL     1      -8.303   4.750  71.340  1.00  0.00    -0.103 OA 
HETATM   10  O   UNL     1     -10.495   5.153  71.040  1.00  0.00    -0.221 OA 
HETATM   11  C   UNL     1     -10.627   8.862  70.430  1.00  0.00    -0.217 C  
HETATM   12  CA  UNL     1     -10.541   9.151  68.901  1.00  0.00    -0.191 C  
HETATM   13  O   UNL     1     -10.804   9.467  71.460  1.00  0.00    -0.348 OA 
ENDROOT
BRANCH  12  14
HETATM   14  N   UNL     1      -9.618  10.220  68.449  1.00  0.00    -0.146 N  
HETATM   15  C   UNL     1      -9.914  11.553  68.568  1.00  0.00    -0.204 C  
HETATM   16  H   UNL     1      -8.726   9.952  68.033  1.00  0.00     0.000 HD 
HETATM   17  O   UNL     1     -10.913  11.966  69.146  1.00  0.00    -0.234 OA 
BRANCH  15  18
HETATM   18  C   UNL     1      -8.939  12.445  67.954  1.00  0.00    -0.184 A  
HETATM   19  C   UNL     1      -7.696  12.726  68.485  1.00  0.00    -0.113 A  
HETATM   20  C   UNL     1      -6.948  12.297  69.685  1.00  0.00     0.226 C  
HETATM   21  O   UNL     1      -7.036  13.570  67.656  1.00  0.00    -0.147 OA 
HETATM   22  N   UNL     1      -7.834  13.893  66.585  1.00  0.00     0.548 NA 
HETATM   23  C   UNL     1      -8.992  13.233  66.749  1.00  0.00    -0.174 A  
BRANCH  23  24
HETATM   24  C   UNL     1     -10.054  13.336  65.735  1.00  0.00    -0.293 A  
HETATM   25  C   UNL     1     -10.215  12.305  64.794  1.00  0.00    -0.282 A  
HETATM   26  C   UNL     1     -11.324  12.243  63.948  1.00  0.00    -0.501 A  
HETATM   27  F   UNL     1      -9.317  11.313  64.691  1.00  0.00    -0.221 F  
HETATM   28  C   UNL     1     -12.327  13.198  64.051  1.00  0.00    -0.425 A  
HETATM   29  C   UNL     1     -12.154  14.275  64.915  1.00  0.00    -0.442 A  
HETATM   30  C   UNL     1     -10.995  14.380  65.699  1.00  0.00    -0.314 A  
HETATM   31 CL   UNL     1     -10.782  15.880  66.537  1.00  0.00    -0.293 Cl 
ENDBRANCH  23  24
ENDBRANCH  15  18
ENDBRANCH  12  14
TORSDOF 3
ENDMDL
MODEL      140
REMARK 921   NORMALIZED FREE ENERGY PREDICTED BY IDOCK:   -4.38 KCAL/MOL
REMARK 922        TOTAL FREE ENERGY PREDICTED BY IDOCK:   -6.51 KCAL/MOL
REMARK 923 INTER-LIGAND FREE ENERGY PREDICTED BY IDOCK:   -5.32 KCAL/MOL
REMARK 924 INTRA-LIGAND FREE ENERGY PREDICTED BY IDOCK:   -1.19 KCAL/MOL
REMARK 927      BINDING AFFINITY PREDICTED BY RF-SCORE:    0.00 PKD
ROOT
HETATM    1  C   UNL     1      -6.369  10.743  67.665  1.00  0.00    -0.056 C  
HETATM    2  S   UNL     1      -7.194  10.672  69.319  1.00  0.00    -0.126 SA 
HETATM    3  C   UNL     1      -8.304   9.265  68.850  1.00  0.00    -0.120 C  
HETATM    4  C   UNL     1      -8.597   8.402  70.081  1.00  0.00    -0.131 C  
HETATM    5  CA  UNL     1      -7.571   8.554  67.686  1.00  0.00    -0.098 C  
HETATM    6  C   UNL     1      -9.660   9.849  68.394  1.00  0.00    -0.157 C  
HETATM    7  N   UNL     1      -6.887   9.592  66.899  1.00  0.00    -0.079 N  
HETATM    8  C   UNL     1      -6.489   7.524  68.063  1.00  0.00    -0.050 C  
HETATM    9  OXT UNL     1      -6.536   6.741  68.997  1.00  0.00    -0.038 OA 
HETATM   10  O   UNL     1      -5.486   7.462  67.144  1.00  0.00    -0.027 OA 
HETATM   11  C   UNL     1      -7.594  10.365  66.016  1.00  0.00    -0.137 C  
HETATM   12  CA  UNL     1      -7.046  11.687  66.631  1.00  0.00    -0.025 C  
HETATM   13  O   UNL     1      -8.436  10.010  65.226  1.00  0.00    -0.139 OA 
ENDROOT
BRANCH  12  14
HETATM   14  N   UNL     1      -8.024  12.629  67.229  1.00  0.00    -0.230 N  
HETATM   15  C   UNL     1      -7.775  13.971  67.358  1.00  0.00    -0.158 C  
HETATM   16  H   UNL     1      -8.917  12.263  67.558  1.00  0.00     0.000 HD 
HETATM   17  O   UNL     1      -6.776  14.511  66.901  1.00  0.00     0.096 OA 
BRANCH  15  18
HETATM   18  C   UNL     1      -8.803  14.708  68.083  1.00  0.00    -0.173 A  
HETATM   19  C   UNL     1      -8.597  15.361  69.282  1.00  0.00    -0.252 A  
HETATM   20  C   UNL     1      -7.438  15.570  70.174  1.00  0.00     0.339 C  
HETATM   21  O   UNL     1      -9.748  15.960  69.669  1.00  0.00    -0.265 OA 
HETATM   22  N   UNL     1     -10.744  15.689  68.761  1.00  0.00    -0.239 NA 
HETATM   23  C   UNL     1     -10.199  14.926  67.800  1.00  0.00    -0.236 A  
BRANCH  23  24
HETATM   24  C   UNL     1     -11.006  14.500  66.646  1.00  0.00    -0.321 A  
HETATM   25  C   UNL     1     -11.142  15.358  65.541  1.00  0.00    -0.298 A  
HETATM   26  C   UNL     1     -11.713  14.931  64.340  1.00  0.00    -0.338 A  
HETATM   27  F   UNL     1     -10.696  16.622  65.585  1.00  0.00    -0.339 F  
HETATM   28  C   UNL     1     -12.130  13.614  64.201  1.00  0.00    -0.484 A  
HETATM   29  C   UNL     1     -12.084  12.766  65.305  1.00  0.00    -0.505 A  
HETATM   30  C   UNL     1     -11.592  13.226  66.535  1.00  0.00    -0.350 A  
HETATM   31 CL   UNL     1     -11.819  12.165  67.884  1.00  0.00    -0.388 Cl 
ENDBRANCH  23  24
ENDBRANCH  15  18
ENDBRANCH  12  14
TORSDOF 3
ENDMDL
MODEL      141
REMARK 921   NORMALIZED FREE ENERGY PREDICTED BY IDOCK:   -4.37 KCAL/MOL
REMARK 922        TOTAL FREE ENERGY PREDICTED BY IDOCK:   -6.51 KCAL/MOL
REMARK 923 INTER-LIGAND FREE ENERGY PREDICTED BY IDOCK:   -5.08 KCAL/MOL
REMARK 924 INTRA-LIGAND FREE ENERGY PREDICTED BY IDOCK:   -1.42 KCAL/MOL
REMARK 927      BINDING AFFINITY PREDICTED BY RF-SCORE:    0.00 PKD
ROOT
HETATM    1  C   UNL     1      -8.727   7.486  67.299  1.00  0.00    -0.121 C  
HETATM    2  S   UNL     1      -7.835   6.774  68.755  1.00  0.00    -0.113 SA 
HETATM    3  C   UNL     1      -8.097   5.019  68.222  1.00  0.00    -0.086 C  
HETATM    4  C   UNL     1      -6.921   4.155  68.686  1.00  0.00    -0.048 C  
HETATM    5  CA  UNL     1      -8.314   5.099  66.691  1.00  0.00    -0.108 C  
HETATM    6  C   UNL     1      -9.350   4.474  68.945  1.00  0.00    -0.209 C  
HETATM    7  N   UNL     1      -9.046   6.346  66.417  1.00  0.00    -0.152 N  
HETATM    8  C   UNL     1      -7.055   5.140  65.805  1.00  0.00    -0.068 C  
HETATM    9  OXT UNL     1      -6.022   4.520  65.995  1.00  0.00    -0.022 OA 
HETATM   10  O   UNL     1      -7.245   5.855  64.661  1.00  0.00    -0.058 OA 
HETATM   11  C   UNL     1     -10.395   6.417  66.637  1.00  0.00    -0.155 C  
HETATM   12  CA  UNL     1     -10.254   7.703  67.505  1.00  0.00    -0.227 C  
HETATM   13  O   UNL     1     -11.239   5.601  66.353  1.00  0.00    -0.075 OA 
ENDROOT
BRANCH  12  14
HETATM   14  N   UNL     1     -10.685   7.633  68.922  1.00  0.00    -0.375 N  
HETATM   15  C   UNL     1     -10.531   8.680  69.795  1.00  0.00    -0.220 C  
HETATM   16  H   UNL     1     -11.112   6.771  69.261  1.00  0.00     0.000 HD 
HETATM   17  O   UNL     1     -10.123   9.782  69.450  1.00  0.00    -0.184 OA 
BRANCH  15  18
HETATM   18  C   UNL     1     -10.900   8.376  71.172  1.00  0.00    -0.286 A  
HETATM   19  C   UNL     1     -12.076   8.777  71.772  1.00  0.00    -0.350 A  
HETATM   20  C   UNL     1     -13.266   9.539  71.339  1.00  0.00    -0.448 C  
HETATM   21  O   UNL     1     -12.113   8.310  73.043  1.00  0.00    -0.249 OA 
HETATM   22  N   UNL     1     -10.954   7.625  73.322  1.00  0.00    -0.368 NA 
HETATM   23  C   UNL     1     -10.203   7.660  72.210  1.00  0.00    -0.216 A  
BRANCH  23  24
HETATM   24  C   UNL     1      -8.904   6.969  72.172  1.00  0.00    -0.138 A  
HETATM   25  C   UNL     1      -7.724   7.722  72.038  1.00  0.00    -0.089 A  
HETATM   26  C   UNL     1      -6.461   7.150  72.206  1.00  0.00    -0.052 A  
HETATM   27  F   UNL     1      -7.765   9.036  71.773  1.00  0.00    -0.136 F  
HETATM   28  C   UNL     1      -6.347   5.810  72.552  1.00  0.00    -0.053 A  
HETATM   29  C   UNL     1      -7.494   5.023  72.609  1.00  0.00    -0.095 A  
HETATM   30  C   UNL     1      -8.755   5.583  72.351  1.00  0.00    -0.128 A  
HETATM   31 CL   UNL     1     -10.065   4.460  72.205  1.00  0.00    -0.254 Cl 
ENDBRANCH  23  24
ENDBRANCH  15  18
ENDBRANCH  12  14
TORSDOF 3
ENDMDL
MODEL      142
REMARK 921   NORMALIZED FREE ENERGY PREDICTED BY IDOCK:   -4.37 KCAL/MOL
REMARK 922        TOTAL FREE ENERGY PREDICTED BY IDOCK:   -6.50 KCAL/MOL
REMARK 923 INTER-LIGAND FREE ENERGY PREDICTED BY IDOCK:   -5.19 KCAL/MOL
REMARK 924 INTRA-LIGAND FREE ENERGY PREDICTED BY IDOCK:   -1.32 KCAL/MOL
REMARK 927      BINDING AFFINITY PREDICTED BY RF-SCORE:    0.00 PKD
ROOT
HETATM    1  C   UNL     1     -10.731   8.415  68.630  1.00  0.00    -0.034 C  
HETATM    2  S   UNL     1      -9.927   8.311  66.968  1.00  0.00    -0.283 SA 
HETATM    3  C   UNL     1      -8.276   7.824  67.652  1.00  0.00    -0.125 C  
HETATM    4  C   UNL     1      -7.546   6.920  66.655  1.00  0.00    -0.089 C  
HETATM    5  CA  UNL     1      -8.590   7.194  69.032  1.00  0.00    -0.129 C  
HETATM    6  C   UNL     1      -7.415   9.100  67.794  1.00  0.00    -0.085 C  
HETATM    7  N   UNL     1      -9.730   7.931  69.601  1.00  0.00    -0.172 N  
HETATM    8  C   UNL     1      -8.993   5.707  69.048  1.00  0.00    -0.112 C  
HETATM    9  OXT UNL     1      -8.525   4.828  68.344  1.00  0.00    -0.094 OA 
HETATM   10  O   UNL     1      -9.858   5.413  70.058  1.00  0.00    -0.175 OA 
HETATM   11  C   UNL     1      -9.539   9.159  70.176  1.00  0.00    -0.206 C  
HETATM   12  CA  UNL     1     -10.657   9.813  69.310  1.00  0.00    -0.221 C  
HETATM   13  O   UNL     1      -8.661   9.497  70.933  1.00  0.00    -0.259 OA 
ENDROOT
BRANCH  12  14
HETATM   14  N   UNL     1     -10.268  10.908  68.390  1.00  0.00    -0.171 N  
HETATM   15  C   UNL     1     -11.180  11.764  67.829  1.00  0.00    -0.266 C  
HETATM   16  H   UNL     1      -9.280  11.030  68.165  1.00  0.00     0.000 HD 
HETATM   17  O   UNL     1     -12.370  11.755  68.121  1.00  0.00    -0.389 OA 
BRANCH  15  18
HETATM   18  C   UNL     1     -10.619  12.692  66.856  1.00  0.00    -0.256 A  
HETATM   19  C   UNL     1     -11.108  12.875  65.578  1.00  0.00    -0.278 A  
HETATM   20  C   UNL     1     -12.230  12.315  64.797  1.00  0.00    -0.438 C  
HETATM   21  O   UNL     1     -10.372  13.821  64.948  1.00  0.00    -0.388 OA 
HETATM   22  N   UNL     1      -9.364  14.257  65.774  1.00  0.00    -0.055 NA 
HETATM   23  C   UNL     1      -9.488  13.582  66.929  1.00  0.00    -0.258 A  
BRANCH  23  24
HETATM   24  C   UNL     1      -8.573  13.856  68.049  1.00  0.00    -0.178 A  
HETATM   25  C   UNL     1      -7.238  13.423  67.975  1.00  0.00    -0.123 A  
HETATM   26  C   UNL     1      -6.277  13.832  68.901  1.00  0.00    -0.091 A  
HETATM   27  F   UNL     1      -6.824  12.618  66.985  1.00  0.00    -0.146 F  
HETATM   28  C   UNL     1      -6.621  14.722  69.910  1.00  0.00    -0.175 A  
HETATM   29  C   UNL     1      -7.953  15.101  70.057  1.00  0.00     0.269 A  
HETATM   30  C   UNL     1      -8.932  14.616  69.177  1.00  0.00    -0.025 A  
HETATM   31 CL   UNL     1     -10.573  14.954  69.611  1.00  0.00    -0.239 Cl 
ENDBRANCH  23  24
ENDBRANCH  15  18
ENDBRANCH  12  14
TORSDOF 3
ENDMDL
MODEL      143
REMARK 921   NORMALIZED FREE ENERGY PREDICTED BY IDOCK:   -4.36 KCAL/MOL
REMARK 922        TOTAL FREE ENERGY PREDICTED BY IDOCK:   -6.48 KCAL/MOL
REMARK 923 INTER-LIGAND FREE ENERGY PREDICTED BY IDOCK:   -6.25 KCAL/MOL
REMARK 924 INTRA-LIGAND FREE ENERGY PREDICTED BY IDOCK:   -0.23 KCAL/MOL
REMARK 927      BINDING AFFINITY PREDICTED BY RF-SCORE:    0.00 PKD
ROOT
HETATM    1  C   UNL     1      -8.379  16.231  68.278  1.00  0.00    -0.185 C  
HETATM    2  S   UNL     1      -8.490  16.235  66.432  1.00  0.00    -0.335 SA 
HETATM    3  C   UNL     1     -10.325  16.493  66.413  1.00  0.00    -0.311 C  
HETATM    4  C   UNL     1     -10.724  17.297  65.173  1.00  0.00     0.053 C  
HETATM    5  CA  UNL     1     -10.645  17.152  67.777  1.00  0.00    -0.360 C  
HETATM    6  C   UNL     1     -11.007  15.113  66.277  1.00  0.00    -0.335 C  
HETATM    7  N   UNL     1      -9.728  16.572  68.771  1.00  0.00    -0.241 N  
HETATM    8  C   UNL     1     -10.469  18.680  67.877  1.00  0.00    -0.385 C  
HETATM    9  OXT UNL     1     -10.737  19.492  67.007  1.00  0.00    -0.467 OA 
HETATM   10  O   UNL     1     -10.102  19.082  69.125  1.00  0.00    -0.374 OA 
HETATM   11  C   UNL     1      -9.969  15.327  69.288  1.00  0.00    -0.251 C  
HETATM   12  CA  UNL     1      -8.532  14.833  68.944  1.00  0.00    -0.159 C  
HETATM   13  O   UNL     1     -11.020  14.871  69.668  1.00  0.00    -0.262 OA 
ENDROOT
BRANCH  12  14
HETATM   14  N   UNL     1      -8.398  13.700  67.996  1.00  0.00    -0.158 N  
HETATM   15  C   UNL     1      -9.026  12.496  68.188  1.00  0.00    -0.199 C  
HETATM   16  H   UNL     1      -7.815  13.821  67.168  1.00  0.00     0.000 HD 
HETATM   17  O   UNL     1      -9.822  12.297  69.098  1.00  0.00     0.153 OA 
BRANCH  15  18
HETATM   18  C   UNL     1      -8.672  11.469  67.217  1.00  0.00    -0.151 A  
HETATM   19  C   UNL     1      -7.642  10.565  67.377  1.00  0.00    -0.094 A  
HETATM   20  C   UNL     1      -6.643  10.290  68.431  1.00  0.00    -0.056 C  
HETATM   21  O   UNL     1      -7.599   9.740  66.303  1.00  0.00    -0.097 OA 
HETATM   22  N   UNL     1      -8.570  10.099  65.399  1.00  0.00    -0.147 NA 
HETATM   23  C   UNL     1      -9.225  11.147  65.925  1.00  0.00    -0.206 A  
BRANCH  23  24
HETATM   24  C   UNL     1     -10.365  11.743  65.211  1.00  0.00    -0.317 A  
HETATM   25  C   UNL     1     -10.203  12.165  63.880  1.00  0.00    -0.400 A  
HETATM   26  C   UNL     1     -11.290  12.540  63.087  1.00  0.00    -0.165 A  
HETATM   27  F   UNL     1      -8.992  12.194  63.303  1.00  0.00     0.051 F  
HETATM   28  C   UNL     1     -12.579  12.466  63.599  1.00  0.00    -0.550 A  
HETATM   29  C   UNL     1     -12.760  12.132  64.938  1.00  0.00     0.061 A  
HETATM   30  C   UNL     1     -11.657  11.842  65.755  1.00  0.00    -0.215 A  
HETATM   31 CL   UNL     1     -11.990  11.691  67.448  1.00  0.00    -0.147 Cl 
ENDBRANCH  23  24
ENDBRANCH  15  18
ENDBRANCH  12  14
TORSDOF 3
ENDMDL
MODEL      144
REMARK 921   NORMALIZED FREE ENERGY PREDICTED BY IDOCK:   -4.32 KCAL/MOL
REMARK 922        TOTAL FREE ENERGY PREDICTED BY IDOCK:   -6.44 KCAL/MOL
REMARK 923 INTER-LIGAND FREE ENERGY PREDICTED BY IDOCK:   -5.08 KCAL/MOL
REMARK 924 INTRA-LIGAND FREE ENERGY PREDICTED BY IDOCK:   -1.36 KCAL/MOL
REMARK 927      BINDING AFFINITY PREDICTED BY RF-SCORE:    0.00 PKD
ROOT
HETATM    1  C   UNL     1      -8.710   9.367  67.576  1.00  0.00    -0.122 C  
HETATM    2  S   UNL     1     -10.505   9.046  67.890  1.00  0.00    -0.209 SA 
HETATM    3  C   UNL     1     -10.666  10.411  69.132  1.00  0.00    -0.234 C  
HETATM    4  C   UNL     1     -12.082  10.993  69.083  1.00  0.00    -0.333 C  
HETATM    5  CA  UNL     1      -9.520  11.395  68.789  1.00  0.00    -0.119 C  
HETATM    6  C   UNL     1     -10.492   9.806  70.543  1.00  0.00    -0.366 C  
HETATM    7  N   UNL     1      -8.375  10.591  68.330  1.00  0.00    -0.121 N  
HETATM    8  C   UNL     1      -9.789  12.426  67.677  1.00  0.00    -0.198 C  
HETATM    9  OXT UNL     1     -10.842  13.009  67.477  1.00  0.00    -0.240 OA 
HETATM   10  O   UNL     1      -8.662  12.753  66.985  1.00  0.00    -0.202 OA 
HETATM   11  C   UNL     1      -7.582   9.941  69.237  1.00  0.00    -0.101 C  
HETATM   12  CA  UNL     1      -7.731   8.580  68.494  1.00  0.00    -0.103 C  
HETATM   13  O   UNL     1      -7.148  10.363  70.283  1.00  0.00    -0.201 OA 
ENDROOT
BRANCH  12  14
HETATM   14  N   UNL     1      -8.366   7.458  69.227  1.00  0.00    -0.131 N  
HETATM   15  C   UNL     1      -7.643   6.523  69.921  1.00  0.00    -0.100 C  
HETATM   16  H   UNL     1      -9.383   7.378  69.214  1.00  0.00     0.000 HD 
HETATM   17  O   UNL     1      -6.430   6.598  70.075  1.00  0.00    -0.038 OA 
BRANCH  15  18
HETATM   18  C   UNL     1      -8.436   5.430  70.469  1.00  0.00    -0.122 A  
HETATM   19  C   UNL     1      -8.586   5.173  71.817  1.00  0.00    -0.130 A  
HETATM   20  C   UNL     1      -8.102   5.802  73.063  1.00  0.00    -0.118 C  
HETATM   21  O   UNL     1      -9.402   4.104  71.981  1.00  0.00    -0.120 OA 
HETATM   22  N   UNL     1      -9.778   3.611  70.754  1.00  0.00    -0.179 NA 
HETATM   23  C   UNL     1      -9.200   4.390  69.826  1.00  0.00    -0.131 A  
BRANCH  23  24
HETATM   24  C   UNL     1      -9.446   4.147  68.396  1.00  0.00    -0.212 A  
HETATM   25  C   UNL     1     -10.351   4.967  67.700  1.00  0.00    -0.068 A  
HETATM   26  C   UNL     1     -10.469   4.923  66.309  1.00  0.00    -0.349 A  
HETATM   27  F   UNL     1     -11.122   5.855  68.347  1.00  0.00    -0.334 F  
HETATM   28  C   UNL     1      -9.651   4.078  65.572  1.00  0.00    -0.189 A  
HETATM   29  C   UNL     1      -8.806   3.196  66.240  1.00  0.00    -0.143 A  
HETATM   30  C   UNL     1      -8.756   3.182  67.642  1.00  0.00    -0.119 A  
HETATM   31 CL   UNL     1      -7.864   1.880  68.353  1.00  0.00    -0.053 Cl 
ENDBRANCH  23  24
ENDBRANCH  15  18
ENDBRANCH  12  14
TORSDOF 3
ENDMDL
MODEL      145
REMARK 921   NORMALIZED FREE ENERGY PREDICTED BY IDOCK:   -4.32 KCAL/MOL
REMARK 922        TOTAL FREE ENERGY PREDICTED BY IDOCK:   -6.44 KCAL/MOL
REMARK 923 INTER-LIGAND FREE ENERGY PREDICTED BY IDOCK:   -5.25 KCAL/MOL
REMARK 924 INTRA-LIGAND FREE ENERGY PREDICTED BY IDOCK:   -1.19 KCAL/MOL
REMARK 927      BINDING AFFINITY PREDICTED BY RF-SCORE:    0.00 PKD
ROOT
HETATM    1  C   UNL     1      -9.185  13.444  66.777  1.00  0.00    -0.236 C  
HETATM    2  S   UNL     1      -9.312  12.359  65.283  1.00  0.00     0.364 SA 
HETATM    3  C   UNL     1     -11.165  12.365  65.277  1.00  0.00    -0.318 C  
HETATM    4  C   UNL     1     -11.680  12.248  63.839  1.00  0.00    -0.536 C  
HETATM    5  CA  UNL     1     -11.559  13.658  66.032  1.00  0.00    -0.337 C  
HETATM    6  C   UNL     1     -11.656  11.102  66.020  1.00  0.00     0.464 C  
HETATM    7  N   UNL     1     -10.563  13.866  67.096  1.00  0.00    -0.276 N  
HETATM    8  C   UNL     1     -11.590  14.965  65.217  1.00  0.00    -0.300 C  
HETATM    9  OXT UNL     1     -11.972  15.085  64.065  1.00  0.00    -0.441 OA 
HETATM   10  O   UNL     1     -11.269  16.055  65.968  1.00  0.00    -0.065 OA 
HETATM   11  C   UNL     1     -10.629  13.138  68.254  1.00  0.00    -0.248 C  
HETATM   12  CA  UNL     1      -9.142  12.689  68.136  1.00  0.00    -0.204 C  
HETATM   13  O   UNL     1     -11.606  12.882  68.916  1.00  0.00    -0.273 OA 
ENDROOT
BRANCH  12  14
HETATM   14  N   UNL     1      -8.865  11.238  68.009  1.00  0.00    -0.143 N  
HETATM   15  C   UNL     1      -7.690  10.668  68.426  1.00  0.00    -0.106 C  
HETATM   16  H   UNL     1      -9.579  10.639  67.593  1.00  0.00     0.000 HD 
HETATM   17  O   UNL     1      -6.822  11.292  69.025  1.00  0.00    -0.081 OA 
BRANCH  15  18
HETATM   18  C   UNL     1      -7.556   9.254  68.101  1.00  0.00    -0.084 A  
HETATM   19  C   UNL     1      -6.738   8.755  67.107  1.00  0.00    -0.066 A  
HETATM   20  C   UNL     1      -5.797   9.343  66.132  1.00  0.00    -0.057 C  
HETATM   21  O   UNL     1      -6.833   7.404  67.086  1.00  0.00    -0.069 OA 
HETATM   22  N   UNL     1      -7.737   6.984  68.033  1.00  0.00    -0.111 NA 
HETATM   23  C   UNL     1      -8.193   8.085  68.652  1.00  0.00    -0.126 A  
BRANCH  23  24
HETATM   24  C   UNL     1      -9.153   7.967  69.761  1.00  0.00    -0.146 A  
HETATM   25  C   UNL     1      -8.806   8.456  71.032  1.00  0.00    -0.161 A  
HETATM   26  C   UNL     1      -9.743   8.564  72.063  1.00  0.00    -0.377 A  
HETATM   27  F   UNL     1      -7.558   8.871  71.299  1.00  0.00    -0.093 F  
HETATM   28  C   UNL     1     -11.068   8.219  71.833  1.00  0.00    -0.357 A  
HETATM   29  C   UNL     1     -11.421   7.655  70.611  1.00  0.00    -0.276 A  
HETATM   30  C   UNL     1     -10.458   7.465  69.609  1.00  0.00    -0.232 A  
HETATM   31 CL   UNL     1     -10.963   6.531  68.242  1.00  0.00    -0.357 Cl 
ENDBRANCH  23  24
ENDBRANCH  15  18
ENDBRANCH  12  14
TORSDOF 3
ENDMDL
MODEL      146
REMARK 921   NORMALIZED FREE ENERGY PREDICTED BY IDOCK:   -4.31 KCAL/MOL
REMARK 922        TOTAL FREE ENERGY PREDICTED BY IDOCK:   -6.43 KCAL/MOL
REMARK 923 INTER-LIGAND FREE ENERGY PREDICTED BY IDOCK:   -4.88 KCAL/MOL
REMARK 924 INTRA-LIGAND FREE ENERGY PREDICTED BY IDOCK:   -1.55 KCAL/MOL
REMARK 927      BINDING AFFINITY PREDICTED BY RF-SCORE:    0.00 PKD
ROOT
HETATM    1  C   UNL     1     -10.448   5.351  70.381  1.00  0.00    -0.275 C  
HETATM    2  S   UNL     1      -8.627   5.549  70.644  1.00  0.00    -0.130 SA 
HETATM    3  C   UNL     1      -8.828   6.649  72.122  1.00  0.00    -0.134 C  
HETATM    4  C   UNL     1      -7.660   6.437  73.089  1.00  0.00    -0.094 C  
HETATM    5  CA  UNL     1     -10.235   6.312  72.677  1.00  0.00    -0.185 C  
HETATM    6  C   UNL     1      -8.742   8.118  71.648  1.00  0.00    -0.188 C  
HETATM    7  N   UNL     1     -11.102   6.018  71.524  1.00  0.00    -0.278 N  
HETATM    8  C   UNL     1     -10.346   5.095  73.614  1.00  0.00    -0.223 C  
HETATM    9  OXT UNL     1      -9.531   4.762  74.459  1.00  0.00    -0.120 OA 
HETATM   10  O   UNL     1     -11.551   4.469  73.514  1.00  0.00    -0.278 OA 
HETATM   11  C   UNL     1     -11.616   7.039  70.770  1.00  0.00    -0.338 C  
HETATM   12  CA  UNL     1     -11.096   6.410  69.443  1.00  0.00    -0.387 C  
HETATM   13  O   UNL     1     -12.106   8.074  71.154  1.00  0.00    -0.300 OA 
ENDROOT
BRANCH  12  14
HETATM   14  N   UNL     1     -10.115   7.187  68.646  1.00  0.00    -0.167 N  
HETATM   15  C   UNL     1     -10.198   7.308  67.283  1.00  0.00    -0.253 C  
HETATM   16  H   UNL     1      -9.347   7.649  69.133  1.00  0.00     0.000 HD 
HETATM   17  O   UNL     1     -11.139   6.872  66.631  1.00  0.00    -0.207 OA 
BRANCH  15  18
HETATM   18  C   UNL     1      -9.074   8.004  66.670  1.00  0.00    -0.199 A  
HETATM   19  C   UNL     1      -9.176   9.197  65.983  1.00  0.00    -0.215 A  
HETATM   20  C   UNL     1     -10.277  10.125  65.653  1.00  0.00    -0.288 C  
HETATM   21  O   UNL     1      -7.946   9.578  65.563  1.00  0.00    -0.108 OA 
HETATM   22  N   UNL     1      -7.015   8.635  65.927  1.00  0.00    -0.074 NA 
HETATM   23  C   UNL     1      -7.675   7.671  66.589  1.00  0.00    -0.098 A  
BRANCH  23  24
HETATM   24  C   UNL     1      -6.943   6.526  67.154  1.00  0.00    -0.071 A  
HETATM   25  C   UNL     1      -7.056   5.263  66.547  1.00  0.00    -0.069 A  
HETATM   26  C   UNL     1      -6.230   4.195  66.904  1.00  0.00    -0.036 A  
HETATM   27  F   UNL     1      -7.947   5.042  65.569  1.00  0.00    -0.096 F  
HETATM   28  C   UNL     1      -5.239   4.376  67.859  1.00  0.00    -0.011 A  
HETATM   29  C   UNL     1      -5.159   5.590  68.536  1.00  0.00     0.000 A  
HETATM   30  C   UNL     1      -6.050   6.632  68.235  1.00  0.00    -0.029 A  
HETATM   31 CL   UNL     1      -6.015   7.989  69.309  1.00  0.00    -0.033 Cl 
ENDBRANCH  23  24
ENDBRANCH  15  18
ENDBRANCH  12  14
TORSDOF 3
ENDMDL
MODEL      147
REMARK 921   NORMALIZED FREE ENERGY PREDICTED BY IDOCK:   -4.31 KCAL/MOL
REMARK 922        TOTAL FREE ENERGY PREDICTED BY IDOCK:   -6.43 KCAL/MOL
REMARK 923 INTER-LIGAND FREE ENERGY PREDICTED BY IDOCK:   -5.57 KCAL/MOL
REMARK 924 INTRA-LIGAND FREE ENERGY PREDICTED BY IDOCK:   -0.86 KCAL/MOL
REMARK 927      BINDING AFFINITY PREDICTED BY RF-SCORE:    0.00 PKD
ROOT
HETATM    1  C   UNL     1     -10.543   9.257  68.610  1.00  0.00    -0.187 C  
HETATM    2  S   UNL     1      -9.432   9.108  67.139  1.00  0.00    -0.162 SA 
HETATM    3  C   UNL     1      -8.267   7.934  67.975  1.00  0.00    -0.127 C  
HETATM    4  C   UNL     1      -7.659   6.982  66.941  1.00  0.00    -0.094 C  
HETATM    5  CA  UNL     1      -9.109   7.270  69.092  1.00  0.00    -0.137 C  
HETATM    6  C   UNL     1      -7.092   8.751  68.559  1.00  0.00    -0.073 C  
HETATM    7  N   UNL     1     -10.040   8.289  69.604  1.00  0.00    -0.194 N  
HETATM    8  C   UNL     1      -9.979   6.063  68.691  1.00  0.00    -0.149 C  
HETATM    9  OXT UNL     1      -9.673   5.189  67.896  1.00  0.00    -0.133 OA 
HETATM   10  O   UNL     1     -11.116   5.970  69.435  1.00  0.00    -0.366 OA 
HETATM   11  C   UNL     1      -9.599   9.251  70.473  1.00  0.00    -0.262 C  
HETATM   12  CA  UNL     1     -10.177  10.403  69.597  1.00  0.00    -0.209 C  
HETATM   13  O   UNL     1      -8.876   9.112  71.431  1.00  0.00    -0.298 OA 
ENDROOT
BRANCH  12  14
HETATM   14  N   UNL     1      -9.225  11.394  69.041  1.00  0.00    -0.400 N  
HETATM   15  C   UNL     1      -9.569  12.700  68.804  1.00  0.00     0.097 C  
HETATM   16  H   UNL     1      -8.275  11.091  68.824  1.00  0.00     0.000 HD 
HETATM   17  O   UNL     1     -10.652  13.173  69.128  1.00  0.00    -0.119 OA 
BRANCH  15  18
HETATM   18  C   UNL     1      -8.537  13.485  68.140  1.00  0.00    -0.173 A  
HETATM   19  C   UNL     1      -7.209  13.506  68.515  1.00  0.00    -0.110 A  
HETATM   20  C   UNL     1      -6.406  12.838  69.560  1.00  0.00    -0.108 C  
HETATM   21  O   UNL     1      -6.519  14.318  67.678  1.00  0.00    -0.179 OA 
HETATM   22  N   UNL     1      -7.375  14.876  66.760  1.00  0.00     0.162 NA 
HETATM   23  C   UNL     1      -8.601  14.395  67.025  1.00  0.00    -0.203 A  
BRANCH  23  24
HETATM   24  C   UNL     1      -9.744  14.774  66.180  1.00  0.00    -0.338 A  
HETATM   25  C   UNL     1     -10.147  16.120  66.122  1.00  0.00    -0.338 A  
HETATM   26  C   UNL     1     -11.080  16.572  65.186  1.00  0.00    -0.134 A  
HETATM   27  F   UNL     1      -9.623  17.036  66.950  1.00  0.00    -0.231 F  
HETATM   28  C   UNL     1     -11.608  15.690  64.253  1.00  0.00    -0.191 A  
HETATM   29  C   UNL     1     -11.291  14.337  64.341  1.00  0.00    -0.284 A  
HETATM   30  C   UNL     1     -10.422  13.873  65.339  1.00  0.00    -0.345 A  
HETATM   31 CL   UNL     1     -10.305  12.153  65.500  1.00  0.00    -0.284 Cl 
ENDBRANCH  23  24
ENDBRANCH  15  18
ENDBRANCH  12  14
TORSDOF 3
ENDMDL
MODEL      148
REMARK 921   NORMALIZED FREE ENERGY PREDICTED BY IDOCK:   -4.30 KCAL/MOL
REMARK 922        TOTAL FREE ENERGY PREDICTED BY IDOCK:   -6.42 KCAL/MOL
REMARK 923 INTER-LIGAND FREE ENERGY PREDICTED BY IDOCK:   -5.27 KCAL/MOL
REMARK 924 INTRA-LIGAND FREE ENERGY PREDICTED BY IDOCK:   -1.15 KCAL/MOL
REMARK 927      BINDING AFFINITY PREDICTED BY RF-SCORE:    0.00 PKD
ROOT
HETATM    1  C   UNL     1      -8.077   6.471  68.307  1.00  0.00    -0.110 C  
HETATM    2  S   UNL     1      -7.950   7.400  69.901  1.00  0.00    -0.122 SA 
HETATM    3  C   UNL     1      -9.767   7.304  70.253  1.00  0.00    -0.175 C  
HETATM    4  C   UNL     1     -10.002   7.257  71.765  1.00  0.00    -0.186 C  
HETATM    5  CA  UNL     1     -10.259   6.072  69.454  1.00  0.00    -0.211 C  
HETATM    6  C   UNL     1     -10.428   8.607  69.749  1.00  0.00    -0.220 C  
HETATM    7  N   UNL     1      -9.478   6.016  68.208  1.00  0.00    -0.115 N  
HETATM    8  C   UNL     1     -10.095   4.692  70.121  1.00  0.00    -0.213 C  
HETATM    9  OXT UNL     1     -10.248   4.445  71.306  1.00  0.00    -0.161 OA 
HETATM   10  O   UNL     1      -9.891   3.696  69.215  1.00  0.00    -0.090 OA 
HETATM   11  C   UNL     1      -9.785   6.847  67.164  1.00  0.00    -0.154 C  
HETATM   12  CA  UNL     1      -8.316   7.355  67.048  1.00  0.00    -0.121 C  
HETATM   13  O   UNL     1     -10.877   7.118  66.726  1.00  0.00    -0.320 OA 
ENDROOT
BRANCH  12  14
HETATM   14  N   UNL     1      -8.064   8.799  67.272  1.00  0.00    -0.101 N  
HETATM   15  C   UNL     1      -8.165   9.732  66.272  1.00  0.00    -0.116 C  
HETATM   16  H   UNL     1      -7.804   9.111  68.207  1.00  0.00     0.000 HD 
HETATM   17  O   UNL     1      -8.568   9.462  65.147  1.00  0.00    -0.146 OA 
BRANCH  15  18
HETATM   18  C   UNL     1      -7.757  11.076  66.658  1.00  0.00    -0.153 A  
HETATM   19  C   UNL     1      -6.510  11.402  67.152  1.00  0.00    -0.109 A  
HETATM   20  C   UNL     1      -5.266  10.655  67.432  1.00  0.00    -0.040 C  
HETATM   21  O   UNL     1      -6.456  12.735  67.389  1.00  0.00    -0.155 OA 
HETATM   22  N   UNL     1      -7.668  13.311  67.093  1.00  0.00    -0.073 NA 
HETATM   23  C   UNL     1      -8.473  12.327  66.659  1.00  0.00    -0.056 A  
BRANCH  23  24
HETATM   24  C   UNL     1      -9.843  12.631  66.217  1.00  0.00    -0.266 A  
HETATM   25  C   UNL     1     -10.190  12.452  64.866  1.00  0.00    -0.278 A  
HETATM   26  C   UNL     1     -11.515  12.520  64.429  1.00  0.00    -0.406 A  
HETATM   27  F   UNL     1      -9.259  12.176  63.941  1.00  0.00     0.010 F  
HETATM   28  C   UNL     1     -12.536  12.731  65.346  1.00  0.00    -0.387 A  
HETATM   29  C   UNL     1     -12.214  12.994  66.674  1.00  0.00    -0.285 A  
HETATM   30  C   UNL     1     -10.875  13.013  67.091  1.00  0.00    -0.260 A  
HETATM   31 CL   UNL     1     -10.592  13.596  68.697  1.00  0.00    -0.255 Cl 
ENDBRANCH  23  24
ENDBRANCH  15  18
ENDBRANCH  12  14
TORSDOF 3
ENDMDL
MODEL      149
REMARK 921   NORMALIZED FREE ENERGY PREDICTED BY IDOCK:   -4.30 KCAL/MOL
REMARK 922        TOTAL FREE ENERGY PREDICTED BY IDOCK:   -6.41 KCAL/MOL
REMARK 923 INTER-LIGAND FREE ENERGY PREDICTED BY IDOCK:   -5.50 KCAL/MOL
REMARK 924 INTRA-LIGAND FREE ENERGY PREDICTED BY IDOCK:   -0.92 KCAL/MOL
REMARK 927      BINDING AFFINITY PREDICTED BY RF-SCORE:    0.00 PKD
ROOT
HETATM    1  C   UNL     1      -8.400  10.527  68.137  1.00  0.00    -0.119 C  
HETATM    2  S   UNL     1     -10.007  10.437  67.225  1.00  0.00    -0.196 SA 
HETATM    3  C   UNL     1      -9.231  10.718  65.566  1.00  0.00    -0.202 C  
HETATM    4  C   UNL     1     -10.034   9.986  64.487  1.00  0.00    -0.151 C  
HETATM    5  CA  UNL     1      -7.759  10.268  65.736  1.00  0.00    -0.143 C  
HETATM    6  C   UNL     1      -9.329  12.225  65.235  1.00  0.00     0.169 C  
HETATM    7  N   UNL     1      -7.349  10.622  67.105  1.00  0.00    -0.095 N  
HETATM    8  C   UNL     1      -7.463   8.765  65.578  1.00  0.00    -0.086 C  
HETATM    9  OXT UNL     1      -7.984   8.010  64.774  1.00  0.00    -0.130 OA 
HETATM   10  O   UNL     1      -6.421   8.354  66.354  1.00  0.00    -0.056 OA 
HETATM   11  C   UNL     1      -7.016  11.914  67.413  1.00  0.00    -0.128 C  
HETATM   12  CA  UNL     1      -7.998  11.950  68.622  1.00  0.00    -0.101 C  
HETATM   13  O   UNL     1      -6.332  12.678  66.775  1.00  0.00    -0.066 OA 
ENDROOT
BRANCH  12  14
HETATM   14  N   UNL     1      -9.108  12.933  68.583  1.00  0.00    -0.396 N  
HETATM   15  C   UNL     1      -8.951  14.241  68.964  1.00  0.00     0.061 C  
HETATM   16  H   UNL     1     -10.024  12.623  68.261  1.00  0.00     0.000 HD 
HETATM   17  O   UNL     1      -7.866  14.722  69.267  1.00  0.00    -0.161 OA 
BRANCH  15  18
HETATM   18  C   UNL     1     -10.184  15.017  68.974  1.00  0.00    -0.242 A  
HETATM   19  C   UNL     1     -11.381  14.575  69.502  1.00  0.00    -0.275 A  
HETATM   20  C   UNL     1     -11.834  13.344  70.183  1.00  0.00    -0.342 C  
HETATM   21  O   UNL     1     -12.316  15.547  69.369  1.00  0.00    -0.266 OA 
HETATM   22  N   UNL     1     -11.773  16.631  68.722  1.00  0.00     0.041 NA 
HETATM   23  C   UNL     1     -10.489  16.331  68.466  1.00  0.00    -0.278 A  
BRANCH  23  24
HETATM   24  C   UNL     1      -9.614  17.316  67.812  1.00  0.00    -0.262 A  
HETATM   25  C   UNL     1      -9.427  18.577  68.405  1.00  0.00    -0.341 A  
HETATM   26  C   UNL     1      -8.453  19.470  67.951  1.00  0.00    -0.353 A  
HETATM   27  F   UNL     1     -10.160  18.963  69.460  1.00  0.00    -0.339 F  
HETATM   28  C   UNL     1      -7.612  19.105  66.909  1.00  0.00    -0.247 A  
HETATM   29  C   UNL     1      -7.829  17.898  66.250  1.00  0.00    -0.296 A  
HETATM   30  C   UNL     1      -8.866  17.044  66.653  1.00  0.00    -0.254 A  
HETATM   31 CL   UNL     1      -9.193  15.705  65.605  1.00  0.00    -0.245 Cl 
ENDBRANCH  23  24
ENDBRANCH  15  18
ENDBRANCH  12  14
TORSDOF 3
ENDMDL
MODEL      150
REMARK 921   NORMALIZED FREE ENERGY PREDICTED BY IDOCK:   -4.29 KCAL/MOL
REMARK 922        TOTAL FREE ENERGY PREDICTED BY IDOCK:   -6.41 KCAL/MOL
REMARK 923 INTER-LIGAND FREE ENERGY PREDICTED BY IDOCK:   -5.37 KCAL/MOL
REMARK 924 INTRA-LIGAND FREE ENERGY PREDICTED BY IDOCK:   -1.04 KCAL/MOL
REMARK 927      BINDING AFFINITY PREDICTED BY RF-SCORE:    0.00 PKD
ROOT
HETATM    1  C   UNL     1      -7.346  11.281  69.067  1.00  0.00    -0.115 C  
HETATM    2  S   UNL     1      -9.172  11.407  68.800  1.00  0.00    -0.036 SA 
HETATM    3  C   UNL     1      -9.066  11.011  66.993  1.00  0.00    -0.147 C  
HETATM    4  C   UNL     1     -10.333  10.273  66.549  1.00  0.00    -0.276 C  
HETATM    5  CA  UNL     1      -7.739  10.229  66.837  1.00  0.00    -0.105 C  
HETATM    6  C   UNL     1      -9.037  12.340  66.206  1.00  0.00    -0.125 C  
HETATM    7  N   UNL     1      -6.777  10.802  67.792  1.00  0.00    -0.067 N  
HETATM    8  C   UNL     1      -7.778   8.716  67.128  1.00  0.00    -0.096 C  
HETATM    9  OXT UNL     1      -8.686   7.953  66.845  1.00  0.00    -0.125 OA 
HETATM   10  O   UNL     1      -6.599   8.251  67.627  1.00  0.00    -0.056 OA 
HETATM   11  C   UNL     1      -6.145  11.982  67.509  1.00  0.00    -0.114 C  
HETATM   12  CA  UNL     1      -6.560  12.610  68.873  1.00  0.00    -0.095 C  
HETATM   13  O   UNL     1      -5.647  12.327  66.464  1.00  0.00    -0.231 OA 
ENDROOT
BRANCH  12  14
HETATM   14  N   UNL     1      -7.420  13.818  68.846  1.00  0.00    -0.219 N  
HETATM   15  C   UNL     1      -7.041  14.984  68.231  1.00  0.00    -0.114 C  
HETATM   16  H   UNL     1      -8.331  13.780  69.303  1.00  0.00     0.000 HD 
HETATM   17  O   UNL     1      -6.012  15.087  67.574  1.00  0.00    -0.310 OA 
BRANCH  15  18
HETATM   18  C   UNL     1      -7.966  16.093  68.420  1.00  0.00    -0.162 A  
HETATM   19  C   UNL     1      -7.602  17.344  68.877  1.00  0.00    -0.224 A  
HETATM   20  C   UNL     1      -6.332  17.983  69.281  1.00  0.00    -0.249 C  
HETATM   21  O   UNL     1      -8.695  18.143  68.915  1.00  0.00    -0.237 OA 
HETATM   22  N   UNL     1      -9.805  17.434  68.522  1.00  0.00    -0.303 NA 
HETATM   23  C   UNL     1      -9.390  16.192  68.227  1.00  0.00    -0.205 A  
BRANCH  23  24
HETATM   24  C   UNL     1     -10.346  15.191  67.727  1.00  0.00    -0.243 A  
HETATM   25  C   UNL     1     -10.995  14.338  68.636  1.00  0.00    -0.252 A  
HETATM   26  C   UNL     1     -12.059  13.519  68.251  1.00  0.00    -0.295 A  
HETATM   27  F   UNL     1     -10.637  14.300  69.929  1.00  0.00    -0.134 F  
HETATM   28  C   UNL     1     -12.527  13.562  66.945  1.00  0.00    -0.162 A  
HETATM   29  C   UNL     1     -11.851  14.334  66.005  1.00  0.00    -0.399 A  
HETATM   30  C   UNL     1     -10.728  15.086  66.377  1.00  0.00    -0.322 A  
HETATM   31 CL   UNL     1      -9.829  15.798  65.079  1.00  0.00     0.047 Cl 
ENDBRANCH  23  24
ENDBRANCH  15  18
ENDBRANCH  12  14
TORSDOF 3
ENDMDL
MODEL      151
REMARK 921   NORMALIZED FREE ENERGY PREDICTED BY IDOCK:   -4.26 KCAL/MOL
REMARK 922        TOTAL FREE ENERGY PREDICTED BY IDOCK:   -6.38 KCAL/MOL
REMARK 923 INTER-LIGAND FREE ENERGY PREDICTED BY IDOCK:   -4.70 KCAL/MOL
REMARK 924 INTRA-LIGAND FREE ENERGY PREDICTED BY IDOCK:   -1.68 KCAL/MOL
REMARK 927      BINDING AFFINITY PREDICTED BY RF-SCORE:    0.00 PKD
ROOT
HETATM    1  C   UNL     1     -10.880   8.593  68.498  1.00  0.00     0.053 C  
HETATM    2  S   UNL     1     -10.369   7.374  69.792  1.00  0.00    -0.228 SA 
HETATM    3  C   UNL     1      -9.935   8.679  71.034  1.00  0.00    -0.215 C  
HETATM    4  C   UNL     1     -10.193   8.154  72.450  1.00  0.00    -0.368 C  
HETATM    5  CA  UNL     1     -10.761   9.918  70.612  1.00  0.00    -0.303 C  
HETATM    6  C   UNL     1      -8.416   8.951  70.940  1.00  0.00    -0.226 C  
HETATM    7  N   UNL     1     -10.827   9.921  69.141  1.00  0.00    -0.223 N  
HETATM    8  C   UNL     1     -12.220   9.990  71.103  1.00  0.00    -0.380 C  
HETATM    9  OXT UNL     1     -12.628   9.634  72.196  1.00  0.00    -0.362 OA 
HETATM   10  O   UNL     1     -13.034  10.640  70.226  1.00  0.00    -0.268 OA 
HETATM   11  C   UNL     1      -9.756  10.351  68.404  1.00  0.00    -0.158 C  
HETATM   12  CA  UNL     1      -9.742   9.054  67.542  1.00  0.00    -0.161 C  
HETATM   13  O   UNL     1      -9.066  11.324  68.594  1.00  0.00    -0.172 OA 
ENDROOT
BRANCH  12  14
HETATM   14  N   UNL     1      -8.531   8.200  67.596  1.00  0.00    -0.130 N  
HETATM   15  C   UNL     1      -8.459   6.977  66.980  1.00  0.00    -0.121 C  
HETATM   16  H   UNL     1      -7.718   8.536  68.113  1.00  0.00     0.000 HD 
HETATM   17  O   UNL     1      -9.346   6.541  66.257  1.00  0.00    -0.160 OA 
BRANCH  15  18
HETATM   18  C   UNL     1      -7.234   6.236  67.252  1.00  0.00    -0.078 A  
HETATM   19  C   UNL     1      -6.076   6.342  66.509  1.00  0.00    -0.029 A  
HETATM   20  C   UNL     1      -5.655   7.133  65.334  1.00  0.00    -0.032 C  
HETATM   21  O   UNL     1      -5.126   5.537  67.042  1.00  0.00    -0.004 OA 
HETATM   22  N   UNL     1      -5.640   4.858  68.121  1.00  0.00    -0.015 NA 
HETATM   23  C   UNL     1      -6.915   5.257  68.261  1.00  0.00    -0.061 A  
BRANCH  23  24
HETATM   24  C   UNL     1      -7.736   4.739  69.367  1.00  0.00    -0.063 A  
HETATM   25  C   UNL     1      -7.448   5.132  70.685  1.00  0.00    -0.070 A  
HETATM   26  C   UNL     1      -8.311   4.846  71.746  1.00  0.00    -0.118 A  
HETATM   27  F   UNL     1      -6.339   5.829  70.975  1.00  0.00    -0.033 F  
HETATM   28  C   UNL     1      -9.510   4.190  71.506  1.00  0.00    -0.221 A  
HETATM   29  C   UNL     1      -9.782   3.718  70.225  1.00  0.00    -0.222 A  
HETATM   30  C   UNL     1      -8.870   3.929  69.180  1.00  0.00    -0.101 A  
HETATM   31 CL   UNL     1      -9.199   3.082  67.706  1.00  0.00    -0.225 Cl 
ENDBRANCH  23  24
ENDBRANCH  15  18
ENDBRANCH  12  14
TORSDOF 3
ENDMDL
MODEL      152
REMARK 921   NORMALIZED FREE ENERGY PREDICTED BY IDOCK:   -4.26 KCAL/MOL
REMARK 922        TOTAL FREE ENERGY PREDICTED BY IDOCK:   -6.37 KCAL/MOL
REMARK 923 INTER-LIGAND FREE ENERGY PREDICTED BY IDOCK:   -5.71 KCAL/MOL
REMARK 924 INTRA-LIGAND FREE ENERGY PREDICTED BY IDOCK:   -0.65 KCAL/MOL
REMARK 927      BINDING AFFINITY PREDICTED BY RF-SCORE:    0.00 PKD
ROOT
HETATM    1  C   UNL     1      -8.868   5.442  71.060  1.00  0.00    -0.139 C  
HETATM    2  S   UNL     1      -7.801   6.871  71.554  1.00  0.00    -0.100 SA 
HETATM    3  C   UNL     1      -8.189   6.704  73.358  1.00  0.00    -0.117 C  
HETATM    4  C   UNL     1      -6.986   7.156  74.191  1.00  0.00    -0.089 C  
HETATM    5  CA  UNL     1      -8.618   5.227  73.536  1.00  0.00    -0.112 C  
HETATM    6  C   UNL     1      -9.343   7.674  73.697  1.00  0.00    -0.344 C  
HETATM    7  N   UNL     1      -9.342   4.831  72.317  1.00  0.00    -0.126 N  
HETATM    8  C   UNL     1      -7.495   4.188  73.720  1.00  0.00    -0.076 C  
HETATM    9  OXT UNL     1      -6.465   4.347  74.353  1.00  0.00    -0.052 OA 
HETATM   10  O   UNL     1      -7.824   2.969  73.207  1.00  0.00    -0.061 OA 
HETATM   11  C   UNL     1     -10.644   5.214  72.134  1.00  0.00    -0.211 C  
HETATM   12  CA  UNL     1     -10.343   5.807  70.725  1.00  0.00    -0.237 C  
HETATM   13  O   UNL     1     -11.544   5.197  72.940  1.00  0.00    -0.297 OA 
ENDROOT
BRANCH  12  14
HETATM   14  N   UNL     1     -10.571   7.258  70.522  1.00  0.00    -0.218 N  
HETATM   15  C   UNL     1     -10.739   7.814  69.280  1.00  0.00    -0.147 C  
HETATM   16  H   UNL     1     -10.603   7.867  71.340  1.00  0.00     0.000 HD 
HETATM   17  O   UNL     1     -10.816   7.147  68.256  1.00  0.00    -0.179 OA 
BRANCH  15  18
HETATM   18  C   UNL     1     -10.825   9.269  69.277  1.00  0.00    -0.170 A  
HETATM   19  C   UNL     1     -11.411  10.018  70.278  1.00  0.00    -0.300 A  
HETATM   20  C   UNL     1     -12.069   9.713  71.566  1.00  0.00    -0.482 C  
HETATM   21  O   UNL     1     -11.301  11.334  69.975  1.00  0.00    -0.269 OA 
HETATM   22  N   UNL     1     -10.678  11.483  68.759  1.00  0.00    -0.204 NA 
HETATM   23  C   UNL     1     -10.389  10.248  68.315  1.00  0.00    -0.181 A  
BRANCH  23  24
HETATM   24  C   UNL     1      -9.671  10.068  67.043  1.00  0.00    -0.227 A  
HETATM   25  C   UNL     1      -8.445   9.380  67.032  1.00  0.00    -0.127 A  
HETATM   26  C   UNL     1      -7.825   8.996  65.842  1.00  0.00    -0.102 A  
HETATM   27  F   UNL     1      -7.833   9.036  68.175  1.00  0.00    -0.095 F  
HETATM   28  C   UNL     1      -8.440   9.257  64.625  1.00  0.00    -0.192 A  
HETATM   29  C   UNL     1      -9.611  10.009  64.603  1.00  0.00    -0.363 A  
HETATM   30  C   UNL     1     -10.183  10.470  65.797  1.00  0.00    -0.243 A  
HETATM   31 CL   UNL     1     -11.487  11.597  65.626  1.00  0.00    -0.251 Cl 
ENDBRANCH  23  24
ENDBRANCH  15  18
ENDBRANCH  12  14
TORSDOF 3
ENDMDL
MODEL      153
REMARK 921   NORMALIZED FREE ENERGY PREDICTED BY IDOCK:   -4.24 KCAL/MOL
REMARK 922        TOTAL FREE ENERGY PREDICTED BY IDOCK:   -6.35 KCAL/MOL
REMARK 923 INTER-LIGAND FREE ENERGY PREDICTED BY IDOCK:   -5.82 KCAL/MOL
REMARK 924 INTRA-LIGAND FREE ENERGY PREDICTED BY IDOCK:   -0.53 KCAL/MOL
REMARK 927      BINDING AFFINITY PREDICTED BY RF-SCORE:    0.00 PKD
ROOT
HETATM    1  C   UNL     1     -10.144  15.248  68.932  1.00  0.00    -0.225 C  
HETATM    2  S   UNL     1      -8.463  15.583  69.627  1.00  0.00     0.024 SA 
HETATM    3  C   UNL     1      -7.834  16.371  68.072  1.00  0.00    -0.155 C  
HETATM    4  C   UNL     1      -6.799  17.446  68.417  1.00  0.00    -0.194 C  
HETATM    5  CA  UNL     1      -9.104  16.867  67.338  1.00  0.00    -0.217 C  
HETATM    6  C   UNL     1      -7.088  15.295  67.251  1.00  0.00    -0.187 C  
HETATM    7  N   UNL     1     -10.173  15.889  67.602  1.00  0.00    -0.257 N  
HETATM    8  C   UNL     1      -9.669  18.237  67.760  1.00  0.00    -0.297 C  
HETATM    9  OXT UNL     1      -9.014  19.221  68.063  1.00  0.00    -0.298 OA 
HETATM   10  O   UNL     1     -11.023  18.306  67.630  1.00  0.00    -0.333 OA 
HETATM   11  C   UNL     1     -10.207  14.704  66.916  1.00  0.00    -0.262 C  
HETATM   12  CA  UNL     1     -10.303  13.869  68.228  1.00  0.00    -0.249 C  
HETATM   13  O   UNL     1     -10.032  14.524  65.735  1.00  0.00    -0.309 OA 
ENDROOT
BRANCH  12  14
HETATM   14  N   UNL     1      -9.206  12.916  68.522  1.00  0.00    -0.376 N  
HETATM   15  C   UNL     1      -9.139  11.667  67.959  1.00  0.00    -0.177 C  
HETATM   16  H   UNL     1      -8.471  13.200  69.170  1.00  0.00     0.000 HD 
HETATM   17  O   UNL     1      -9.919  11.282  67.097  1.00  0.00    -0.188 OA 
BRANCH  15  18
HETATM   18  C   UNL     1      -8.058  10.833  68.468  1.00  0.00    -0.133 A  
HETATM   19  C   UNL     1      -6.846  11.316  68.921  1.00  0.00    -0.086 A  
HETATM   20  C   UNL     1      -6.245  12.657  69.075  1.00  0.00    -0.091 C  
HETATM   21  O   UNL     1      -6.080  10.281  69.341  1.00  0.00    -0.040 OA 
HETATM   22  N   UNL     1      -6.748   9.096  69.144  1.00  0.00    -0.050 NA 
HETATM   23  C   UNL     1      -7.940   9.404  68.608  1.00  0.00    -0.092 A  
BRANCH  23  24
HETATM   24  C   UNL     1      -8.918   8.344  68.317  1.00  0.00    -0.139 A  
HETATM   25  C   UNL     1      -9.532   7.657  69.378  1.00  0.00    -0.152 A  
HETATM   26  C   UNL     1     -10.613   6.796  69.174  1.00  0.00    -0.261 A  
HETATM   27  F   UNL     1      -9.123   7.829  70.645  1.00  0.00    -0.147 F  
HETATM   28  C   UNL     1     -11.133   6.628  67.898  1.00  0.00    -0.310 A  
HETATM   29  C   UNL     1     -10.492   7.230  66.818  1.00  0.00    -0.311 A  
HETATM   30  C   UNL     1      -9.353   8.023  67.019  1.00  0.00    -0.156 A  
HETATM   31 CL   UNL     1      -8.505   8.504  65.587  1.00  0.00    -0.154 Cl 
ENDBRANCH  23  24
ENDBRANCH  15  18
ENDBRANCH  12  14
TORSDOF 3
ENDMDL
MODEL      154
REMARK 921   NORMALIZED FREE ENERGY PREDICTED BY IDOCK:   -4.24 KCAL/MOL
REMARK 922        TOTAL FREE ENERGY PREDICTED BY IDOCK:   -6.35 KCAL/MOL
REMARK 923 INTER-LIGAND FREE ENERGY PREDICTED BY IDOCK:   -4.95 KCAL/MOL
REMARK 924 INTRA-LIGAND FREE ENERGY PREDICTED BY IDOCK:   -1.40 KCAL/MOL
REMARK 927      BINDING AFFINITY PREDICTED BY RF-SCORE:    0.00 PKD
ROOT
HETATM    1  C   UNL     1      -8.550  12.387  66.819  1.00  0.00    -0.129 C  
HETATM    2  S   UNL     1      -9.533  11.209  65.785  1.00  0.00    -0.228 SA 
HETATM    3  C   UNL     1     -11.123  12.134  66.011  1.00  0.00    -0.313 C  
HETATM    4  C   UNL     1     -11.999  11.973  64.765  1.00  0.00    -0.310 C  
HETATM    5  CA  UNL     1     -10.693  13.582  66.351  1.00  0.00    -0.287 C  
HETATM    6  C   UNL     1     -11.900  11.484  67.178  1.00  0.00    -0.000 C  
HETATM    7  N   UNL     1      -9.464  13.496  67.156  1.00  0.00    -0.235 N  
HETATM    8  C   UNL     1     -10.364  14.513  65.168  1.00  0.00    -0.411 C  
HETATM    9  OXT UNL     1     -10.947  14.547  64.098  1.00  0.00    -0.057 OA 
HETATM   10  O   UNL     1      -9.410  15.434  65.480  1.00  0.00    -0.237 OA 
HETATM   11  C   UNL     1      -9.531  13.176  68.486  1.00  0.00    -0.103 C  
HETATM   12  CA  UNL     1      -8.482  12.034  68.333  1.00  0.00    -0.147 C  
HETATM   13  O   UNL     1     -10.305  13.594  69.313  1.00  0.00    -0.022 OA 
ENDROOT
BRANCH  12  14
HETATM   14  N   UNL     1      -8.915  10.651  68.647  1.00  0.00    -0.162 N  
HETATM   15  C   UNL     1      -8.340   9.902  69.641  1.00  0.00    -0.172 C  
HETATM   16  H   UNL     1      -9.672  10.239  68.100  1.00  0.00     0.000 HD 
HETATM   17  O   UNL     1      -7.497  10.350  70.410  1.00  0.00    -0.209 OA 
BRANCH  15  18
HETATM   18  C   UNL     1      -8.816   8.527  69.713  1.00  0.00    -0.137 A  
HETATM   19  C   UNL     1      -9.502   7.994  70.786  1.00  0.00    -0.161 A  
HETATM   20  C   UNL     1      -9.979   8.511  72.085  1.00  0.00    -0.387 C  
HETATM   21  O   UNL     1      -9.814   6.703  70.521  1.00  0.00    -0.175 OA 
HETATM   22  N   UNL     1      -9.315   6.344  69.291  1.00  0.00    -0.137 NA 
HETATM   23  C   UNL     1      -8.700   7.428  68.789  1.00  0.00    -0.128 A  
BRANCH  23  24
HETATM   24  C   UNL     1      -8.093   7.381  67.450  1.00  0.00    -0.113 A  
HETATM   25  C   UNL     1      -8.921   7.367  66.314  1.00  0.00    -0.162 A  
HETATM   26  C   UNL     1      -8.410   7.535  65.025  1.00  0.00    -0.068 A  
HETATM   27  F   UNL     1     -10.250   7.223  66.427  1.00  0.00    -0.266 F  
HETATM   28  C   UNL     1      -7.053   7.760  64.842  1.00  0.00    -0.060 A  
HETATM   29  C   UNL     1      -6.199   7.695  65.940  1.00  0.00    -0.042 A  
HETATM   30  C   UNL     1      -6.706   7.438  67.222  1.00  0.00    -0.069 A  
HETATM   31 CL   UNL     1      -5.528   7.133  68.454  1.00  0.00    -0.020 Cl 
ENDBRANCH  23  24
ENDBRANCH  15  18
ENDBRANCH  12  14
TORSDOF 3
ENDMDL
MODEL      155
REMARK 921   NORMALIZED FREE ENERGY PREDICTED BY IDOCK:   -4.20 KCAL/MOL
REMARK 922        TOTAL FREE ENERGY PREDICTED BY IDOCK:   -6.30 KCAL/MOL
REMARK 923 INTER-LIGAND FREE ENERGY PREDICTED BY IDOCK:   -4.79 KCAL/MOL
REMARK 924 INTRA-LIGAND FREE ENERGY PREDICTED BY IDOCK:   -1.52 KCAL/MOL
REMARK 927      BINDING AFFINITY PREDICTED BY RF-SCORE:    0.00 PKD
ROOT
HETATM    1  C   UNL     1     -10.284   5.018  70.571  1.00  0.00    -0.246 C  
HETATM    2  S   UNL     1      -8.436   5.110  70.582  1.00  0.00    -0.117 SA 
HETATM    3  C   UNL     1      -8.386   6.567  71.725  1.00  0.00    -0.116 C  
HETATM    4  C   UNL     1      -7.122   6.507  72.588  1.00  0.00    -0.074 C  
HETATM    5  CA  UNL     1      -9.731   6.516  72.491  1.00  0.00    -0.158 C  
HETATM    6  C   UNL     1      -8.269   7.850  70.870  1.00  0.00    -0.103 C  
HETATM    7  N   UNL     1     -10.750   6.014  71.555  1.00  0.00    -0.246 N  
HETATM    8  C   UNL     1      -9.799   5.597  73.726  1.00  0.00    -0.175 C  
HETATM    9  OXT UNL     1      -8.908   5.420  74.540  1.00  0.00    -0.116 OA 
HETATM   10  O   UNL     1     -11.043   5.079  73.922  1.00  0.00    -0.285 OA 
HETATM   11  C   UNL     1     -11.290   6.848  70.613  1.00  0.00    -0.320 C  
HETATM   12  CA  UNL     1     -10.977   5.853  69.455  1.00  0.00    -0.368 C  
HETATM   13  O   UNL     1     -11.664   7.987  70.755  1.00  0.00    -0.278 OA 
ENDROOT
BRANCH  12  14
HETATM   14  N   UNL     1     -10.057   6.304  68.384  1.00  0.00    -0.146 N  
HETATM   15  C   UNL     1     -10.472   6.526  67.096  1.00  0.00    -0.287 C  
HETATM   16  H   UNL     1      -9.075   6.456  68.614  1.00  0.00     0.000 HD 
HETATM   17  O   UNL     1     -11.646   6.467  66.754  1.00  0.00     0.048 OA 
BRANCH  15  18
HETATM   18  C   UNL     1      -9.398   6.843  66.162  1.00  0.00    -0.089 A  
HETATM   19  C   UNL     1      -8.885   5.960  65.234  1.00  0.00    -0.019 A  
HETATM   20  C   UNL     1      -9.172   4.563  64.847  1.00  0.00    -0.156 C  
HETATM   21  O   UNL     1      -7.918   6.578  64.515  1.00  0.00    -0.115 OA 
HETATM   22  N   UNL     1      -7.745   7.863  64.972  1.00  0.00    -0.099 NA 
HETATM   23  C   UNL     1      -8.623   8.042  65.973  1.00  0.00    -0.145 A  
BRANCH  23  24
HETATM   24  C   UNL     1      -8.718   9.345  66.650  1.00  0.00    -0.143 A  
HETATM   25  C   UNL     1      -9.853  10.150  66.445  1.00  0.00    -0.222 A  
HETATM   26  C   UNL     1     -10.098  11.289  67.214  1.00  0.00    -0.214 A  
HETATM   27  F   UNL     1     -10.768   9.835  65.516  1.00  0.00    -0.134 F  
HETATM   28  C   UNL     1      -9.229  11.633  68.241  1.00  0.00    -0.187 A  
HETATM   29  C   UNL     1      -8.056  10.902  68.411  1.00  0.00    -0.131 A  
HETATM   30  C   UNL     1      -7.770   9.811  67.577  1.00  0.00    -0.095 A  
HETATM   31 CL   UNL     1      -6.178   9.146  67.722  1.00  0.00    -0.051 Cl 
ENDBRANCH  23  24
ENDBRANCH  15  18
ENDBRANCH  12  14
TORSDOF 3
ENDMDL
MODEL      156
REMARK 921   NORMALIZED FREE ENERGY PREDICTED BY IDOCK:   -4.19 KCAL/MOL
REMARK 922        TOTAL FREE ENERGY PREDICTED BY IDOCK:   -6.29 KCAL/MOL
REMARK 923 INTER-LIGAND FREE ENERGY PREDICTED BY IDOCK:   -4.68 KCAL/MOL
REMARK 924 INTRA-LIGAND FREE ENERGY PREDICTED BY IDOCK:   -1.61 KCAL/MOL
REMARK 927      BINDING AFFINITY PREDICTED BY RF-SCORE:    0.00 PKD
ROOT
HETATM    1  C   UNL     1     -10.382   8.043  70.264  1.00  0.00    -0.212 C  
HETATM    2  S   UNL     1      -9.364   7.244  68.942  1.00  0.00    -0.143 SA 
HETATM    3  C   UNL     1      -8.275   6.345  70.142  1.00  0.00    -0.129 C  
HETATM    4  C   UNL     1      -7.812   5.020  69.531  1.00  0.00    -0.068 C  
HETATM    5  CA  UNL     1      -9.120   6.234  71.436  1.00  0.00    -0.142 C  
HETATM    6  C   UNL     1      -7.001   7.190  70.368  1.00  0.00    -0.058 C  
HETATM    7  N   UNL     1      -9.923   7.463  71.541  1.00  0.00    -0.181 N  
HETATM    8  C   UNL     1     -10.118   5.064  71.523  1.00  0.00    -0.196 C  
HETATM    9  OXT UNL     1      -9.936   3.932  71.108  1.00  0.00    -0.177 OA 
HETATM   10  O   UNL     1     -11.221   5.374  72.260  1.00  0.00    -0.236 OA 
HETATM   11  C   UNL     1      -9.350   8.625  71.984  1.00  0.00    -0.292 C  
HETATM   12  CA  UNL     1      -9.860   9.426  70.749  1.00  0.00    -0.279 C  
HETATM   13  O   UNL     1      -8.598   8.775  72.917  1.00  0.00    -0.398 OA 
ENDROOT
BRANCH  12  14
HETATM   14  N   UNL     1      -8.847  10.034  69.853  1.00  0.00    -0.343 N  
HETATM   15  C   UNL     1      -9.173  10.617  68.655  1.00  0.00    -0.181 C  
HETATM   16  H   UNL     1      -7.868  10.018  70.139  1.00  0.00     0.000 HD 
HETATM   17  O   UNL     1     -10.330  10.770  68.280  1.00  0.00    -0.161 OA 
BRANCH  15  18
HETATM   18  C   UNL     1      -8.029  11.045  67.861  1.00  0.00    -0.112 A  
HETATM   19  C   UNL     1      -7.450  12.296  67.937  1.00  0.00    -0.121 A  
HETATM   20  C   UNL     1      -7.693  13.515  68.735  1.00  0.00    -0.044 C  
HETATM   21  O   UNL     1      -6.398  12.355  67.085  1.00  0.00    -0.158 OA 
HETATM   22  N   UNL     1      -6.281  11.167  66.405  1.00  0.00    -0.136 NA 
HETATM   23  C   UNL     1      -7.260  10.363  66.850  1.00  0.00    -0.099 A  
BRANCH  23  24
HETATM   24  C   UNL     1      -7.379   8.987  66.342  1.00  0.00    -0.088 A  
HETATM   25  C   UNL     1      -6.476   8.005  66.786  1.00  0.00    -0.056 A  
HETATM   26  C   UNL     1      -6.663   6.650  66.508  1.00  0.00    -0.056 A  
HETATM   27  F   UNL     1      -5.407   8.331  67.528  1.00  0.00    -0.030 F  
HETATM   28  C   UNL     1      -7.787   6.236  65.805  1.00  0.00    -0.103 A  
HETATM   29  C   UNL     1      -8.653   7.193  65.283  1.00  0.00    -0.000 A  
HETATM   30  C   UNL     1      -8.412   8.560  65.490  1.00  0.00    -0.167 A  
HETATM   31 CL   UNL     1      -9.408   9.649  64.585  1.00  0.00    -0.311 Cl 
ENDBRANCH  23  24
ENDBRANCH  15  18
ENDBRANCH  12  14
TORSDOF 3
ENDMDL
MODEL      157
REMARK 921   NORMALIZED FREE ENERGY PREDICTED BY IDOCK:   -4.18 KCAL/MOL
REMARK 922        TOTAL FREE ENERGY PREDICTED BY IDOCK:   -6.28 KCAL/MOL
REMARK 923 INTER-LIGAND FREE ENERGY PREDICTED BY IDOCK:   -5.29 KCAL/MOL
REMARK 924 INTRA-LIGAND FREE ENERGY PREDICTED BY IDOCK:   -0.99 KCAL/MOL
REMARK 927      BINDING AFFINITY PREDICTED BY RF-SCORE:    0.00 PKD
ROOT
HETATM    1  C   UNL     1      -7.774  10.101  67.036  1.00  0.00    -0.096 C  
HETATM    2  S   UNL     1      -7.230  10.551  68.746  1.00  0.00    -0.091 SA 
HETATM    3  C   UNL     1      -8.019   9.068  69.528  1.00  0.00    -0.099 C  
HETATM    4  C   UNL     1      -7.208   8.635  70.753  1.00  0.00    -0.067 C  
HETATM    5  CA  UNL     1      -8.126   8.029  68.386  1.00  0.00    -0.122 C  
HETATM    6  C   UNL     1      -9.413   9.481  70.052  1.00  0.00    -0.265 C  
HETATM    7  N   UNL     1      -8.401   8.769  67.144  1.00  0.00    -0.104 N  
HETATM    8  C   UNL     1      -6.880   7.169  68.101  1.00  0.00    -0.074 C  
HETATM    9  OXT UNL     1      -6.113   6.717  68.935  1.00  0.00    -0.024 OA 
HETATM   10  O   UNL     1      -6.775   6.821  66.788  1.00  0.00    -0.053 OA 
HETATM   11  C   UNL     1      -9.665   9.226  66.880  1.00  0.00    -0.190 C  
HETATM   12  CA  UNL     1      -9.157  10.675  66.613  1.00  0.00    -0.160 C  
HETATM   13  O   UNL     1     -10.712   8.643  67.024  1.00  0.00    -0.271 OA 
ENDROOT
BRANCH  12  14
HETATM   14  N   UNL     1      -9.654  11.757  67.498  1.00  0.00    -0.175 N  
HETATM   15  C   UNL     1      -9.855  13.040  67.057  1.00  0.00    -0.238 C  
HETATM   16  H   UNL     1      -9.853  11.537  68.474  1.00  0.00     0.000 HD 
HETATM   17  O   UNL     1      -9.739  13.367  65.883  1.00  0.00    -0.262 OA 
BRANCH  15  18
HETATM   18  C   UNL     1     -10.226  13.985  68.102  1.00  0.00    -0.243 A  
HETATM   19  C   UNL     1     -11.177  13.742  69.073  1.00  0.00    -0.272 A  
HETATM   20  C   UNL     1     -12.059  12.607  69.414  1.00  0.00    -0.236 C  
HETATM   21  O   UNL     1     -11.260  14.815  69.896  1.00  0.00    -0.256 OA 
HETATM   22  N   UNL     1     -10.398  15.797  69.472  1.00  0.00    -0.252 NA 
HETATM   23  C   UNL     1      -9.769  15.322  68.385  1.00  0.00    -0.213 A  
BRANCH  23  24
HETATM   24  C   UNL     1      -8.738  16.129  67.713  1.00  0.00    -0.174 A  
HETATM   25  C   UNL     1      -7.381  15.813  67.901  1.00  0.00    -0.136 A  
HETATM   26  C   UNL     1      -6.373  16.401  67.133  1.00  0.00    -0.215 A  
HETATM   27  F   UNL     1      -7.000  14.904  68.810  1.00  0.00    -0.094 F  
HETATM   28  C   UNL     1      -6.704  17.297  66.125  1.00  0.00    -0.204 A  
HETATM   29  C   UNL     1      -8.031  17.690  65.974  1.00  0.00    -0.175 A  
HETATM   30  C   UNL     1      -9.029  17.164  66.807  1.00  0.00    -0.241 A  
HETATM   31 CL   UNL     1     -10.585  17.914  66.689  1.00  0.00    -0.291 Cl 
ENDBRANCH  23  24
ENDBRANCH  15  18
ENDBRANCH  12  14
TORSDOF 3
ENDMDL
MODEL      158
REMARK 921   NORMALIZED FREE ENERGY PREDICTED BY IDOCK:   -4.16 KCAL/MOL
REMARK 922        TOTAL FREE ENERGY PREDICTED BY IDOCK:   -6.26 KCAL/MOL
REMARK 923 INTER-LIGAND FREE ENERGY PREDICTED BY IDOCK:   -5.43 KCAL/MOL
REMARK 924 INTRA-LIGAND FREE ENERGY PREDICTED BY IDOCK:   -0.82 KCAL/MOL
REMARK 927      BINDING AFFINITY PREDICTED BY RF-SCORE:    0.00 PKD
ROOT
HETATM    1  C   UNL     1      -9.149  13.615  67.024  1.00  0.00    -0.248 C  
HETATM    2  S   UNL     1      -9.902  12.339  65.917  1.00  0.00    -0.237 SA 
HETATM    3  C   UNL     1     -11.637  12.924  66.207  1.00  0.00    -0.372 C  
HETATM    4  C   UNL     1     -12.484  12.677  64.955  1.00  0.00    -0.564 C  
HETATM    5  CA  UNL     1     -11.488  14.403  66.642  1.00  0.00    -0.363 C  
HETATM    6  C   UNL     1     -12.257  12.062  67.330  1.00  0.00     0.415 C  
HETATM    7  N   UNL     1     -10.253  14.504  67.436  1.00  0.00    -0.240 N  
HETATM    8  C   UNL     1     -11.361  15.454  65.522  1.00  0.00    -0.164 C  
HETATM    9  OXT UNL     1     -11.956  15.444  64.457  1.00  0.00    -0.358 OA 
HETATM   10  O   UNL     1     -10.597  16.519  65.892  1.00  0.00    -0.325 OA 
HETATM   11  C   UNL     1     -10.238  14.092  68.742  1.00  0.00    -0.215 C  
HETATM   12  CA  UNL     1      -8.992  13.185  68.512  1.00  0.00    -0.048 C  
HETATM   13  O   UNL     1     -11.066  14.299  69.596  1.00  0.00    -0.242 OA 
ENDROOT
BRANCH  12  14
HETATM   14  N   UNL     1      -9.146  11.727  68.734  1.00  0.00    -0.379 N  
HETATM   15  C   UNL     1      -8.080  10.897  68.970  1.00  0.00    -0.126 C  
HETATM   16  H   UNL     1     -10.084  11.326  68.711  1.00  0.00     0.000 HD 
HETATM   17  O   UNL     1      -6.935  11.307  69.114  1.00  0.00    -0.095 OA 
BRANCH  15  18
HETATM   18  C   UNL     1      -8.422   9.482  69.039  1.00  0.00    -0.128 A  
HETATM   19  C   UNL     1      -8.953   8.755  67.992  1.00  0.00    -0.140 A  
HETATM   20  C   UNL     1      -9.320   9.051  66.592  1.00  0.00    -0.229 C  
HETATM   21  O   UNL     1      -9.131   7.471  68.384  1.00  0.00    -0.134 OA 
HETATM   22  N   UNL     1      -8.758   7.328  69.699  1.00  0.00    -0.141 NA 
HETATM   23  C   UNL     1      -8.335   8.532  70.118  1.00  0.00    -0.123 A  
BRANCH  23  24
HETATM   24  C   UNL     1      -7.822   8.702  71.487  1.00  0.00    -0.163 A  
HETATM   25  C   UNL     1      -8.712   8.641  72.573  1.00  0.00    -0.062 A  
HETATM   26  C   UNL     1      -8.262   8.584  73.894  1.00  0.00    -0.061 A  
HETATM   27  F   UNL     1     -10.039   8.603  72.380  1.00  0.00    -0.345 F  
HETATM   28  C   UNL     1      -6.900   8.548  74.161  1.00  0.00    -0.147 A  
HETATM   29  C   UNL     1      -5.997   8.690  73.111  1.00  0.00    -0.097 A  
HETATM   30  C   UNL     1      -6.456   8.837  71.793  1.00  0.00    -0.073 A  
HETATM   31 CL   UNL     1      -5.256   9.257  70.617  1.00  0.00    -0.027 Cl 
ENDBRANCH  23  24
ENDBRANCH  15  18
ENDBRANCH  12  14
TORSDOF 3
ENDMDL
MODEL      159
REMARK 921   NORMALIZED FREE ENERGY PREDICTED BY IDOCK:   -4.16 KCAL/MOL
REMARK 922        TOTAL FREE ENERGY PREDICTED BY IDOCK:   -6.25 KCAL/MOL
REMARK 923 INTER-LIGAND FREE ENERGY PREDICTED BY IDOCK:   -4.93 KCAL/MOL
REMARK 924 INTRA-LIGAND FREE ENERGY PREDICTED BY IDOCK:   -1.32 KCAL/MOL
REMARK 927      BINDING AFFINITY PREDICTED BY RF-SCORE:    0.00 PKD
ROOT
HETATM    1  C   UNL     1     -11.181  10.922  67.597  1.00  0.00    -0.309 C  
HETATM    2  S   UNL     1      -9.918  11.699  68.703  1.00  0.00    -0.144 SA 
HETATM    3  C   UNL     1      -9.076  12.603  67.322  1.00  0.00    -0.191 C  
HETATM    4  C   UNL     1      -8.490  13.919  67.844  1.00  0.00    -0.177 C  
HETATM    5  CA  UNL     1     -10.155  12.735  66.219  1.00  0.00    -0.259 C  
HETATM    6  C   UNL     1      -7.878  11.752  66.845  1.00  0.00    -0.141 C  
HETATM    7  N   UNL     1     -10.975  11.513  66.261  1.00  0.00    -0.289 N  
HETATM    8  C   UNL     1     -11.141  13.913  66.339  1.00  0.00    -0.309 C  
HETATM    9  OXT UNL     1     -10.871  15.039  66.722  1.00  0.00    -0.307 OA 
HETATM   10  O   UNL     1     -12.369  13.619  65.828  1.00  0.00    -0.433 OA 
HETATM   11  C   UNL     1     -10.510  10.352  65.703  1.00  0.00    -0.115 C  
HETATM   12  CA  UNL     1     -10.777   9.540  67.006  1.00  0.00    -0.149 C  
HETATM   13  O   UNL     1      -9.955  10.207  64.641  1.00  0.00    -0.328 OA 
ENDROOT
BRANCH  12  14
HETATM   14  N   UNL     1      -9.615   8.915  67.683  1.00  0.00    -0.144 N  
HETATM   15  C   UNL     1      -9.740   7.852  68.539  1.00  0.00    -0.161 C  
HETATM   16  H   UNL     1      -8.684   9.292  67.504  1.00  0.00     0.000 HD 
HETATM   17  O   UNL     1     -10.803   7.273  68.733  1.00  0.00    -0.180 OA 
BRANCH  15  18
HETATM   18  C   UNL     1      -8.502   7.460  69.200  1.00  0.00    -0.133 A  
HETATM   19  C   UNL     1      -8.080   7.948  70.420  1.00  0.00    -0.114 A  
HETATM   20  C   UNL     1      -8.623   8.898  71.412  1.00  0.00    -0.238 C  
HETATM   21  O   UNL     1      -6.904   7.363  70.754  1.00  0.00    -0.047 OA 
HETATM   22  N   UNL     1      -6.507   6.508  69.754  1.00  0.00    -0.042 NA 
HETATM   23  C   UNL     1      -7.452   6.557  68.800  1.00  0.00    -0.088 A  
BRANCH  23  24
HETATM   24  C   UNL     1      -7.340   5.711  67.602  1.00  0.00    -0.077 A  
HETATM   25  C   UNL     1      -6.415   6.051  66.599  1.00  0.00    -0.050 A  
HETATM   26  C   UNL     1      -6.114   5.183  65.547  1.00  0.00    -0.033 A  
HETATM   27  F   UNL     1      -5.757   7.219  66.629  1.00  0.00    -0.021 F  
HETATM   28  C   UNL     1      -6.706   3.928  65.494  1.00  0.00    -0.049 A  
HETATM   29  C   UNL     1      -7.686   3.599  66.426  1.00  0.00    -0.085 A  
HETATM   30  C   UNL     1      -8.050   4.510  67.429  1.00  0.00    -0.101 A  
HETATM   31 CL   UNL     1      -9.445   4.089  68.364  1.00  0.00    -0.216 Cl 
ENDBRANCH  23  24
ENDBRANCH  15  18
ENDBRANCH  12  14
TORSDOF 3
ENDMDL
MODEL      160
REMARK 921   NORMALIZED FREE ENERGY PREDICTED BY IDOCK:   -4.14 KCAL/MOL
REMARK 922        TOTAL FREE ENERGY PREDICTED BY IDOCK:   -6.24 KCAL/MOL
REMARK 923 INTER-LIGAND FREE ENERGY PREDICTED BY IDOCK:   -5.09 KCAL/MOL
REMARK 924 INTRA-LIGAND FREE ENERGY PREDICTED BY IDOCK:   -1.15 KCAL/MOL
REMARK 927      BINDING AFFINITY PREDICTED BY RF-SCORE:    0.00 PKD
ROOT
HETATM    1  C   UNL     1     -10.182   7.996  67.330  1.00  0.00    -0.261 C  
HETATM    2  S   UNL     1      -9.409   8.574  65.752  1.00  0.00    -0.048 SA 
HETATM    3  C   UNL     1      -7.979   7.402  65.871  1.00  0.00    -0.118 C  
HETATM    4  C   UNL     1      -7.519   7.000  64.467  1.00  0.00    -0.099 C  
HETATM    5  CA  UNL     1      -8.486   6.249  66.772  1.00  0.00    -0.111 C  
HETATM    6  C   UNL     1      -6.793   8.149  66.522  1.00  0.00    -0.067 C  
HETATM    7  N   UNL     1      -9.380   6.841  67.780  1.00  0.00    -0.117 N  
HETATM    8  C   UNL     1      -9.297   5.131  66.089  1.00  0.00    -0.155 C  
HETATM    9  OXT UNL     1      -9.086   4.664  64.982  1.00  0.00    -0.150 OA 
HETATM   10  O   UNL     1     -10.230   4.583  66.917  1.00  0.00    -0.201 OA 
HETATM   11  C   UNL     1      -8.858   7.493  68.865  1.00  0.00    -0.135 C  
HETATM   12  CA  UNL     1      -9.726   8.761  68.606  1.00  0.00    -0.162 C  
HETATM   13  O   UNL     1      -7.935   7.152  69.565  1.00  0.00    -0.122 OA 
ENDROOT
BRANCH  12  14
HETATM   14  N   UNL     1      -9.022  10.035  68.321  1.00  0.00    -0.119 N  
HETATM   15  C   UNL     1      -9.590  11.262  68.551  1.00  0.00    -0.198 C  
HETATM   16  H   UNL     1      -8.077   9.997  67.939  1.00  0.00     0.000 HD 
HETATM   17  O   UNL     1     -10.675  11.402  69.101  1.00  0.00    -0.216 OA 
BRANCH  15  18
HETATM   18  C   UNL     1      -8.791  12.391  68.092  1.00  0.00    -0.191 A  
HETATM   19  C   UNL     1      -7.492  12.640  68.486  1.00  0.00    -0.121 A  
HETATM   20  C   UNL     1      -6.520  11.969  69.375  1.00  0.00    -0.115 C  
HETATM   21  O   UNL     1      -7.039  13.752  67.859  1.00  0.00    -0.121 OA 
HETATM   22  N   UNL     1      -8.032  14.280  67.069  1.00  0.00    -0.080 NA 
HETATM   23  C   UNL     1      -9.103  13.480  67.202  1.00  0.00    -0.232 A  
BRANCH  23  24
HETATM   24  C   UNL     1     -10.331  13.754  66.439  1.00  0.00    -0.290 A  
HETATM   25  C   UNL     1     -10.378  13.447  65.068  1.00  0.00    -0.347 A  
HETATM   26  C   UNL     1     -11.572  13.486  64.344  1.00  0.00    -0.429 A  
HETATM   27  F   UNL     1      -9.276  13.070  64.404  1.00  0.00     0.349 F  
HETATM   28  C   UNL     1     -12.762  13.799  64.986  1.00  0.00    -0.379 A  
HETATM   29  C   UNL     1     -12.732  14.188  66.322  1.00  0.00    -0.164 A  
HETATM   30  C   UNL     1     -11.517  14.233  67.023  1.00  0.00    -0.361 A  
HETATM   31 CL   UNL     1     -11.575  14.969  68.589  1.00  0.00    -0.330 Cl 
ENDBRANCH  23  24
ENDBRANCH  15  18
ENDBRANCH  12  14
TORSDOF 3
ENDMDL
MODEL      161
REMARK 921   NORMALIZED FREE ENERGY PREDICTED BY IDOCK:   -4.13 KCAL/MOL
REMARK 922        TOTAL FREE ENERGY PREDICTED BY IDOCK:   -6.21 KCAL/MOL
REMARK 923 INTER-LIGAND FREE ENERGY PREDICTED BY IDOCK:   -5.50 KCAL/MOL
REMARK 924 INTRA-LIGAND FREE ENERGY PREDICTED BY IDOCK:   -0.71 KCAL/MOL
REMARK 927      BINDING AFFINITY PREDICTED BY RF-SCORE:    0.00 PKD
ROOT
HETATM    1  C   UNL     1      -9.514  12.572  68.180  1.00  0.00    -0.214 C  
HETATM    2  S   UNL     1      -8.812  12.353  66.482  1.00  0.00    -0.038 SA 
HETATM    3  C   UNL     1     -10.473  12.280  65.663  1.00  0.00    -0.261 C  
HETATM    4  C   UNL     1     -10.381  12.859  64.249  1.00  0.00    -0.396 C  
HETATM    5  CA  UNL     1     -11.426  13.019  66.635  1.00  0.00    -0.336 C  
HETATM    6  C   UNL     1     -10.869  10.795  65.502  1.00  0.00    -0.061 C  
HETATM    7  N   UNL     1     -10.972  12.723  68.004  1.00  0.00    -0.229 N  
HETATM    8  C   UNL     1     -11.482  14.555  66.529  1.00  0.00    -0.362 C  
HETATM    9  OXT UNL     1     -11.435  15.206  65.499  1.00  0.00    -0.312 OA 
HETATM   10  O   UNL     1     -11.741  15.151  67.727  1.00  0.00    -0.331 OA 
HETATM   11  C   UNL     1     -11.272  11.520  68.584  1.00  0.00    -0.248 C  
HETATM   12  CA  UNL     1      -9.783  11.251  68.956  1.00  0.00    -0.054 C  
HETATM   13  O   UNL     1     -12.325  10.929  68.571  1.00  0.00    -0.490 OA 
ENDROOT
BRANCH  12  14
HETATM   14  N   UNL     1      -9.125  10.062  68.363  1.00  0.00    -0.119 N  
HETATM   15  C   UNL     1      -9.453   8.779  68.719  1.00  0.00    -0.142 C  
HETATM   16  H   UNL     1      -8.398  10.204  67.661  1.00  0.00     0.000 HD 
HETATM   17  O   UNL     1     -10.380   8.513  69.475  1.00  0.00    -0.210 OA 
BRANCH  15  18
HETATM   18  C   UNL     1      -8.611   7.752  68.119  1.00  0.00    -0.123 A  
HETATM   19  C   UNL     1      -8.150   7.783  66.818  1.00  0.00    -0.115 A  
HETATM   20  C   UNL     1      -8.277   8.721  65.684  1.00  0.00    -0.121 C  
HETATM   21  O   UNL     1      -7.380   6.692  66.591  1.00  0.00    -0.075 OA 
HETATM   22  N   UNL     1      -7.344   5.902  67.715  1.00  0.00    -0.076 NA 
HETATM   23  C   UNL     1      -8.088   6.518  68.648  1.00  0.00    -0.118 A  
BRANCH  23  24
HETATM   24  C   UNL     1      -8.214   5.940  69.996  1.00  0.00    -0.121 A  
HETATM   25  C   UNL     1      -9.334   5.150  70.308  1.00  0.00    -0.156 A  
HETATM   26  C   UNL     1      -9.407   4.408  71.489  1.00  0.00    -0.203 A  
HETATM   27  F   UNL     1     -10.371   5.053  69.463  1.00  0.00    -0.285 F  
HETATM   28  C   UNL     1      -8.338   4.407  72.374  1.00  0.00    -0.109 A  
HETATM   29  C   UNL     1      -7.253   5.244  72.131  1.00  0.00    -0.087 A  
HETATM   30  C   UNL     1      -7.224   6.057  70.987  1.00  0.00    -0.074 A  
HETATM   31 CL   UNL     1      -5.952   7.230  70.926  1.00  0.00    -0.035 Cl 
ENDBRANCH  23  24
ENDBRANCH  15  18
ENDBRANCH  12  14
TORSDOF 3
ENDMDL
MODEL      162
REMARK 921   NORMALIZED FREE ENERGY PREDICTED BY IDOCK:   -4.12 KCAL/MOL
REMARK 922        TOTAL FREE ENERGY PREDICTED BY IDOCK:   -6.20 KCAL/MOL
REMARK 923 INTER-LIGAND FREE ENERGY PREDICTED BY IDOCK:   -5.19 KCAL/MOL
REMARK 924 INTRA-LIGAND FREE ENERGY PREDICTED BY IDOCK:   -1.01 KCAL/MOL
REMARK 927      BINDING AFFINITY PREDICTED BY RF-SCORE:    0.00 PKD
ROOT
HETATM    1  C   UNL     1     -11.346  11.252  67.235  1.00  0.00    -0.255 C  
HETATM    2  S   UNL     1     -10.825  12.712  68.243  1.00  0.00    -0.250 SA 
HETATM    3  C   UNL     1     -10.171  13.650  66.785  1.00  0.00    -0.268 C  
HETATM    4  C   UNL     1     -10.344  15.154  67.015  1.00  0.00    -0.271 C  
HETATM    5  CA  UNL     1     -10.925  13.062  65.567  1.00  0.00    -0.274 C  
HETATM    6  C   UNL     1      -8.650  13.396  66.687  1.00  0.00     0.051 C  
HETATM    7  N   UNL     1     -11.123  11.627  65.825  1.00  0.00    -0.287 N  
HETATM    8  C   UNL     1     -12.322  13.636  65.262  1.00  0.00    -0.465 C  
HETATM    9  OXT UNL     1     -12.658  14.803  65.370  1.00  0.00    -0.169 OA 
HETATM   10  O   UNL     1     -13.154  12.713  64.704  1.00  0.00    -0.821 OA 
HETATM   11  C   UNL     1     -10.091  10.745  65.644  1.00  0.00    -0.267 C  
HETATM   12  CA  UNL     1     -10.264  10.145  67.072  1.00  0.00    -0.234 C  
HETATM   13  O   UNL     1      -9.306  10.696  64.727  1.00  0.00    -0.201 OA 
ENDROOT
BRANCH  12  14
HETATM   14  N   UNL     1      -9.129  10.272  68.018  1.00  0.00    -0.131 N  
HETATM   15  C   UNL     1      -8.128   9.338  68.102  1.00  0.00    -0.107 C  
HETATM   16  H   UNL     1      -9.092  11.086  68.631  1.00  0.00     0.000 HD 
HETATM   17  O   UNL     1      -8.038   8.385  67.337  1.00  0.00    -0.105 OA 
BRANCH  15  18
HETATM   18  C   UNL     1      -7.171   9.575  69.176  1.00  0.00    -0.067 A  
HETATM   19  C   UNL     1      -6.388  10.706  69.288  1.00  0.00    -0.057 A  
HETATM   20  C   UNL     1      -6.230  11.952  68.510  1.00  0.00    -0.052 C  
HETATM   21  O   UNL     1      -5.630  10.616  70.407  1.00  0.00    -0.063 OA 
HETATM   22  N   UNL     1      -5.866   9.417  71.036  1.00  0.00    -0.058 NA 
HETATM   23  C   UNL     1      -6.786   8.767  70.305  1.00  0.00    -0.042 A  
BRANCH  23  24
HETATM   24  C   UNL     1      -7.290   7.456  70.744  1.00  0.00    -0.069 A  
HETATM   25  C   UNL     1      -8.437   7.391  71.554  1.00  0.00    -0.112 A  
HETATM   26  C   UNL     1      -9.081   6.182  71.826  1.00  0.00    -0.145 A  
HETATM   27  F   UNL     1      -8.981   8.500  72.077  1.00  0.00    -0.211 F  
HETATM   28  C   UNL     1      -8.612   5.004  71.259  1.00  0.00    -0.132 A  
HETATM   29  C   UNL     1      -7.432   5.028  70.521  1.00  0.00    -0.062 A  
HETATM   30  C   UNL     1      -6.739   6.232  70.325  1.00  0.00    -0.053 A  
HETATM   31 CL   UNL     1      -5.167   6.093  69.613  1.00  0.00    -0.011 Cl 
ENDBRANCH  23  24
ENDBRANCH  15  18
ENDBRANCH  12  14
TORSDOF 3
ENDMDL
MODEL      163
REMARK 921   NORMALIZED FREE ENERGY PREDICTED BY IDOCK:   -4.11 KCAL/MOL
REMARK 922        TOTAL FREE ENERGY PREDICTED BY IDOCK:   -6.20 KCAL/MOL
REMARK 923 INTER-LIGAND FREE ENERGY PREDICTED BY IDOCK:   -4.92 KCAL/MOL
REMARK 924 INTRA-LIGAND FREE ENERGY PREDICTED BY IDOCK:   -1.28 KCAL/MOL
REMARK 927      BINDING AFFINITY PREDICTED BY RF-SCORE:    0.00 PKD
ROOT
HETATM    1  C   UNL     1      -9.511   6.064  70.893  1.00  0.00    -0.168 C  
HETATM    2  S   UNL     1      -7.751   6.624  70.783  1.00  0.00    -0.099 SA 
HETATM    3  C   UNL     1      -8.098   8.286  71.523  1.00  0.00    -0.130 C  
HETATM    4  C   UNL     1      -6.874   8.771  72.305  1.00  0.00    -0.007 C  
HETATM    5  CA  UNL     1      -9.393   8.089  72.349  1.00  0.00    -0.208 C  
HETATM    6  C   UNL     1      -8.307   9.296  70.372  1.00  0.00    -0.224 C  
HETATM    7  N   UNL     1     -10.233   7.124  71.623  1.00  0.00    -0.193 N  
HETATM    8  C   UNL     1      -9.237   7.528  73.776  1.00  0.00    -0.275 C  
HETATM    9  OXT UNL     1      -8.341   7.797  74.559  1.00  0.00    -0.218 OA 
HETATM   10  O   UNL     1     -10.306   6.777  74.160  1.00  0.00    -0.368 OA 
HETATM   11  C   UNL     1     -10.959   7.525  70.533  1.00  0.00    -0.252 C  
HETATM   12  CA  UNL     1     -10.382   6.383  69.644  1.00  0.00    -0.204 C  
HETATM   13  O   UNL     1     -11.619   8.529  70.407  1.00  0.00    -0.204 OA 
ENDROOT
BRANCH  12  14
HETATM   14  N   UNL     1      -9.597   6.767  68.446  1.00  0.00    -0.126 N  
HETATM   15  C   UNL     1     -10.175   6.998  67.224  1.00  0.00    -0.234 C  
HETATM   16  H   UNL     1      -8.585   6.863  68.535  1.00  0.00     0.000 HD 
HETATM   17  O   UNL     1     -11.387   7.005  67.051  1.00  0.00    -0.238 OA 
BRANCH  15  18
HETATM   18  C   UNL     1      -9.226   7.241  66.145  1.00  0.00    -0.136 A  
HETATM   19  C   UNL     1      -8.974   8.481  65.592  1.00  0.00    -0.160 A  
HETATM   20  C   UNL     1      -9.462   9.854  65.834  1.00  0.00    -0.272 C  
HETATM   21  O   UNL     1      -8.028   8.358  64.630  1.00  0.00    -0.131 OA 
HETATM   22  N   UNL     1      -7.661   7.040  64.502  1.00  0.00    -0.108 NA 
HETATM   23  C   UNL     1      -8.379   6.345  65.400  1.00  0.00    -0.141 A  
BRANCH  23  24
HETATM   24  C   UNL     1      -8.183   4.894  65.543  1.00  0.00    -0.116 A  
HETATM   25  C   UNL     1      -9.245   4.020  65.256  1.00  0.00    -0.151 A  
HETATM   26  C   UNL     1      -9.062   2.638  65.169  1.00  0.00    -0.140 A  
HETATM   27  F   UNL     1     -10.482   4.485  65.021  1.00  0.00    -0.212 F  
HETATM   28  C   UNL     1      -7.794   2.096  65.331  1.00  0.00    -0.077 A  
HETATM   29  C   UNL     1      -6.741   2.929  65.698  1.00  0.00    -0.043 A  
HETATM   30  C   UNL     1      -6.949   4.305  65.872  1.00  0.00    -0.066 A  
HETATM   31 CL   UNL     1      -5.632   5.187  66.569  1.00  0.00    -0.016 Cl 
ENDBRANCH  23  24
ENDBRANCH  15  18
ENDBRANCH  12  14
TORSDOF 3
ENDMDL
MODEL      164
REMARK 921   NORMALIZED FREE ENERGY PREDICTED BY IDOCK:   -4.10 KCAL/MOL
REMARK 922        TOTAL FREE ENERGY PREDICTED BY IDOCK:   -6.18 KCAL/MOL
REMARK 923 INTER-LIGAND FREE ENERGY PREDICTED BY IDOCK:   -4.91 KCAL/MOL
REMARK 924 INTRA-LIGAND FREE ENERGY PREDICTED BY IDOCK:   -1.27 KCAL/MOL
REMARK 927      BINDING AFFINITY PREDICTED BY RF-SCORE:    0.00 PKD
ROOT
HETATM    1  C   UNL     1     -11.452   7.970  70.382  1.00  0.00    -0.135 C  
HETATM    2  S   UNL     1     -11.067   6.971  68.874  1.00  0.00     0.019 SA 
HETATM    3  C   UNL     1      -9.428   6.393  69.516  1.00  0.00    -0.145 C  
HETATM    4  C   UNL     1      -9.119   4.996  68.969  1.00  0.00    -0.140 C  
HETATM    5  CA  UNL     1      -9.544   6.505  71.056  1.00  0.00    -0.175 C  
HETATM    6  C   UNL     1      -8.332   7.331  68.960  1.00  0.00    -0.126 C  
HETATM    7  N   UNL     1     -10.372   7.687  71.348  1.00  0.00    -0.197 N  
HETATM    8  C   UNL     1     -10.207   5.328  71.797  1.00  0.00    -0.210 C  
HETATM    9  OXT UNL     1     -10.080   4.146  71.525  1.00  0.00    -0.179 OA 
HETATM   10  O   UNL     1     -10.868   5.725  72.919  1.00  0.00    -0.228 OA 
HETATM   11  C   UNL     1      -9.832   8.943  71.271  1.00  0.00    -0.291 C  
HETATM   12  CA  UNL     1     -10.968   9.448  70.333  1.00  0.00    -0.266 C  
HETATM   13  O   UNL     1      -8.761   9.318  71.685  1.00  0.00    -0.312 OA 
ENDROOT
BRANCH  12  14
HETATM   14  N   UNL     1     -10.591   9.911  68.976  1.00  0.00    -0.212 N  
HETATM   15  C   UNL     1     -10.556  11.238  68.630  1.00  0.00    -0.202 C  
HETATM   16  H   UNL     1     -10.348   9.215  68.271  1.00  0.00     0.000 HD 
HETATM   17  O   UNL     1     -10.733  12.143  69.436  1.00  0.00    -0.067 OA 
BRANCH  15  18
HETATM   18  C   UNL     1     -10.284  11.486  67.220  1.00  0.00    -0.229 A  
HETATM   19  C   UNL     1     -11.088  12.242  66.391  1.00  0.00    -0.303 A  
HETATM   20  C   UNL     1     -12.341  13.007  66.561  1.00  0.00    -0.175 C  
HETATM   21  O   UNL     1     -10.539  12.289  65.154  1.00  0.00    -0.268 OA 
HETATM   22  N   UNL     1      -9.386  11.541  65.126  1.00  0.00    -0.165 NA 
HETATM   23  C   UNL     1      -9.217  11.038  66.360  1.00  0.00    -0.175 A  
BRANCH  23  24
HETATM   24  C   UNL     1      -8.036  10.219  66.672  1.00  0.00    -0.116 A  
HETATM   25  C   UNL     1      -7.865   8.979  66.031  1.00  0.00    -0.102 A  
HETATM   26  C   UNL     1      -6.672   8.258  66.123  1.00  0.00    -0.054 A  
HETATM   27  F   UNL     1      -8.837   8.450  65.273  1.00  0.00    -0.193 F  
HETATM   28  C   UNL     1      -5.600   8.782  66.833  1.00  0.00    -0.041 A  
HETATM   29  C   UNL     1      -5.769   9.966  67.545  1.00  0.00    -0.042 A  
HETATM   30  C   UNL     1      -6.998  10.641  67.522  1.00  0.00    -0.083 A  
HETATM   31 CL   UNL     1      -7.162  11.953  68.639  1.00  0.00    -0.104 Cl 
ENDBRANCH  23  24
ENDBRANCH  15  18
ENDBRANCH  12  14
TORSDOF 3
ENDMDL
MODEL      165
REMARK 921   NORMALIZED FREE ENERGY PREDICTED BY IDOCK:   -4.07 KCAL/MOL
REMARK 922        TOTAL FREE ENERGY PREDICTED BY IDOCK:   -6.15 KCAL/MOL
REMARK 923 INTER-LIGAND FREE ENERGY PREDICTED BY IDOCK:   -4.82 KCAL/MOL
REMARK 924 INTRA-LIGAND FREE ENERGY PREDICTED BY IDOCK:   -1.33 KCAL/MOL
REMARK 927      BINDING AFFINITY PREDICTED BY RF-SCORE:    0.00 PKD
ROOT
HETATM    1  C   UNL     1      -9.802  10.592  68.531  1.00  0.00    -0.168 C  
HETATM    2  S   UNL     1      -8.181  10.078  69.261  1.00  0.00    -0.161 SA 
HETATM    3  C   UNL     1      -7.237  10.361  67.691  1.00  0.00    -0.086 C  
HETATM    4  C   UNL     1      -5.804  10.791  68.018  1.00  0.00    -0.042 C  
HETATM    5  CA  UNL     1      -8.086  11.385  66.898  1.00  0.00    -0.158 C  
HETATM    6  C   UNL     1      -7.127   9.014  66.942  1.00  0.00    -0.078 C  
HETATM    7  N   UNL     1      -9.501  11.088  67.174  1.00  0.00    -0.164 N  
HETATM    8  C   UNL     1      -7.889  12.874  67.241  1.00  0.00    -0.131 C  
HETATM    9  OXT UNL     1      -6.831  13.414  67.518  1.00  0.00    -0.160 OA 
HETATM   10  O   UNL     1      -9.026  13.604  67.066  1.00  0.00    -0.227 OA 
HETATM   11  C   UNL     1     -10.122  10.045  66.541  1.00  0.00    -0.232 C  
HETATM   12  CA  UNL     1     -10.627   9.442  67.886  1.00  0.00    -0.237 C  
HETATM   13  O   UNL     1     -10.057   9.737  65.375  1.00  0.00    -0.305 OA 
ENDROOT
BRANCH  12  14
HETATM   14  N   UNL     1     -10.156   8.085  68.256  1.00  0.00    -0.190 N  
HETATM   15  C   UNL     1     -10.663   6.945  67.687  1.00  0.00    -0.274 C  
HETATM   16  H   UNL     1      -9.426   7.996  68.963  1.00  0.00     0.000 HD 
HETATM   17  O   UNL     1     -11.466   6.961  66.762  1.00  0.00    -0.007 OA 
BRANCH  15  18
HETATM   18  C   UNL     1     -10.164   5.706  68.271  1.00  0.00    -0.239 A  
HETATM   19  C   UNL     1     -10.397   5.306  69.571  1.00  0.00    -0.263 A  
HETATM   20  C   UNL     1     -11.142   5.862  70.720  1.00  0.00    -0.324 C  
HETATM   21  O   UNL     1      -9.811   4.103  69.782  1.00  0.00    -0.215 OA 
HETATM   22  N   UNL     1      -9.152   3.699  68.645  1.00  0.00    -0.129 NA 
HETATM   23  C   UNL     1      -9.343   4.656  67.722  1.00  0.00    -0.141 A  
BRANCH  23  24
HETATM   24  C   UNL     1      -8.794   4.498  66.366  1.00  0.00    -0.113 A  
HETATM   25  C   UNL     1      -9.670   4.336  65.279  1.00  0.00    -0.197 A  
HETATM   26  C   UNL     1      -9.224   4.392  63.957  1.00  0.00    -0.135 A  
HETATM   27  F   UNL     1     -10.985   4.150  65.469  1.00  0.00    -0.183 F  
HETATM   28  C   UNL     1      -7.887   4.653  63.687  1.00  0.00    -0.083 A  
HETATM   29  C   UNL     1      -6.984   4.735  64.743  1.00  0.00    -0.050 A  
HETATM   30  C   UNL     1      -7.423   4.588  66.068  1.00  0.00    -0.085 A  
HETATM   31 CL   UNL     1      -6.180   4.458  67.266  1.00  0.00    -0.038 Cl 
ENDBRANCH  23  24
ENDBRANCH  15  18
ENDBRANCH  12  14
TORSDOF 3
ENDMDL
MODEL      166
REMARK 921   NORMALIZED FREE ENERGY PREDICTED BY IDOCK:   -4.06 KCAL/MOL
REMARK 922        TOTAL FREE ENERGY PREDICTED BY IDOCK:   -6.13 KCAL/MOL
REMARK 923 INTER-LIGAND FREE ENERGY PREDICTED BY IDOCK:   -4.75 KCAL/MOL
REMARK 924 INTRA-LIGAND FREE ENERGY PREDICTED BY IDOCK:   -1.38 KCAL/MOL
REMARK 927      BINDING AFFINITY PREDICTED BY RF-SCORE:    0.00 PKD
ROOT
HETATM    1  C   UNL     1     -10.456  11.363  68.294  1.00  0.00    -0.198 C  
HETATM    2  S   UNL     1      -8.756  11.700  68.941  1.00  0.00     0.185 SA 
HETATM    3  C   UNL     1      -8.083  12.191  67.285  1.00  0.00    -0.176 C  
HETATM    4  C   UNL     1      -6.982  13.241  67.463  1.00  0.00    -0.152 C  
HETATM    5  CA  UNL     1      -9.321  12.640  66.472  1.00  0.00    -0.228 C  
HETATM    6  C   UNL     1      -7.406  10.954  66.652  1.00  0.00    -0.139 C  
HETATM    7  N   UNL     1     -10.447  11.785  66.879  1.00  0.00    -0.216 N  
HETATM    8  C   UNL     1      -9.798  14.092  66.666  1.00  0.00    -0.283 C  
HETATM    9  OXT UNL     1      -9.084  15.070  66.813  1.00  0.00    -0.229 OA 
HETATM   10  O   UNL     1     -11.146  14.223  66.515  1.00  0.00    -0.311 OA 
HETATM   11  C   UNL     1     -10.557  10.510  66.389  1.00  0.00    -0.149 C  
HETATM   12  CA  UNL     1     -10.701   9.903  67.817  1.00  0.00    -0.277 C  
HETATM   13  O   UNL     1     -10.395  10.134  65.254  1.00  0.00    -0.266 OA 
ENDROOT
BRANCH  12  14
HETATM   14  N   UNL     1      -9.665   8.942  68.268  1.00  0.00    -0.154 N  
HETATM   15  C   UNL     1      -9.828   8.140  69.368  1.00  0.00    -0.182 C  
HETATM   16  H   UNL     1      -8.796   8.876  67.739  1.00  0.00     0.000 HD 
HETATM   17  O   UNL     1     -10.876   8.080  70.001  1.00  0.00    -0.248 OA 
BRANCH  15  18
HETATM   18  C   UNL     1      -8.652   7.357  69.723  1.00  0.00    -0.140 A  
HETATM   19  C   UNL     1      -7.892   7.561  70.858  1.00  0.00    -0.094 A  
HETATM   20  C   UNL     1      -7.951   8.489  72.006  1.00  0.00    -0.160 C  
HETATM   21  O   UNL     1      -6.889   6.651  70.894  1.00  0.00    -0.059 OA 
HETATM   22  N   UNL     1      -6.941   5.853  69.776  1.00  0.00    -0.064 NA 
HETATM   23  C   UNL     1      -7.992   6.267  69.050  1.00  0.00    -0.110 A  
BRANCH  23  24
HETATM   24  C   UNL     1      -8.347   5.578  67.799  1.00  0.00    -0.099 A  
HETATM   25  C   UNL     1      -9.243   4.496  67.835  1.00  0.00    -0.131 A  
HETATM   26  C   UNL     1      -9.778   3.941  66.671  1.00  0.00    -0.189 A  
HETATM   27  F   UNL     1      -9.649   3.970  69.001  1.00  0.00    -0.209 F  
HETATM   28  C   UNL     1      -9.456   4.483  65.434  1.00  0.00    -0.175 A  
HETATM   29  C   UNL     1      -8.507   5.499  65.363  1.00  0.00    -0.146 A  
HETATM   30  C   UNL     1      -7.906   5.994  66.530  1.00  0.00    -0.104 A  
HETATM   31 CL   UNL     1      -6.570   7.070  66.295  1.00  0.00    -0.051 Cl 
ENDBRANCH  23  24
ENDBRANCH  15  18
ENDBRANCH  12  14
TORSDOF 3
ENDMDL
MODEL      167
REMARK 921   NORMALIZED FREE ENERGY PREDICTED BY IDOCK:   -4.06 KCAL/MOL
REMARK 922        TOTAL FREE ENERGY PREDICTED BY IDOCK:   -6.13 KCAL/MOL
REMARK 923 INTER-LIGAND FREE ENERGY PREDICTED BY IDOCK:   -4.77 KCAL/MOL
REMARK 924 INTRA-LIGAND FREE ENERGY PREDICTED BY IDOCK:   -1.36 KCAL/MOL
REMARK 927      BINDING AFFINITY PREDICTED BY RF-SCORE:    0.00 PKD
ROOT
HETATM    1  C   UNL     1     -11.095   5.994  69.619  1.00  0.00    -0.404 C  
HETATM    2  S   UNL     1      -9.714   4.984  70.324  1.00  0.00    -0.236 SA 
HETATM    3  C   UNL     1      -8.898   6.433  71.142  1.00  0.00    -0.138 C  
HETATM    4  C   UNL     1      -8.191   5.977  72.421  1.00  0.00    -0.109 C  
HETATM    5  CA  UNL     1     -10.032   7.471  71.330  1.00  0.00    -0.186 C  
HETATM    6  C   UNL     1      -7.795   6.964  70.199  1.00  0.00    -0.106 C  
HETATM    7  N   UNL     1     -10.931   7.353  70.171  1.00  0.00    -0.256 N  
HETATM    8  C   UNL     1     -10.924   7.318  72.577  1.00  0.00    -0.282 C  
HETATM    9  OXT UNL     1     -10.553   6.977  73.688  1.00  0.00    -0.357 OA 
HETATM   10  O   UNL     1     -12.198   7.747  72.362  1.00  0.00    -0.282 OA 
HETATM   11  C   UNL     1     -10.584   7.912  68.970  1.00  0.00    -0.162 C  
HETATM   12  CA  UNL     1     -10.825   6.578  68.202  1.00  0.00    -0.295 C  
HETATM   13  O   UNL     1     -10.107   9.003  68.767  1.00  0.00    -0.186 OA 
ENDROOT
BRANCH  12  14
HETATM   14  N   UNL     1      -9.670   5.960  67.508  1.00  0.00    -0.111 N  
HETATM   15  C   UNL     1      -9.815   5.087  66.461  1.00  0.00    -0.199 C  
HETATM   16  H   UNL     1      -8.728   6.194  67.823  1.00  0.00     0.000 HD 
HETATM   17  O   UNL     1     -10.900   4.829  65.954  1.00  0.00    -0.304 OA 
BRANCH  15  18
HETATM   18  C   UNL     1      -8.570   4.491  65.994  1.00  0.00    -0.114 A  
HETATM   19  C   UNL     1      -8.166   3.202  66.280  1.00  0.00    -0.090 A  
HETATM   20  C   UNL     1      -8.738   2.069  67.035  1.00  0.00    -0.133 C  
HETATM   21  O   UNL     1      -6.977   2.962  65.677  1.00  0.00    -0.047 OA 
HETATM   22  N   UNL     1      -6.553   4.089  65.014  1.00  0.00    -0.046 NA 
HETATM   23  C   UNL     1      -7.495   5.028  65.200  1.00  0.00    -0.076 A  
BRANCH  23  24
HETATM   24  C   UNL     1      -7.355   6.351  64.571  1.00  0.00    -0.077 A  
HETATM   25  C   UNL     1      -7.555   6.485  63.186  1.00  0.00    -0.080 A  
HETATM   26  C   UNL     1      -7.645   7.735  62.571  1.00  0.00    -0.114 A  
HETATM   27  F   UNL     1      -7.702   5.408  62.400  1.00  0.00    -0.052 F  
HETATM   28  C   UNL     1      -7.573   8.891  63.336  1.00  0.00    -0.110 A  
HETATM   29  C   UNL     1      -7.292   8.790  64.696  1.00  0.00    -0.098 A  
HETATM   30  C   UNL     1      -7.114   7.533  65.294  1.00  0.00    -0.063 A  
HETATM   31 CL   UNL     1      -6.524   7.548  66.922  1.00  0.00    -0.055 Cl 
ENDBRANCH  23  24
ENDBRANCH  15  18
ENDBRANCH  12  14
TORSDOF 3
ENDMDL
MODEL      168
REMARK 921   NORMALIZED FREE ENERGY PREDICTED BY IDOCK:   -4.05 KCAL/MOL
REMARK 922        TOTAL FREE ENERGY PREDICTED BY IDOCK:   -6.12 KCAL/MOL
REMARK 923 INTER-LIGAND FREE ENERGY PREDICTED BY IDOCK:   -4.67 KCAL/MOL
REMARK 924 INTRA-LIGAND FREE ENERGY PREDICTED BY IDOCK:   -1.45 KCAL/MOL
REMARK 927      BINDING AFFINITY PREDICTED BY RF-SCORE:    0.00 PKD
ROOT
HETATM    1  C   UNL     1     -10.398   8.538  69.356  1.00  0.00    -0.215 C  
HETATM    2  S   UNL     1     -11.506   7.082  69.632  1.00  0.00    -0.006 SA 
HETATM    3  C   UNL     1     -11.693   7.403  71.447  1.00  0.00    -0.288 C  
HETATM    4  C   UNL     1     -13.073   6.936  71.918  1.00  0.00    -0.239 C  
HETATM    5  CA  UNL     1     -11.397   8.914  71.614  1.00  0.00    -0.337 C  
HETATM    6  C   UNL     1     -10.658   6.537  72.201  1.00  0.00    -0.240 C  
HETATM    7  N   UNL     1     -10.353   9.267  70.638  1.00  0.00    -0.241 N  
HETATM    8  C   UNL     1     -12.564   9.889  71.360  1.00  0.00    -0.398 C  
HETATM    9  OXT UNL     1     -13.730   9.709  71.667  1.00  0.00    -0.335 OA 
HETATM   10  O   UNL     1     -12.144  11.086  70.864  1.00  0.00    -0.342 OA 
HETATM   11  C   UNL     1      -9.043   8.958  70.889  1.00  0.00    -0.230 C  
HETATM   12  CA  UNL     1      -8.878   8.246  69.512  1.00  0.00    -0.149 C  
HETATM   13  O   UNL     1      -8.432   9.091  71.922  1.00  0.00    -0.363 OA 
ENDROOT
BRANCH  12  14
HETATM   14  N   UNL     1      -8.541   6.802  69.516  1.00  0.00    -0.132 N  
HETATM   15  C   UNL     1      -7.294   6.334  69.840  1.00  0.00    -0.079 C  
HETATM   16  H   UNL     1      -9.267   6.130  69.267  1.00  0.00     0.000 HD 
HETATM   17  O   UNL     1      -6.395   7.058  70.248  1.00  0.00    -0.037 OA 
BRANCH  15  18
HETATM   18  C   UNL     1      -7.125   4.897  69.665  1.00  0.00    -0.055 A  
HETATM   19  C   UNL     1      -6.673   4.300  68.505  1.00  0.00    -0.047 A  
HETATM   20  C   UNL     1      -6.227   4.785  67.182  1.00  0.00    -0.035 C  
HETATM   21  O   UNL     1      -6.613   2.959  68.685  1.00  0.00    -0.032 OA 
HETATM   22  N   UNL     1      -7.054   2.637  69.947  1.00  0.00    -0.033 NA 
HETATM   23  C   UNL     1      -7.377   3.791  70.553  1.00  0.00    -0.041 A  
BRANCH  23  24
HETATM   24  C   UNL     1      -7.847   3.789  71.948  1.00  0.00    -0.063 A  
HETATM   25  C   UNL     1      -7.154   4.539  72.913  1.00  0.00    -0.076 A  
HETATM   26  C   UNL     1      -7.667   4.746  74.196  1.00  0.00    -0.093 A  
HETATM   27  F   UNL     1      -5.978   5.118  72.628  1.00  0.00    -0.021 F  
HETATM   28  C   UNL     1      -8.912   4.235  74.534  1.00  0.00    -0.105 A  
HETATM   29  C   UNL     1      -9.582   3.419  73.627  1.00  0.00    -0.137 A  
HETATM   30  C   UNL     1      -9.021   3.141  72.371  1.00  0.00    -0.091 A  
HETATM   31 CL   UNL     1      -9.822   1.921  71.439  1.00  0.00    -0.212 Cl 
ENDBRANCH  23  24
ENDBRANCH  15  18
ENDBRANCH  12  14
TORSDOF 3
ENDMDL
MODEL      169
REMARK 921   NORMALIZED FREE ENERGY PREDICTED BY IDOCK:   -4.05 KCAL/MOL
REMARK 922        TOTAL FREE ENERGY PREDICTED BY IDOCK:   -6.12 KCAL/MOL
REMARK 923 INTER-LIGAND FREE ENERGY PREDICTED BY IDOCK:   -4.72 KCAL/MOL
REMARK 924 INTRA-LIGAND FREE ENERGY PREDICTED BY IDOCK:   -1.40 KCAL/MOL
REMARK 927      BINDING AFFINITY PREDICTED BY RF-SCORE:    0.00 PKD
ROOT
HETATM    1  C   UNL     1      -7.874   8.238  66.451  1.00  0.00    -0.095 C  
HETATM    2  S   UNL     1      -9.377   8.411  65.385  1.00  0.00     0.360 SA 
HETATM    3  C   UNL     1      -8.523   9.472  64.128  1.00  0.00    -0.186 C  
HETATM    4  C   UNL     1      -9.126   9.222  62.743  1.00  0.00    -0.030 C  
HETATM    5  CA  UNL     1      -7.019   9.134  64.282  1.00  0.00    -0.091 C  
HETATM    6  C   UNL     1      -8.809  10.952  64.468  1.00  0.00    -0.080 C  
HETATM    7  N   UNL     1      -6.771   8.880  65.710  1.00  0.00    -0.067 N  
HETATM    8  C   UNL     1      -6.500   7.892  63.532  1.00  0.00    -0.067 C  
HETATM    9  OXT UNL     1      -6.844   7.528  62.420  1.00  0.00    -0.072 OA 
HETATM   10  O   UNL     1      -5.473   7.281  64.185  1.00  0.00    -0.032 OA 
HETATM   11  C   UNL     1      -6.651   9.926  66.585  1.00  0.00    -0.072 C  
HETATM   12  CA  UNL     1      -7.719   9.328  67.550  1.00  0.00    -0.092 C  
HETATM   13  O   UNL     1      -6.036  10.954  66.435  1.00  0.00    -0.101 OA 
ENDROOT
BRANCH  12  14
HETATM   14  N   UNL     1      -8.951  10.117  67.792  1.00  0.00    -0.128 N  
HETATM   15  C   UNL     1      -8.940  11.333  68.427  1.00  0.00    -0.167 C  
HETATM   16  H   UNL     1      -9.843   9.740  67.474  1.00  0.00     0.000 HD 
HETATM   17  O   UNL     1      -7.907  11.906  68.751  1.00  0.00    -0.122 OA 
BRANCH  15  18
HETATM   18  C   UNL     1     -10.261  11.892  68.682  1.00  0.00    -0.202 A  
HETATM   19  C   UNL     1     -11.172  11.367  69.575  1.00  0.00    -0.256 A  
HETATM   20  C   UNL     1     -11.183  10.220  70.507  1.00  0.00    -0.408 C  
HETATM   21  O   UNL     1     -12.286  12.138  69.585  1.00  0.00    -0.223 OA 
HETATM   22  N   UNL     1     -12.152  13.162  68.678  1.00  0.00    -0.268 NA 
HETATM   23  C   UNL     1     -10.941  13.029  68.114  1.00  0.00    -0.244 A  
BRANCH  23  24
HETATM   24  C   UNL     1     -10.474  14.009  67.121  1.00  0.00    -0.270 A  
HETATM   25  C   UNL     1     -10.908  13.905  65.788  1.00  0.00    -0.289 A  
HETATM   26  C   UNL     1     -10.672  14.915  64.854  1.00  0.00    -0.426 A  
HETATM   27  F   UNL     1     -11.599  12.836  65.366  1.00  0.00    -0.335 F  
HETATM   28  C   UNL     1     -10.025  16.081  65.242  1.00  0.00    -0.064 A  
HETATM   29  C   UNL     1      -9.511  16.175  66.533  1.00  0.00    -0.289 A  
HETATM   30  C   UNL     1      -9.673  15.120  67.442  1.00  0.00    -0.209 A  
HETATM   31 CL   UNL     1      -8.780  15.251  68.919  1.00  0.00    -0.194 Cl 
ENDBRANCH  23  24
ENDBRANCH  15  18
ENDBRANCH  12  14
TORSDOF 3
ENDMDL
MODEL      170
REMARK 921   NORMALIZED FREE ENERGY PREDICTED BY IDOCK:   -4.02 KCAL/MOL
REMARK 922        TOTAL FREE ENERGY PREDICTED BY IDOCK:   -6.08 KCAL/MOL
REMARK 923 INTER-LIGAND FREE ENERGY PREDICTED BY IDOCK:   -4.44 KCAL/MOL
REMARK 924 INTRA-LIGAND FREE ENERGY PREDICTED BY IDOCK:   -1.64 KCAL/MOL
REMARK 927      BINDING AFFINITY PREDICTED BY RF-SCORE:    0.00 PKD
ROOT
HETATM    1  C   UNL     1      -9.552   9.119  70.731  1.00  0.00    -0.275 C  
HETATM    2  S   UNL     1      -8.884   7.961  69.453  1.00  0.00    -0.145 SA 
HETATM    3  C   UNL     1     -10.370   8.106  68.356  1.00  0.00    -0.199 C  
HETATM    4  C   UNL     1      -9.953   7.942  66.892  1.00  0.00    -0.332 C  
HETATM    5  CA  UNL     1     -11.006   9.467  68.730  1.00  0.00    -0.080 C  
HETATM    6  C   UNL     1     -11.322   6.930  68.672  1.00  0.00     0.013 C  
HETATM    7  N   UNL     1     -10.808   9.662  70.175  1.00  0.00    -0.259 N  
HETATM    8  C   UNL     1     -10.427  10.722  68.048  1.00  0.00    -0.194 C  
HETATM    9  OXT UNL     1     -10.049  10.801  66.892  1.00  0.00    -0.197 OA 
HETATM   10  O   UNL     1     -10.505  11.828  68.840  1.00  0.00    -0.207 OA 
HETATM   11  C   UNL     1     -11.610   9.011  71.075  1.00  0.00    -0.300 C  
HETATM   12  CA  UNL     1     -10.387   8.445  71.858  1.00  0.00    -0.283 C  
HETATM   13  O   UNL     1     -12.808   8.869  71.035  1.00  0.00    -0.186 OA 
ENDROOT
BRANCH  12  14
HETATM   14  N   UNL     1     -10.229   6.972  71.922  1.00  0.00    -0.188 N  
HETATM   15  C   UNL     1      -9.077   6.370  72.360  1.00  0.00    -0.137 C  
HETATM   16  H   UNL     1     -11.008   6.383  71.629  1.00  0.00     0.000 HD 
HETATM   17  O   UNL     1      -8.132   6.996  72.824  1.00  0.00    -0.106 OA 
BRANCH  15  18
HETATM   18  C   UNL     1      -9.070   4.918  72.232  1.00  0.00    -0.146 A  
HETATM   19  C   UNL     1      -9.613   4.050  73.158  1.00  0.00    -0.117 A  
HETATM   20  C   UNL     1     -10.328   4.202  74.442  1.00  0.00    -0.280 C  
HETATM   21  O   UNL     1      -9.456   2.777  72.724  1.00  0.00    -0.092 OA 
HETATM   22  N   UNL     1      -8.778   2.771  71.528  1.00  0.00    -0.068 NA 
HETATM   23  C   UNL     1      -8.527   4.053  71.216  1.00  0.00    -0.081 A  
BRANCH  23  24
HETATM   24  C   UNL     1      -7.844   4.389  69.956  1.00  0.00    -0.053 A  
HETATM   25  C   UNL     1      -8.538   4.268  68.740  1.00  0.00    -0.085 A  
HETATM   26  C   UNL     1      -8.020   4.767  67.542  1.00  0.00    -0.094 A  
HETATM   27  F   UNL     1      -9.748   3.693  68.686  1.00  0.00    -0.230 F  
HETATM   28  C   UNL     1      -6.805   5.438  67.539  1.00  0.00    -0.060 A  
HETATM   29  C   UNL     1      -6.059   5.498  68.713  1.00  0.00    -0.025 A  
HETATM   30  C   UNL     1      -6.542   4.917  69.894  1.00  0.00    -0.036 A  
HETATM   31 CL   UNL     1      -5.422   4.837  71.212  1.00  0.00    -0.004 Cl 
ENDBRANCH  23  24
ENDBRANCH  15  18
ENDBRANCH  12  14
TORSDOF 3
ENDMDL
MODEL      171
REMARK 921   NORMALIZED FREE ENERGY PREDICTED BY IDOCK:   -4.00 KCAL/MOL
REMARK 922        TOTAL FREE ENERGY PREDICTED BY IDOCK:   -6.07 KCAL/MOL
REMARK 923 INTER-LIGAND FREE ENERGY PREDICTED BY IDOCK:   -4.44 KCAL/MOL
REMARK 924 INTRA-LIGAND FREE ENERGY PREDICTED BY IDOCK:   -1.63 KCAL/MOL
REMARK 927      BINDING AFFINITY PREDICTED BY RF-SCORE:    0.00 PKD
ROOT
HETATM    1  C   UNL     1      -8.988   6.846  67.109  1.00  0.00    -0.120 C  
HETATM    2  S   UNL     1      -8.043   5.975  68.440  1.00  0.00    -0.107 SA 
HETATM    3  C   UNL     1      -8.119   4.327  67.594  1.00  0.00    -0.095 C  
HETATM    4  C   UNL     1      -6.866   3.514  67.929  1.00  0.00    -0.050 C  
HETATM    5  CA  UNL     1      -8.328   4.661  66.097  1.00  0.00    -0.110 C  
HETATM    6  C   UNL     1      -9.317   3.541  68.173  1.00  0.00    -0.236 C  
HETATM    7  N   UNL     1      -9.180   5.859  66.029  1.00  0.00    -0.154 N  
HETATM    8  C   UNL     1      -7.071   4.986  65.268  1.00  0.00    -0.063 C  
HETATM    9  OXT UNL     1      -5.982   4.446  65.373  1.00  0.00    -0.022 OA 
HETATM   10  O   UNL     1      -7.322   5.872  64.265  1.00  0.00    -0.059 OA 
HETATM   11  C   UNL     1     -10.532   5.755  66.221  1.00  0.00    -0.071 C  
HETATM   12  CA  UNL     1     -10.531   6.872  67.308  1.00  0.00    -0.287 C  
HETATM   13  O   UNL     1     -11.286   4.925  65.772  1.00  0.00    -0.092 OA 
ENDROOT
BRANCH  12  14
HETATM   14  N   UNL     1     -10.967   6.505  68.677  1.00  0.00    -0.403 N  
HETATM   15  C   UNL     1     -10.813   7.342  69.752  1.00  0.00    -0.234 C  
HETATM   16  H   UNL     1     -11.397   5.592  68.826  1.00  0.00     0.000 HD 
HETATM   17  O   UNL     1     -10.400   8.491  69.649  1.00  0.00    -0.208 OA 
BRANCH  15  18
HETATM   18  C   UNL     1     -11.186   6.755  71.032  1.00  0.00    -0.335 A  
HETATM   19  C   UNL     1     -12.462   6.779  71.560  1.00  0.00    -0.341 A  
HETATM   20  C   UNL     1     -13.770   7.303  71.114  1.00  0.00    -0.233 C  
HETATM   21  O   UNL     1     -12.468   6.128  72.748  1.00  0.00     0.152 OA 
HETATM   22  N   UNL     1     -11.199   5.693  73.048  1.00  0.00    -0.285 NA 
HETATM   23  C   UNL     1     -10.406   6.069  72.031  1.00  0.00    -0.202 A  
BRANCH  23  24
HETATM   24  C   UNL     1      -8.979   5.710  72.032  1.00  0.00    -0.142 A  
HETATM   25  C   UNL     1      -8.597   4.389  71.739  1.00  0.00    -0.114 A  
HETATM   26  C   UNL     1      -7.264   4.038  71.518  1.00  0.00    -0.046 A  
HETATM   27  F   UNL     1      -9.510   3.412  71.627  1.00  0.00    -0.163 F  
HETATM   28  C   UNL     1      -6.277   5.014  71.548  1.00  0.00    -0.029 A  
HETATM   29  C   UNL     1      -6.615   6.313  71.918  1.00  0.00    -0.062 A  
HETATM   30  C   UNL     1      -7.944   6.641  72.225  1.00  0.00    -0.100 A  
HETATM   31 CL   UNL     1      -8.195   8.212  72.910  1.00  0.00    -0.222 Cl 
ENDBRANCH  23  24
ENDBRANCH  15  18
ENDBRANCH  12  14
TORSDOF 3
ENDMDL
MODEL      172
REMARK 921   NORMALIZED FREE ENERGY PREDICTED BY IDOCK:   -3.96 KCAL/MOL
REMARK 922        TOTAL FREE ENERGY PREDICTED BY IDOCK:   -6.01 KCAL/MOL
REMARK 923 INTER-LIGAND FREE ENERGY PREDICTED BY IDOCK:   -4.75 KCAL/MOL
REMARK 924 INTRA-LIGAND FREE ENERGY PREDICTED BY IDOCK:   -1.26 KCAL/MOL
REMARK 927      BINDING AFFINITY PREDICTED BY RF-SCORE:    0.00 PKD
ROOT
HETATM    1  C   UNL     1     -10.675   9.631  68.278  1.00  0.00    -0.217 C  
HETATM    2  S   UNL     1      -9.446   9.948  69.623  1.00  0.00    -0.229 SA 
HETATM    3  C   UNL     1      -8.096  10.438  68.452  1.00  0.00    -0.112 C  
HETATM    4  C   UNL     1      -7.186  11.477  69.115  1.00  0.00    -0.084 C  
HETATM    5  CA  UNL     1      -8.833  10.904  67.172  1.00  0.00    -0.135 C  
HETATM    6  C   UNL     1      -7.216   9.198  68.180  1.00  0.00    -0.079 C  
HETATM    7  N   UNL     1     -10.028  10.058  67.022  1.00  0.00    -0.195 N  
HETATM    8  C   UNL     1      -9.336  12.360  67.143  1.00  0.00    -0.199 C  
HETATM    9  OXT UNL     1      -8.757  13.330  67.604  1.00  0.00    -0.171 OA 
HETATM   10  O   UNL     1     -10.470  12.505  66.403  1.00  0.00    -0.242 OA 
HETATM   11  C   UNL     1      -9.914   8.787  66.525  1.00  0.00    -0.290 C  
HETATM   12  CA  UNL     1     -10.690   8.175  67.730  1.00  0.00    -0.096 C  
HETATM   13  O   UNL     1      -9.261   8.413  65.580  1.00  0.00    -0.154 OA 
ENDROOT
BRANCH  12  14
HETATM   14  N   UNL     1      -9.975   7.202  68.591  1.00  0.00    -0.155 N  
HETATM   15  C   UNL     1     -10.618   6.419  69.515  1.00  0.00    -0.253 C  
HETATM   16  H   UNL     1      -8.964   7.112  68.492  1.00  0.00     0.000 HD 
HETATM   17  O   UNL     1     -11.837   6.388  69.630  1.00  0.00    -0.323 OA 
BRANCH  15  18
HETATM   18  C   UNL     1      -9.730   5.620  70.350  1.00  0.00    -0.233 A  
HETATM   19  C   UNL     1      -9.487   5.862  71.687  1.00  0.00    -0.149 A  
HETATM   20  C   UNL     1      -9.960   6.854  72.674  1.00  0.00    -0.191 C  
HETATM   21  O   UNL     1      -8.635   4.923  72.165  1.00  0.00    -0.121 OA 
HETATM   22  N   UNL     1      -8.270   4.067  71.154  1.00  0.00    -0.071 NA 
HETATM   23  C   UNL     1      -8.911   4.473  70.047  1.00  0.00    -0.094 A  
BRANCH  23  24
HETATM   24  C   UNL     1      -8.762   3.727  68.787  1.00  0.00    -0.138 A  
HETATM   25  C   UNL     1      -9.301   2.433  68.682  1.00  0.00    -0.182 A  
HETATM   26  C   UNL     1      -9.377   1.762  67.459  1.00  0.00    -0.110 A  
HETATM   27  F   UNL     1      -9.797   1.798  69.755  1.00  0.00    -0.136 F  
HETATM   28  C   UNL     1      -8.947   2.389  66.297  1.00  0.00    -0.120 A  
HETATM   29  C   UNL     1      -8.333   3.635  66.385  1.00  0.00    -0.105 A  
HETATM   30  C   UNL     1      -8.178   4.267  67.628  1.00  0.00    -0.098 A  
HETATM   31 CL   UNL     1      -7.183   5.683  67.638  1.00  0.00    -0.074 Cl 
ENDBRANCH  23  24
ENDBRANCH  15  18
ENDBRANCH  12  14
TORSDOF 3
ENDMDL
MODEL      173
REMARK 921   NORMALIZED FREE ENERGY PREDICTED BY IDOCK:   -3.95 KCAL/MOL
REMARK 922        TOTAL FREE ENERGY PREDICTED BY IDOCK:   -6.01 KCAL/MOL
REMARK 923 INTER-LIGAND FREE ENERGY PREDICTED BY IDOCK:   -4.68 KCAL/MOL
REMARK 924 INTRA-LIGAND FREE ENERGY PREDICTED BY IDOCK:   -1.33 KCAL/MOL
REMARK 927      BINDING AFFINITY PREDICTED BY RF-SCORE:    0.00 PKD
ROOT
HETATM    1  C   UNL     1     -11.492  11.741  66.351  1.00  0.00    -0.239 C  
HETATM    2  S   UNL     1     -10.659  12.015  67.980  1.00  0.00    -0.217 SA 
HETATM    3  C   UNL     1      -9.811  13.570  67.433  1.00  0.00    -0.227 C  
HETATM    4  C   UNL     1      -9.644  14.517  68.624  1.00  0.00    -0.219 C  
HETATM    5  CA  UNL     1     -10.676  14.100  66.263  1.00  0.00    -0.293 C  
HETATM    6  C   UNL     1      -8.385  13.204  66.963  1.00  0.00    -0.094 C  
HETATM    7  N   UNL     1     -11.190  12.931  65.531  1.00  0.00    -0.283 N  
HETATM    8  C   UNL     1     -11.910  14.947  66.631  1.00  0.00    -0.156 C  
HETATM    9  OXT UNL     1     -11.977  15.764  67.535  1.00  0.00     0.143 OA 
HETATM   10  O   UNL     1     -12.926  14.804  65.735  1.00  0.00     0.028 OA 
HETATM   11  C   UNL     1     -10.380  12.254  64.659  1.00  0.00    -0.301 C  
HETATM   12  CA  UNL     1     -10.684  10.884  65.335  1.00  0.00    -0.119 C  
HETATM   13  O   UNL     1      -9.625  12.713  63.836  1.00  0.00    -0.083 OA 
ENDROOT
BRANCH  12  14
HETATM   14  N   UNL     1      -9.551  10.144  65.942  1.00  0.00    -0.201 N  
HETATM   15  C   UNL     1      -8.780   9.259  65.233  1.00  0.00    -0.184 C  
HETATM   16  H   UNL     1      -9.336  10.301  66.927  1.00  0.00     0.000 HD 
HETATM   17  O   UNL     1      -8.902   9.086  64.026  1.00  0.00    -0.152 OA 
BRANCH  15  18
HETATM   18  C   UNL     1      -7.796   8.541  66.033  1.00  0.00    -0.098 A  
HETATM   19  C   UNL     1      -6.443   8.510  65.763  1.00  0.00    -0.053 A  
HETATM   20  C   UNL     1      -5.566   9.108  64.735  1.00  0.00    -0.062 C  
HETATM   21  O   UNL     1      -5.814   7.773  66.710  1.00  0.00    -0.040 OA 
HETATM   22  N   UNL     1      -6.734   7.273  67.600  1.00  0.00    -0.062 NA 
HETATM   23  C   UNL     1      -7.939   7.716  67.206  1.00  0.00    -0.118 A  
BRANCH  23  24
HETATM   24  C   UNL     1      -9.142   7.387  67.987  1.00  0.00    -0.130 A  
HETATM   25  C   UNL     1     -10.064   6.456  67.478  1.00  0.00    -0.155 A  
HETATM   26  C   UNL     1     -11.106   5.947  68.257  1.00  0.00    -0.139 A  
HETATM   27  F   UNL     1      -9.961   5.991  66.224  1.00  0.00    -0.194 F  
HETATM   28  C   UNL     1     -11.229   6.332  69.585  1.00  0.00    -0.506 A  
HETATM   29  C   UNL     1     -10.381   7.313  70.090  1.00  0.00    -0.221 A  
HETATM   30  C   UNL     1      -9.392   7.886  69.277  1.00  0.00    -0.148 A  
HETATM   31 CL   UNL     1      -8.575   9.263  69.937  1.00  0.00    -0.157 Cl 
ENDBRANCH  23  24
ENDBRANCH  15  18
ENDBRANCH  12  14
TORSDOF 3
ENDMDL
MODEL      174
REMARK 921   NORMALIZED FREE ENERGY PREDICTED BY IDOCK:   -3.93 KCAL/MOL
REMARK 922        TOTAL FREE ENERGY PREDICTED BY IDOCK:   -5.98 KCAL/MOL
REMARK 923 INTER-LIGAND FREE ENERGY PREDICTED BY IDOCK:   -4.39 KCAL/MOL
REMARK 924 INTRA-LIGAND FREE ENERGY PREDICTED BY IDOCK:   -1.59 KCAL/MOL
REMARK 927      BINDING AFFINITY PREDICTED BY RF-SCORE:    0.00 PKD
ROOT
HETATM    1  C   UNL     1      -9.899   9.017  71.272  1.00  0.00    -0.306 C  
HETATM    2  S   UNL     1      -8.761   9.737  70.003  1.00  0.00    -0.168 SA 
HETATM    3  C   UNL     1     -10.039   9.726  68.661  1.00  0.00    -0.169 C  
HETATM    4  C   UNL     1      -9.793  10.892  67.700  1.00  0.00    -0.192 C  
HETATM    5  CA  UNL     1     -11.396   9.740  69.407  1.00  0.00    -0.045 C  
HETATM    6  C   UNL     1      -9.861   8.433  67.833  1.00  0.00    -0.208 C  
HETATM    7  N   UNL     1     -11.229   8.946  70.636  1.00  0.00    -0.262 N  
HETATM    8  C   UNL     1     -11.935  11.111  69.857  1.00  0.00    -0.363 C  
HETATM    9  OXT UNL     1     -11.851  12.156  69.234  1.00  0.00    -0.304 OA 
HETATM   10  O   UNL     1     -12.670  11.033  71.001  1.00  0.00    -0.359 OA 
HETATM   11  C   UNL     1     -11.245   7.578  70.580  1.00  0.00    -0.269 C  
HETATM   12  CA  UNL     1      -9.897   7.463  71.352  1.00  0.00    -0.185 C  
HETATM   13  O   UNL     1     -12.001   6.868  69.961  1.00  0.00    -0.223 OA 
ENDROOT
BRANCH  12  14
HETATM   14  N   UNL     1      -8.752   6.829  70.654  1.00  0.00    -0.142 N  
HETATM   15  C   UNL     1      -8.583   5.469  70.595  1.00  0.00    -0.129 C  
HETATM   16  H   UNL     1      -8.062   7.428  70.201  1.00  0.00     0.000 HD 
HETATM   17  O   UNL     1      -9.412   4.675  71.022  1.00  0.00    -0.141 OA 
BRANCH  15  18
HETATM   18  C   UNL     1      -7.335   5.043  69.975  1.00  0.00    -0.059 A  
HETATM   19  C   UNL     1      -6.143   4.881  70.652  1.00  0.00    -0.018 A  
HETATM   20  C   UNL     1      -5.708   5.028  72.056  1.00  0.00    -0.016 C  
HETATM   21  O   UNL     1      -5.191   4.457  69.787  1.00  0.00    -0.003 OA 
HETATM   22  N   UNL     1      -5.718   4.364  68.521  1.00  0.00    -0.020 NA 
HETATM   23  C   UNL     1      -7.009   4.722  68.609  1.00  0.00    -0.052 A  
BRANCH  23  24
HETATM   24  C   UNL     1      -7.871   4.685  67.416  1.00  0.00    -0.090 A  
HETATM   25  C   UNL     1      -8.737   3.595  67.222  1.00  0.00    -0.115 A  
HETATM   26  C   UNL     1      -9.722   3.601  66.232  1.00  0.00    -0.093 A  
HETATM   27  F   UNL     1      -8.672   2.509  68.007  1.00  0.00    -0.090 F  
HETATM   28  C   UNL     1      -9.891   4.722  65.431  1.00  0.00    -0.125 A  
HETATM   29  C   UNL     1      -8.995   5.781  65.546  1.00  0.00    -0.088 A  
HETATM   30  C   UNL     1      -7.951   5.732  66.482  1.00  0.00    -0.102 A  
HETATM   31 CL   UNL     1      -6.763   6.985  66.356  1.00  0.00    -0.052 Cl 
ENDBRANCH  23  24
ENDBRANCH  15  18
ENDBRANCH  12  14
TORSDOF 3
ENDMDL
MODEL      175
REMARK 921   NORMALIZED FREE ENERGY PREDICTED BY IDOCK:   -3.92 KCAL/MOL
REMARK 922        TOTAL FREE ENERGY PREDICTED BY IDOCK:   -5.98 KCAL/MOL
REMARK 923 INTER-LIGAND FREE ENERGY PREDICTED BY IDOCK:   -4.32 KCAL/MOL
REMARK 924 INTRA-LIGAND FREE ENERGY PREDICTED BY IDOCK:   -1.65 KCAL/MOL
REMARK 927      BINDING AFFINITY PREDICTED BY RF-SCORE:    0.00 PKD
ROOT
HETATM    1  C   UNL     1      -7.532   9.312  71.061  1.00  0.00    -0.064 C  
HETATM    2  S   UNL     1      -9.254   9.586  70.444  1.00  0.00    -0.211 SA 
HETATM    3  C   UNL     1      -9.789   7.843  70.773  1.00  0.00    -0.180 C  
HETATM    4  C   UNL     1     -11.279   7.815  71.127  1.00  0.00    -0.285 C  
HETATM    5  CA  UNL     1      -8.823   7.333  71.871  1.00  0.00    -0.122 C  
HETATM    6  C   UNL     1      -9.637   7.034  69.465  1.00  0.00    -0.153 C  
HETATM    7  N   UNL     1      -7.509   7.944  71.617  1.00  0.00    -0.067 N  
HETATM    8  C   UNL     1      -9.177   7.678  73.331  1.00  0.00    -0.255 C  
HETATM    9  OXT UNL     1     -10.298   7.701  73.812  1.00  0.00    -0.277 OA 
HETATM   10  O   UNL     1      -8.073   7.827  74.114  1.00  0.00    -0.174 OA 
HETATM   11  C   UNL     1      -6.695   7.446  70.635  1.00  0.00    -0.047 C  
HETATM   12  CA  UNL     1      -6.512   8.848  69.981  1.00  0.00    -0.042 C  
HETATM   13  O   UNL     1      -6.451   6.289  70.388  1.00  0.00    -0.038 OA 
ENDROOT
BRANCH  12  14
HETATM   14  N   UNL     1      -6.989   9.029  68.588  1.00  0.00    -0.063 N  
HETATM   15  C   UNL     1      -6.892  10.224  67.922  1.00  0.00    -0.074 C  
HETATM   16  H   UNL     1      -7.407   8.233  68.106  1.00  0.00     0.000 HD 
HETATM   17  O   UNL     1      -6.316  11.201  68.385  1.00  0.00    -0.049 OA 
BRANCH  15  18
HETATM   18  C   UNL     1      -7.528  10.237  66.611  1.00  0.00    -0.110 A  
HETATM   19  C   UNL     1      -6.911   9.843  65.441  1.00  0.00    -0.113 A  
HETATM   20  C   UNL     1      -5.579   9.312  65.086  1.00  0.00    -0.053 C  
HETATM   21  O   UNL     1      -7.786   9.958  64.413  1.00  0.00    -0.131 OA 
HETATM   22  N   UNL     1      -8.980  10.462  64.870  1.00  0.00    -0.186 NA 
HETATM   23  C   UNL     1      -8.845  10.647  66.194  1.00  0.00    -0.168 A  
BRANCH  23  24
HETATM   24  C   UNL     1      -9.977  11.141  66.993  1.00  0.00    -0.223 A  
HETATM   25  C   UNL     1     -11.035  10.271  67.307  1.00  0.00    -0.210 A  
HETATM   26  C   UNL     1     -12.025  10.615  68.230  1.00  0.00     0.192 A  
HETATM   27  F   UNL     1     -11.118   9.052  66.753  1.00  0.00    -0.162 F  
HETATM   28  C   UNL     1     -11.960  11.833  68.893  1.00  0.00    -0.332 A  
HETATM   29  C   UNL     1     -10.972  12.748  68.540  1.00  0.00    -0.288 A  
HETATM   30  C   UNL     1     -10.032  12.432  67.549  1.00  0.00    -0.196 A  
HETATM   31 CL   UNL     1      -9.019  13.735  67.024  1.00  0.00    -0.243 Cl 
ENDBRANCH  23  24
ENDBRANCH  15  18
ENDBRANCH  12  14
TORSDOF 3
ENDMDL
MODEL      176
REMARK 921   NORMALIZED FREE ENERGY PREDICTED BY IDOCK:   -3.90 KCAL/MOL
REMARK 922        TOTAL FREE ENERGY PREDICTED BY IDOCK:   -5.95 KCAL/MOL
REMARK 923 INTER-LIGAND FREE ENERGY PREDICTED BY IDOCK:   -4.60 KCAL/MOL
REMARK 924 INTRA-LIGAND FREE ENERGY PREDICTED BY IDOCK:   -1.35 KCAL/MOL
REMARK 927      BINDING AFFINITY PREDICTED BY RF-SCORE:    0.00 PKD
ROOT
HETATM    1  C   UNL     1     -10.387   4.874  70.386  1.00  0.00    -0.178 C  
HETATM    2  S   UNL     1      -8.544   4.853  70.543  1.00  0.00    -0.109 SA 
HETATM    3  C   UNL     1      -8.501   6.251  71.758  1.00  0.00    -0.129 C  
HETATM    4  C   UNL     1      -7.316   6.075  72.711  1.00  0.00    -0.090 C  
HETATM    5  CA  UNL     1      -9.903   6.246  72.416  1.00  0.00    -0.164 C  
HETATM    6  C   UNL     1      -8.245   7.562  70.980  1.00  0.00    -0.108 C  
HETATM    7  N   UNL     1     -10.872   5.850  71.381  1.00  0.00    -0.266 N  
HETATM    8  C   UNL     1     -10.121   5.277  73.595  1.00  0.00    -0.192 C  
HETATM    9  OXT UNL     1      -9.309   5.010  74.464  1.00  0.00    -0.119 OA 
HETATM   10  O   UNL     1     -11.405   4.827  73.669  1.00  0.00    -0.309 OA 
HETATM   11  C   UNL     1     -11.287   6.758  70.443  1.00  0.00    -0.347 C  
HETATM   12  CA  UNL     1     -10.941   5.800  69.264  1.00  0.00    -0.260 C  
HETATM   13  O   UNL     1     -11.607   7.910  70.614  1.00  0.00    -0.275 OA 
ENDROOT
BRANCH  12  14
HETATM   14  N   UNL     1      -9.915   6.243  68.290  1.00  0.00    -0.132 N  
HETATM   15  C   UNL     1     -10.235   6.786  67.073  1.00  0.00    -0.237 C  
HETATM   16  H   UNL     1      -8.930   6.140  68.536  1.00  0.00     0.000 HD 
HETATM   17  O   UNL     1     -11.386   7.040  66.738  1.00  0.00    -0.102 OA 
BRANCH  15  18
HETATM   18  C   UNL     1      -9.091   7.043  66.207  1.00  0.00    -0.178 A  
HETATM   19  C   UNL     1      -8.491   8.277  66.053  1.00  0.00    -0.139 A  
HETATM   20  C   UNL     1      -8.706   9.624  66.619  1.00  0.00    -0.146 C  
HETATM   21  O   UNL     1      -7.447   8.163  65.197  1.00  0.00    -0.075 OA 
HETATM   22  N   UNL     1      -7.356   6.869  64.741  1.00  0.00    -0.082 NA 
HETATM   23  C   UNL     1      -8.345   6.177  65.331  1.00  0.00    -0.150 A  
BRANCH  23  24
HETATM   24  C   UNL     1      -8.491   4.735  65.080  1.00  0.00    -0.135 A  
HETATM   25  C   UNL     1      -8.137   3.818  66.085  1.00  0.00    -0.100 A  
HETATM   26  C   UNL     1      -8.448   2.460  65.989  1.00  0.00    -0.100 A  
HETATM   27  F   UNL     1      -7.510   4.220  67.201  1.00  0.00    -0.072 F  
HETATM   28  C   UNL     1      -9.159   1.988  64.894  1.00  0.00    -0.130 A  
HETATM   29  C   UNL     1      -9.448   2.857  63.845  1.00  0.00    -0.122 A  
HETATM   30  C   UNL     1      -9.055   4.203  63.907  1.00  0.00    -0.140 A  
HETATM   31 CL   UNL     1      -9.247   5.114  62.448  1.00  0.00    -0.015 Cl 
ENDBRANCH  23  24
ENDBRANCH  15  18
ENDBRANCH  12  14
TORSDOF 3
ENDMDL
MODEL      177
REMARK 921   NORMALIZED FREE ENERGY PREDICTED BY IDOCK:   -3.90 KCAL/MOL
REMARK 922        TOTAL FREE ENERGY PREDICTED BY IDOCK:   -5.94 KCAL/MOL
REMARK 923 INTER-LIGAND FREE ENERGY PREDICTED BY IDOCK:   -4.61 KCAL/MOL
REMARK 924 INTRA-LIGAND FREE ENERGY PREDICTED BY IDOCK:   -1.33 KCAL/MOL
REMARK 927      BINDING AFFINITY PREDICTED BY RF-SCORE:    0.00 PKD
ROOT
HETATM    1  C   UNL     1      -8.013   8.111  67.789  1.00  0.00    -0.127 C  
HETATM    2  S   UNL     1      -9.862   8.145  67.748  1.00  0.00    -0.177 SA 
HETATM    3  C   UNL     1      -9.974   9.897  68.340  1.00  0.00    -0.158 C  
HETATM    4  C   UNL     1     -11.213  10.569  67.743  1.00  0.00    -0.344 C  
HETATM    5  CA  UNL     1      -8.613  10.530  67.961  1.00  0.00    -0.121 C  
HETATM    6  C   UNL     1     -10.183   9.878  69.871  1.00  0.00    -0.298 C  
HETATM    7  N   UNL     1      -7.586   9.487  68.113  1.00  0.00    -0.079 N  
HETATM    8  C   UNL     1      -8.465  11.065  66.523  1.00  0.00    -0.161 C  
HETATM    9  OXT UNL     1      -9.326  11.638  65.877  1.00  0.00    -0.225 OA 
HETATM   10  O   UNL     1      -7.188  10.965  66.059  1.00  0.00    -0.134 OA 
HETATM   11  C   UNL     1      -7.116   9.159  69.357  1.00  0.00    -0.053 C  
HETATM   12  CA  UNL     1      -7.394   7.642  69.137  1.00  0.00    -0.089 C  
HETATM   13  O   UNL     1      -6.805   9.905  70.255  1.00  0.00    -0.106 OA 
ENDROOT
BRANCH  12  14
HETATM   14  N   UNL     1      -8.361   6.977  70.043  1.00  0.00    -0.137 N  
HETATM   15  C   UNL     1      -7.993   6.424  71.242  1.00  0.00    -0.112 C  
HETATM   16  H   UNL     1      -9.341   6.929  69.762  1.00  0.00     0.000 HD 
HETATM   17  O   UNL     1      -6.863   6.525  71.704  1.00  0.00    -0.064 OA 
BRANCH  15  18
HETATM   18  C   UNL     1      -9.060   5.709  71.930  1.00  0.00    -0.147 A  
HETATM   19  C   UNL     1      -9.718   6.176  73.050  1.00  0.00    -0.158 A  
HETATM   20  C   UNL     1      -9.643   7.400  73.874  1.00  0.00    -0.303 C  
HETATM   21  O   UNL     1     -10.664   5.280  73.420  1.00  0.00    -0.232 OA 
HETATM   22  N   UNL     1     -10.630   4.191  72.582  1.00  0.00    -0.158 NA 
HETATM   23  C   UNL     1      -9.663   4.424  71.679  1.00  0.00    -0.171 A  
BRANCH  23  24
HETATM   24  C   UNL     1      -9.403   3.454  70.604  1.00  0.00    -0.232 A  
HETATM   25  C   UNL     1      -9.748   3.779  69.280  1.00  0.00    -0.050 A  
HETATM   26  C   UNL     1      -9.339   2.997  68.198  1.00  0.00    -0.254 A  
HETATM   27  F   UNL     1     -10.461   4.880  69.000  1.00  0.00    -0.254 F  
HETATM   28  C   UNL     1      -8.538   1.883  68.411  1.00  0.00    -0.095 A  
HETATM   29  C   UNL     1      -8.252   1.491  69.716  1.00  0.00    -0.063 A  
HETATM   30  C   UNL     1      -8.740   2.230  70.804  1.00  0.00    -0.060 A  
HETATM   31 CL   UNL     1      -8.532   1.507  72.364  1.00  0.00    -0.052 Cl 
ENDBRANCH  23  24
ENDBRANCH  15  18
ENDBRANCH  12  14
TORSDOF 3
ENDMDL
MODEL      178
REMARK 921   NORMALIZED FREE ENERGY PREDICTED BY IDOCK:   -3.89 KCAL/MOL
REMARK 922        TOTAL FREE ENERGY PREDICTED BY IDOCK:   -5.94 KCAL/MOL
REMARK 923 INTER-LIGAND FREE ENERGY PREDICTED BY IDOCK:   -4.28 KCAL/MOL
REMARK 924 INTRA-LIGAND FREE ENERGY PREDICTED BY IDOCK:   -1.66 KCAL/MOL
REMARK 927      BINDING AFFINITY PREDICTED BY RF-SCORE:    0.00 PKD
ROOT
HETATM    1  C   UNL     1      -6.806   5.385  67.654  1.00  0.00    -0.060 C  
HETATM    2  S   UNL     1      -7.722   5.747  69.221  1.00  0.00    -0.090 SA 
HETATM    3  C   UNL     1      -8.831   4.270  69.067  1.00  0.00    -0.096 C  
HETATM    4  C   UNL     1      -9.207   3.756  70.459  1.00  0.00    -0.210 C  
HETATM    5  CA  UNL     1      -8.049   3.280  68.168  1.00  0.00    -0.073 C  
HETATM    6  C   UNL     1     -10.149   4.723  68.398  1.00  0.00    -0.111 C  
HETATM    7  N   UNL     1      -7.304   4.079  67.181  1.00  0.00    -0.068 N  
HETATM    8  C   UNL     1      -7.008   2.379  68.859  1.00  0.00    -0.040 C  
HETATM    9  OXT UNL     1      -7.121   1.863  69.959  1.00  0.00    -0.033 OA 
HETATM   10  O   UNL     1      -5.958   2.077  68.046  1.00  0.00    -0.023 OA 
HETATM   11  C   UNL     1      -7.947   4.600  66.090  1.00  0.00    -0.103 C  
HETATM   12  CA  UNL     1      -7.409   6.035  66.375  1.00  0.00    -0.081 C  
HETATM   13  O   UNL     1      -8.751   4.057  65.371  1.00  0.00    -0.116 OA 
ENDROOT
BRANCH  12  14
HETATM   14  N   UNL     1      -8.400   7.102  66.654  1.00  0.00    -0.111 N  
HETATM   15  C   UNL     1      -8.036   8.389  66.959  1.00  0.00    -0.104 C  
HETATM   16  H   UNL     1      -9.393   6.870  66.618  1.00  0.00     0.000 HD 
HETATM   17  O   UNL     1      -6.876   8.779  66.926  1.00  0.00    -0.068 OA 
BRANCH  15  18
HETATM   18  C   UNL     1      -9.147   9.259  67.323  1.00  0.00    -0.143 A  
HETATM   19  C   UNL     1      -9.890   9.995  66.422  1.00  0.00    -0.224 A  
HETATM   20  C   UNL     1      -9.886  10.166  64.954  1.00  0.00    -0.390 C  
HETATM   21  O   UNL     1     -10.854  10.675  67.087  1.00  0.00    -0.274 OA 
HETATM   22  N   UNL     1     -10.749  10.436  68.436  1.00  0.00    -0.209 NA 
HETATM   23  C   UNL     1      -9.719   9.590  68.603  1.00  0.00    -0.155 A  
BRANCH  23  24
HETATM   24  C   UNL     1      -9.373   9.101  69.947  1.00  0.00    -0.198 A  
HETATM   25  C   UNL     1     -10.276   8.273  70.636  1.00  0.00    -0.193 A  
HETATM   26  C   UNL     1      -9.921   7.611  71.813  1.00  0.00    -0.208 A  
HETATM   27  F   UNL     1     -11.516   8.059  70.170  1.00  0.00    -0.250 F  
HETATM   28  C   UNL     1      -8.631   7.731  72.313  1.00  0.00    -0.173 A  
HETATM   29  C   UNL     1      -7.743   8.609  71.698  1.00  0.00    -0.146 A  
HETATM   30  C   UNL     1      -8.134   9.341  70.567  1.00  0.00    -0.174 A  
HETATM   31 CL   UNL     1      -7.037  10.576  70.049  1.00  0.00    -0.158 Cl 
ENDBRANCH  23  24
ENDBRANCH  15  18
ENDBRANCH  12  14
TORSDOF 3
ENDMDL
MODEL      179
REMARK 921   NORMALIZED FREE ENERGY PREDICTED BY IDOCK:   -3.88 KCAL/MOL
REMARK 922        TOTAL FREE ENERGY PREDICTED BY IDOCK:   -5.92 KCAL/MOL
REMARK 923 INTER-LIGAND FREE ENERGY PREDICTED BY IDOCK:   -5.43 KCAL/MOL
REMARK 924 INTRA-LIGAND FREE ENERGY PREDICTED BY IDOCK:   -0.49 KCAL/MOL
REMARK 927      BINDING AFFINITY PREDICTED BY RF-SCORE:    0.00 PKD
ROOT
HETATM    1  C   UNL     1     -11.801  14.460  65.964  1.00  0.00    -0.372 C  
HETATM    2  S   UNL     1     -10.392  14.410  64.766  1.00  0.00    -0.169 SA 
HETATM    3  C   UNL     1     -10.281  12.560  64.773  1.00  0.00    -0.280 C  
HETATM    4  C   UNL     1      -9.800  12.063  63.407  1.00  0.00    -0.306 C  
HETATM    5  CA  UNL     1     -11.687  12.081  65.210  1.00  0.00    -0.252 C  
HETATM    6  C   UNL     1      -9.198  12.144  65.794  1.00  0.00    -0.019 C  
HETATM    7  N   UNL     1     -12.198  13.056  66.187  1.00  0.00    -0.407 N  
HETATM    8  C   UNL     1     -12.764  11.974  64.113  1.00  0.00    -0.254 C  
HETATM    9  OXT UNL     1     -12.587  11.592  62.968  1.00  0.00    -0.357 OA 
HETATM   10  O   UNL     1     -14.017  12.222  64.586  1.00  0.00     0.582 OA 
HETATM   11  C   UNL     1     -11.758  13.028  67.484  1.00  0.00    -0.370 C  
HETATM   12  CA  UNL     1     -11.388  14.541  67.462  1.00  0.00    -0.340 C  
HETATM   13  O   UNL     1     -11.603  12.065  68.196  1.00  0.00    -0.298 OA 
ENDROOT
BRANCH  12  14
HETATM   14  N   UNL     1      -9.967  14.908  67.673  1.00  0.00    -0.225 N  
HETATM   15  C   UNL     1      -9.457  15.215  68.909  1.00  0.00    -0.213 C  
HETATM   16  H   UNL     1      -9.343  14.935  66.867  1.00  0.00     0.000 HD 
HETATM   17  O   UNL     1     -10.107  15.111  69.943  1.00  0.00    -0.220 OA 
BRANCH  15  18
HETATM   18  C   UNL     1      -8.073  15.671  68.895  1.00  0.00    -0.197 A  
HETATM   19  C   UNL     1      -7.683  16.973  68.652  1.00  0.00    -0.251 A  
HETATM   20  C   UNL     1      -8.386  18.242  68.371  1.00  0.00    -0.323 C  
HETATM   21  O   UNL     1      -6.334  17.059  68.733  1.00  0.00    -0.157 OA 
HETATM   22  N   UNL     1      -5.802  15.818  68.994  1.00  0.00    -0.104 NA 
HETATM   23  C   UNL     1      -6.833  14.963  69.087  1.00  0.00    -0.132 A  
BRANCH  23  24
HETATM   24  C   UNL     1      -6.595  13.547  69.407  1.00  0.00    -0.082 A  
HETATM   25  C   UNL     1      -6.911  12.560  68.457  1.00  0.00    -0.086 A  
HETATM   26  C   UNL     1      -6.517  11.229  68.616  1.00  0.00    -0.050 A  
HETATM   27  F   UNL     1      -7.583  12.865  67.337  1.00  0.00    -0.134 F  
HETATM   28  C   UNL     1      -5.758  10.859  69.718  1.00  0.00    -0.059 A  
HETATM   29  C   UNL     1      -5.502  11.797  70.714  1.00  0.00    -0.138 A  
HETATM   30  C   UNL     1      -5.977  13.111  70.592  1.00  0.00    -0.070 A  
HETATM   31 CL   UNL     1      -5.813  14.107  71.999  1.00  0.00    -0.145 Cl 
ENDBRANCH  23  24
ENDBRANCH  15  18
ENDBRANCH  12  14
TORSDOF 3
ENDMDL
MODEL      180
REMARK 921   NORMALIZED FREE ENERGY PREDICTED BY IDOCK:   -3.87 KCAL/MOL
REMARK 922        TOTAL FREE ENERGY PREDICTED BY IDOCK:   -5.91 KCAL/MOL
REMARK 923 INTER-LIGAND FREE ENERGY PREDICTED BY IDOCK:   -4.67 KCAL/MOL
REMARK 924 INTRA-LIGAND FREE ENERGY PREDICTED BY IDOCK:   -1.24 KCAL/MOL
REMARK 927      BINDING AFFINITY PREDICTED BY RF-SCORE:    0.00 PKD
ROOT
HETATM    1  C   UNL     1      -6.715   9.397  68.891  1.00  0.00    -0.051 C  
HETATM    2  S   UNL     1      -6.518   7.635  68.365  1.00  0.00    -0.054 SA 
HETATM    3  C   UNL     1      -8.003   7.663  67.258  1.00  0.00    -0.118 C  
HETATM    4  C   UNL     1      -7.788   6.712  66.077  1.00  0.00    -0.104 C  
HETATM    5  CA  UNL     1      -8.199   9.156  66.897  1.00  0.00    -0.116 C  
HETATM    6  C   UNL     1      -9.209   7.108  68.051  1.00  0.00    -0.130 C  
HETATM    7  N   UNL     1      -7.818   9.946  68.078  1.00  0.00    -0.086 N  
HETATM    8  C   UNL     1      -7.364   9.710  65.727  1.00  0.00    -0.100 C  
HETATM    9  OXT UNL     1      -7.089   9.118  64.696  1.00  0.00    -0.088 OA 
HETATM   10  O   UNL     1      -7.056  11.027  65.884  1.00  0.00    -0.078 OA 
HETATM   11  C   UNL     1      -8.680  10.063  69.136  1.00  0.00    -0.167 C  
HETATM   12  CA  UNL     1      -7.593   9.612  70.158  1.00  0.00    -0.158 C  
HETATM   13  O   UNL     1      -9.869  10.271  69.108  1.00  0.00    -0.194 OA 
ENDROOT
BRANCH  12  14
HETATM   14  N   UNL     1      -7.843   8.372  70.931  1.00  0.00    -0.089 N  
HETATM   15  C   UNL     1      -7.302   8.151  72.172  1.00  0.00    -0.100 C  
HETATM   16  H   UNL     1      -8.441   7.653  70.524  1.00  0.00     0.000 HD 
HETATM   17  O   UNL     1      -6.657   8.998  72.779  1.00  0.00    -0.314 OA 
BRANCH  15  18
HETATM   18  C   UNL     1      -7.561   6.825  72.716  1.00  0.00    -0.091 A  
HETATM   19  C   UNL     1      -6.613   6.037  73.337  1.00  0.00    -0.074 A  
HETATM   20  C   UNL     1      -5.182   6.189  73.673  1.00  0.00    -0.035 C  
HETATM   21  O   UNL     1      -7.188   4.879  73.742  1.00  0.00    -0.079 OA 
HETATM   22  N   UNL     1      -8.511   4.859  73.370  1.00  0.00    -0.107 NA 
HETATM   23  C   UNL     1      -8.756   6.020  72.741  1.00  0.00    -0.124 A  
BRANCH  23  24
HETATM   24  C   UNL     1     -10.110   6.327  72.253  1.00  0.00    -0.197 A  
HETATM   25  C   UNL     1     -10.912   7.238  72.963  1.00  0.00    -0.344 A  
HETATM   26  C   UNL     1     -12.112   7.726  72.442  1.00  0.00    -0.297 A  
HETATM   27  F   UNL     1     -10.537   7.702  74.164  1.00  0.00    -0.179 F  
HETATM   28  C   UNL     1     -12.524   7.342  71.173  1.00  0.00    -0.343 A  
HETATM   29  C   UNL     1     -11.793   6.379  70.484  1.00  0.00    -0.316 A  
HETATM   30  C   UNL     1     -10.636   5.824  71.049  1.00  0.00    -0.253 A  
HETATM   31 CL   UNL     1      -9.962   4.466  70.214  1.00  0.00    -0.283 Cl 
ENDBRANCH  23  24
ENDBRANCH  15  18
ENDBRANCH  12  14
TORSDOF 3
ENDMDL
MODEL      181
REMARK 921   NORMALIZED FREE ENERGY PREDICTED BY IDOCK:   -3.86 KCAL/MOL
REMARK 922        TOTAL FREE ENERGY PREDICTED BY IDOCK:   -5.90 KCAL/MOL
REMARK 923 INTER-LIGAND FREE ENERGY PREDICTED BY IDOCK:   -4.64 KCAL/MOL
REMARK 924 INTRA-LIGAND FREE ENERGY PREDICTED BY IDOCK:   -1.27 KCAL/MOL
REMARK 927      BINDING AFFINITY PREDICTED BY RF-SCORE:    0.00 PKD
ROOT
HETATM    1  C   UNL     1      -9.265  10.624  65.860  1.00  0.00    -0.182 C  
HETATM    2  S   UNL     1     -10.488   9.667  66.865  1.00  0.00    -0.179 SA 
HETATM    3  C   UNL     1     -10.426  10.841  68.298  1.00  0.00    -0.181 C  
HETATM    4  C   UNL     1     -11.785  10.873  69.002  1.00  0.00    -0.391 C  
HETATM    5  CA  UNL     1      -9.948  12.182  67.689  1.00  0.00    -0.197 C  
HETATM    6  C   UNL     1      -9.413  10.294  69.329  1.00  0.00    -0.230 C  
HETATM    7  N   UNL     1      -8.991  11.861  66.617  1.00  0.00    -0.195 N  
HETATM    8  C   UNL     1     -11.020  13.083  67.046  1.00  0.00    -0.265 C  
HETATM    9  OXT UNL     1     -12.156  13.252  67.457  1.00  0.00    -0.343 OA 
HETATM   10  O   UNL     1     -10.531  13.817  66.009  1.00  0.00    -0.285 OA 
HETATM   11  C   UNL     1      -7.703  11.513  66.925  1.00  0.00    -0.157 C  
HETATM   12  CA  UNL     1      -7.779  10.214  66.067  1.00  0.00    -0.120 C  
HETATM   13  O   UNL     1      -6.965  12.028  67.730  1.00  0.00    -0.086 OA 
ENDROOT
BRANCH  12  14
HETATM   14  N   UNL     1      -7.606   8.915  66.761  1.00  0.00    -0.086 N  
HETATM   15  C   UNL     1      -7.001   7.835  66.170  1.00  0.00    -0.062 C  
HETATM   16  H   UNL     1      -7.951   8.821  67.716  1.00  0.00     0.000 HD 
HETATM   17  O   UNL     1      -6.470   7.889  65.068  1.00  0.00    -0.047 OA 
BRANCH  15  18
HETATM   18  C   UNL     1      -7.038   6.615  66.965  1.00  0.00    -0.076 A  
HETATM   19  C   UNL     1      -6.334   6.425  68.137  1.00  0.00    -0.040 A  
HETATM   20  C   UNL     1      -5.416   7.248  68.953  1.00  0.00    -0.018 C  
HETATM   21  O   UNL     1      -6.608   5.193  68.630  1.00  0.00    -0.045 OA 
HETATM   22  N   UNL     1      -7.465   4.532  67.784  1.00  0.00    -0.073 NA 
HETATM   23  C   UNL     1      -7.731   5.367  66.767  1.00  0.00    -0.100 A  
BRANCH  23  24
HETATM   24  C   UNL     1      -8.664   4.965  65.702  1.00  0.00    -0.135 A  
HETATM   25  C   UNL     1      -8.160   4.421  64.508  1.00  0.00    -0.096 A  
HETATM   26  C   UNL     1      -8.993   3.831  63.556  1.00  0.00    -0.103 A  
HETATM   27  F   UNL     1      -6.843   4.419  64.249  1.00  0.00    -0.041 F  
HETATM   28  C   UNL     1     -10.358   3.736  63.793  1.00  0.00    -0.242 A  
HETATM   29  C   UNL     1     -10.894   4.339  64.927  1.00  0.00    -0.108 A  
HETATM   30  C   UNL     1     -10.063   5.009  65.837  1.00  0.00    -0.168 A  
HETATM   31 CL   UNL     1     -10.870   5.927  67.063  1.00  0.00    -0.386 Cl 
ENDBRANCH  23  24
ENDBRANCH  15  18
ENDBRANCH  12  14
TORSDOF 3
ENDMDL
MODEL      182
REMARK 921   NORMALIZED FREE ENERGY PREDICTED BY IDOCK:   -3.81 KCAL/MOL
REMARK 922        TOTAL FREE ENERGY PREDICTED BY IDOCK:   -5.84 KCAL/MOL
REMARK 923 INTER-LIGAND FREE ENERGY PREDICTED BY IDOCK:   -5.12 KCAL/MOL
REMARK 924 INTRA-LIGAND FREE ENERGY PREDICTED BY IDOCK:   -0.72 KCAL/MOL
REMARK 927      BINDING AFFINITY PREDICTED BY RF-SCORE:    0.00 PKD
ROOT
HETATM    1  C   UNL     1     -10.192   6.680  70.813  1.00  0.00    -0.196 C  
HETATM    2  S   UNL     1      -8.367   6.447  70.622  1.00  0.00    -0.135 SA 
HETATM    3  C   UNL     1      -7.941   8.001  71.536  1.00  0.00    -0.105 C  
HETATM    4  C   UNL     1      -6.605   7.825  72.265  1.00  0.00    -0.059 C  
HETATM    5  CA  UNL     1      -9.170   8.281  72.436  1.00  0.00    -0.256 C  
HETATM    6  C   UNL     1      -7.727   9.129  70.501  1.00  0.00    -0.142 C  
HETATM    7  N   UNL     1     -10.365   7.856  71.689  1.00  0.00    -0.200 N  
HETATM    8  C   UNL     1      -9.230   7.546  73.789  1.00  0.00    -0.275 C  
HETATM    9  OXT UNL     1      -8.284   7.316  74.524  1.00  0.00    -0.159 OA 
HETATM   10  O   UNL     1     -10.507   7.283  74.182  1.00  0.00    -0.255 OA 
HETATM   11  C   UNL     1     -10.878   8.650  70.699  1.00  0.00    -0.229 C  
HETATM   12  CA  UNL     1     -10.876   7.482  69.668  1.00  0.00    -0.202 C  
HETATM   13  O   UNL     1     -11.044   9.846  70.716  1.00  0.00    -0.303 OA 
ENDROOT
BRANCH  12  14
HETATM   14  N   UNL     1     -10.036   7.630  68.455  1.00  0.00    -0.171 N  
HETATM   15  C   UNL     1     -10.339   8.510  67.448  1.00  0.00    -0.286 C  
HETATM   16  H   UNL     1      -9.199   7.053  68.366  1.00  0.00     0.000 HD 
HETATM   17  O   UNL     1     -11.264   9.310  67.517  1.00  0.00     0.039 OA 
BRANCH  15  18
HETATM   18  C   UNL     1      -9.464   8.421  66.286  1.00  0.00    -0.292 A  
HETATM   19  C   UNL     1      -9.346   9.401  65.321  1.00  0.00    -0.238 A  
HETATM   20  C   UNL     1      -9.940  10.737  65.106  1.00  0.00    -0.351 C  
HETATM   21  O   UNL     1      -8.436   9.011  64.395  1.00  0.00    -0.173 OA 
HETATM   22  N   UNL     1      -7.963   7.758  64.705  1.00  0.00    -0.138 NA 
HETATM   23  C   UNL     1      -8.576   7.378  65.838  1.00  0.00    -0.153 A  
BRANCH  23  24
HETATM   24  C   UNL     1      -8.248   6.086  66.460  1.00  0.00    -0.107 A  
HETATM   25  C   UNL     1      -6.945   5.857  66.934  1.00  0.00    -0.068 A  
HETATM   26  C   UNL     1      -6.628   4.744  67.717  1.00  0.00    -0.047 A  
HETATM   27  F   UNL     1      -5.952   6.722  66.679  1.00  0.00    -0.024 F  
HETATM   28  C   UNL     1      -7.624   3.846  68.079  1.00  0.00    -0.066 A  
HETATM   29  C   UNL     1      -8.904   4.004  67.555  1.00  0.00    -0.131 A  
HETATM   30  C   UNL     1      -9.195   5.074  66.697  1.00  0.00    -0.129 A  
HETATM   31 CL   UNL     1     -10.740   5.019  65.917  1.00  0.00    -0.271 Cl 
ENDBRANCH  23  24
ENDBRANCH  15  18
ENDBRANCH  12  14
TORSDOF 3
ENDMDL
MODEL      183
REMARK 921   NORMALIZED FREE ENERGY PREDICTED BY IDOCK:   -3.75 KCAL/MOL
REMARK 922        TOTAL FREE ENERGY PREDICTED BY IDOCK:   -5.78 KCAL/MOL
REMARK 923 INTER-LIGAND FREE ENERGY PREDICTED BY IDOCK:   -4.15 KCAL/MOL
REMARK 924 INTRA-LIGAND FREE ENERGY PREDICTED BY IDOCK:   -1.63 KCAL/MOL
REMARK 927      BINDING AFFINITY PREDICTED BY RF-SCORE:    0.00 PKD
ROOT
HETATM    1  C   UNL     1     -11.154   6.424  69.498  1.00  0.00    -0.396 C  
HETATM    2  S   UNL     1      -9.863   5.235  70.081  1.00  0.00    -0.242 SA 
HETATM    3  C   UNL     1      -9.063   6.459  71.219  1.00  0.00    -0.148 C  
HETATM    4  C   UNL     1      -8.468   5.733  72.428  1.00  0.00    -0.118 C  
HETATM    5  CA  UNL     1     -10.174   7.493  71.531  1.00  0.00    -0.188 C  
HETATM    6  C   UNL     1      -7.877   7.110  70.473  1.00  0.00    -0.100 C  
HETATM    7  N   UNL     1     -10.988   7.643  70.314  1.00  0.00    -0.253 N  
HETATM    8  C   UNL     1     -11.160   7.143  72.662  1.00  0.00    -0.292 C  
HETATM    9  OXT UNL     1     -10.883   6.577  73.707  1.00  0.00    -0.232 OA 
HETATM   10  O   UNL     1     -12.400   7.664  72.452  1.00  0.00    -0.235 OA 
HETATM   11  C   UNL     1     -10.535   8.406  69.271  1.00  0.00    -0.215 C  
HETATM   12  CA  UNL     1     -10.762   7.257  68.243  1.00  0.00    -0.123 C  
HETATM   13  O   UNL     1     -10.010   9.492  69.318  1.00  0.00    -0.172 OA 
ENDROOT
BRANCH  12  14
HETATM   14  N   UNL     1      -9.579   6.732  67.520  1.00  0.00    -0.126 N  
HETATM   15  C   UNL     1      -9.663   5.714  66.605  1.00  0.00    -0.158 C  
HETATM   16  H   UNL     1      -8.666   7.145  67.711  1.00  0.00     0.000 HD 
HETATM   17  O   UNL     1     -10.727   5.230  66.241  1.00  0.00    -0.294 OA 
BRANCH  15  18
HETATM   18  C   UNL     1      -8.377   5.255  66.095  1.00  0.00    -0.115 A  
HETATM   19  C   UNL     1      -7.765   5.750  64.961  1.00  0.00    -0.096 A  
HETATM   20  C   UNL     1      -8.091   6.793  63.966  1.00  0.00    -0.015 C  
HETATM   21  O   UNL     1      -6.578   5.123  64.783  1.00  0.00    -0.041 OA 
HETATM   22  N   UNL     1      -6.395   4.181  65.766  1.00  0.00    -0.032 NA 
HETATM   23  C   UNL     1      -7.473   4.236  66.565  1.00  0.00    -0.081 A  
BRANCH  23  24
HETATM   24  C   UNL     1      -7.561   3.370  67.751  1.00  0.00    -0.065 A  
HETATM   25  C   UNL     1      -6.839   3.707  68.909  1.00  0.00    -0.046 A  
HETATM   26  C   UNL     1      -7.043   3.050  70.124  1.00  0.00    -0.034 A  
HETATM   27  F   UNL     1      -5.939   4.702  68.901  1.00  0.00    -0.021 F  
HETATM   28  C   UNL     1      -8.010   2.058  70.221  1.00  0.00    -0.052 A  
HETATM   29  C   UNL     1      -8.680   1.647  69.072  1.00  0.00    -0.106 A  
HETATM   30  C   UNL     1      -8.407   2.250  67.836  1.00  0.00    -0.066 A  
HETATM   31 CL   UNL     1      -9.114   1.488  66.451  1.00  0.00    -0.088 Cl 
ENDBRANCH  23  24
ENDBRANCH  15  18
ENDBRANCH  12  14
TORSDOF 3
ENDMDL
MODEL      184
REMARK 921   NORMALIZED FREE ENERGY PREDICTED BY IDOCK:   -3.75 KCAL/MOL
REMARK 922        TOTAL FREE ENERGY PREDICTED BY IDOCK:   -5.77 KCAL/MOL
REMARK 923 INTER-LIGAND FREE ENERGY PREDICTED BY IDOCK:   -5.52 KCAL/MOL
REMARK 924 INTRA-LIGAND FREE ENERGY PREDICTED BY IDOCK:   -0.25 KCAL/MOL
REMARK 927      BINDING AFFINITY PREDICTED BY RF-SCORE:    0.00 PKD
ROOT
HETATM    1  C   UNL     1      -8.533   6.284  68.262  1.00  0.00    -0.114 C  
HETATM    2  S   UNL     1      -9.428   5.504  66.843  1.00  0.00    -0.144 SA 
HETATM    3  C   UNL     1      -7.917   4.659  66.184  1.00  0.00    -0.103 C  
HETATM    4  C   UNL     1      -8.311   3.343  65.508  1.00  0.00    -0.099 C  
HETATM    5  CA  UNL     1      -6.970   4.535  67.404  1.00  0.00    -0.060 C  
HETATM    6  C   UNL     1      -7.305   5.551  65.080  1.00  0.00    -0.068 C  
HETATM    7  N   UNL     1      -7.163   5.736  68.232  1.00  0.00    -0.074 N  
HETATM    8  C   UNL     1      -7.188   3.332  68.342  1.00  0.00    -0.050 C  
HETATM    9  OXT UNL     1      -7.494   2.201  68.001  1.00  0.00    -0.053 OA 
HETATM   10  O   UNL     1      -6.861   3.612  69.634  1.00  0.00    -0.040 OA 
HETATM   11  C   UNL     1      -6.583   6.923  67.871  1.00  0.00    -0.059 C  
HETATM   12  CA  UNL     1      -7.935   7.691  67.969  1.00  0.00    -0.122 C  
HETATM   13  O   UNL     1      -5.459   7.110  67.471  1.00  0.00    -0.021 OA 
ENDROOT
BRANCH  12  14
HETATM   14  N   UNL     1      -8.463   8.322  66.736  1.00  0.00    -0.119 N  
HETATM   15  C   UNL     1      -8.311   9.658  66.464  1.00  0.00    -0.120 C  
HETATM   16  H   UNL     1      -8.961   7.740  66.062  1.00  0.00     0.000 HD 
HETATM   17  O   UNL     1      -7.643  10.409  67.164  1.00  0.00    -0.094 OA 
BRANCH  15  18
HETATM   18  C   UNL     1      -9.006  10.113  65.267  1.00  0.00    -0.218 A  
HETATM   19  C   UNL     1      -8.869   9.539  64.019  1.00  0.00    -0.212 A  
HETATM   20  C   UNL     1      -8.104   8.402  63.468  1.00  0.00    -0.143 C  
HETATM   21  O   UNL     1      -9.668  10.188  63.138  1.00  0.00    -0.261 OA 
HETATM   22  N   UNL     1     -10.319  11.220  63.770  1.00  0.00    -0.361 NA 
HETATM   23  C   UNL     1      -9.928  11.200  65.054  1.00  0.00    -0.273 A  
BRANCH  23  24
HETATM   24  C   UNL     1     -10.488  12.164  66.014  1.00  0.00    -0.281 A  
HETATM   25  C   UNL     1     -10.481  13.535  65.702  1.00  0.00    -0.293 A  
HETATM   26  C   UNL     1     -11.180  14.470  66.469  1.00  0.00    -0.344 A  
HETATM   27  F   UNL     1      -9.824  13.999  64.628  1.00  0.00    -0.354 F  
HETATM   28  C   UNL     1     -11.940  14.049  67.552  1.00  0.00    -0.430 A  
HETATM   29  C   UNL     1     -11.897  12.710  67.933  1.00  0.00    -0.388 A  
HETATM   30  C   UNL     1     -11.121  11.790  67.213  1.00  0.00    -0.287 A  
HETATM   31 CL   UNL     1     -10.950  10.222  67.928  1.00  0.00    -0.337 Cl 
ENDBRANCH  23  24
ENDBRANCH  15  18
ENDBRANCH  12  14
TORSDOF 3
ENDMDL
MODEL      185
REMARK 921   NORMALIZED FREE ENERGY PREDICTED BY IDOCK:   -3.71 KCAL/MOL
REMARK 922        TOTAL FREE ENERGY PREDICTED BY IDOCK:   -5.73 KCAL/MOL
REMARK 923 INTER-LIGAND FREE ENERGY PREDICTED BY IDOCK:   -4.69 KCAL/MOL
REMARK 924 INTRA-LIGAND FREE ENERGY PREDICTED BY IDOCK:   -1.04 KCAL/MOL
REMARK 927      BINDING AFFINITY PREDICTED BY RF-SCORE:    0.00 PKD
ROOT
HETATM    1  C   UNL     1     -10.807   8.518  69.895  1.00  0.00    -0.205 C  
HETATM    2  S   UNL     1     -11.075   7.410  68.438  1.00  0.00     0.310 SA 
HETATM    3  C   UNL     1      -9.432   6.570  68.610  1.00  0.00    -0.123 C  
HETATM    4  C   UNL     1      -9.537   5.121  68.125  1.00  0.00    -0.173 C  
HETATM    5  CA  UNL     1      -9.045   6.759  70.097  1.00  0.00    -0.155 C  
HETATM    6  C   UNL     1      -8.428   7.273  67.669  1.00  0.00    -0.116 C  
HETATM    7  N   UNL     1      -9.541   8.080  70.515  1.00  0.00    -0.170 N  
HETATM    8  C   UNL     1      -9.625   5.749  71.106  1.00  0.00    -0.167 C  
HETATM    9  OXT UNL     1      -9.780   4.554  70.918  1.00  0.00    -0.166 OA 
HETATM   10  O   UNL     1      -9.833   6.300  72.334  1.00  0.00    -0.165 OA 
HETATM   11  C   UNL     1      -8.857   9.214  70.167  1.00  0.00    -0.197 C  
HETATM   12  CA  UNL     1     -10.132   9.881  69.569  1.00  0.00    -0.221 C  
HETATM   13  O   UNL     1      -7.665   9.405  70.205  1.00  0.00    -0.099 OA 
ENDROOT
BRANCH  12  14
HETATM   14  N   UNL     1     -10.125  10.218  68.125  1.00  0.00    -0.146 N  
HETATM   15  C   UNL     1      -9.751  11.450  67.654  1.00  0.00    -0.172 C  
HETATM   16  H   UNL     1     -10.411   9.504  67.455  1.00  0.00     0.000 HD 
HETATM   17  O   UNL     1      -9.299  12.331  68.375  1.00  0.00    -0.203 OA 
BRANCH  15  18
HETATM   18  C   UNL     1      -9.930  11.627  66.219  1.00  0.00    -0.247 A  
HETATM   19  C   UNL     1     -10.943  12.368  65.644  1.00  0.00    -0.286 A  
HETATM   20  C   UNL     1     -12.070  13.175  66.156  1.00  0.00    -0.479 C  
HETATM   21  O   UNL     1     -10.807  12.344  64.297  1.00  0.00    -0.306 OA 
HETATM   22  N   UNL     1      -9.731  11.563  63.950  1.00  0.00    -0.264 NA 
HETATM   23  C   UNL     1      -9.191  11.112  65.094  1.00  0.00    -0.189 A  
BRANCH  23  24
HETATM   24  C   UNL     1      -7.982  10.273  65.064  1.00  0.00    -0.144 A  
HETATM   25  C   UNL     1      -6.923  10.553  65.945  1.00  0.00    -0.131 A  
HETATM   26  C   UNL     1      -5.849   9.676  66.110  1.00  0.00    -0.061 A  
HETATM   27  F   UNL     1      -6.919  11.667  66.692  1.00  0.00    -0.134 F  
HETATM   28  C   UNL     1      -5.826   8.471  65.420  1.00  0.00    -0.044 A  
HETATM   29  C   UNL     1      -6.818   8.207  64.480  1.00  0.00    -0.068 A  
HETATM   30  C   UNL     1      -7.848   9.132  64.253  1.00  0.00    -0.127 A  
HETATM   31 CL   UNL     1      -8.870   8.807  62.893  1.00  0.00    -0.040 Cl 
ENDBRANCH  23  24
ENDBRANCH  15  18
ENDBRANCH  12  14
TORSDOF 3
ENDMDL
MODEL      186
REMARK 921   NORMALIZED FREE ENERGY PREDICTED BY IDOCK:   -3.69 KCAL/MOL
REMARK 922        TOTAL FREE ENERGY PREDICTED BY IDOCK:   -5.70 KCAL/MOL
REMARK 923 INTER-LIGAND FREE ENERGY PREDICTED BY IDOCK:   -4.40 KCAL/MOL
REMARK 924 INTRA-LIGAND FREE ENERGY PREDICTED BY IDOCK:   -1.29 KCAL/MOL
REMARK 927      BINDING AFFINITY PREDICTED BY RF-SCORE:    0.00 PKD
ROOT
HETATM    1  C   UNL     1     -10.715   7.252  70.256  1.00  0.00    -0.236 C  
HETATM    2  S   UNL     1     -10.103   5.507  70.278  1.00  0.00    -0.258 SA 
HETATM    3  C   UNL     1      -8.925   5.800  71.678  1.00  0.00    -0.136 C  
HETATM    4  C   UNL     1      -8.778   4.522  72.509  1.00  0.00    -0.119 C  
HETATM    5  CA  UNL     1      -9.497   7.030  72.425  1.00  0.00    -0.142 C  
HETATM    6  C   UNL     1      -7.530   6.097  71.083  1.00  0.00    -0.085 C  
HETATM    7  N   UNL     1     -10.090   7.920  71.414  1.00  0.00    -0.175 N  
HETATM    8  C   UNL     1     -10.606   6.767  73.463  1.00  0.00    -0.332 C  
HETATM    9  OXT UNL     1     -10.666   5.816  74.225  1.00  0.00    -0.191 OA 
HETATM   10  O   UNL     1     -11.485   7.803  73.560  1.00  0.00    -0.112 OA 
HETATM   11  C   UNL     1      -9.288   8.726  70.650  1.00  0.00    -0.195 C  
HETATM   12  CA  UNL     1      -9.925   8.215  69.323  1.00  0.00    -0.188 C  
HETATM   13  O   UNL     1      -8.349   9.395  71.009  1.00  0.00    -0.294 OA 
ENDROOT
BRANCH  12  14
HETATM   14  N   UNL     1      -9.042   7.521  68.355  1.00  0.00    -0.134 N  
HETATM   15  C   UNL     1      -9.487   7.067  67.140  1.00  0.00    -0.145 C  
HETATM   16  H   UNL     1      -8.063   7.375  68.602  1.00  0.00     0.000 HD 
HETATM   17  O   UNL     1     -10.617   7.287  66.719  1.00  0.00    -0.298 OA 
BRANCH  15  18
HETATM   18  C   UNL     1      -8.504   6.303  66.384  1.00  0.00    -0.125 A  
HETATM   19  C   UNL     1      -8.492   4.926  66.287  1.00  0.00    -0.111 A  
HETATM   20  C   UNL     1      -9.339   3.832  66.806  1.00  0.00    -0.209 C  
HETATM   21  O   UNL     1      -7.462   4.541  65.495  1.00  0.00    -0.078 OA 
HETATM   22  N   UNL     1      -6.754   5.644  65.082  1.00  0.00    -0.046 NA 
HETATM   23  C   UNL     1      -7.359   6.718  65.614  1.00  0.00    -0.079 A  
BRANCH  23  24
HETATM   24  C   UNL     1      -6.860   8.071  65.319  1.00  0.00    -0.058 A  
HETATM   25  C   UNL     1      -6.152   8.778  66.306  1.00  0.00    -0.059 A  
HETATM   26  C   UNL     1      -5.477   9.967  66.022  1.00  0.00    -0.054 A  
HETATM   27  F   UNL     1      -6.069   8.318  67.564  1.00  0.00    -0.046 F  
HETATM   28  C   UNL     1      -5.463  10.462  64.725  1.00  0.00    -0.139 A  
HETATM   29  C   UNL     1      -6.224   9.828  63.747  1.00  0.00    -0.116 A  
HETATM   30  C   UNL     1      -6.973   8.684  64.059  1.00  0.00    -0.082 A  
HETATM   31 CL   UNL     1      -8.068   8.139  62.833  1.00  0.00    -0.159 Cl 
ENDBRANCH  23  24
ENDBRANCH  15  18
ENDBRANCH  12  14
TORSDOF 3
ENDMDL
MODEL      187
REMARK 921   NORMALIZED FREE ENERGY PREDICTED BY IDOCK:   -3.65 KCAL/MOL
REMARK 922        TOTAL FREE ENERGY PREDICTED BY IDOCK:   -5.66 KCAL/MOL
REMARK 923 INTER-LIGAND FREE ENERGY PREDICTED BY IDOCK:   -5.00 KCAL/MOL
REMARK 924 INTRA-LIGAND FREE ENERGY PREDICTED BY IDOCK:   -0.66 KCAL/MOL
REMARK 927      BINDING AFFINITY PREDICTED BY RF-SCORE:    0.00 PKD
ROOT
HETATM    1  C   UNL     1     -10.061  11.189  68.556  1.00  0.00    -0.201 C  
HETATM    2  S   UNL     1      -8.248  11.036  68.889  1.00  0.00    -0.092 SA 
HETATM    3  C   UNL     1      -7.760  11.473  67.155  1.00  0.00    -0.160 C  
HETATM    4  C   UNL     1      -6.411  12.196  67.162  1.00  0.00    -0.139 C  
HETATM    5  CA  UNL     1      -8.958  12.282  66.600  1.00  0.00    -0.189 C  
HETATM    6  C   UNL     1      -7.548  10.161  66.367  1.00  0.00    -0.108 C  
HETATM    7  N   UNL     1     -10.183  11.707  67.179  1.00  0.00    -0.210 N  
HETATM    8  C   UNL     1      -9.000  13.787  66.928  1.00  0.00    -0.221 C  
HETATM    9  OXT UNL     1      -8.040  14.539  66.973  1.00  0.00    -0.191 OA 
HETATM   10  O   UNL     1     -10.271  14.263  67.033  1.00  0.00    -0.256 OA 
HETATM   11  C   UNL     1     -10.703  10.544  66.676  1.00  0.00    -0.155 C  
HETATM   12  CA  UNL     1     -10.756   9.879  68.084  1.00  0.00    -0.233 C  
HETATM   13  O   UNL     1     -10.840  10.231  65.518  1.00  0.00     0.055 OA 
ENDROOT
BRANCH  12  14
HETATM   14  N   UNL     1      -9.946   8.657  68.304  1.00  0.00    -0.174 N  
HETATM   15  C   UNL     1     -10.296   7.689  69.210  1.00  0.00    -0.217 C  
HETATM   16  H   UNL     1      -9.093   8.531  67.759  1.00  0.00     0.000 HD 
HETATM   17  O   UNL     1     -11.352   7.709  69.832  1.00  0.00    -0.151 OA 
BRANCH  15  18
HETATM   18  C   UNL     1      -9.310   6.628  69.371  1.00  0.00    -0.147 A  
HETATM   19  C   UNL     1      -8.436   6.219  68.385  1.00  0.00    -0.115 A  
HETATM   20  C   UNL     1      -8.163   6.629  66.991  1.00  0.00    -0.113 C  
HETATM   21  O   UNL     1      -7.644   5.233  68.869  1.00  0.00    -0.079 OA 
HETATM   22  N   UNL     1      -7.998   4.944  70.166  1.00  0.00    -0.072 NA 
HETATM   23  C   UNL     1      -9.008   5.768  70.487  1.00  0.00    -0.143 A  
BRANCH  23  24
HETATM   24  C   UNL     1      -9.588   5.737  71.839  1.00  0.00    -0.172 A  
HETATM   25  C   UNL     1     -10.299   4.601  72.262  1.00  0.00    -0.185 A  
HETATM   26  C   UNL     1     -10.688   4.425  73.591  1.00  0.00    -0.339 A  
HETATM   27  F   UNL     1     -10.607   3.616  71.403  1.00  0.00    -0.008 F  
HETATM   28  C   UNL     1     -10.339   5.371  74.546  1.00  0.00    -0.272 A  
HETATM   29  C   UNL     1      -9.709   6.545  74.141  1.00  0.00    -0.291 A  
HETATM   30  C   UNL     1      -9.400   6.757  72.789  1.00  0.00    -0.135 A  
HETATM   31 CL   UNL     1      -8.852   8.347  72.379  1.00  0.00    -0.286 Cl 
ENDBRANCH  23  24
ENDBRANCH  15  18
ENDBRANCH  12  14
TORSDOF 3
ENDMDL
MODEL      188
REMARK 921   NORMALIZED FREE ENERGY PREDICTED BY IDOCK:   -3.62 KCAL/MOL
REMARK 922        TOTAL FREE ENERGY PREDICTED BY IDOCK:   -5.62 KCAL/MOL
REMARK 923 INTER-LIGAND FREE ENERGY PREDICTED BY IDOCK:   -3.98 KCAL/MOL
REMARK 924 INTRA-LIGAND FREE ENERGY PREDICTED BY IDOCK:   -1.64 KCAL/MOL
REMARK 927      BINDING AFFINITY PREDICTED BY RF-SCORE:    0.00 PKD
ROOT
HETATM    1  C   UNL     1      -6.662   5.726  68.009  1.00  0.00    -0.054 C  
HETATM    2  S   UNL     1      -8.066   6.683  68.741  1.00  0.00    -0.120 SA 
HETATM    3  C   UNL     1      -9.213   5.227  68.770  1.00  0.00    -0.116 C  
HETATM    4  C   UNL     1     -10.179   5.351  69.953  1.00  0.00    -0.351 C  
HETATM    5  CA  UNL     1      -8.282   3.990  68.784  1.00  0.00    -0.074 C  
HETATM    6  C   UNL     1     -10.082   5.269  67.492  1.00  0.00    -0.222 C  
HETATM    7  N   UNL     1      -7.105   4.318  67.964  1.00  0.00    -0.059 N  
HETATM    8  C   UNL     1      -7.736   3.539  70.152  1.00  0.00    -0.047 C  
HETATM    9  OXT UNL     1      -8.346   3.548  71.208  1.00  0.00    -0.066 OA 
HETATM   10  O   UNL     1      -6.501   2.972  70.059  1.00  0.00    -0.031 OA 
HETATM   11  C   UNL     1      -7.183   4.276  66.598  1.00  0.00    -0.075 C  
HETATM   12  CA  UNL     1      -6.612   5.719  66.453  1.00  0.00    -0.055 C  
HETATM   13  O   UNL     1      -7.701   3.431  65.908  1.00  0.00    -0.080 OA 
ENDROOT
BRANCH  12  14
HETATM   14  N   UNL     1      -7.476   6.744  65.820  1.00  0.00    -0.082 N  
HETATM   15  C   UNL     1      -7.009   7.980  65.450  1.00  0.00    -0.063 C  
HETATM   16  H   UNL     1      -8.457   6.522  65.654  1.00  0.00     0.000 HD 
HETATM   17  O   UNL     1      -5.827   8.294  65.519  1.00  0.00    -0.043 OA 
BRANCH  15  18
HETATM   18  C   UNL     1      -8.036   8.890  64.960  1.00  0.00    -0.125 A  
HETATM   19  C   UNL     1      -8.375   9.042  63.631  1.00  0.00    -0.177 A  
HETATM   20  C   UNL     1      -7.930   8.434  62.360  1.00  0.00    -0.154 C  
HETATM   21  O   UNL     1      -9.377   9.948  63.525  1.00  0.00    -0.272 OA 
HETATM   22  N   UNL     1      -9.696  10.439  64.768  1.00  0.00    -0.295 NA 
HETATM   23  C   UNL     1      -8.892   9.821  65.650  1.00  0.00    -0.154 A  
BRANCH  23  24
HETATM   24  C   UNL     1      -9.018  10.100  67.089  1.00  0.00    -0.146 A  
HETATM   25  C   UNL     1     -10.202   9.749  67.761  1.00  0.00    -0.208 A  
HETATM   26  C   UNL     1     -10.302   9.794  69.153  1.00  0.00    -0.225 A  
HETATM   27  F   UNL     1     -11.282   9.324  67.088  1.00  0.00    -0.203 F  
HETATM   28  C   UNL     1      -9.199  10.156  69.915  1.00  0.00    -0.119 A  
HETATM   29  C   UNL     1      -8.042  10.588  69.274  1.00  0.00    -0.152 A  
HETATM   30  C   UNL     1      -7.977  10.627  67.873  1.00  0.00    -0.106 A  
HETATM   31 CL   UNL     1      -6.588  11.414  67.202  1.00  0.00    -0.106 Cl 
ENDBRANCH  23  24
ENDBRANCH  15  18
ENDBRANCH  12  14
TORSDOF 3
ENDMDL
MODEL      189
REMARK 921   NORMALIZED FREE ENERGY PREDICTED BY IDOCK:   -3.44 KCAL/MOL
REMARK 922        TOTAL FREE ENERGY PREDICTED BY IDOCK:   -5.41 KCAL/MOL
REMARK 923 INTER-LIGAND FREE ENERGY PREDICTED BY IDOCK:   -4.14 KCAL/MOL
REMARK 924 INTRA-LIGAND FREE ENERGY PREDICTED BY IDOCK:   -1.26 KCAL/MOL
REMARK 927      BINDING AFFINITY PREDICTED BY RF-SCORE:    0.00 PKD
ROOT
HETATM    1  C   UNL     1      -7.499   7.144  67.672  1.00  0.00    -0.101 C  
HETATM    2  S   UNL     1      -8.370   5.521  67.840  1.00  0.00    -0.098 SA 
HETATM    3  C   UNL     1      -9.652   5.929  66.565  1.00  0.00    -0.156 C  
HETATM    4  C   UNL     1     -10.095   4.651  65.847  1.00  0.00    -0.280 C  
HETATM    5  CA  UNL     1      -8.993   7.011  65.675  1.00  0.00     0.061 C  
HETATM    6  C   UNL     1     -10.901   6.476  67.292  1.00  0.00    -0.463 C  
HETATM    7  N   UNL     1      -8.151   7.844  66.548  1.00  0.00    -0.105 N  
HETATM    8  C   UNL     1      -8.074   6.521  64.540  1.00  0.00    -0.079 C  
HETATM    9  OXT UNL     1      -8.255   5.536  63.843  1.00  0.00    -0.120 OA 
HETATM   10  O   UNL     1      -7.065   7.396  64.272  1.00  0.00    -0.060 OA 
HETATM   11  C   UNL     1      -8.720   8.806  67.340  1.00  0.00    -0.130 C  
HETATM   12  CA  UNL     1      -8.011   8.267  68.619  1.00  0.00    -0.122 C  
HETATM   13  O   UNL     1      -9.581   9.599  67.045  1.00  0.00    -0.160 OA 
ENDROOT
BRANCH  12  14
HETATM   14  N   UNL     1      -8.865   7.774  69.727  1.00  0.00    -0.139 N  
HETATM   15  C   UNL     1      -8.406   7.643  71.013  1.00  0.00    -0.112 C  
HETATM   16  H   UNL     1      -9.833   7.523  69.525  1.00  0.00     0.000 HD 
HETATM   17  O   UNL     1      -7.294   8.015  71.366  1.00  0.00    -0.062 OA 
BRANCH  15  18
HETATM   18  C   UNL     1      -9.355   7.026  71.931  1.00  0.00    -0.147 A  
HETATM   19  C   UNL     1     -10.556   7.592  72.309  1.00  0.00    -0.236 A  
HETATM   20  C   UNL     1     -11.274   8.841  71.982  1.00  0.00    -0.443 C  
HETATM   21  O   UNL     1     -11.202   6.750  73.152  1.00  0.00    -0.218 OA 
HETATM   22  N   UNL     1     -10.433   5.634  73.377  1.00  0.00    -0.224 NA 
HETATM   23  C   UNL     1      -9.309   5.782  72.658  1.00  0.00    -0.140 A  
BRANCH  23  24
HETATM   24  C   UNL     1      -8.288   4.723  72.651  1.00  0.00    -0.112 A  
HETATM   25  C   UNL     1      -8.522   3.540  71.928  1.00  0.00    -0.081 A  
HETATM   26  C   UNL     1      -7.517   2.596  71.710  1.00  0.00    -0.040 A  
HETATM   27  F   UNL     1      -9.723   3.285  71.386  1.00  0.00    -0.203 F  
HETATM   28  C   UNL     1      -6.232   2.831  72.182  1.00  0.00    -0.014 A  
HETATM   29  C   UNL     1      -5.993   3.952  72.971  1.00  0.00    -0.011 A  
HETATM   30  C   UNL     1      -7.028   4.853  73.262  1.00  0.00    -0.071 A  
HETATM   31 CL   UNL     1      -6.670   6.059  74.450  1.00  0.00    -0.076 Cl 
ENDBRANCH  23  24
ENDBRANCH  15  18
ENDBRANCH  12  14
TORSDOF 3
ENDMDL
MODEL      190
REMARK 921   NORMALIZED FREE ENERGY PREDICTED BY IDOCK:   -3.40 KCAL/MOL
REMARK 922        TOTAL FREE ENERGY PREDICTED BY IDOCK:   -5.37 KCAL/MOL
REMARK 923 INTER-LIGAND FREE ENERGY PREDICTED BY IDOCK:   -3.92 KCAL/MOL
REMARK 924 INTRA-LIGAND FREE ENERGY PREDICTED BY IDOCK:   -1.45 KCAL/MOL
REMARK 927      BINDING AFFINITY PREDICTED BY RF-SCORE:    0.00 PKD
ROOT
HETATM    1  C   UNL     1     -10.329   7.459  70.925  1.00  0.00    -0.200 C  
HETATM    2  S   UNL     1     -10.286   9.266  71.320  1.00  0.00    -0.299 SA 
HETATM    3  C   UNL     1     -11.883   9.626  70.452  1.00  0.00    -0.155 C  
HETATM    4  C   UNL     1     -12.602  10.786  71.148  1.00  0.00    -0.532 C  
HETATM    5  CA  UNL     1     -12.639   8.275  70.437  1.00  0.00     0.701 C  
HETATM    6  C   UNL     1     -11.558  10.111  69.021  1.00  0.00    -0.076 C  
HETATM    7  N   UNL     1     -11.633   7.212  70.278  1.00  0.00    -0.253 N  
HETATM    8  C   UNL     1     -13.449   7.909  71.695  1.00  0.00    -0.341 C  
HETATM    9  OXT UNL     1     -14.097   8.682  72.382  1.00  0.00    -0.422 OA 
HETATM   10  O   UNL     1     -13.498   6.566  71.912  1.00  0.00    -0.139 OA 
HETATM   11  C   UNL     1     -11.092   6.953  69.047  1.00  0.00    -0.136 C  
HETATM   12  CA  UNL     1      -9.636   7.061  69.590  1.00  0.00    -0.150 C  
HETATM   13  O   UNL     1     -11.663   6.874  67.986  1.00  0.00     0.423 OA 
ENDROOT
BRANCH  12  14
HETATM   14  N   UNL     1      -8.765   8.121  69.027  1.00  0.00    -0.143 N  
HETATM   15  C   UNL     1      -7.817   7.869  68.069  1.00  0.00    -0.127 C  
HETATM   16  H   UNL     1      -8.875   9.077  69.367  1.00  0.00     0.000 HD 
HETATM   17  O   UNL     1      -7.685   6.776  67.532  1.00  0.00    -0.106 OA 
BRANCH  15  18
HETATM   18  C   UNL     1      -6.978   9.013  67.735  1.00  0.00    -0.078 A  
HETATM   19  C   UNL     1      -5.879   9.416  68.467  1.00  0.00    -0.041 A  
HETATM   20  C   UNL     1      -5.195   8.928  69.682  1.00  0.00    -0.030 C  
HETATM   21  O   UNL     1      -5.316  10.495  67.872  1.00  0.00    -0.038 OA 
HETATM   22  N   UNL     1      -6.044  10.849  66.761  1.00  0.00    -0.077 NA 
HETATM   23  C   UNL     1      -7.058   9.974  66.664  1.00  0.00    -0.091 A  
BRANCH  23  24
HETATM   24  C   UNL     1      -8.004  10.059  65.540  1.00  0.00    -0.139 A  
HETATM   25  C   UNL     1      -9.046  11.002  65.581  1.00  0.00    -0.206 A  
HETATM   26  C   UNL     1      -9.841  11.273  64.466  1.00  0.00    -0.317 A  
HETATM   27  F   UNL     1      -9.299  11.707  66.694  1.00  0.00    -0.174 F  
HETATM   28  C   UNL     1      -9.587  10.630  63.261  1.00  0.00    -0.382 A  
HETATM   29  C   UNL     1      -8.617   9.633  63.215  1.00  0.00    -0.210 A  
HETATM   30  C   UNL     1      -7.881   9.301  64.362  1.00  0.00    -0.123 A  
HETATM   31 CL   UNL     1      -6.892   7.885  64.242  1.00  0.00    -0.060 Cl 
ENDBRANCH  23  24
ENDBRANCH  15  18
ENDBRANCH  12  14
TORSDOF 3
ENDMDL
MODEL      191
REMARK 921   NORMALIZED FREE ENERGY PREDICTED BY IDOCK:   -3.39 KCAL/MOL
REMARK 922        TOTAL FREE ENERGY PREDICTED BY IDOCK:   -5.35 KCAL/MOL
REMARK 923 INTER-LIGAND FREE ENERGY PREDICTED BY IDOCK:   -4.72 KCAL/MOL
REMARK 924 INTRA-LIGAND FREE ENERGY PREDICTED BY IDOCK:   -0.63 KCAL/MOL
REMARK 927      BINDING AFFINITY PREDICTED BY RF-SCORE:    0.00 PKD
ROOT
HETATM    1  C   UNL     1     -12.203   9.638  69.091  1.00  0.00     1.286 C  
HETATM    2  S   UNL     1     -10.658   8.620  69.110  1.00  0.00    -0.129 SA 
HETATM    3  C   UNL     1     -10.558   8.571  70.960  1.00  0.00    -0.216 C  
HETATM    4  C   UNL     1      -9.915   7.256  71.410  1.00  0.00    -0.193 C  
HETATM    5  CA  UNL     1     -12.009   8.814  71.441  1.00  0.00    -0.310 C  
HETATM    6  C   UNL     1      -9.610   9.701  71.423  1.00  0.00     0.451 C  
HETATM    7  N   UNL     1     -12.632   9.757  70.499  1.00  0.00    -0.100 N  
HETATM    8  C   UNL     1     -12.944   7.590  71.497  1.00  0.00    -0.359 C  
HETATM    9  OXT UNL     1     -12.630   6.461  71.838  1.00  0.00    -0.314 OA 
HETATM   10  O   UNL     1     -14.244   7.915  71.255  1.00  0.00    -0.345 OA 
HETATM   11  C   UNL     1     -12.354  11.096  70.579  1.00  0.00    -0.364 C  
HETATM   12  CA  UNL     1     -11.977  11.177  69.069  1.00  0.00    -0.320 C  
HETATM   13  O   UNL     1     -12.293  11.784  71.569  1.00  0.00    -0.156 OA 
ENDROOT
BRANCH  12  14
HETATM   14  N   UNL     1     -10.591  11.575  68.723  1.00  0.00    -0.206 N  
HETATM   15  C   UNL     1     -10.187  12.884  68.672  1.00  0.00    -0.160 C  
HETATM   16  H   UNL     1      -9.910  10.844  68.515  1.00  0.00     0.000 HD 
HETATM   17  O   UNL     1     -10.908  13.818  69.005  1.00  0.00    -0.249 OA 
BRANCH  15  18
HETATM   18  C   UNL     1      -8.825  13.077  68.192  1.00  0.00    -0.194 A  
HETATM   19  C   UNL     1      -7.795  12.178  68.384  1.00  0.00    -0.149 A  
HETATM   20  C   UNL     1      -7.667  10.855  69.029  1.00  0.00    -0.135 C  
HETATM   21  O   UNL     1      -6.671  12.652  67.796  1.00  0.00    -0.096 OA 
HETATM   22  N   UNL     1      -6.920  13.883  67.237  1.00  0.00    -0.148 NA 
HETATM   23  C   UNL     1      -8.212  14.164  67.472  1.00  0.00    -0.186 A  
BRANCH  23  24
HETATM   24  C   UNL     1      -8.805  15.408  66.957  1.00  0.00    -0.252 A  
HETATM   25  C   UNL     1      -9.571  15.373  65.778  1.00  0.00    -0.333 A  
HETATM   26  C   UNL     1     -10.328  16.469  65.357  1.00  0.00    -0.246 A  
HETATM   27  F   UNL     1      -9.631  14.267  65.023  1.00  0.00    -0.243 F  
HETATM   28  C   UNL     1     -10.368  17.621  66.130  1.00  0.00    -0.334 A  
HETATM   29  C   UNL     1      -9.555  17.713  67.257  1.00  0.00    -0.271 A  
HETATM   30  C   UNL     1      -8.728  16.642  67.626  1.00  0.00    -0.202 A  
HETATM   31 CL   UNL     1      -7.586  16.969  68.886  1.00  0.00    -0.243 Cl 
ENDBRANCH  23  24
ENDBRANCH  15  18
ENDBRANCH  12  14
TORSDOF 3
ENDMDL
MODEL      192
REMARK 921   NORMALIZED FREE ENERGY PREDICTED BY IDOCK:   -3.35 KCAL/MOL
REMARK 922        TOTAL FREE ENERGY PREDICTED BY IDOCK:   -5.30 KCAL/MOL
REMARK 923 INTER-LIGAND FREE ENERGY PREDICTED BY IDOCK:   -4.54 KCAL/MOL
REMARK 924 INTRA-LIGAND FREE ENERGY PREDICTED BY IDOCK:   -0.77 KCAL/MOL
REMARK 927      BINDING AFFINITY PREDICTED BY RF-SCORE:    0.00 PKD
ROOT
HETATM    1  C   UNL     1     -10.648   8.422  67.240  1.00  0.00    -0.257 C  
HETATM    2  S   UNL     1      -9.937   9.331  68.686  1.00  0.00    -0.184 SA 
HETATM    3  C   UNL     1      -8.380   9.795  67.795  1.00  0.00    -0.114 C  
HETATM    4  C   UNL     1      -7.866  11.141  68.314  1.00  0.00    -0.123 C  
HETATM    5  CA  UNL     1      -8.755   9.748  66.293  1.00  0.00    -0.139 C  
HETATM    6  C   UNL     1      -7.294   8.751  68.142  1.00  0.00    -0.087 C  
HETATM    7  N   UNL     1      -9.718   8.649  66.116  1.00  0.00    -0.248 N  
HETATM    8  C   UNL     1      -9.424  11.001  65.698  1.00  0.00    -0.217 C  
HETATM    9  OXT UNL     1      -9.152  12.159  65.970  1.00  0.00    -0.173 OA 
HETATM   10  O   UNL     1     -10.291  10.701  64.692  1.00  0.00    -0.345 OA 
HETATM   11  C   UNL     1      -9.284   7.351  66.075  1.00  0.00    -0.041 C  
HETATM   12  CA  UNL     1     -10.293   6.908  67.176  1.00  0.00    -0.269 C  
HETATM   13  O   UNL     1      -8.332   6.905  65.482  1.00  0.00    -0.137 OA 
ENDROOT
BRANCH  12  14
HETATM   14  N   UNL     1      -9.742   6.367  68.442  1.00  0.00    -0.130 N  
HETATM   15  C   UNL     1     -10.520   6.125  69.545  1.00  0.00    -0.254 C  
HETATM   16  H   UNL     1      -8.743   6.167  68.494  1.00  0.00     0.000 HD 
HETATM   17  O   UNL     1     -11.739   6.240  69.539  1.00  0.00    -0.360 OA 
BRANCH  15  18
HETATM   18  C   UNL     1      -9.777   5.714  70.729  1.00  0.00    -0.228 A  
HETATM   19  C   UNL     1     -10.235   5.849  72.024  1.00  0.00    -0.197 A  
HETATM   20  C   UNL     1     -11.471   6.362  72.649  1.00  0.00    -0.234 C  
HETATM   21  O   UNL     1      -9.311   5.349  72.880  1.00  0.00    -0.138 OA 
HETATM   22  N   UNL     1      -8.214   4.909  72.179  1.00  0.00    -0.113 NA 
HETATM   23  C   UNL     1      -8.469   5.128  70.878  1.00  0.00    -0.119 A  
BRANCH  23  24
HETATM   24  C   UNL     1      -7.494   4.720  69.854  1.00  0.00    -0.055 A  
HETATM   25  C   UNL     1      -6.284   5.424  69.730  1.00  0.00    -0.025 A  
HETATM   26  C   UNL     1      -5.239   4.961  68.929  1.00  0.00    -0.004 A  
HETATM   27  F   UNL     1      -6.071   6.562  70.408  1.00  0.00    -0.027 F  
HETATM   28  C   UNL     1      -5.365   3.753  68.256  1.00  0.00    -0.012 A  
HETATM   29  C   UNL     1      -6.582   3.077  68.294  1.00  0.00    -0.037 A  
HETATM   30  C   UNL     1      -7.659   3.593  69.029  1.00  0.00    -0.053 A  
HETATM   31 CL   UNL     1      -9.182   2.803  68.795  1.00  0.00    -0.214 Cl 
ENDBRANCH  23  24
ENDBRANCH  15  18
ENDBRANCH  12  14
TORSDOF 3
ENDMDL
MODEL      193
REMARK 921   NORMALIZED FREE ENERGY PREDICTED BY IDOCK:   -3.32 KCAL/MOL
REMARK 922        TOTAL FREE ENERGY PREDICTED BY IDOCK:   -5.26 KCAL/MOL
REMARK 923 INTER-LIGAND FREE ENERGY PREDICTED BY IDOCK:   -3.94 KCAL/MOL
REMARK 924 INTRA-LIGAND FREE ENERGY PREDICTED BY IDOCK:   -1.32 KCAL/MOL
REMARK 927      BINDING AFFINITY PREDICTED BY RF-SCORE:    0.00 PKD
ROOT
HETATM    1  C   UNL     1      -9.785  11.154  69.432  1.00  0.00     0.175 C  
HETATM    2  S   UNL     1      -8.053  11.558  68.922  1.00  0.00     0.034 SA 
HETATM    3  C   UNL     1      -8.581  12.718  67.577  1.00  0.00    -0.187 C  
HETATM    4  C   UNL     1      -7.538  13.827  67.409  1.00  0.00    -0.153 C  
HETATM    5  CA  UNL     1     -10.000  13.182  67.989  1.00  0.00    -0.233 C  
HETATM    6  C   UNL     1      -8.605  11.936  66.244  1.00  0.00    -0.016 C  
HETATM    7  N   UNL     1     -10.662  12.040  68.642  1.00  0.00    -0.230 N  
HETATM    8  C   UNL     1     -10.093  14.354  68.985  1.00  0.00    -0.155 C  
HETATM    9  OXT UNL     1      -9.367  15.333  69.012  1.00  0.00    -0.205 OA 
HETATM   10  O   UNL     1     -11.191  14.270  69.786  1.00  0.00    -0.243 OA 
HETATM   11  C   UNL     1     -11.185  11.024  67.888  1.00  0.00    -0.310 C  
HETATM   12  CA  UNL     1     -10.419   9.937  68.700  1.00  0.00    -0.206 C  
HETATM   13  O   UNL     1     -11.841  11.109  66.877  1.00  0.00    -0.339 OA 
ENDROOT
BRANCH  12  14
HETATM   14  N   UNL     1      -9.438   9.094  67.974  1.00  0.00    -0.141 N  
HETATM   15  C   UNL     1      -9.806   8.003  67.230  1.00  0.00    -0.197 C  
HETATM   16  H   UNL     1      -8.449   9.337  68.031  1.00  0.00     0.000 HD 
HETATM   17  O   UNL     1     -10.975   7.699  67.025  1.00  0.00    -0.277 OA 
BRANCH  15  18
HETATM   18  C   UNL     1      -8.690   7.232  66.698  1.00  0.00    -0.136 A  
HETATM   19  C   UNL     1      -8.180   7.375  65.422  1.00  0.00    -0.134 A  
HETATM   20  C   UNL     1      -8.487   8.238  64.263  1.00  0.00     0.001 C  
HETATM   21  O   UNL     1      -7.137   6.526  65.259  1.00  0.00    -0.057 OA 
HETATM   22  N   UNL     1      -6.957   5.783  66.401  1.00  0.00    -0.059 NA 
HETATM   23  C   UNL     1      -7.889   6.185  67.280  1.00  0.00    -0.102 A  
BRANCH  23  24
HETATM   24  C   UNL     1      -7.933   5.604  68.631  1.00  0.00    -0.100 A  
HETATM   25  C   UNL     1      -7.600   6.402  69.739  1.00  0.00    -0.093 A  
HETATM   26  C   UNL     1      -7.823   5.975  71.050  1.00  0.00    -0.111 A  
HETATM   27  F   UNL     1      -7.078   7.627  69.580  1.00  0.00    -0.057 F  
HETATM   28  C   UNL     1      -8.426   4.747  71.286  1.00  0.00    -0.113 A  
HETATM   29  C   UNL     1      -8.690   3.902  70.211  1.00  0.00    -0.123 A  
HETATM   30  C   UNL     1      -8.381   4.299  68.901  1.00  0.00    -0.082 A  
HETATM   31 CL   UNL     1      -8.520   3.072  67.687  1.00  0.00    -0.094 Cl 
ENDBRANCH  23  24
ENDBRANCH  15  18
ENDBRANCH  12  14
TORSDOF 3
ENDMDL
MODEL      194
REMARK 921   NORMALIZED FREE ENERGY PREDICTED BY IDOCK:   -3.28 KCAL/MOL
REMARK 922        TOTAL FREE ENERGY PREDICTED BY IDOCK:   -5.22 KCAL/MOL
REMARK 923 INTER-LIGAND FREE ENERGY PREDICTED BY IDOCK:   -4.71 KCAL/MOL
REMARK 924 INTRA-LIGAND FREE ENERGY PREDICTED BY IDOCK:   -0.52 KCAL/MOL
REMARK 927      BINDING AFFINITY PREDICTED BY RF-SCORE:    0.00 PKD
ROOT
HETATM    1  C   UNL     1      -6.497  11.157  66.684  1.00  0.00    -0.134 C  
HETATM    2  S   UNL     1      -8.182  11.498  66.002  1.00  0.00     0.187 SA 
HETATM    3  C   UNL     1      -8.731  12.460  67.488  1.00  0.00    -0.179 C  
HETATM    4  C   UNL     1      -9.729  13.542  67.066  1.00  0.00    -0.251 C  
HETATM    5  CA  UNL     1      -7.420  12.967  68.137  1.00  0.00    -0.126 C  
HETATM    6  C   UNL     1      -9.497  11.503  68.428  1.00  0.00    -0.195 C  
HETATM    7  N   UNL     1      -6.402  11.921  67.943  1.00  0.00    -0.058 N  
HETATM    8  C   UNL     1      -6.811  14.263  67.570  1.00  0.00    -0.135 C  
HETATM    9  OXT UNL     1      -7.432  15.242  67.189  1.00  0.00    -0.204 OA 
HETATM   10  O   UNL     1      -5.452  14.284  67.659  1.00  0.00    -0.311 OA 
HETATM   11  C   UNL     1      -6.397  10.808  68.741  1.00  0.00    -0.044 C  
HETATM   12  CA  UNL     1      -6.376   9.847  67.514  1.00  0.00    -0.063 C  
HETATM   13  O   UNL     1      -6.545  10.750  69.938  1.00  0.00    -0.120 OA 
ENDROOT
BRANCH  12  14
HETATM   14  N   UNL     1      -7.520   8.920  67.342  1.00  0.00    -0.085 N  
HETATM   15  C   UNL     1      -7.667   7.778  68.088  1.00  0.00    -0.119 C  
HETATM   16  H   UNL     1      -8.226   9.140  66.640  1.00  0.00     0.000 HD 
HETATM   17  O   UNL     1      -6.924   7.489  69.018  1.00  0.00    -0.068 OA 
BRANCH  15  18
HETATM   18  C   UNL     1      -8.785   6.935  67.686  1.00  0.00    -0.120 A  
HETATM   19  C   UNL     1      -8.792   6.128  66.566  1.00  0.00    -0.133 A  
HETATM   20  C   UNL     1      -7.823   5.816  65.494  1.00  0.00    -0.102 C  
HETATM   21  O   UNL     1      -9.971   5.465  66.498  1.00  0.00    -0.163 OA 
HETATM   22  N   UNL     1     -10.780   5.843  67.543  1.00  0.00    -0.273 NA 
HETATM   23  C   UNL     1     -10.088   6.737  68.269  1.00  0.00    -0.161 A  
BRANCH  23  24
HETATM   24  C   UNL     1     -10.670   7.305  69.495  1.00  0.00    -0.244 A  
HETATM   25  C   UNL     1     -10.747   6.515  70.655  1.00  0.00    -0.248 A  
HETATM   26  C   UNL     1     -11.090   7.056  71.896  1.00  0.00    -0.274 A  
HETATM   27  F   UNL     1     -10.461   5.204  70.622  1.00  0.00    -0.302 F  
HETATM   28  C   UNL     1     -11.329   8.419  72.015  1.00  0.00    -0.411 A  
HETATM   29  C   UNL     1     -11.341   9.209  70.869  1.00  0.00    -0.359 A  
HETATM   30  C   UNL     1     -11.083   8.644  69.611  1.00  0.00    -0.013 A  
HETATM   31 CL   UNL     1     -11.375   9.669  68.247  1.00  0.00     0.001 Cl 
ENDBRANCH  23  24
ENDBRANCH  15  18
ENDBRANCH  12  14
TORSDOF 3
ENDMDL
MODEL      195
REMARK 921   NORMALIZED FREE ENERGY PREDICTED BY IDOCK:   -3.25 KCAL/MOL
REMARK 922        TOTAL FREE ENERGY PREDICTED BY IDOCK:   -5.18 KCAL/MOL
REMARK 923 INTER-LIGAND FREE ENERGY PREDICTED BY IDOCK:   -3.66 KCAL/MOL
REMARK 924 INTRA-LIGAND FREE ENERGY PREDICTED BY IDOCK:   -1.52 KCAL/MOL
REMARK 927      BINDING AFFINITY PREDICTED BY RF-SCORE:    0.00 PKD
ROOT
HETATM    1  C   UNL     1      -8.171   7.083  67.375  1.00  0.00    -0.119 C  
HETATM    2  S   UNL     1      -7.359   5.523  67.951  1.00  0.00    -0.074 SA 
HETATM    3  C   UNL     1      -8.346   4.438  66.819  1.00  0.00    -0.105 C  
HETATM    4  C   UNL     1      -7.513   3.221  66.410  1.00  0.00    -0.076 C  
HETATM    5  CA  UNL     1      -8.793   5.370  65.667  1.00  0.00    -0.153 C  
HETATM    6  C   UNL     1      -9.558   3.891  67.608  1.00  0.00    -0.205 C  
HETATM    7  N   UNL     1      -9.045   6.698  66.249  1.00  0.00    -0.156 N  
HETATM    8  C   UNL     1      -7.791   5.594  64.517  1.00  0.00    -0.114 C  
HETATM    9  OXT UNL     1      -7.047   4.753  64.040  1.00  0.00    -0.048 OA 
HETATM   10  O   UNL     1      -7.907   6.830  63.957  1.00  0.00    -0.112 OA 
HETATM   11  C   UNL     1     -10.207   6.943  66.931  1.00  0.00    -0.240 C  
HETATM   12  CA  UNL     1      -9.443   7.495  68.171  1.00  0.00    -0.143 C  
HETATM   13  O   UNL     1     -11.330   6.621  66.625  1.00  0.00    -0.150 OA 
ENDROOT
BRANCH  12  14
HETATM   14  N   UNL     1      -9.603   6.778  69.459  1.00  0.00    -0.148 N  
HETATM   15  C   UNL     1      -9.011   7.201  70.621  1.00  0.00    -0.154 C  
HETATM   16  H   UNL     1     -10.177   5.935  69.481  1.00  0.00     0.000 HD 
HETATM   17  O   UNL     1      -8.390   8.254  70.709  1.00  0.00    -0.111 OA 
BRANCH  15  18
HETATM   18  C   UNL     1      -9.184   6.297  71.751  1.00  0.00    -0.145 A  
HETATM   19  C   UNL     1     -10.048   6.520  72.804  1.00  0.00    -0.176 A  
HETATM   20  C   UNL     1     -11.012   7.581  73.161  1.00  0.00    -0.420 C  
HETATM   21  O   UNL     1      -9.980   5.478  73.667  1.00  0.00    -0.162 OA 
HETATM   22  N   UNL     1      -9.051   4.566  73.227  1.00  0.00    -0.115 NA 
HETATM   23  C   UNL     1      -8.550   5.044  72.075  1.00  0.00    -0.125 A  
BRANCH  23  24
HETATM   24  C   UNL     1      -7.552   4.268  71.323  1.00  0.00    -0.060 A  
HETATM   25  C   UNL     1      -6.236   4.751  71.218  1.00  0.00    -0.019 A  
HETATM   26  C   UNL     1      -5.201   3.967  70.703  1.00  0.00    -0.004 A  
HETATM   27  F   UNL     1      -5.913   5.982  71.641  1.00  0.00    -0.030 F  
HETATM   28  C   UNL     1      -5.452   2.658  70.312  1.00  0.00    -0.016 A  
HETATM   29  C   UNL     1      -6.760   2.183  70.327  1.00  0.00    -0.033 A  
HETATM   30  C   UNL     1      -7.811   3.005  70.762  1.00  0.00    -0.046 A  
HETATM   31 CL   UNL     1      -9.409   2.393  70.498  1.00  0.00    -0.199 Cl 
ENDBRANCH  23  24
ENDBRANCH  15  18
ENDBRANCH  12  14
TORSDOF 3
ENDMDL
MODEL      196
REMARK 921   NORMALIZED FREE ENERGY PREDICTED BY IDOCK:   -3.24 KCAL/MOL
REMARK 922        TOTAL FREE ENERGY PREDICTED BY IDOCK:   -5.18 KCAL/MOL
REMARK 923 INTER-LIGAND FREE ENERGY PREDICTED BY IDOCK:   -3.61 KCAL/MOL
REMARK 924 INTRA-LIGAND FREE ENERGY PREDICTED BY IDOCK:   -1.57 KCAL/MOL
REMARK 927      BINDING AFFINITY PREDICTED BY RF-SCORE:    0.00 PKD
ROOT
HETATM    1  C   UNL     1     -10.462   8.693  68.046  1.00  0.00    -0.197 C  
HETATM    2  S   UNL     1     -10.032   6.919  68.347  1.00  0.00    -0.152 SA 
HETATM    3  C   UNL     1      -9.399   7.228  70.061  1.00  0.00    -0.154 C  
HETATM    4  C   UNL     1      -9.649   5.997  70.937  1.00  0.00    -0.196 C  
HETATM    5  CA  UNL     1     -10.100   8.533  70.512  1.00  0.00    -0.192 C  
HETATM    6  C   UNL     1      -7.865   7.405  69.986  1.00  0.00    -0.104 C  
HETATM    7  N   UNL     1     -10.232   9.393  69.325  1.00  0.00    -0.194 N  
HETATM    8  C   UNL     1     -11.518   8.400  71.101  1.00  0.00    -0.274 C  
HETATM    9  OXT UNL     1     -11.913   7.503  71.827  1.00  0.00    -0.280 OA 
HETATM   10  O   UNL     1     -12.293   9.490  70.844  1.00  0.00    -0.288 OA 
HETATM   11  C   UNL     1      -9.155  10.102  68.864  1.00  0.00    -0.165 C  
HETATM   12  CA  UNL     1      -9.325   9.548  67.418  1.00  0.00    -0.130 C  
HETATM   13  O   UNL     1      -8.352  10.736  69.506  1.00  0.00    -0.074 OA 
ENDROOT
BRANCH  12  14
HETATM   14  N   UNL     1      -8.215   8.746  66.849  1.00  0.00    -0.108 N  
HETATM   15  C   UNL     1      -8.251   8.227  65.580  1.00  0.00    -0.134 C  
HETATM   16  H   UNL     1      -7.391   8.573  67.425  1.00  0.00     0.000 HD 
HETATM   17  O   UNL     1      -9.152   8.468  64.786  1.00  0.00     0.060 OA 
BRANCH  15  18
HETATM   18  C   UNL     1      -7.124   7.364  65.249  1.00  0.00    -0.064 A  
HETATM   19  C   UNL     1      -5.988   7.784  64.586  1.00  0.00    -0.041 A  
HETATM   20  C   UNL     1      -5.509   9.072  64.043  1.00  0.00    -0.061 C  
HETATM   21  O   UNL     1      -5.133   6.741  64.459  1.00  0.00    -0.025 OA 
HETATM   22  N   UNL     1      -5.694   5.608  64.998  1.00  0.00    -0.017 NA 
HETATM   23  C   UNL     1      -6.901   5.958  65.473  1.00  0.00    -0.052 A  
BRANCH  23  24
HETATM   24  C   UNL     1      -7.744   4.966  66.159  1.00  0.00    -0.091 A  
HETATM   25  C   UNL     1      -8.918   4.507  65.537  1.00  0.00    -0.138 A  
HETATM   26  C   UNL     1      -9.641   3.422  66.035  1.00  0.00    -0.064 A  
HETATM   27  F   UNL     1      -9.376   5.078  64.412  1.00  0.00    -0.114 F  
HETATM   28  C   UNL     1      -9.184   2.740  67.155  1.00  0.00    -0.176 A  
HETATM   29  C   UNL     1      -8.072   3.224  67.838  1.00  0.00    -0.082 A  
HETATM   30  C   UNL     1      -7.400   4.368  67.384  1.00  0.00    -0.069 A  
HETATM   31 CL   UNL     1      -6.197   5.012  68.450  1.00  0.00    -0.030 Cl 
ENDBRANCH  23  24
ENDBRANCH  15  18
ENDBRANCH  12  14
TORSDOF 3
ENDMDL
MODEL      197
REMARK 921   NORMALIZED FREE ENERGY PREDICTED BY IDOCK:   -3.07 KCAL/MOL
REMARK 922        TOTAL FREE ENERGY PREDICTED BY IDOCK:   -4.97 KCAL/MOL
REMARK 923 INTER-LIGAND FREE ENERGY PREDICTED BY IDOCK:   -4.18 KCAL/MOL
REMARK 924 INTRA-LIGAND FREE ENERGY PREDICTED BY IDOCK:   -0.79 KCAL/MOL
REMARK 927      BINDING AFFINITY PREDICTED BY RF-SCORE:    0.00 PKD
ROOT
HETATM    1  C   UNL     1      -6.980  10.946  67.107  1.00  0.00    -0.098 C  
HETATM    2  S   UNL     1      -8.729  11.311  66.628  1.00  0.00    -0.178 SA 
HETATM    3  C   UNL     1      -9.010  12.477  68.041  1.00  0.00    -0.192 C  
HETATM    4  C   UNL     1     -10.007  13.563  67.628  1.00  0.00    -0.229 C  
HETATM    5  CA  UNL     1      -7.595  12.972  68.433  1.00  0.00    -0.133 C  
HETATM    6  C   UNL     1      -9.674  11.690  69.194  1.00  0.00     0.179 C  
HETATM    7  N   UNL     1      -6.667  11.847  68.234  1.00  0.00    -0.060 N  
HETATM    8  C   UNL     1      -7.016  14.149  67.625  1.00  0.00    -0.184 C  
HETATM    9  OXT UNL     1      -7.639  15.114  67.214  1.00  0.00    -0.189 OA 
HETATM   10  O   UNL     1      -5.659  14.093  67.522  1.00  0.00    -0.343 OA 
HETATM   11  C   UNL     1      -6.598  10.839  69.158  1.00  0.00    -0.065 C  
HETATM   12  CA  UNL     1      -6.800   9.739  68.073  1.00  0.00    -0.072 C  
HETATM   13  O   UNL     1      -6.572  10.934  70.361  1.00  0.00    -0.273 OA 
ENDROOT
BRANCH  12  14
HETATM   14  N   UNL     1      -8.000   8.874  68.180  1.00  0.00    -0.101 N  
HETATM   15  C   UNL     1      -8.241   8.075  69.269  1.00  0.00    -0.127 C  
HETATM   16  H   UNL     1      -8.672   8.872  67.413  1.00  0.00     0.000 HD 
HETATM   17  O   UNL     1      -7.542   8.090  70.275  1.00  0.00    -0.078 OA 
BRANCH  15  18
HETATM   18  C   UNL     1      -9.403   7.207  69.134  1.00  0.00    -0.141 A  
HETATM   19  C   UNL     1     -10.571   7.347  69.857  1.00  0.00    -0.236 A  
HETATM   20  C   UNL     1     -11.059   8.290  70.884  1.00  0.00    -0.289 C  
HETATM   21  O   UNL     1     -11.453   6.393  69.473  1.00  0.00    -0.407 OA 
HETATM   22  N   UNL     1     -10.880   5.584  68.521  1.00  0.00    -0.104 NA 
HETATM   23  C   UNL     1      -9.639   6.050  68.307  1.00  0.00    -0.119 A  
BRANCH  23  24
HETATM   24  C   UNL     1      -8.774   5.419  67.298  1.00  0.00    -0.107 A  
HETATM   25  C   UNL     1      -9.256   5.232  65.991  1.00  0.00    -0.157 A  
HETATM   26  C   UNL     1      -8.420   4.836  64.945  1.00  0.00    -0.140 A  
HETATM   27  F   UNL     1     -10.543   5.460  65.687  1.00  0.00    -0.100 F  
HETATM   28  C   UNL     1      -7.063   4.652  65.175  1.00  0.00    -0.063 A  
HETATM   29  C   UNL     1      -6.574   4.749  66.475  1.00  0.00    -0.046 A  
HETATM   30  C   UNL     1      -7.435   5.060  67.537  1.00  0.00    -0.083 A  
HETATM   31 CL   UNL     1      -6.764   4.903  69.126  1.00  0.00    -0.047 Cl 
ENDBRANCH  23  24
ENDBRANCH  15  18
ENDBRANCH  12  14
TORSDOF 3
ENDMDL
MODEL      198
REMARK 921   NORMALIZED FREE ENERGY PREDICTED BY IDOCK:   -3.04 KCAL/MOL
REMARK 922        TOTAL FREE ENERGY PREDICTED BY IDOCK:   -4.94 KCAL/MOL
REMARK 923 INTER-LIGAND FREE ENERGY PREDICTED BY IDOCK:   -4.41 KCAL/MOL
REMARK 924 INTRA-LIGAND FREE ENERGY PREDICTED BY IDOCK:   -0.53 KCAL/MOL
REMARK 927      BINDING AFFINITY PREDICTED BY RF-SCORE:    0.00 PKD
ROOT
HETATM    1  C   UNL     1      -5.761  10.757  68.684  1.00  0.00    -0.040 C  
HETATM    2  S   UNL     1      -5.575  11.965  67.295  1.00  0.00    -0.136 SA 
HETATM    3  C   UNL     1      -6.901  13.095  67.928  1.00  0.00    -0.135 C  
HETATM    4  C   UNL     1      -6.575  14.542  67.546  1.00  0.00    -0.106 C  
HETATM    5  CA  UNL     1      -6.981  12.799  69.446  1.00  0.00     0.110 C  
HETATM    6  C   UNL     1      -8.223  12.741  67.211  1.00  0.00    -0.181 C  
HETATM    7  N   UNL     1      -6.723  11.362  69.627  1.00  0.00    -0.126 N  
HETATM    8  C   UNL     1      -5.975  13.529  70.357  1.00  0.00    -0.140 C  
HETATM    9  OXT UNL     1      -5.595  14.681  70.229  1.00  0.00    -0.106 OA 
HETATM   10  O   UNL     1      -5.633  12.793  71.451  1.00  0.00    -0.367 OA 
HETATM   11  C   UNL     1      -7.710  10.447  69.370  1.00  0.00    -0.158 C  
HETATM   12  CA  UNL     1      -6.787   9.615  68.430  1.00  0.00    -0.061 C  
HETATM   13  O   UNL     1      -8.874  10.502  69.684  1.00  0.00    -0.096 OA 
ENDROOT
BRANCH  12  14
HETATM   14  N   UNL     1      -7.191   9.477  67.010  1.00  0.00    -0.086 N  
HETATM   15  C   UNL     1      -7.867   8.382  66.536  1.00  0.00    -0.092 C  
HETATM   16  H   UNL     1      -6.956  10.226  66.359  1.00  0.00     0.000 HD 
HETATM   17  O   UNL     1      -8.277   7.485  67.262  1.00  0.00    -0.113 OA 
BRANCH  15  18
HETATM   18  C   UNL     1      -8.064   8.373  65.092  1.00  0.00    -0.147 A  
HETATM   19  C   UNL     1      -7.532   7.428  64.237  1.00  0.00    -0.098 A  
HETATM   20  C   UNL     1      -6.697   6.220  64.400  1.00  0.00    -0.038 C  
HETATM   21  O   UNL     1      -7.925   7.700  62.969  1.00  0.00    -0.136 OA 
HETATM   22  N   UNL     1      -8.689   8.842  62.951  1.00  0.00    -0.147 NA 
HETATM   23  C   UNL     1      -8.779   9.271  64.221  1.00  0.00    -0.175 A  
BRANCH  23  24
HETATM   24  C   UNL     1      -9.577  10.464  64.545  1.00  0.00    -0.369 A  
HETATM   25  C   UNL     1      -9.468  11.611  63.739  1.00  0.00    -0.100 A  
HETATM   26  C   UNL     1     -10.346  12.689  63.867  1.00  0.00    -0.405 A  
HETATM   27  F   UNL     1      -8.528  11.701  62.786  1.00  0.00    -0.110 F  
HETATM   28  C   UNL     1     -11.386  12.631  64.785  1.00  0.00    -0.350 A  
HETATM   29  C   UNL     1     -11.468  11.545  65.651  1.00  0.00    -0.074 A  
HETATM   30  C   UNL     1     -10.529  10.504  65.579  1.00  0.00    -0.150 A  
HETATM   31 CL   UNL     1     -10.585   9.345  66.864  1.00  0.00    -0.277 Cl 
ENDBRANCH  23  24
ENDBRANCH  15  18
ENDBRANCH  12  14
TORSDOF 3
ENDMDL
MODEL      199
REMARK 921   NORMALIZED FREE ENERGY PREDICTED BY IDOCK:   -3.04 KCAL/MOL
REMARK 922        TOTAL FREE ENERGY PREDICTED BY IDOCK:   -4.94 KCAL/MOL
REMARK 923 INTER-LIGAND FREE ENERGY PREDICTED BY IDOCK:   -3.82 KCAL/MOL
REMARK 924 INTRA-LIGAND FREE ENERGY PREDICTED BY IDOCK:   -1.12 KCAL/MOL
REMARK 927      BINDING AFFINITY PREDICTED BY RF-SCORE:    0.00 PKD
ROOT
HETATM    1  C   UNL     1      -6.283  11.084  68.348  1.00  0.00    -0.049 C  
HETATM    2  S   UNL     1      -5.775  12.333  67.082  1.00  0.00    -0.035 SA 
HETATM    3  C   UNL     1      -6.860  13.667  67.772  1.00  0.00    -0.168 C  
HETATM    4  C   UNL     1      -6.216  15.035  67.534  1.00  0.00    -0.057 C  
HETATM    5  CA  UNL     1      -7.079  13.271  69.254  1.00  0.00     0.074 C  
HETATM    6  C   UNL     1      -8.189  13.667  66.984  1.00  0.00    -0.056 C  
HETATM    7  N   UNL     1      -7.141  11.802  69.310  1.00  0.00    -0.075 N  
HETATM    8  C   UNL     1      -5.989  13.689  70.259  1.00  0.00    -0.147 C  
HETATM    9  OXT UNL     1      -5.366  14.738  70.250  1.00  0.00    -0.105 OA 
HETATM   10  O   UNL     1      -5.866  12.809  71.291  1.00  0.00    -0.346 OA 
HETATM   11  C   UNL     1      -8.285  11.146  68.940  1.00  0.00    -0.104 C  
HETATM   12  CA  UNL     1      -7.514  10.215  67.957  1.00  0.00    -0.087 C  
HETATM   13  O   UNL     1      -9.426  11.425  69.220  1.00  0.00     0.059 OA 
ENDROOT
BRANCH  12  14
HETATM   14  N   UNL     1      -7.865  10.284  66.518  1.00  0.00    -0.112 N  
HETATM   15  C   UNL     1      -9.076   9.863  66.031  1.00  0.00    -0.158 C  
HETATM   16  H   UNL     1      -7.178  10.661  65.865  1.00  0.00     0.000 HD 
HETATM   17  O   UNL     1      -9.994   9.494  66.753  1.00  0.00    -0.201 OA 
BRANCH  15  18
HETATM   18  C   UNL     1      -9.185   9.895  64.578  1.00  0.00    -0.315 A  
HETATM   19  C   UNL     1     -10.072  10.689  63.879  1.00  0.00    -0.289 A  
HETATM   20  C   UNL     1     -11.098  11.687  64.246  1.00  0.00    -0.406 C  
HETATM   21  O   UNL     1      -9.898  10.493  62.550  1.00  0.00    -0.217 OA 
HETATM   22  N   UNL     1      -8.924   9.546  62.342  1.00  0.00    -0.260 NA 
HETATM   23  C   UNL     1      -8.485   9.164  63.552  1.00  0.00    -0.189 A  
BRANCH  23  24
HETATM   24  C   UNL     1      -7.398   8.180  63.670  1.00  0.00    -0.105 A  
HETATM   25  C   UNL     1      -7.635   6.961  64.329  1.00  0.00    -0.108 A  
HETATM   26  C   UNL     1      -6.717   5.910  64.290  1.00  0.00    -0.045 A  
HETATM   27  F   UNL     1      -8.776   6.747  65.001  1.00  0.00    -0.095 F  
HETATM   28  C   UNL     1      -5.547   6.039  63.553  1.00  0.00    -0.018 A  
HETATM   29  C   UNL     1      -5.249   7.262  62.960  1.00  0.00    -0.034 A  
HETATM   30  C   UNL     1      -6.133   8.344  63.077  1.00  0.00    -0.082 A  
HETATM   31 CL   UNL     1      -5.538   9.871  62.518  1.00  0.00    -0.090 Cl 
ENDBRANCH  23  24
ENDBRANCH  15  18
ENDBRANCH  12  14
TORSDOF 3
ENDMDL
MODEL      200
REMARK 921   NORMALIZED FREE ENERGY PREDICTED BY IDOCK:   -3.04 KCAL/MOL
REMARK 922        TOTAL FREE ENERGY PREDICTED BY IDOCK:   -4.94 KCAL/MOL
REMARK 923 INTER-LIGAND FREE ENERGY PREDICTED BY IDOCK:   -4.46 KCAL/MOL
REMARK 924 INTRA-LIGAND FREE ENERGY PREDICTED BY IDOCK:   -0.48 KCAL/MOL
REMARK 927      BINDING AFFINITY PREDICTED BY RF-SCORE:    0.00 PKD
ROOT
HETATM    1  C   UNL     1      -9.511   6.064  70.893  1.00  0.00    -0.168 C  
HETATM    2  S   UNL     1      -7.751   6.624  70.783  1.00  0.00    -0.099 SA 
HETATM    3  C   UNL     1      -8.098   8.286  71.523  1.00  0.00    -0.130 C  
HETATM    4  C   UNL     1      -6.874   8.771  72.305  1.00  0.00    -0.007 C  
HETATM    5  CA  UNL     1      -9.393   8.089  72.349  1.00  0.00    -0.208 C  
HETATM    6  C   UNL     1      -8.307   9.296  70.372  1.00  0.00    -0.224 C  
HETATM    7  N   UNL     1     -10.233   7.124  71.623  1.00  0.00    -0.193 N  
HETATM    8  C   UNL     1      -9.237   7.528  73.776  1.00  0.00    -0.275 C  
HETATM    9  OXT UNL     1      -8.341   7.797  74.559  1.00  0.00    -0.218 OA 
HETATM   10  O   UNL     1     -10.306   6.777  74.160  1.00  0.00    -0.368 OA 
HETATM   11  C   UNL     1     -10.959   7.525  70.533  1.00  0.00    -0.252 C  
HETATM   12  CA  UNL     1     -10.382   6.383  69.644  1.00  0.00    -0.204 C  
HETATM   13  O   UNL     1     -11.619   8.529  70.407  1.00  0.00    -0.204 OA 
ENDROOT
BRANCH  12  14
HETATM   14  N   UNL     1      -9.597   6.767  68.446  1.00  0.00    -0.126 N  
HETATM   15  C   UNL     1     -10.175   6.998  67.224  1.00  0.00    -0.234 C  
HETATM   16  H   UNL     1      -8.585   6.863  68.535  1.00  0.00     0.000 HD 
HETATM   17  O   UNL     1     -11.387   7.005  67.051  1.00  0.00    -0.238 OA 
BRANCH  15  18
HETATM   18  C   UNL     1      -9.226   7.241  66.145  1.00  0.00    -0.136 A  
HETATM   19  C   UNL     1      -8.539   6.251  65.472  1.00  0.00    -0.119 A  
HETATM   20  C   UNL     1      -8.496   4.776  65.539  1.00  0.00    -0.127 C  
HETATM   21  O   UNL     1      -7.760   6.816  64.519  1.00  0.00    -0.100 OA 
HETATM   22  N   UNL     1      -7.886   8.184  64.562  1.00  0.00    -0.131 NA 
HETATM   23  C   UNL     1      -8.760   8.464  65.543  1.00  0.00    -0.162 A  
BRANCH  23  24
HETATM   24  C   UNL     1      -9.146   9.858  65.814  1.00  0.00    -0.208 A  
HETATM   25  C   UNL     1      -8.836  10.432  67.060  1.00  0.00    -0.136 A  
HETATM   26  C   UNL     1      -8.985  11.799  67.300  1.00  0.00    -0.172 A  
HETATM   27  F   UNL     1      -8.350   9.688  68.065  1.00  0.00    -0.113 F  
HETATM   28  C   UNL     1      -9.416  12.639  66.281  1.00  0.00    -0.207 A  
HETATM   29  C   UNL     1      -9.808  12.086  65.065  1.00  0.00    -0.210 A  
HETATM   30  C   UNL     1      -9.741  10.700  64.859  1.00  0.00    -0.284 A  
HETATM   31 CL   UNL     1     -10.489  10.114  63.411  1.00  0.00     0.797 Cl 
ENDBRANCH  23  24
ENDBRANCH  15  18
ENDBRANCH  12  14
TORSDOF 3
ENDMDL
MODEL      201
REMARK 921   NORMALIZED FREE ENERGY PREDICTED BY IDOCK:   -3.04 KCAL/MOL
REMARK 922        TOTAL FREE ENERGY PREDICTED BY IDOCK:   -4.94 KCAL/MOL
REMARK 923 INTER-LIGAND FREE ENERGY PREDICTED BY IDOCK:   -3.93 KCAL/MOL
REMARK 924 INTRA-LIGAND FREE ENERGY PREDICTED BY IDOCK:   -1.01 KCAL/MOL
REMARK 927      BINDING AFFINITY PREDICTED BY RF-SCORE:    0.00 PKD
ROOT
HETATM    1  C   UNL     1      -9.753   5.992  70.332  1.00  0.00    -0.169 C  
HETATM    2  S   UNL     1      -7.946   5.597  70.317  1.00  0.00    -0.105 SA 
HETATM    3  C   UNL     1      -7.614   6.447  71.930  1.00  0.00    -0.095 C  
HETATM    4  C   UNL     1      -6.467   5.743  72.661  1.00  0.00    -0.066 C  
HETATM    5  CA  UNL     1      -8.979   6.453  72.661  1.00  0.00    -0.132 C  
HETATM    6  C   UNL     1      -7.125   7.881  71.630  1.00  0.00    -0.067 C  
HETATM    7  N   UNL     1     -10.024   6.623  71.639  1.00  0.00    -0.174 N  
HETATM    8  C   UNL     1      -9.358   5.185  73.451  1.00  0.00    -0.133 C  
HETATM    9  OXT UNL     1      -8.596   4.491  74.104  1.00  0.00    -0.104 OA 
HETATM   10  O   UNL     1     -10.702   4.968  73.473  1.00  0.00    -0.229 OA 
HETATM   11  C   UNL     1     -10.274   7.860  71.108  1.00  0.00    -0.195 C  
HETATM   12  CA  UNL     1     -10.139   7.334  69.647  1.00  0.00    -0.194 C  
HETATM   13  O   UNL     1     -10.363   8.915  71.689  1.00  0.00    -0.290 OA 
ENDROOT
BRANCH  12  14
HETATM   14  N   UNL     1      -9.064   7.907  68.802  1.00  0.00    -0.141 N  
HETATM   15  C   UNL     1      -9.089   9.201  68.348  1.00  0.00    -0.132 C  
HETATM   16  H   UNL     1      -8.274   7.315  68.546  1.00  0.00     0.000 HD 
HETATM   17  O   UNL     1      -9.944  10.010  68.687  1.00  0.00    -0.155 OA 
BRANCH  15  18
HETATM   18  C   UNL     1      -8.009   9.540  67.430  1.00  0.00    -0.106 A  
HETATM   19  C   UNL     1      -7.569   8.723  66.408  1.00  0.00    -0.091 A  
HETATM   20  C   UNL     1      -7.955   7.394  65.889  1.00  0.00    -0.118 C  
HETATM   21  O   UNL     1      -6.572   9.345  65.735  1.00  0.00    -0.070 OA 
HETATM   22  N   UNL     1      -6.307  10.563  66.314  1.00  0.00    -0.096 NA 
HETATM   23  C   UNL     1      -7.157  10.698  67.346  1.00  0.00    -0.090 A  
BRANCH  23  24
HETATM   24  C   UNL     1      -7.156  11.930  68.151  1.00  0.00    -0.081 A  
HETATM   25  C   UNL     1      -6.364  11.998  69.310  1.00  0.00    -0.102 A  
HETATM   26  C   UNL     1      -6.157  13.199  69.994  1.00  0.00    -0.113 A  
HETATM   27  F   UNL     1      -5.744  10.910  69.792  1.00  0.00    -0.043 F  
HETATM   28  C   UNL     1      -6.711  14.376  69.509  1.00  0.00    -0.141 A  
HETATM   29  C   UNL     1      -7.567  14.323  68.412  1.00  0.00    -0.124 A  
HETATM   30  C   UNL     1      -7.842  13.100  67.782  1.00  0.00    -0.152 A  
HETATM   31 CL   UNL     1      -9.107  13.126  66.600  1.00  0.00    -0.215 Cl 
ENDBRANCH  23  24
ENDBRANCH  15  18
ENDBRANCH  12  14
TORSDOF 3
ENDMDL
MODEL      202
REMARK 921   NORMALIZED FREE ENERGY PREDICTED BY IDOCK:   -3.03 KCAL/MOL
REMARK 922        TOTAL FREE ENERGY PREDICTED BY IDOCK:   -4.92 KCAL/MOL
REMARK 923 INTER-LIGAND FREE ENERGY PREDICTED BY IDOCK:   -3.70 KCAL/MOL
REMARK 924 INTRA-LIGAND FREE ENERGY PREDICTED BY IDOCK:   -1.22 KCAL/MOL
REMARK 927      BINDING AFFINITY PREDICTED BY RF-SCORE:    0.00 PKD
ROOT
HETATM    1  C   UNL     1     -10.170   9.533  66.742  1.00  0.00    -0.243 C  
HETATM    2  S   UNL     1      -8.851   9.847  68.001  1.00  0.00    -0.125 SA 
HETATM    3  C   UNL     1      -7.909  11.015  66.914  1.00  0.00    -0.140 C  
HETATM    4  C   UNL     1      -7.206  12.070  67.772  1.00  0.00    -0.108 C  
HETATM    5  CA  UNL     1      -8.957  11.551  65.907  1.00  0.00    -0.147 C  
HETATM    6  C   UNL     1      -6.793  10.219  66.200  1.00  0.00    -0.115 C  
HETATM    7  N   UNL     1      -9.892  10.450  65.620  1.00  0.00    -0.242 N  
HETATM    8  C   UNL     1      -9.827  12.738  66.366  1.00  0.00    -0.269 C  
HETATM    9  OXT UNL     1      -9.454  13.682  67.043  1.00  0.00    -0.234 OA 
HETATM   10  O   UNL     1     -11.071  12.717  65.812  1.00  0.00    -0.282 OA 
HETATM   11  C   UNL     1      -9.534   9.451  64.754  1.00  0.00    -0.017 C  
HETATM   12  CA  UNL     1      -9.894   8.339  65.783  1.00  0.00     0.354 C  
HETATM   13  O   UNL     1      -8.983   9.556  63.685  1.00  0.00    -0.231 OA 
ENDROOT
BRANCH  12  14
HETATM   14  N   UNL     1      -8.805   7.441  66.241  1.00  0.00    -0.155 N  
HETATM   15  C   UNL     1      -9.022   6.134  66.592  1.00  0.00    -0.130 C  
HETATM   16  H   UNL     1      -7.857   7.812  66.297  1.00  0.00     0.000 HD 
HETATM   17  O   UNL     1     -10.106   5.578  66.460  1.00  0.00    -0.173 OA 
BRANCH  15  18
HETATM   18  C   UNL     1      -7.853   5.453  67.134  1.00  0.00    -0.101 A  
HETATM   19  C   UNL     1      -6.691   5.214  66.427  1.00  0.00    -0.057 A  
HETATM   20  C   UNL     1      -6.217   5.514  65.060  1.00  0.00    -0.030 C  
HETATM   21  O   UNL     1      -5.800   4.583  67.229  1.00  0.00    -0.021 OA 
HETATM   22  N   UNL     1      -6.360   4.360  68.464  1.00  0.00    -0.035 NA 
HETATM   23  C   UNL     1      -7.603   4.869  68.427  1.00  0.00    -0.078 A  
BRANCH  23  24
HETATM   24  C   UNL     1      -8.456   4.827  69.625  1.00  0.00    -0.093 A  
HETATM   25  C   UNL     1      -9.336   3.746  69.810  1.00  0.00    -0.175 A  
HETATM   26  C   UNL     1     -10.012   3.543  71.015  1.00  0.00    -0.047 A  
HETATM   27  F   UNL     1      -9.539   2.842  68.840  1.00  0.00    -0.225 F  
HETATM   28  C   UNL     1      -9.793   4.400  72.085  1.00  0.00    -0.237 A  
HETATM   29  C   UNL     1      -8.993   5.524  71.903  1.00  0.00    -0.142 A  
HETATM   30  C   UNL     1      -8.387   5.773  70.663  1.00  0.00    -0.120 A  
HETATM   31 CL   UNL     1      -7.629   7.320  70.488  1.00  0.00    -0.086 Cl 
ENDBRANCH  23  24
ENDBRANCH  15  18
ENDBRANCH  12  14
TORSDOF 3
ENDMDL
MODEL      203
REMARK 921   NORMALIZED FREE ENERGY PREDICTED BY IDOCK:   -2.95 KCAL/MOL
REMARK 922        TOTAL FREE ENERGY PREDICTED BY IDOCK:   -4.83 KCAL/MOL
REMARK 923 INTER-LIGAND FREE ENERGY PREDICTED BY IDOCK:   -3.18 KCAL/MOL
REMARK 924 INTRA-LIGAND FREE ENERGY PREDICTED BY IDOCK:   -1.65 KCAL/MOL
REMARK 927      BINDING AFFINITY PREDICTED BY RF-SCORE:    0.00 PKD
ROOT
HETATM    1  C   UNL     1      -6.210   7.921  70.656  1.00  0.00    -0.037 C  
HETATM    2  S   UNL     1      -7.888   8.516  70.152  1.00  0.00    -0.104 SA 
HETATM    3  C   UNL     1      -8.780   7.418  71.348  1.00  0.00    -0.125 C  
HETATM    4  C   UNL     1     -10.073   8.096  71.810  1.00  0.00    -0.267 C  
HETATM    5  CA  UNL     1      -7.742   7.115  72.457  1.00  0.00    -0.088 C  
HETATM    6  C   UNL     1      -9.205   6.133  70.603  1.00  0.00    -0.163 C  
HETATM    7  N   UNL     1      -6.423   7.025  71.810  1.00  0.00    -0.048 N  
HETATM    8  C   UNL     1      -7.594   8.158  73.582  1.00  0.00    -0.164 C  
HETATM    9  OXT UNL     1      -8.498   8.797  74.093  1.00  0.00    -0.179 OA 
HETATM   10  O   UNL     1      -6.327   8.211  74.079  1.00  0.00    -0.100 OA 
HETATM   11  C   UNL     1      -6.065   5.892  71.130  1.00  0.00    -0.038 C  
HETATM   12  CA  UNL     1      -5.678   6.699  69.854  1.00  0.00    -0.018 C  
HETATM   13  O   UNL     1      -6.224   4.743  71.465  1.00  0.00    -0.017 OA 
ENDROOT
BRANCH  12  14
HETATM   14  N   UNL     1      -6.431   6.425  68.607  1.00  0.00    -0.047 N  
HETATM   15  C   UNL     1      -6.172   7.074  67.427  1.00  0.00    -0.041 C  
HETATM   16  H   UNL     1      -7.172   5.725  68.627  1.00  0.00     0.000 HD 
HETATM   17  O   UNL     1      -5.237   7.853  67.287  1.00  0.00    -0.026 OA 
BRANCH  15  18
HETATM   18  C   UNL     1      -7.099   6.759  66.348  1.00  0.00    -0.071 A  
HETATM   19  C   UNL     1      -6.933   5.718  65.456  1.00  0.00    -0.068 A  
HETATM   20  C   UNL     1      -5.927   4.653  65.264  1.00  0.00    -0.022 C  
HETATM   21  O   UNL     1      -7.982   5.692  64.599  1.00  0.00    -0.106 OA 
HETATM   22  N   UNL     1      -8.840   6.728  64.879  1.00  0.00     0.277 NA 
HETATM   23  C   UNL     1      -8.322   7.392  65.926  1.00  0.00    -0.140 A  
BRANCH  23  24
HETATM   24  C   UNL     1      -9.037   8.542  66.501  1.00  0.00    -0.217 A  
HETATM   25  C   UNL     1     -10.160   8.322  67.317  1.00  0.00    -0.247 A  
HETATM   26  C   UNL     1     -10.749   9.350  68.056  1.00  0.00    -0.246 A  
HETATM   27  F   UNL     1     -10.696   7.098  67.444  1.00  0.00    -0.271 F  
HETATM   28  C   UNL     1     -10.201  10.625  68.027  1.00  0.00    -0.202 A  
HETATM   29  C   UNL     1      -9.141  10.890  67.164  1.00  0.00    -0.152 A  
HETATM   30  C   UNL     1      -8.610   9.874  66.356  1.00  0.00    -0.128 A  
HETATM   31 CL   UNL     1      -7.473  10.381  65.153  1.00  0.00    -0.125 Cl 
ENDBRANCH  23  24
ENDBRANCH  15  18
ENDBRANCH  12  14
TORSDOF 3
ENDMDL
MODEL      204
REMARK 921   NORMALIZED FREE ENERGY PREDICTED BY IDOCK:   -2.88 KCAL/MOL
REMARK 922        TOTAL FREE ENERGY PREDICTED BY IDOCK:   -4.75 KCAL/MOL
REMARK 923 INTER-LIGAND FREE ENERGY PREDICTED BY IDOCK:   -4.07 KCAL/MOL
REMARK 924 INTRA-LIGAND FREE ENERGY PREDICTED BY IDOCK:   -0.67 KCAL/MOL
REMARK 927      BINDING AFFINITY PREDICTED BY RF-SCORE:    0.00 PKD
ROOT
HETATM    1  C   UNL     1      -6.808  11.009  66.452  1.00  0.00    -0.118 C  
HETATM    2  S   UNL     1      -8.632  11.308  66.391  1.00  0.00    -0.165 SA 
HETATM    3  C   UNL     1      -8.682  12.142  68.045  1.00  0.00    -0.180 C  
HETATM    4  C   UNL     1      -9.792  13.197  68.061  1.00  0.00    -0.231 C  
HETATM    5  CA  UNL     1      -7.244  12.671  68.265  1.00  0.00    -0.113 C  
HETATM    6  C   UNL     1      -9.067  11.088  69.108  1.00  0.00    -0.006 C  
HETATM    7  N   UNL     1      -6.321  11.694  67.666  1.00  0.00    -0.064 N  
HETATM    8  C   UNL     1      -6.892  14.031  67.631  1.00  0.00    -0.179 C  
HETATM    9  OXT UNL     1      -7.630  15.000  67.554  1.00  0.00    -0.159 OA 
HETATM   10  O   UNL     1      -5.582  14.115  67.269  1.00  0.00    -0.296 OA 
HETATM   11  C   UNL     1      -6.022  10.533  68.328  1.00  0.00    -0.043 C  
HETATM   12  CA  UNL     1      -6.383   9.656  67.092  1.00  0.00    -0.065 C  
HETATM   13  O   UNL     1      -5.763  10.390  69.499  1.00  0.00    -0.037 OA 
ENDROOT
BRANCH  12  14
HETATM   14  N   UNL     1      -7.495   8.685  67.234  1.00  0.00    -0.088 N  
HETATM   15  C   UNL     1      -7.863   7.828  66.228  1.00  0.00    -0.091 C  
HETATM   16  H   UNL     1      -8.007   8.653  68.115  1.00  0.00     0.000 HD 
HETATM   17  O   UNL     1      -7.241   7.727  65.177  1.00  0.00    -0.061 OA 
BRANCH  15  18
HETATM   18  C   UNL     1      -9.054   7.039  66.513  1.00  0.00    -0.183 A  
HETATM   19  C   UNL     1     -10.263   7.570  66.919  1.00  0.00    -0.289 A  
HETATM   20  C   UNL     1     -10.776   8.932  67.173  1.00  0.00    -0.203 C  
HETATM   21  O   UNL     1     -11.162   6.569  67.075  1.00  0.00    -0.397 OA 
HETATM   22  N   UNL     1     -10.564   5.359  66.814  1.00  0.00    -0.288 NA 
HETATM   23  C   UNL     1      -9.288   5.618  66.481  1.00  0.00    -0.150 A  
BRANCH  23  24
HETATM   24  C   UNL     1      -8.385   4.521  66.098  1.00  0.00    -0.113 A  
HETATM   25  C   UNL     1      -7.743   3.771  67.099  1.00  0.00    -0.080 A  
HETATM   26  C   UNL     1      -7.047   2.596  66.809  1.00  0.00    -0.049 A  
HETATM   27  F   UNL     1      -7.801   4.141  68.387  1.00  0.00    -0.071 F  
HETATM   28  C   UNL     1      -7.009   2.117  65.506  1.00  0.00    -0.047 A  
HETATM   29  C   UNL     1      -7.564   2.882  64.484  1.00  0.00    -0.076 A  
HETATM   30  C   UNL     1      -8.185   4.108  64.769  1.00  0.00    -0.102 A  
HETATM   31 CL   UNL     1      -8.609   5.078  63.399  1.00  0.00    -0.130 Cl 
ENDBRANCH  23  24
ENDBRANCH  15  18
ENDBRANCH  12  14
TORSDOF 3
ENDMDL
MODEL      205
REMARK 921   NORMALIZED FREE ENERGY PREDICTED BY IDOCK:   -2.82 KCAL/MOL
REMARK 922        TOTAL FREE ENERGY PREDICTED BY IDOCK:   -4.68 KCAL/MOL
REMARK 923 INTER-LIGAND FREE ENERGY PREDICTED BY IDOCK:   -3.51 KCAL/MOL
REMARK 924 INTRA-LIGAND FREE ENERGY PREDICTED BY IDOCK:   -1.17 KCAL/MOL
REMARK 927      BINDING AFFINITY PREDICTED BY RF-SCORE:    0.00 PKD
ROOT
HETATM    1  C   UNL     1      -9.318   9.426  70.485  1.00  0.00    -0.262 C  
HETATM    2  S   UNL     1      -8.346  10.156  69.090  1.00  0.00    -0.166 SA 
HETATM    3  C   UNL     1      -9.812  10.281  67.963  1.00  0.00    -0.150 C  
HETATM    4  C   UNL     1      -9.648  11.484  67.030  1.00  0.00    -0.199 C  
HETATM    5  CA  UNL     1     -11.037  10.323  68.910  1.00  0.00    -0.231 C  
HETATM    6  C   UNL     1      -9.837   9.028  67.059  1.00  0.00    -0.270 C  
HETATM    7  N   UNL     1     -10.731   9.456  70.060  1.00  0.00    -0.226 N  
HETATM    8  C   UNL     1     -11.420  11.693  69.501  1.00  0.00    -0.304 C  
HETATM    9  OXT UNL     1     -11.371  12.765  68.920  1.00  0.00    -0.260 OA 
HETATM   10  O   UNL     1     -11.976  11.589  70.740  1.00  0.00    -0.344 OA 
HETATM   11  C   UNL     1     -10.835   8.096  69.944  1.00  0.00    -0.215 C  
HETATM   12  CA  UNL     1      -9.393   7.872  70.492  1.00  0.00    -0.162 C  
HETATM   13  O   UNL     1     -11.716   7.459  69.418  1.00  0.00     0.286 OA 
ENDROOT
BRANCH  12  14
HETATM   14  N   UNL     1      -8.407   7.219  69.597  1.00  0.00    -0.131 N  
HETATM   15  C   UNL     1      -8.500   5.902  69.228  1.00  0.00    -0.113 C  
HETATM   16  H   UNL     1      -7.627   7.773  69.242  1.00  0.00     0.000 HD 
HETATM   17  O   UNL     1      -9.453   5.192  69.524  1.00  0.00    -0.126 OA 
BRANCH  15  18
HETATM   18  C   UNL     1      -7.370   5.413  68.448  1.00  0.00    -0.072 A  
HETATM   19  C   UNL     1      -6.048   5.540  68.825  1.00  0.00    -0.025 A  
HETATM   20  C   UNL     1      -5.341   6.112  69.990  1.00  0.00    -0.013 C  
HETATM   21  O   UNL     1      -5.258   4.961  67.889  1.00  0.00    -0.009 OA 
HETATM   22  N   UNL     1      -6.031   4.473  66.863  1.00  0.00    -0.026 NA 
HETATM   23  C   UNL     1      -7.309   4.742  67.174  1.00  0.00    -0.078 A  
BRANCH  23  24
HETATM   24  C   UNL     1      -8.397   4.303  66.286  1.00  0.00    -0.108 A  
HETATM   25  C   UNL     1      -8.892   5.185  65.309  1.00  0.00    -0.152 A  
HETATM   26  C   UNL     1      -9.768   4.761  64.308  1.00  0.00     0.222 A  
HETATM   27  F   UNL     1      -8.515   6.472  65.281  1.00  0.00    -0.143 F  
HETATM   28  C   UNL     1     -10.143   3.426  64.236  1.00  0.00    -0.176 A  
HETATM   29  C   UNL     1      -9.735   2.550  65.237  1.00  0.00     0.213 A  
HETATM   30  C   UNL     1      -8.927   3.001  66.291  1.00  0.00    -0.150 A  
HETATM   31 CL   UNL     1      -8.697   1.888  67.598  1.00  0.00    -0.115 Cl 
ENDBRANCH  23  24
ENDBRANCH  15  18
ENDBRANCH  12  14
TORSDOF 3
ENDMDL
MODEL      206
REMARK 921   NORMALIZED FREE ENERGY PREDICTED BY IDOCK:   -2.52 KCAL/MOL
REMARK 922        TOTAL FREE ENERGY PREDICTED BY IDOCK:   -4.32 KCAL/MOL
REMARK 923 INTER-LIGAND FREE ENERGY PREDICTED BY IDOCK:   -3.05 KCAL/MOL
REMARK 924 INTRA-LIGAND FREE ENERGY PREDICTED BY IDOCK:   -1.27 KCAL/MOL
REMARK 927      BINDING AFFINITY PREDICTED BY RF-SCORE:    0.00 PKD
ROOT
HETATM    1  C   UNL     1      -7.947  13.034  69.367  1.00  0.00     0.822 C  
HETATM    2  S   UNL     1      -7.700  12.772  67.552  1.00  0.00    -0.169 SA 
HETATM    3  C   UNL     1      -5.851  12.755  67.674  1.00  0.00    -0.141 C  
HETATM    4  C   UNL     1      -5.269  11.835  66.596  1.00  0.00    -0.047 C  
HETATM    5  CA  UNL     1      -5.555  12.351  69.139  1.00  0.00    -0.071 C  
HETATM    6  C   UNL     1      -5.332  14.176  67.361  1.00  0.00     0.382 C  
HETATM    7  N   UNL     1      -6.606  12.947  69.979  1.00  0.00     0.107 N  
HETATM    8  C   UNL     1      -5.553  10.845  69.465  1.00  0.00    -0.039 C  
HETATM    9  OXT UNL     1      -5.127   9.955  68.747  1.00  0.00    -0.037 OA 
HETATM   10  O   UNL     1      -5.960  10.586  70.739  1.00  0.00    -0.162 OA 
HETATM   11  C   UNL     1      -6.555  14.275  70.308  1.00  0.00    -0.042 C  
HETATM   12  CA  UNL     1      -8.012  14.523  69.814  1.00  0.00     0.335 C  
HETATM   13  O   UNL     1      -5.597  14.915  70.669  1.00  0.00    -0.133 OA 
ENDROOT
BRANCH  12  14
HETATM   14  N   UNL     1      -8.211  15.477  68.697  1.00  0.00    -0.152 N  
HETATM   15  C   UNL     1      -9.274  16.341  68.641  1.00  0.00    -0.227 C  
HETATM   16  H   UNL     1      -7.530  15.490  67.938  1.00  0.00     0.000 HD 
HETATM   17  O   UNL     1     -10.082  16.464  69.554  1.00  0.00    -0.251 OA 
BRANCH  15  18
HETATM   18  C   UNL     1      -9.363  17.110  67.406  1.00  0.00    -0.234 A  
HETATM   19  C   UNL     1     -10.256  16.848  66.386  1.00  0.00    -0.321 A  
HETATM   20  C   UNL     1     -11.330  15.857  66.164  1.00  0.00     0.225 C  
HETATM   21  O   UNL     1     -10.088  17.759  65.399  1.00  0.00    -0.445 OA 
HETATM   22  N   UNL     1      -9.064  18.617  65.724  1.00  0.00    -0.317 NA 
HETATM   23  C   UNL     1      -8.605  18.238  66.928  1.00  0.00    -0.263 A  
BRANCH  23  24
HETATM   24  C   UNL     1      -7.523  18.993  67.580  1.00  0.00    -0.251 A  
HETATM   25  C   UNL     1      -7.784  19.681  68.778  1.00  0.00    -0.302 A  
HETATM   26  C   UNL     1      -6.760  20.236  69.548  1.00  0.00    -0.166 A  
HETATM   27  F   UNL     1      -9.034  19.806  69.248  1.00  0.00    -0.340 F  
HETATM   28  C   UNL     1      -5.437  20.081  69.157  1.00  0.00    -0.250 A  
HETATM   29  C   UNL     1      -5.156  19.478  67.934  1.00  0.00    -0.170 A  
HETATM   30  C   UNL     1      -6.195  19.001  67.120  1.00  0.00    -0.178 A  
HETATM   31 CL   UNL     1      -5.738  18.505  65.525  1.00  0.00    -0.218 Cl 
ENDBRANCH  23  24
ENDBRANCH  15  18
ENDBRANCH  12  14
TORSDOF 3
ENDMDL
MODEL      207
REMARK 921   NORMALIZED FREE ENERGY PREDICTED BY IDOCK:   -2.49 KCAL/MOL
REMARK 922        TOTAL FREE ENERGY PREDICTED BY IDOCK:   -4.29 KCAL/MOL
REMARK 923 INTER-LIGAND FREE ENERGY PREDICTED BY IDOCK:   -4.88 KCAL/MOL
REMARK 924 INTRA-LIGAND FREE ENERGY PREDICTED BY IDOCK:    0.59 KCAL/MOL
REMARK 927      BINDING AFFINITY PREDICTED BY RF-SCORE:    0.00 PKD
ROOT
HETATM    1  C   UNL     1      -7.898   9.579  70.551  1.00  0.00    -0.157 C  
HETATM    2  S   UNL     1      -9.723   9.342  70.369  1.00  0.00    -0.262 SA 
HETATM    3  C   UNL     1      -9.554   7.980  69.123  1.00  0.00    -0.156 C  
HETATM    4  C   UNL     1     -10.722   7.000  69.263  1.00  0.00    -0.245 C  
HETATM    5  CA  UNL     1      -8.143   7.391  69.371  1.00  0.00    -0.129 C  
HETATM    6  C   UNL     1      -9.670   8.598  67.711  1.00  0.00    -0.202 C  
HETATM    7  N   UNL     1      -7.264   8.506  69.759  1.00  0.00    -0.051 N  
HETATM    8  C   UNL     1      -8.010   6.336  70.486  1.00  0.00    -0.112 C  
HETATM    9  OXT UNL     1      -8.822   5.465  70.752  1.00  0.00    -0.129 OA 
HETATM   10  O   UNL     1      -6.791   6.370  71.092  1.00  0.00    -0.063 OA 
HETATM   11  C   UNL     1      -6.769   9.357  68.807  1.00  0.00    -0.052 C  
HETATM   12  CA  UNL     1      -7.268  10.616  69.576  1.00  0.00    -0.140 C  
HETATM   13  O   UNL     1      -6.304   9.076  67.728  1.00  0.00    -0.055 OA 
ENDROOT
BRANCH  12  14
HETATM   14  N   UNL     1      -8.262  11.489  68.905  1.00  0.00    -0.338 N  
HETATM   15  C   UNL     1      -7.979  12.774  68.520  1.00  0.00    -0.095 C  
HETATM   16  H   UNL     1      -9.195  11.118  68.724  1.00  0.00     0.000 HD 
HETATM   17  O   UNL     1      -6.860  13.264  68.606  1.00  0.00    -0.087 OA 
BRANCH  15  18
HETATM   18  C   UNL     1      -9.119  13.510  67.991  1.00  0.00    -0.201 A  
HETATM   19  C   UNL     1      -9.688  14.611  68.601  1.00  0.00    -0.220 A  
HETATM   20  C   UNL     1      -9.414  15.387  69.828  1.00  0.00    -0.156 C  
HETATM   21  O   UNL     1     -10.711  15.066  67.838  1.00  0.00    -0.257 OA 
HETATM   22  N   UNL     1     -10.865  14.262  66.734  1.00  0.00    -0.295 NA 
HETATM   23  C   UNL     1      -9.920  13.310  66.810  1.00  0.00    -0.263 A  
BRANCH  23  24
HETATM   24  C   UNL     1      -9.791  12.308  65.741  1.00  0.00    -0.260 A  
HETATM   25  C   UNL     1      -8.569  11.635  65.566  1.00  0.00     0.277 A  
HETATM   26  C   UNL     1      -8.447  10.534  64.717  1.00  0.00    -0.150 A  
HETATM   27  F   UNL     1      -7.470  12.008  66.239  1.00  0.00     0.049 F  
HETATM   28  C   UNL     1      -9.562  10.051  64.044  1.00  0.00    -0.243 A  
HETATM   29  C   UNL     1     -10.764  10.747  64.134  1.00  0.00    -0.070 A  
HETATM   30  C   UNL     1     -10.859  11.905  64.919  1.00  0.00    -0.305 A  
HETATM   31 CL   UNL     1     -12.322  12.816  64.750  1.00  0.00    -0.514 Cl 
ENDBRANCH  23  24
ENDBRANCH  15  18
ENDBRANCH  12  14
TORSDOF 3
ENDMDL
MODEL      208
REMARK 921   NORMALIZED FREE ENERGY PREDICTED BY IDOCK:   -2.46 KCAL/MOL
REMARK 922        TOTAL FREE ENERGY PREDICTED BY IDOCK:   -4.25 KCAL/MOL
REMARK 923 INTER-LIGAND FREE ENERGY PREDICTED BY IDOCK:   -4.11 KCAL/MOL
REMARK 924 INTRA-LIGAND FREE ENERGY PREDICTED BY IDOCK:   -0.14 KCAL/MOL
REMARK 927      BINDING AFFINITY PREDICTED BY RF-SCORE:    0.00 PKD
ROOT
HETATM    1  C   UNL     1     -10.464  14.888  66.329  1.00  0.00    -0.302 C  
HETATM    2  S   UNL     1      -8.665  14.814  66.753  1.00  0.00    -0.182 SA 
HETATM    3  C   UNL     1      -8.897  13.543  68.082  1.00  0.00    -0.179 C  
HETATM    4  C   UNL     1      -7.655  12.652  68.171  1.00  0.00    -0.132 C  
HETATM    5  CA  UNL     1     -10.219  12.824  67.715  1.00  0.00    -0.223 C  
HETATM    6  C   UNL     1      -9.007  14.275  69.438  1.00  0.00     0.411 C  
HETATM    7  N   UNL     1     -11.117  13.832  67.127  1.00  0.00    -0.296 N  
HETATM    8  C   UNL     1     -10.133  11.679  66.687  1.00  0.00    -0.208 C  
HETATM    9  OXT UNL     1      -9.235  10.859  66.599  1.00  0.00    -0.163 OA 
HETATM   10  O   UNL     1     -11.264  11.568  65.936  1.00  0.00    -0.274 OA 
HETATM   11  C   UNL     1     -11.789  14.711  67.934  1.00  0.00    -0.320 C  
HETATM   12  CA  UNL     1     -11.284  15.943  67.125  1.00  0.00    -0.060 C  
HETATM   13  O   UNL     1     -12.368  14.477  68.967  1.00  0.00    -0.225 OA 
ENDROOT
BRANCH  12  14
HETATM   14  N   UNL     1     -10.449  16.942  67.835  1.00  0.00    -0.331 N  
HETATM   15  C   UNL     1      -9.554  17.754  67.187  1.00  0.00    -0.276 C  
HETATM   16  H   UNL     1     -10.544  17.028  68.847  1.00  0.00     0.000 HD 
HETATM   17  O   UNL     1      -9.448  17.789  65.967  1.00  0.00    -0.502 OA 
BRANCH  15  18
HETATM   18  C   UNL     1      -8.739  18.579  68.069  1.00  0.00    -0.313 A  
HETATM   19  C   UNL     1      -9.122  19.810  68.560  1.00  0.00    -0.247 A  
HETATM   20  C   UNL     1     -10.325  20.659  68.436  1.00  0.00     0.114 C  
HETATM   21  O   UNL     1      -8.145  20.295  69.364  1.00  0.00     0.312 OA 
HETATM   22  N   UNL     1      -7.087  19.419  69.393  1.00  0.00    -0.316 NA 
HETATM   23  C   UNL     1      -7.419  18.379  68.611  1.00  0.00    -0.296 A  
BRANCH  23  24
HETATM   24  C   UNL     1      -6.502  17.238  68.468  1.00  0.00    -0.170 A  
HETATM   25  C   UNL     1      -6.088  16.534  69.612  1.00  0.00    -0.213 A  
HETATM   26  C   UNL     1      -5.395  15.325  69.526  1.00  0.00    -0.094 A  
HETATM   27  F   UNL     1      -6.372  16.985  70.844  1.00  0.00     0.436 F  
HETATM   28  C   UNL     1      -5.131  14.766  68.282  1.00  0.00    -0.112 A  
HETATM   29  C   UNL     1      -5.455  15.481  67.133  1.00  0.00     0.416 A  
HETATM   30  C   UNL     1      -6.072  16.737  67.226  1.00  0.00    -0.171 A  
HETATM   31 CL   UNL     1      -6.194  17.631  65.749  1.00  0.00    -0.195 Cl 
ENDBRANCH  23  24
ENDBRANCH  15  18
ENDBRANCH  12  14
TORSDOF 3
ENDMDL
MODEL      209
REMARK 921   NORMALIZED FREE ENERGY PREDICTED BY IDOCK:   -1.96 KCAL/MOL
REMARK 922        TOTAL FREE ENERGY PREDICTED BY IDOCK:   -3.67 KCAL/MOL
REMARK 923 INTER-LIGAND FREE ENERGY PREDICTED BY IDOCK:   -3.61 KCAL/MOL
REMARK 924 INTRA-LIGAND FREE ENERGY PREDICTED BY IDOCK:   -0.06 KCAL/MOL
REMARK 927      BINDING AFFINITY PREDICTED BY RF-SCORE:    0.00 PKD
ROOT
HETATM    1  C   UNL     1      -9.082   5.273  70.801  1.00  0.00    -0.137 C  
HETATM    2  S   UNL     1     -10.399   5.288  69.502  1.00  0.00    -0.224 SA 
HETATM    3  C   UNL     1      -9.252   4.755  68.148  1.00  0.00    -0.124 C  
HETATM    4  C   UNL     1     -10.019   3.924  67.115  1.00  0.00     0.044 C  
HETATM    5  CA  UNL     1      -8.094   4.028  68.874  1.00  0.00    -0.070 C  
HETATM    6  C   UNL     1      -8.754   6.018  67.409  1.00  0.00    -0.104 C  
HETATM    7  N   UNL     1      -7.875   4.721  70.154  1.00  0.00    -0.057 N  
HETATM    8  C   UNL     1      -8.308   2.543  69.226  1.00  0.00    -0.052 C  
HETATM    9  OXT UNL     1      -8.882   1.717  68.536  1.00  0.00    -0.070 OA 
HETATM   10  O   UNL     1      -7.654   2.177  70.363  1.00  0.00    -0.039 OA 
HETATM   11  C   UNL     1      -7.188   5.905  70.188  1.00  0.00    -0.072 C  
HETATM   12  CA  UNL     1      -8.322   6.619  70.983  1.00  0.00    -0.125 C  
HETATM   13  O   UNL     1      -6.167   6.189  69.608  1.00  0.00    -0.028 OA 
ENDROOT
BRANCH  12  14
HETATM   14  N   UNL     1      -8.992   7.777  70.343  1.00  0.00    -0.146 N  
HETATM   15  C   UNL     1     -10.158   8.315  70.823  1.00  0.00    -0.190 C  
HETATM   16  H   UNL     1      -8.567   8.190  69.513  1.00  0.00     0.000 HD 
HETATM   17  O   UNL     1     -10.682   7.949  71.868  1.00  0.00    -0.219 OA 
BRANCH  15  18
HETATM   18  C   UNL     1     -10.726   9.366  69.988  1.00  0.00    -0.270 A  
HETATM   19  C   UNL     1     -11.961   9.947  70.195  1.00  0.00    -0.077 A  
HETATM   20  C   UNL     1     -13.038   9.788  71.194  1.00  0.00    -0.424 C  
HETATM   21  O   UNL     1     -12.171  10.899  69.255  1.00  0.00    -0.364 OA 
HETATM   22  N   UNL     1     -11.105  10.945  68.390  1.00  0.00    -0.240 NA 
HETATM   23  C   UNL     1     -10.223  10.022  68.807  1.00  0.00    -0.186 A  
BRANCH  23  24
HETATM   24  C   UNL     1      -8.940   9.853  68.107  1.00  0.00    -0.118 A  
HETATM   25  C   UNL     1      -8.905   9.159  66.884  1.00  0.00    -0.123 A  
HETATM   26  C   UNL     1      -7.767   9.148  66.075  1.00  0.00    -0.095 A  
HETATM   27  F   UNL     1      -9.982   8.503  66.428  1.00  0.00    -0.294 F  
HETATM   28  C   UNL     1      -6.640   9.866  66.453  1.00  0.00    -0.073 A  
HETATM   29  C   UNL     1      -6.619  10.492  67.697  1.00  0.00    -0.065 A  
HETATM   30  C   UNL     1      -7.734  10.426  68.546  1.00  0.00    -0.101 A  
HETATM   31 CL   UNL     1      -7.496  11.023  70.154  1.00  0.00     0.437 Cl 
ENDBRANCH  23  24
ENDBRANCH  15  18
ENDBRANCH  12  14
TORSDOF 3
ENDMDL
MODEL      210
REMARK 921   NORMALIZED FREE ENERGY PREDICTED BY IDOCK:   -1.96 KCAL/MOL
REMARK 922        TOTAL FREE ENERGY PREDICTED BY IDOCK:   -3.67 KCAL/MOL
REMARK 923 INTER-LIGAND FREE ENERGY PREDICTED BY IDOCK:   -4.04 KCAL/MOL
REMARK 924 INTRA-LIGAND FREE ENERGY PREDICTED BY IDOCK:    0.38 KCAL/MOL
REMARK 927      BINDING AFFINITY PREDICTED BY RF-SCORE:    0.00 PKD
ROOT
HETATM    1  C   UNL     1      -9.088  10.092  68.770  1.00  0.00    -0.148 C  
HETATM    2  S   UNL     1      -8.551   9.693  70.495  1.00  0.00     0.044 SA 
HETATM    3  C   UNL     1      -6.750   9.632  70.059  1.00  0.00    -0.079 C  
HETATM    4  C   UNL     1      -5.911  10.083  71.258  1.00  0.00    -0.005 C  
HETATM    5  CA  UNL     1      -6.623  10.498  68.782  1.00  0.00    -0.053 C  
HETATM    6  C   UNL     1      -6.367   8.160  69.786  1.00  0.00    -0.036 C  
HETATM    7  N   UNL     1      -7.850  10.299  67.993  1.00  0.00    -0.099 N  
HETATM    8  C   UNL     1      -6.486  12.021  68.977  1.00  0.00    -0.091 C  
HETATM    9  OXT UNL     1      -5.856  12.578  69.860  1.00  0.00    -0.109 OA 
HETATM   10  O   UNL     1      -7.040  12.729  67.954  1.00  0.00    -0.091 OA 
HETATM   11  C   UNL     1      -8.008   9.166  67.240  1.00  0.00    -0.102 C  
HETATM   12  CA  UNL     1      -9.397   8.857  67.875  1.00  0.00    -0.141 C  
HETATM   13  O   UNL     1      -7.197   8.630  66.523  1.00  0.00    -0.078 OA 
ENDROOT
BRANCH  12  14
HETATM   14  N   UNL     1      -9.546   7.590  68.631  1.00  0.00    -0.150 N  
HETATM   15  C   UNL     1      -8.863   6.447  68.302  1.00  0.00    -0.115 C  
HETATM   16  H   UNL     1     -10.182   7.568  69.428  1.00  0.00     0.000 HD 
HETATM   17  O   UNL     1      -8.006   6.411  67.427  1.00  0.00    -0.113 OA 
BRANCH  15  18
HETATM   18  C   UNL     1      -9.236   5.275  69.084  1.00  0.00    -0.153 A  
HETATM   19  C   UNL     1      -9.482   4.027  68.550  1.00  0.00    -0.151 A  
HETATM   20  C   UNL     1      -9.456   3.445  67.192  1.00  0.00    -0.199 C  
HETATM   21  O   UNL     1      -9.782   3.163  69.549  1.00  0.00    -0.098 OA 
HETATM   22  N   UNL     1      -9.776   3.823  70.755  1.00  0.00    -0.181 NA 
HETATM   23  C   UNL     1      -9.458   5.103  70.497  1.00  0.00    -0.169 A  
BRANCH  23  24
HETATM   24  C   UNL     1      -9.326   6.069  71.599  1.00  0.00    -0.160 A  
HETATM   25  C   UNL     1      -8.074   6.253  72.211  1.00  0.00    -0.108 A  
HETATM   26  C   UNL     1      -7.837   7.296  73.110  1.00  0.00    -0.114 A  
HETATM   27  F   UNL     1      -7.039   5.447  71.931  1.00  0.00    -0.071 F  
HETATM   28  C   UNL     1      -8.844   8.210  73.390  1.00  0.00    -0.322 A  
HETATM   29  C   UNL     1     -10.116   8.004  72.863  1.00  0.00    -0.376 A  
HETATM   30  C   UNL     1     -10.372   6.903  72.031  1.00  0.00    -0.199 A  
HETATM   31 CL   UNL     1     -12.035   6.616  71.647  1.00  0.00    -0.379 Cl 
ENDBRANCH  23  24
ENDBRANCH  15  18
ENDBRANCH  12  14
TORSDOF 3
ENDMDL
MODEL      211
REMARK 921   NORMALIZED FREE ENERGY PREDICTED BY IDOCK:   -1.77 KCAL/MOL
REMARK 922        TOTAL FREE ENERGY PREDICTED BY IDOCK:   -3.44 KCAL/MOL
REMARK 923 INTER-LIGAND FREE ENERGY PREDICTED BY IDOCK:   -2.89 KCAL/MOL
REMARK 924 INTRA-LIGAND FREE ENERGY PREDICTED BY IDOCK:   -0.55 KCAL/MOL
REMARK 927      BINDING AFFINITY PREDICTED BY RF-SCORE:    0.00 PKD
ROOT
HETATM    1  C   UNL     1      -7.269   9.172  71.055  1.00  0.00    -0.100 C  
HETATM    2  S   UNL     1      -9.071   9.104  70.641  1.00  0.00    -0.266 SA 
HETATM    3  C   UNL     1      -8.897   7.617  69.549  1.00  0.00    -0.139 C  
HETATM    4  C   UNL     1     -10.177   6.778  69.607  1.00  0.00    -0.207 C  
HETATM    5  CA  UNL     1      -7.607   6.915  70.039  1.00  0.00    -0.099 C  
HETATM    6  C   UNL     1      -8.759   8.102  68.088  1.00  0.00    -0.136 C  
HETATM    7  N   UNL     1      -6.665   7.968  70.451  1.00  0.00    -0.037 N  
HETATM    8  C   UNL     1      -7.739   5.966  71.246  1.00  0.00    -0.110 C  
HETATM    9  OXT UNL     1      -8.672   5.212  71.468  1.00  0.00    -0.129 OA 
HETATM   10  O   UNL     1      -6.612   5.936  72.011  1.00  0.00    -0.058 OA 
HETATM   11  C   UNL     1      -5.957   8.667  69.509  1.00  0.00    -0.033 C  
HETATM   12  CA  UNL     1      -6.406  10.040  70.094  1.00  0.00    -0.093 C  
HETATM   13  O   UNL     1      -5.391   8.236  68.533  1.00  0.00    -0.031 OA 
ENDROOT
BRANCH  12  14
HETATM   14  N   UNL     1      -7.199  10.938  69.221  1.00  0.00    -0.118 N  
HETATM   15  C   UNL     1      -6.645  11.999  68.552  1.00  0.00    -0.062 C  
HETATM   16  H   UNL     1      -8.198  10.759  69.114  1.00  0.00     0.000 HD 
HETATM   17  O   UNL     1      -5.441  12.227  68.543  1.00  0.00    -0.053 OA 
BRANCH  15  18
HETATM   18  C   UNL     1      -7.607  12.836  67.846  1.00  0.00    -0.138 A  
HETATM   19  C   UNL     1      -8.604  12.354  67.022  1.00  0.00    -0.191 A  
HETATM   20  C   UNL     1      -9.053  11.012  66.595  1.00  0.00    -0.177 C  
HETATM   21  O   UNL     1      -9.331  13.392  66.544  1.00  0.00    -0.256 OA 
HETATM   22  N   UNL     1      -8.814  14.578  67.009  1.00  0.00    -0.227 NA 
HETATM   23  C   UNL     1      -7.767  14.267  67.790  1.00  0.00    -0.163 A  
BRANCH  23  24
HETATM   24  C   UNL     1      -7.017  15.328  68.481  1.00  0.00    -0.113 A  
HETATM   25  C   UNL     1      -6.900  15.294  69.882  1.00  0.00    -0.135 A  
HETATM   26  C   UNL     1      -6.034  16.144  70.571  1.00  0.00     0.090 A  
HETATM   27  F   UNL     1      -7.598  14.413  70.614  1.00  0.00     0.401 F  
HETATM   28  C   UNL     1      -5.229  17.031  69.869  1.00  0.00    -0.181 A  
HETATM   29  C   UNL     1      -5.384  17.144  68.490  1.00  0.00    -0.136 A  
HETATM   30  C   UNL     1      -6.321  16.350  67.812  1.00  0.00    -0.140 A  
HETATM   31 CL   UNL     1      -6.598  16.758  66.152  1.00  0.00     0.145 Cl 
ENDBRANCH  23  24
ENDBRANCH  15  18
ENDBRANCH  12  14
TORSDOF 3
ENDMDL
MODEL      212
REMARK 921   NORMALIZED FREE ENERGY PREDICTED BY IDOCK:   -1.74 KCAL/MOL
REMARK 922        TOTAL FREE ENERGY PREDICTED BY IDOCK:   -3.41 KCAL/MOL
REMARK 923 INTER-LIGAND FREE ENERGY PREDICTED BY IDOCK:   -3.23 KCAL/MOL
REMARK 924 INTRA-LIGAND FREE ENERGY PREDICTED BY IDOCK:   -0.17 KCAL/MOL
REMARK 927      BINDING AFFINITY PREDICTED BY RF-SCORE:    0.00 PKD
ROOT
HETATM    1  C   UNL     1     -10.220  11.004  70.097  1.00  0.00     0.807 C  
HETATM    2  S   UNL     1      -9.290  11.402  68.548  1.00  0.00    -0.155 SA 
HETATM    3  C   UNL     1     -10.785  12.040  67.659  1.00  0.00    -0.217 C  
HETATM    4  C   UNL     1     -10.375  13.142  66.678  1.00  0.00    -0.265 C  
HETATM    5  CA  UNL     1     -11.762  12.466  68.783  1.00  0.00    -0.332 C  
HETATM    6  C   UNL     1     -11.369  10.892  66.806  1.00  0.00     0.016 C  
HETATM    7  N   UNL     1     -11.589  11.518  69.896  1.00  0.00    -0.312 N  
HETATM    8  C   UNL     1     -11.567  13.870  69.387  1.00  0.00    -0.297 C  
HETATM    9  OXT UNL     1     -11.253  14.878  68.776  1.00  0.00    -0.250 OA 
HETATM   10  O   UNL     1     -11.926  13.927  70.700  1.00  0.00    -0.323 OA 
HETATM   11  C   UNL     1     -12.160  10.274  69.836  1.00  0.00    -0.108 C  
HETATM   12  CA  UNL     1     -10.810   9.566  70.160  1.00  0.00    -0.258 C  
HETATM   13  O   UNL     1     -13.274   9.984  69.471  1.00  0.00     0.648 OA 
ENDROOT
BRANCH  12  14
HETATM   14  N   UNL     1     -10.251   8.643  69.142  1.00  0.00    -0.204 N  
HETATM   15  C   UNL     1     -10.120   7.295  69.357  1.00  0.00    -0.183 C  
HETATM   16  H   UNL     1      -9.952   9.027  68.245  1.00  0.00     0.000 HD 
HETATM   17  O   UNL     1     -10.544   6.736  70.361  1.00  0.00    -0.214 OA 
BRANCH  15  18
HETATM   18  C   UNL     1      -9.435   6.578  68.289  1.00  0.00    -0.118 A  
HETATM   19  C   UNL     1      -9.369   7.008  66.978  1.00  0.00    -0.146 A  
HETATM   20  C   UNL     1      -9.863   8.186  66.236  1.00  0.00    -0.193 C  
HETATM   21  O   UNL     1      -8.644   6.122  66.254  1.00  0.00    -0.125 OA 
HETATM   22  N   UNL     1      -8.247   5.077  67.053  1.00  0.00    -0.107 NA 
HETATM   23  C   UNL     1      -8.722   5.326  68.285  1.00  0.00    -0.101 A  
BRANCH  23  24
HETATM   24  C   UNL     1      -8.427   4.405  69.393  1.00  0.00    -0.091 A  
HETATM   25  C   UNL     1      -7.683   4.862  70.495  1.00  0.00    -0.063 A  
HETATM   26  C   UNL     1      -7.552   4.106  71.662  1.00  0.00    -0.065 A  
HETATM   27  F   UNL     1      -7.092   6.066  70.481  1.00  0.00    -0.061 F  
HETATM   28  C   UNL     1      -8.198   2.882  71.771  1.00  0.00    -0.062 A  
HETATM   29  C   UNL     1      -8.871   2.368  70.666  1.00  0.00    -0.130 A  
HETATM   30  C   UNL     1      -8.925   3.092  69.465  1.00  0.00    -0.111 A  
HETATM   31 CL   UNL     1      -9.568   2.243  68.099  1.00  0.00    -0.213 Cl 
ENDBRANCH  23  24
ENDBRANCH  15  18
ENDBRANCH  12  14
TORSDOF 3
ENDMDL
MODEL      213
REMARK 921   NORMALIZED FREE ENERGY PREDICTED BY IDOCK:   -1.71 KCAL/MOL
REMARK 922        TOTAL FREE ENERGY PREDICTED BY IDOCK:   -3.38 KCAL/MOL
REMARK 923 INTER-LIGAND FREE ENERGY PREDICTED BY IDOCK:   -2.21 KCAL/MOL
REMARK 924 INTRA-LIGAND FREE ENERGY PREDICTED BY IDOCK:   -1.16 KCAL/MOL
REMARK 927      BINDING AFFINITY PREDICTED BY RF-SCORE:    0.00 PKD
ROOT
HETATM    1  C   UNL     1     -10.071  11.745  69.074  1.00  0.00     0.018 C  
HETATM    2  S   UNL     1      -8.479  11.380  69.943  1.00  0.00     1.967 SA 
HETATM    3  C   UNL     1      -7.452  11.557  68.411  1.00  0.00    -0.109 C  
HETATM    4  C   UNL     1      -6.061  12.084  68.776  1.00  0.00    -0.059 C  
HETATM    5  CA  UNL     1      -8.292  12.460  67.474  1.00  0.00    -0.173 C  
HETATM    6  C   UNL     1      -7.240  10.152  67.804  1.00  0.00    -0.087 C  
HETATM    7  N   UNL     1      -9.708  12.124  67.695  1.00  0.00    -0.185 N  
HETATM    8  C   UNL     1      -8.179  13.983  67.680  1.00  0.00    -0.180 C  
HETATM    9  OXT UNL     1      -7.163  14.596  67.964  1.00  0.00    -0.112 OA 
HETATM   10  O   UNL     1      -9.332  14.637  67.371  1.00  0.00    -0.188 OA 
HETATM   11  C   UNL     1     -10.244  10.997  67.132  1.00  0.00    -0.206 C  
HETATM   12  CA  UNL     1     -10.806  10.501  68.498  1.00  0.00    -0.234 C  
HETATM   13  O   UNL     1     -10.094  10.583  66.007  1.00  0.00    -0.238 OA 
ENDROOT
BRANCH  12  14
HETATM   14  N   UNL     1     -10.303   9.209  69.025  1.00  0.00    -0.211 N  
HETATM   15  C   UNL     1     -10.414   8.032  68.329  1.00  0.00    -0.161 C  
HETATM   16  H   UNL     1      -9.857   9.195  69.942  1.00  0.00     0.000 HD 
HETATM   17  O   UNL     1     -10.842   7.972  67.183  1.00  0.00    -0.278 OA 
BRANCH  15  18
HETATM   18  C   UNL     1      -9.974   6.853  69.065  1.00  0.00    -0.160 A  
HETATM   19  C   UNL     1     -10.563   6.394  70.226  1.00  0.00    -0.237 A  
HETATM   20  C   UNL     1     -11.705   6.820  71.061  1.00  0.00    -0.406 C  
HETATM   21  O   UNL     1      -9.926   5.270  70.637  1.00  0.00    -0.189 OA 
HETATM   22  N   UNL     1      -8.888   4.983  69.783  1.00  0.00    -0.097 NA 
HETATM   23  C   UNL     1      -8.892   5.931  68.831  1.00  0.00    -0.115 A  
BRANCH  23  24
HETATM   24  C   UNL     1      -7.918   5.879  67.730  1.00  0.00    -0.098 A  
HETATM   25  C   UNL     1      -6.600   6.317  67.950  1.00  0.00    -0.062 A  
HETATM   26  C   UNL     1      -5.584   6.099  67.017  1.00  0.00    -0.009 A  
HETATM   27  F   UNL     1      -6.257   6.938  69.089  1.00  0.00    -0.023 F  
HETATM   28  C   UNL     1      -5.855   5.399  65.849  1.00  0.00    -0.018 A  
HETATM   29  C   UNL     1      -7.166   5.027  65.568  1.00  0.00    -0.068 A  
HETATM   30  C   UNL     1      -8.200   5.328  66.467  1.00  0.00    -0.108 A  
HETATM   31 CL   UNL     1      -9.808   5.043  65.894  1.00  0.00    -0.189 Cl 
ENDBRANCH  23  24
ENDBRANCH  15  18
ENDBRANCH  12  14
TORSDOF 3
ENDMDL
MODEL      214
REMARK 921   NORMALIZED FREE ENERGY PREDICTED BY IDOCK:   -1.70 KCAL/MOL
REMARK 922        TOTAL FREE ENERGY PREDICTED BY IDOCK:   -3.36 KCAL/MOL
REMARK 923 INTER-LIGAND FREE ENERGY PREDICTED BY IDOCK:   -5.38 KCAL/MOL
REMARK 924 INTRA-LIGAND FREE ENERGY PREDICTED BY IDOCK:    2.03 KCAL/MOL
REMARK 927      BINDING AFFINITY PREDICTED BY RF-SCORE:    0.00 PKD
ROOT
HETATM    1  C   UNL     1      -9.454   9.819  65.868  1.00  0.00    -0.226 C  
HETATM    2  S   UNL     1      -8.376  11.246  66.339  1.00  0.00    -0.133 SA 
HETATM    3  C   UNL     1      -7.550  10.333  67.724  1.00  0.00    -0.089 C  
HETATM    4  C   UNL     1      -6.111  10.831  67.888  1.00  0.00    -0.046 C  
HETATM    5  CA  UNL     1      -7.711   8.836  67.362  1.00  0.00    -0.097 C  
HETATM    6  C   UNL     1      -8.284  10.681  69.039  1.00  0.00    -0.151 C  
HETATM    7  N   UNL     1      -9.017   8.682  66.702  1.00  0.00    -0.138 N  
HETATM    8  C   UNL     1      -6.673   8.233  66.396  1.00  0.00    -0.062 C  
HETATM    9  OXT UNL     1      -5.480   8.489  66.372  1.00  0.00    -0.031 OA 
HETATM   10  O   UNL     1      -7.195   7.240  65.624  1.00  0.00    -0.066 OA 
HETATM   11  C   UNL     1     -10.166   8.651  67.447  1.00  0.00    -0.262 C  
HETATM   12  CA  UNL     1     -10.832   9.769  66.590  1.00  0.00     0.059 C  
HETATM   13  O   UNL     1     -10.369   8.054  68.477  1.00  0.00    -0.204 OA 
ENDROOT
BRANCH  12  14
HETATM   14  N   UNL     1     -11.200  11.035  67.268  1.00  0.00    -0.300 N  
HETATM   15  C   UNL     1     -11.187  11.175  68.632  1.00  0.00    -0.255 C  
HETATM   16  H   UNL     1     -11.475  11.834  66.697  1.00  0.00     0.000 HD 
HETATM   17  O   UNL     1     -10.775  10.304  69.388  1.00  0.00    -0.209 OA 
BRANCH  15  18
HETATM   18  C   UNL     1     -11.699  12.452  69.112  1.00  0.00    -0.376 A  
HETATM   19  C   UNL     1     -12.394  12.620  70.293  1.00  0.00    -0.195 A  
HETATM   20  C   UNL     1     -12.821  11.730  71.393  1.00  0.00    -0.440 C  
HETATM   21  O   UNL     1     -12.705  13.929  70.448  1.00  0.00    -0.305 OA 
HETATM   22  N   UNL     1     -12.258  14.647  69.364  1.00  0.00    -0.274 NA 
HETATM   23  C   UNL     1     -11.656  13.774  68.540  1.00  0.00    -0.338 A  
BRANCH  23  24
HETATM   24  C   UNL     1     -11.027  14.243  67.295  1.00  0.00    -0.302 A  
HETATM   25  C   UNL     1      -9.822  14.964  67.358  1.00  0.00    -0.221 A  
HETATM   26  C   UNL     1      -9.073  15.251  66.214  1.00  0.00    -0.337 A  
HETATM   27  F   UNL     1      -9.323  15.381  68.531  1.00  0.00    -0.179 F  
HETATM   28  C   UNL     1      -9.495  14.787  64.976  1.00  0.00     0.650 A  
HETATM   29  C   UNL     1     -10.725  14.144  64.873  1.00  0.00    -0.444 A  
HETATM   30  C   UNL     1     -11.516  13.936  66.013  1.00  0.00    -0.340 A  
HETATM   31 CL   UNL     1     -13.122  13.358  65.723  1.00  0.00    -0.073 Cl 
ENDBRANCH  23  24
ENDBRANCH  15  18
ENDBRANCH  12  14
TORSDOF 3
ENDMDL
MODEL      215
REMARK 921   NORMALIZED FREE ENERGY PREDICTED BY IDOCK:   -1.57 KCAL/MOL
REMARK 922        TOTAL FREE ENERGY PREDICTED BY IDOCK:   -3.21 KCAL/MOL
REMARK 923 INTER-LIGAND FREE ENERGY PREDICTED BY IDOCK:   -3.34 KCAL/MOL
REMARK 924 INTRA-LIGAND FREE ENERGY PREDICTED BY IDOCK:    0.13 KCAL/MOL
REMARK 927      BINDING AFFINITY PREDICTED BY RF-SCORE:    0.00 PKD
ROOT
HETATM    1  C   UNL     1     -10.636  10.332  67.091  1.00  0.00    -0.260 C  
HETATM    2  S   UNL     1     -10.282  10.962  68.794  1.00  0.00    -0.202 SA 
HETATM    3  C   UNL     1      -8.718  11.820  68.292  1.00  0.00    -0.167 C  
HETATM    4  C   UNL     1      -8.505  13.062  69.161  1.00  0.00     0.626 C  
HETATM    5  CA  UNL     1      -8.878  12.077  66.773  1.00  0.00    -0.198 C  
HETATM    6  C   UNL     1      -7.531  10.873  68.585  1.00  0.00    -0.105 C  
HETATM    7  N   UNL     1      -9.617  10.935  66.210  1.00  0.00    -0.193 N  
HETATM    8  C   UNL     1      -9.658  13.337  66.354  1.00  0.00    -0.254 C  
HETATM    9  OXT UNL     1      -9.618  14.424  66.906  1.00  0.00    -0.237 OA 
HETATM   10  O   UNL     1     -10.324  13.170  65.177  1.00  0.00    -0.300 OA 
HETATM   11  C   UNL     1      -8.974   9.750  65.968  1.00  0.00    -0.155 C  
HETATM   12  CA  UNL     1     -10.033   8.935  66.768  1.00  0.00    -0.267 C  
HETATM   13  O   UNL     1      -7.891   9.582  65.460  1.00  0.00    -0.104 OA 
ENDROOT
BRANCH  12  14
HETATM   14  N   UNL     1      -9.573   8.189  67.964  1.00  0.00    -0.153 N  
HETATM   15  C   UNL     1      -8.948   6.971  67.882  1.00  0.00    -0.122 C  
HETATM   16  H   UNL     1      -9.728   8.598  68.885  1.00  0.00     0.000 HD 
HETATM   17  O   UNL     1      -8.631   6.454  66.817  1.00  0.00    -0.110 OA 
BRANCH  15  18
HETATM   18  C   UNL     1      -8.685   6.340  69.169  1.00  0.00    -0.123 A  
HETATM   19  C   UNL     1      -8.966   6.915  70.392  1.00  0.00    -0.152 A  
HETATM   20  C   UNL     1      -9.569   8.189  70.837  1.00  0.00    -0.187 C  
HETATM   21  O   UNL     1      -8.619   6.057  71.381  1.00  0.00    -0.127 OA 
HETATM   22  N   UNL     1      -8.071   4.918  70.840  1.00  0.00    -0.093 NA 
HETATM   23  C   UNL     1      -8.092   5.071  69.506  1.00  0.00    -0.078 A  
BRANCH  23  24
HETATM   24  C   UNL     1      -7.608   3.993  68.629  1.00  0.00    -0.058 A  
HETATM   25  C   UNL     1      -6.273   3.564  68.731  1.00  0.00    -0.029 A  
HETATM   26  C   UNL     1      -5.816   2.415  68.083  1.00  0.00    -0.023 A  
HETATM   27  F   UNL     1      -5.387   4.229  69.487  1.00  0.00    -0.006 F  
HETATM   28  C   UNL     1      -6.698   1.639  67.342  1.00  0.00    -0.031 A  
HETATM   29  C   UNL     1      -8.003   2.085  67.156  1.00  0.00    -0.066 A  
HETATM   30  C   UNL     1      -8.434   3.287  67.736  1.00  0.00    -0.088 A  
HETATM   31 CL   UNL     1      -9.988   3.858  67.228  1.00  0.00    -0.080 Cl 
ENDBRANCH  23  24
ENDBRANCH  15  18
ENDBRANCH  12  14
TORSDOF 3
ENDMDL
MODEL      216
REMARK 921   NORMALIZED FREE ENERGY PREDICTED BY IDOCK:   -1.44 KCAL/MOL
REMARK 922        TOTAL FREE ENERGY PREDICTED BY IDOCK:   -3.05 KCAL/MOL
REMARK 923 INTER-LIGAND FREE ENERGY PREDICTED BY IDOCK:   -2.86 KCAL/MOL
REMARK 924 INTRA-LIGAND FREE ENERGY PREDICTED BY IDOCK:   -0.20 KCAL/MOL
REMARK 927      BINDING AFFINITY PREDICTED BY RF-SCORE:    0.00 PKD
ROOT
HETATM    1  C   UNL     1     -11.254  13.356  70.302  1.00  0.00     0.436 C  
HETATM    2  S   UNL     1     -10.313  14.724  71.118  1.00  0.00     1.641 SA 
HETATM    3  C   UNL     1     -11.592  16.008  70.733  1.00  0.00    -0.400 C  
HETATM    4  C   UNL     1     -11.607  17.072  71.835  1.00  0.00     0.704 C  
HETATM    5  CA  UNL     1     -12.907  15.213  70.543  1.00  0.00    -0.348 C  
HETATM    6  C   UNL     1     -11.175  16.733  69.433  1.00  0.00     0.034 C  
HETATM    7  N   UNL     1     -12.556  13.931  69.911  1.00  0.00    -0.217 N  
HETATM    8  C   UNL     1     -13.701  14.857  71.815  1.00  0.00    -0.437 C  
HETATM    9  OXT UNL     1     -13.843  15.568  72.796  1.00  0.00    -0.529 OA 
HETATM   10  O   UNL     1     -14.380  13.682  71.694  1.00  0.00    -0.101 OA 
HETATM   11  C   UNL     1     -12.297  13.872  68.568  1.00  0.00     0.017 C  
HETATM   12  CA  UNL     1     -10.936  13.148  68.793  1.00  0.00    -0.262 C  
HETATM   13  O   UNL     1     -12.908  14.400  67.669  1.00  0.00     0.551 OA 
ENDROOT
BRANCH  12  14
HETATM   14  N   UNL     1      -9.703  13.835  68.339  1.00  0.00    -0.223 N  
HETATM   15  C   UNL     1      -8.561  13.157  67.997  1.00  0.00    -0.182 C  
HETATM   16  H   UNL     1      -9.705  14.853  68.279  1.00  0.00     0.000 HD 
HETATM   17  O   UNL     1      -8.502  11.935  67.943  1.00  0.00    -0.138 OA 
BRANCH  15  18
HETATM   18  C   UNL     1      -7.420  14.012  67.698  1.00  0.00    -0.186 A  
HETATM   19  C   UNL     1      -6.103  13.597  67.731  1.00  0.00    -0.136 A  
HETATM   20  C   UNL     1      -5.415  12.321  68.018  1.00  0.00    -0.068 C  
HETATM   21  O   UNL     1      -5.299  14.629  67.381  1.00  0.00    -0.334 OA 
HETATM   22  N   UNL     1      -6.056  15.751  67.144  1.00  0.00    -0.320 NA 
HETATM   23  C   UNL     1      -7.339  15.405  67.339  1.00  0.00    -0.213 A  
BRANCH  23  24
HETATM   24  C   UNL     1      -8.413  16.386  67.118  1.00  0.00    -0.208 A  
HETATM   25  C   UNL     1      -8.468  17.543  67.916  1.00  0.00    -0.230 A  
HETATM   26  C   UNL     1      -9.328  18.603  67.621  1.00  0.00    -0.309 A  
HETATM   27  F   UNL     1      -7.668  17.688  68.983  1.00  0.00    -0.263 F  
HETATM   28  C   UNL     1     -10.132  18.549  66.490  1.00  0.00    -0.425 A  
HETATM   29  C   UNL     1     -10.158  17.383  65.730  1.00  0.00    -0.140 A  
HETATM   30  C   UNL     1      -9.358  16.285  66.082  1.00  0.00    -0.339 A  
HETATM   31 CL   UNL     1      -9.664  14.817  65.216  1.00  0.00    -0.231 Cl 
ENDBRANCH  23  24
ENDBRANCH  15  18
ENDBRANCH  12  14
TORSDOF 3
ENDMDL
MODEL      217
REMARK 921   NORMALIZED FREE ENERGY PREDICTED BY IDOCK:   -1.33 KCAL/MOL
REMARK 922        TOTAL FREE ENERGY PREDICTED BY IDOCK:   -2.93 KCAL/MOL
REMARK 923 INTER-LIGAND FREE ENERGY PREDICTED BY IDOCK:   -3.33 KCAL/MOL
REMARK 924 INTRA-LIGAND FREE ENERGY PREDICTED BY IDOCK:    0.40 KCAL/MOL
REMARK 927      BINDING AFFINITY PREDICTED BY RF-SCORE:    0.00 PKD
ROOT
HETATM    1  C   UNL     1      -8.080  11.499  67.339  1.00  0.00    -0.146 C  
HETATM    2  S   UNL     1      -8.249  10.193  68.638  1.00  0.00    -0.118 SA 
HETATM    3  C   UNL     1      -6.440  10.175  69.041  1.00  0.00    -0.044 C  
HETATM    4  C   UNL     1      -6.240   9.829  70.519  1.00  0.00    -0.085 C  
HETATM    5  CA  UNL     1      -5.922  11.566  68.596  1.00  0.00    -0.046 C  
HETATM    6  C   UNL     1      -5.775   9.038  68.233  1.00  0.00    -0.038 C  
HETATM    7  N   UNL     1      -6.675  11.948  67.391  1.00  0.00    -0.112 N  
HETATM    8  C   UNL     1      -6.094  12.729  69.592  1.00  0.00    -0.126 C  
HETATM    9  OXT UNL     1      -5.968  12.662  70.803  1.00  0.00    -0.250 OA 
HETATM   10  O   UNL     1      -6.272  13.927  68.968  1.00  0.00    -0.084 OA 
HETATM   11  C   UNL     1      -6.348  11.410  66.175  1.00  0.00     0.090 C  
HETATM   12  CA  UNL     1      -7.816  10.966  65.901  1.00  0.00    -0.090 C  
HETATM   13  O   UNL     1      -5.247  11.249  65.704  1.00  0.00    -0.257 OA 
ENDROOT
BRANCH  12  14
HETATM   14  N   UNL     1      -8.082   9.516  65.740  1.00  0.00    -0.110 N  
HETATM   15  C   UNL     1      -7.194   8.663  65.135  1.00  0.00    -0.087 C  
HETATM   16  H   UNL     1      -8.961   9.138  66.093  1.00  0.00     0.000 HD 
HETATM   17  O   UNL     1      -6.076   9.010  64.774  1.00  0.00    -0.064 OA 
BRANCH  15  18
HETATM   18  C   UNL     1      -7.688   7.303  64.961  1.00  0.00    -0.115 A  
HETATM   19  C   UNL     1      -7.812   6.668  63.741  1.00  0.00    -0.107 A  
HETATM   20  C   UNL     1      -7.525   7.031  62.338  1.00  0.00    -0.086 C  
HETATM   21  O   UNL     1      -8.278   5.412  63.936  1.00  0.00    -0.124 OA 
HETATM   22  N   UNL     1      -8.506   5.200  65.275  1.00  0.00    -0.138 NA 
HETATM   23  C   UNL     1      -8.165   6.332  65.912  1.00  0.00    -0.129 A  
BRANCH  23  24
HETATM   24  C   UNL     1      -8.254   6.412  67.379  1.00  0.00    -0.116 A  
HETATM   25  C   UNL     1      -7.256   5.812  68.166  1.00  0.00    -0.076 A  
HETATM   26  C   UNL     1      -7.171   6.031  69.543  1.00  0.00    -0.070 A  
HETATM   27  F   UNL     1      -6.320   5.024  67.617  1.00  0.00    -0.034 F  
HETATM   28  C   UNL     1      -8.065   6.893  70.164  1.00  0.00    -0.127 A  
HETATM   29  C   UNL     1      -9.112   7.434  69.424  1.00  0.00    -0.139 A  
HETATM   30  C   UNL     1      -9.246   7.140  68.059  1.00  0.00    -0.130 A  
HETATM   31 CL   UNL     1     -10.719   7.664  67.313  1.00  0.00    -0.375 Cl 
ENDBRANCH  23  24
ENDBRANCH  15  18
ENDBRANCH  12  14
TORSDOF 3
ENDMDL
MODEL      218
REMARK 921   NORMALIZED FREE ENERGY PREDICTED BY IDOCK:   -1.30 KCAL/MOL
REMARK 922        TOTAL FREE ENERGY PREDICTED BY IDOCK:   -2.89 KCAL/MOL
REMARK 923 INTER-LIGAND FREE ENERGY PREDICTED BY IDOCK:   -2.64 KCAL/MOL
REMARK 924 INTRA-LIGAND FREE ENERGY PREDICTED BY IDOCK:   -0.25 KCAL/MOL
REMARK 927      BINDING AFFINITY PREDICTED BY RF-SCORE:    0.00 PKD
ROOT
HETATM    1  C   UNL     1     -10.385  13.452  69.078  1.00  0.00     0.018 C  
HETATM    2  S   UNL     1      -8.701  12.725  69.320  1.00  0.00     1.216 SA 
HETATM    3  C   UNL     1      -8.533  12.197  67.552  1.00  0.00    -0.169 C  
HETATM    4  C   UNL     1      -7.061  12.249  67.133  1.00  0.00    -0.102 C  
HETATM    5  CA  UNL     1      -9.492  13.127  66.769  1.00  0.00    -0.252 C  
HETATM    6  C   UNL     1      -8.965  10.717  67.445  1.00  0.00    -0.141 C  
HETATM    7  N   UNL     1     -10.658  13.380  67.630  1.00  0.00    -0.241 N  
HETATM    8  C   UNL     1      -8.952  14.514  66.367  1.00  0.00    -0.118 C  
HETATM    9  OXT UNL     1      -7.817  14.763  65.995  1.00  0.00     1.211 OA 
HETATM   10  O   UNL     1      -9.929  15.462  66.327  1.00  0.00    -0.255 OA 
HETATM   11  C   UNL     1     -11.639  12.432  67.756  1.00  0.00    -0.352 C  
HETATM   12  CA  UNL     1     -11.567  12.468  69.312  1.00  0.00    -0.319 C  
HETATM   13  O   UNL     1     -12.149  11.769  66.885  1.00  0.00    -0.566 OA 
ENDROOT
BRANCH  12  14
HETATM   14  N   UNL     1     -11.179  11.221  70.015  1.00  0.00    -0.470 N  
HETATM   15  C   UNL     1     -11.539   9.976  69.567  1.00  0.00    -0.059 C  
HETATM   16  H   UNL     1     -10.622  11.293  70.866  1.00  0.00     0.000 HD 
HETATM   17  O   UNL     1     -12.118   9.791  68.504  1.00  0.00     0.624 OA 
BRANCH  15  18
HETATM   18  C   UNL     1     -11.171   8.884  70.460  1.00  0.00    -0.287 A  
HETATM   19  C   UNL     1     -11.811   8.599  71.649  1.00  0.00    -0.323 A  
HETATM   20  C   UNL     1     -12.957   9.171  72.385  1.00  0.00    -0.468 C  
HETATM   21  O   UNL     1     -11.234   7.513  72.219  1.00  0.00    -0.252 OA 
HETATM   22  N   UNL     1     -10.185   7.081  71.443  1.00  0.00    -0.197 NA 
HETATM   23  C   UNL     1     -10.122   7.899  70.380  1.00  0.00    -0.194 A  
BRANCH  23  24
HETATM   24  C   UNL     1      -9.120   7.671  69.328  1.00  0.00    -0.145 A  
HETATM   25  C   UNL     1      -9.534   7.218  68.063  1.00  0.00    -0.136 A  
HETATM   26  C   UNL     1      -8.666   7.185  66.969  1.00  0.00    -0.123 A  
HETATM   27  F   UNL     1     -10.799   6.827  67.847  1.00  0.00    -0.233 F  
HETATM   28  C   UNL     1      -7.363   7.643  67.106  1.00  0.00    -0.091 A  
HETATM   29  C   UNL     1      -6.902   8.018  68.365  1.00  0.00    -0.068 A  
HETATM   30  C   UNL     1      -7.753   7.965  69.479  1.00  0.00    -0.104 A  
HETATM   31 CL   UNL     1      -7.000   8.211  71.018  1.00  0.00    -0.045 Cl 
ENDBRANCH  23  24
ENDBRANCH  15  18
ENDBRANCH  12  14
TORSDOF 3
ENDMDL
MODEL      219
REMARK 921   NORMALIZED FREE ENERGY PREDICTED BY IDOCK:   -0.35 KCAL/MOL
REMARK 922        TOTAL FREE ENERGY PREDICTED BY IDOCK:   -1.78 KCAL/MOL
REMARK 923 INTER-LIGAND FREE ENERGY PREDICTED BY IDOCK:   -2.79 KCAL/MOL
REMARK 924 INTRA-LIGAND FREE ENERGY PREDICTED BY IDOCK:    1.01 KCAL/MOL
REMARK 927      BINDING AFFINITY PREDICTED BY RF-SCORE:    0.00 PKD
ROOT
HETATM    1  C   UNL     1      -9.830   8.637  67.345  1.00  0.00    -0.192 C  
HETATM    2  S   UNL     1      -9.831   9.397  69.032  1.00  0.00    -0.175 SA 
HETATM    3  C   UNL     1      -8.360  10.471  68.692  1.00  0.00    -0.132 C  
HETATM    4  C   UNL     1      -8.471  11.772  69.493  1.00  0.00     1.022 C  
HETATM    5  CA  UNL     1      -8.332  10.627  67.151  1.00  0.00    -0.125 C  
HETATM    6  C   UNL     1      -7.099   9.745  69.211  1.00  0.00    -0.066 C  
HETATM    7  N   UNL     1      -8.796   9.355  66.574  1.00  0.00    -0.133 N  
HETATM    8  C   UNL     1      -9.227  11.723  66.541  1.00  0.00    -0.201 C  
HETATM    9  OXT UNL     1      -9.436  12.827  67.015  1.00  0.00    -0.218 OA 
HETATM   10  O   UNL     1      -9.679  11.395  65.298  1.00  0.00    -0.228 OA 
HETATM   11  C   UNL     1      -7.950   8.280  66.506  1.00  0.00    -0.100 C  
HETATM   12  CA  UNL     1      -8.978   7.342  67.207  1.00  0.00    -0.124 C  
HETATM   13  O   UNL     1      -6.792   8.266  66.166  1.00  0.00    -0.057 OA 
ENDROOT
BRANCH  12  14
HETATM   14  N   UNL     1      -8.590   6.738  68.505  1.00  0.00    -0.125 N  
HETATM   15  C   UNL     1      -7.338   6.231  68.741  1.00  0.00    -0.086 C  
HETATM   16  H   UNL     1      -9.283   6.698  69.253  1.00  0.00     0.000 HD 
HETATM   17  O   UNL     1      -6.417   6.328  67.938  1.00  0.00    -0.047 OA 
BRANCH  15  18
HETATM   18  C   UNL     1      -7.188   5.569  70.030  1.00  0.00    -0.068 A  
HETATM   19  C   UNL     1      -6.249   4.595  70.303  1.00  0.00    -0.022 A  
HETATM   20  C   UNL     1      -5.169   3.938  69.538  1.00  0.00    -0.008 C  
HETATM   21  O   UNL     1      -6.368   4.208  71.596  1.00  0.00    -0.017 OA 
HETATM   22  N   UNL     1      -7.403   4.887  72.193  1.00  0.00    -0.080 NA 
HETATM   23  C   UNL     1      -7.920   5.707  71.264  1.00  0.00    -0.112 A  
BRANCH  23  24
HETATM   24  C   UNL     1      -9.028   6.611  71.608  1.00  0.00    -0.141 A  
HETATM   25  C   UNL     1      -8.793   7.702  72.463  1.00  0.00    -0.137 A  
HETATM   26  C   UNL     1      -9.742   8.707  72.657  1.00  0.00    -0.199 A  
HETATM   27  F   UNL     1      -7.624   7.838  73.108  1.00  0.00    -0.101 F  
HETATM   28  C   UNL     1     -10.946   8.666  71.966  1.00  0.00    -0.432 A  
HETATM   29  C   UNL     1     -11.239   7.556  71.178  1.00  0.00    -0.277 A  
HETATM   30  C   UNL     1     -10.317   6.506  71.056  1.00  0.00    -0.206 A  
HETATM   31 CL   UNL     1     -10.895   5.081  70.260  1.00  0.00     0.000 Cl 
ENDBRANCH  23  24
ENDBRANCH  15  18
ENDBRANCH  12  14
TORSDOF 3
ENDMDL
MODEL      220
REMARK 921   NORMALIZED FREE ENERGY PREDICTED BY IDOCK:   -0.15 KCAL/MOL
REMARK 922        TOTAL FREE ENERGY PREDICTED BY IDOCK:   -1.55 KCAL/MOL
REMARK 923 INTER-LIGAND FREE ENERGY PREDICTED BY IDOCK:   -2.46 KCAL/MOL
REMARK 924 INTRA-LIGAND FREE ENERGY PREDICTED BY IDOCK:    0.91 KCAL/MOL
REMARK 927      BINDING AFFINITY PREDICTED BY RF-SCORE:    0.00 PKD
ROOT
HETATM    1  C   UNL     1      -9.178  13.726  66.316  1.00  0.00    -0.071 C  
HETATM    2  S   UNL     1     -10.680  12.731  66.735  1.00  0.00    -0.264 SA 
HETATM    3  C   UNL     1     -10.756  13.342  68.483  1.00  0.00    -0.262 C  
HETATM    4  C   UNL     1     -12.212  13.388  68.955  1.00  0.00    -0.164 C  
HETATM    5  CA  UNL     1     -10.009  14.698  68.461  1.00  0.00    -0.235 C  
HETATM    6  C   UNL     1     -10.038  12.314  69.387  1.00  0.00     0.601 C  
HETATM    7  N   UNL     1      -8.908  14.577  67.491  1.00  0.00    -0.178 N  
HETATM    8  C   UNL     1     -10.818  15.937  68.033  1.00  0.00    -0.317 C  
HETATM    9  OXT UNL     1     -11.983  16.167  68.313  1.00  0.00    -0.107 OA 
HETATM   10  O   UNL     1     -10.051  16.868  67.401  1.00  0.00    -0.264 OA 
HETATM   11  C   UNL     1      -7.757  13.919  67.834  1.00  0.00    -0.160 C  
HETATM   12  CA  UNL     1      -7.821  13.008  66.572  1.00  0.00     0.765 C  
HETATM   13  O   UNL     1      -7.133  14.001  68.865  1.00  0.00    -0.104 OA 
ENDROOT
BRANCH  12  14
HETATM   14  N   UNL     1      -7.946  11.545  66.780  1.00  0.00    -0.165 N  
HETATM   15  C   UNL     1      -7.201  10.863  67.708  1.00  0.00    -0.091 C  
HETATM   16  H   UNL     1      -8.613  11.025  66.210  1.00  0.00     0.000 HD 
HETATM   17  O   UNL     1      -6.453  11.420  68.502  1.00  0.00    -0.053 OA 
BRANCH  15  18
HETATM   18  C   UNL     1      -7.376   9.417  67.676  1.00  0.00    -0.084 A  
HETATM   19  C   UNL     1      -7.568   8.629  68.793  1.00  0.00    -0.096 A  
HETATM   20  C   UNL     1      -7.679   8.880  70.245  1.00  0.00    -0.090 C  
HETATM   21  O   UNL     1      -7.716   7.338  68.411  1.00  0.00    -0.115 OA 
HETATM   22  N   UNL     1      -7.589   7.238  67.046  1.00  0.00    -0.104 NA 
HETATM   23  C   UNL     1      -7.374   8.480  66.581  1.00  0.00    -0.081 A  
BRANCH  23  24
HETATM   24  C   UNL     1      -7.239   8.717  65.136  1.00  0.00    -0.087 A  
HETATM   25  C   UNL     1      -8.018   7.970  64.235  1.00  0.00    -0.137 A  
HETATM   26  C   UNL     1      -8.091   8.291  62.878  1.00  0.00    -0.158 A  
HETATM   27  F   UNL     1      -8.754   6.929  64.654  1.00  0.00     0.000 F  
HETATM   28  C   UNL     1      -7.410   9.399  62.392  1.00  0.00    -0.105 A  
HETATM   29  C   UNL     1      -6.566  10.107  63.243  1.00  0.00    -0.134 A  
HETATM   30  C   UNL     1      -6.428   9.726  64.586  1.00  0.00    -0.111 A  
HETATM   31 CL   UNL     1      -5.169  10.519  65.471  1.00  0.00    -0.088 Cl 
ENDBRANCH  23  24
ENDBRANCH  15  18
ENDBRANCH  12  14
TORSDOF 3
ENDMDL
MODEL      221
REMARK 921   NORMALIZED FREE ENERGY PREDICTED BY IDOCK:    0.04 KCAL/MOL
REMARK 922        TOTAL FREE ENERGY PREDICTED BY IDOCK:   -1.32 KCAL/MOL
REMARK 923 INTER-LIGAND FREE ENERGY PREDICTED BY IDOCK:   -0.62 KCAL/MOL
REMARK 924 INTRA-LIGAND FREE ENERGY PREDICTED BY IDOCK:   -0.69 KCAL/MOL
REMARK 927      BINDING AFFINITY PREDICTED BY RF-SCORE:    0.00 PKD
ROOT
HETATM    1  C   UNL     1     -12.603  11.907  68.785  1.00  0.00     0.942 C  
HETATM    2  S   UNL     1     -11.108  10.996  68.186  1.00  0.00    -0.295 SA 
HETATM    3  C   UNL     1     -10.611  10.434  69.880  1.00  0.00    -0.251 C  
HETATM    4  C   UNL     1      -9.909   9.075  69.790  1.00  0.00    -0.188 C  
HETATM    5  CA  UNL     1     -11.920  10.465  70.707  1.00  0.00    -0.363 C  
HETATM    6  C   UNL     1      -9.566  11.429  70.433  1.00  0.00     3.127 C  
HETATM    7  N   UNL     1     -12.715  11.606  70.226  1.00  0.00    -0.045 N  
HETATM    8  C   UNL     1     -12.841   9.234  70.610  1.00  0.00     0.211 C  
HETATM    9  OXT UNL     1     -12.480   8.071  70.541  1.00  0.00     0.132 OA 
HETATM   10  O   UNL     1     -14.157   9.555  70.752  1.00  0.00     0.015 OA 
HETATM   11  C   UNL     1     -12.403  12.880  70.623  1.00  0.00    -0.302 C  
HETATM   12  CA  UNL     1     -12.360  13.399  69.155  1.00  0.00    -0.009 C  
HETATM   13  O   UNL     1     -12.117  13.264  71.732  1.00  0.00     0.226 OA 
ENDROOT
BRANCH  12  14
HETATM   14  N   UNL     1     -11.075  13.940  68.650  1.00  0.00    -0.254 N  
HETATM   15  C   UNL     1     -10.936  14.466  67.391  1.00  0.00    -0.299 C  
HETATM   16  H   UNL     1     -10.260  13.920  69.264  1.00  0.00     0.000 HD 
HETATM   17  O   UNL     1     -11.880  14.622  66.626  1.00  0.00    -0.375 OA 
BRANCH  15  18
HETATM   18  C   UNL     1      -9.570  14.830  67.037  1.00  0.00    -0.248 A  
HETATM   19  C   UNL     1      -8.545  13.925  66.848  1.00  0.00    -0.117 A  
HETATM   20  C   UNL     1      -8.424  12.454  66.898  1.00  0.00    -0.147 C  
HETATM   21  O   UNL     1      -7.416  14.593  66.509  1.00  0.00     0.493 OA 
HETATM   22  N   UNL     1      -7.657  15.946  66.500  1.00  0.00    -0.114 NA 
HETATM   23  C   UNL     1      -8.950  16.113  66.825  1.00  0.00    -0.241 A  
BRANCH  23  24
HETATM   24  C   UNL     1      -9.536  17.463  66.859  1.00  0.00    -0.275 A  
HETATM   25  C   UNL     1      -9.129  18.369  67.854  1.00  0.00    -0.283 A  
HETATM   26  C   UNL     1      -9.486  19.718  67.814  1.00  0.00    -0.456 A  
HETATM   27  F   UNL     1      -8.348  17.977  68.872  1.00  0.00    -0.288 F  
HETATM   28  C   UNL     1     -10.233  20.206  66.750  1.00  0.00    -0.562 A  
HETATM   29  C   UNL     1     -10.719  19.316  65.796  1.00  0.00    -0.417 A  
HETATM   30  C   UNL     1     -10.432  17.946  65.890  1.00  0.00    -0.253 A  
HETATM   31 CL   UNL     1     -11.295  16.916  64.797  1.00  0.00     0.013 Cl 
ENDBRANCH  23  24
ENDBRANCH  15  18
ENDBRANCH  12  14
TORSDOF 3
ENDMDL
MODEL      222
REMARK 921   NORMALIZED FREE ENERGY PREDICTED BY IDOCK:    0.07 KCAL/MOL
REMARK 922        TOTAL FREE ENERGY PREDICTED BY IDOCK:   -1.28 KCAL/MOL
REMARK 923 INTER-LIGAND FREE ENERGY PREDICTED BY IDOCK:   -3.33 KCAL/MOL
REMARK 924 INTRA-LIGAND FREE ENERGY PREDICTED BY IDOCK:    2.05 KCAL/MOL
REMARK 927      BINDING AFFINITY PREDICTED BY RF-SCORE:    0.00 PKD
ROOT
HETATM    1  C   UNL     1     -10.000  14.836  64.651  1.00  0.00     0.408 C  
HETATM    2  S   UNL     1      -9.785  14.279  66.402  1.00  0.00    -0.302 SA 
HETATM    3  C   UNL     1     -11.409  13.388  66.455  1.00  0.00    -0.320 C  
HETATM    4  C   UNL     1     -11.309  12.184  67.396  1.00  0.00    -0.393 C  
HETATM    5  CA  UNL     1     -11.731  13.065  64.975  1.00  0.00    -0.339 C  
HETATM    6  C   UNL     1     -12.462  14.337  67.071  1.00  0.00    -0.028 C  
HETATM    7  N   UNL     1     -11.232  14.186  64.163  1.00  0.00    -0.153 N  
HETATM    8  C   UNL     1     -11.095  11.793  64.381  1.00  0.00    -0.334 C  
HETATM    9  OXT UNL     1     -10.936  10.732  64.960  1.00  0.00    -0.087 OA 
HETATM   10  O   UNL     1     -10.839  11.913  63.048  1.00  0.00    -0.262 OA 
HETATM   11  C   UNL     1     -11.944  15.354  64.089  1.00  0.00    -0.097 C  
HETATM   12  CA  UNL     1     -10.704  16.213  64.480  1.00  0.00     0.219 C  
HETATM   13  O   UNL     1     -13.135  15.491  63.944  1.00  0.00    -0.312 OA 
ENDROOT
BRANCH  12  14
HETATM   14  N   UNL     1     -10.779  17.007  65.730  1.00  0.00    -0.228 N  
HETATM   15  C   UNL     1      -9.684  17.254  66.517  1.00  0.00    -0.288 C  
HETATM   16  H   UNL     1     -11.682  17.385  66.016  1.00  0.00     0.000 HD 
HETATM   17  O   UNL     1      -8.547  16.927  66.199  1.00  0.00    -0.381 OA 
BRANCH  15  18
HETATM   18  C   UNL     1      -9.981  17.945  67.765  1.00  0.00    -0.331 A  
HETATM   19  C   UNL     1     -10.033  19.318  67.904  1.00  0.00    -0.368 A  
HETATM   20  C   UNL     1      -9.858  20.470  66.996  1.00  0.00    -0.534 C  
HETATM   21  O   UNL     1     -10.355  19.626  69.183  1.00  0.00    -0.309 OA 
HETATM   22  N   UNL     1     -10.487  18.475  69.922  1.00  0.00     0.863 NA 
HETATM   23  C   UNL     1     -10.257  17.448  69.089  1.00  0.00    -0.273 A  
BRANCH  23  24
HETATM   24  C   UNL     1     -10.367  16.062  69.572  1.00  0.00    -0.278 A  
HETATM   25  C   UNL     1     -11.536  15.651  70.236  1.00  0.00    -0.349 A  
HETATM   26  C   UNL     1     -11.786  14.309  70.529  1.00  0.00    -0.309 A  
HETATM   27  F   UNL     1     -12.480  16.536  70.589  1.00  0.00     0.038 F  
HETATM   28  C   UNL     1     -10.883  13.333  70.128  1.00  0.00     0.909 A  
HETATM   29  C   UNL     1      -9.680  13.719  69.544  1.00  0.00     0.775 A  
HETATM   30  C   UNL     1      -9.394  15.076  69.333  1.00  0.00    -0.116 A  
HETATM   31 CL   UNL     1      -7.775  15.439  68.837  1.00  0.00    -0.150 Cl 
ENDBRANCH  23  24
ENDBRANCH  15  18
ENDBRANCH  12  14
TORSDOF 3
ENDMDL
MODEL      223
REMARK 921   NORMALIZED FREE ENERGY PREDICTED BY IDOCK:    0.38 KCAL/MOL
REMARK 922        TOTAL FREE ENERGY PREDICTED BY IDOCK:   -0.92 KCAL/MOL
REMARK 923 INTER-LIGAND FREE ENERGY PREDICTED BY IDOCK:   -1.69 KCAL/MOL
REMARK 924 INTRA-LIGAND FREE ENERGY PREDICTED BY IDOCK:    0.77 KCAL/MOL
REMARK 927      BINDING AFFINITY PREDICTED BY RF-SCORE:    0.00 PKD
ROOT
HETATM    1  C   UNL     1      -7.567  11.234  68.070  1.00  0.00    -0.105 C  
HETATM    2  S   UNL     1      -9.131  10.696  67.240  1.00  0.00    -0.143 SA 
HETATM    3  C   UNL     1      -8.623  11.339  65.578  1.00  0.00     0.021 C  
HETATM    4  C   UNL     1      -9.236  10.469  64.476  1.00  0.00    -0.278 C  
HETATM    5  CA  UNL     1      -7.076  11.379  65.625  1.00  0.00     0.592 C  
HETATM    6  C   UNL     1      -9.222  12.753  65.401  1.00  0.00     0.442 C  
HETATM    7  N   UNL     1      -6.688  11.742  66.998  1.00  0.00    -0.146 N  
HETATM    8  C   UNL     1      -6.330  10.069  65.305  1.00  0.00    -0.107 C  
HETATM    9  OXT UNL     1      -6.648   9.249  64.460  1.00  0.00    -0.078 OA 
HETATM   10  O   UNL     1      -5.152   9.961  65.981  1.00  0.00    -0.034 OA 
HETATM   11  C   UNL     1      -6.760  13.045  67.413  1.00  0.00    -0.115 C  
HETATM   12  CA  UNL     1      -7.601  12.669  68.670  1.00  0.00    -0.083 C  
HETATM   13  O   UNL     1      -6.409  14.035  66.817  1.00  0.00     0.625 OA 
ENDROOT
BRANCH  12  14
HETATM   14  N   UNL     1      -8.964  13.239  68.786  1.00  0.00    -0.388 N  
HETATM   15  C   UNL     1      -9.300  14.467  68.276  1.00  0.00    -0.203 C  
HETATM   16  H   UNL     1      -9.682  12.696  69.266  1.00  0.00     0.000 HD 
HETATM   17  O   UNL     1      -8.532  15.141  67.600  1.00  0.00    -0.147 OA 
BRANCH  15  18
HETATM   18  C   UNL     1     -10.651  14.906  68.600  1.00  0.00    -0.251 A  
HETATM   19  C   UNL     1     -11.617  14.103  69.171  1.00  0.00    -0.307 A  
HETATM   20  C   UNL     1     -11.673  12.701  69.635  1.00  0.00    -0.373 C  
HETATM   21  O   UNL     1     -12.747  14.825  69.358  1.00  0.00    -0.023 OA 
HETATM   22  N   UNL     1     -12.568  16.104  68.886  1.00  0.00     0.607 NA 
HETATM   23  C   UNL     1     -11.312  16.173  68.415  1.00  0.00    -0.345 A  
BRANCH  23  24
HETATM   24  C   UNL     1     -10.793  17.439  67.874  1.00  0.00    -0.270 A  
HETATM   25  C   UNL     1     -10.880  17.689  66.493  1.00  0.00     0.055 A  
HETATM   26  C   UNL     1     -10.600  18.946  65.952  1.00  0.00    -0.438 A  
HETATM   27  F   UNL     1     -11.268  16.732  65.638  1.00  0.00    -0.102 F  
HETATM   28  C   UNL     1     -10.262  20.001  66.788  1.00  0.00    -0.592 A  
HETATM   29  C   UNL     1     -10.088  19.761  68.148  1.00  0.00    -0.574 A  
HETATM   30  C   UNL     1     -10.283  18.476  68.675  1.00  0.00    -0.325 A  
HETATM   31 CL   UNL     1      -9.794  18.250  70.321  1.00  0.00     1.394 Cl 
ENDBRANCH  23  24
ENDBRANCH  15  18
ENDBRANCH  12  14
TORSDOF 3
ENDMDL
MODEL      224
REMARK 921   NORMALIZED FREE ENERGY PREDICTED BY IDOCK:    1.63 KCAL/MOL
REMARK 922        TOTAL FREE ENERGY PREDICTED BY IDOCK:    0.55 KCAL/MOL
REMARK 923 INTER-LIGAND FREE ENERGY PREDICTED BY IDOCK:    0.74 KCAL/MOL
REMARK 924 INTRA-LIGAND FREE ENERGY PREDICTED BY IDOCK:   -0.19 KCAL/MOL
REMARK 927      BINDING AFFINITY PREDICTED BY RF-SCORE:    0.00 PKD
ROOT
HETATM    1  C   UNL     1      -6.697   8.282  69.489  1.00  0.00    -0.038 C  
HETATM    2  S   UNL     1      -5.319   9.278  70.219  1.00  0.00    -0.028 SA 
HETATM    3  C   UNL     1      -6.169   9.498  71.851  1.00  0.00     0.181 C  
HETATM    4  C   UNL     1      -5.128   9.586  72.970  1.00  0.00    -0.069 C  
HETATM    5  CA  UNL     1      -7.162   8.313  71.942  1.00  0.00    -0.090 C  
HETATM    6  C   UNL     1      -6.906  10.856  71.833  1.00  0.00     3.718 C  
HETATM    7  N   UNL     1      -7.662   8.054  70.583  1.00  0.00    -0.086 N  
HETATM    8  C   UNL     1      -6.607   6.971  72.455  1.00  0.00    -0.057 C  
HETATM    9  OXT UNL     1      -5.783   6.826  73.343  1.00  0.00    -0.049 OA 
HETATM   10  O   UNL     1      -7.243   5.899  71.905  1.00  0.00    -0.087 OA 
HETATM   11  C   UNL     1      -8.629   8.856  70.039  1.00  0.00    -0.142 C  
HETATM   12  CA  UNL     1      -7.789   9.111  68.752  1.00  0.00    -0.096 C  
HETATM   13  O   UNL     1      -9.633   9.271  70.565  1.00  0.00    -0.223 OA 
ENDROOT
BRANCH  12  14
HETATM   14  N   UNL     1      -7.384  10.507  68.455  1.00  0.00    -0.084 N  
HETATM   15  C   UNL     1      -8.221  11.407  67.847  1.00  0.00    -0.132 C  
HETATM   16  H   UNL     1      -6.445  10.810  68.714  1.00  0.00     0.000 HD 
HETATM   17  O   UNL     1      -9.394  11.161  67.594  1.00  0.00    -0.162 OA 
BRANCH  15  18
HETATM   18  C   UNL     1      -7.601  12.687  67.528  1.00  0.00    -0.160 A  
HETATM   19  C   UNL     1      -6.293  12.838  67.112  1.00  0.00     0.084 A  
HETATM   20  C   UNL     1      -5.167  11.921  66.843  1.00  0.00    -0.080 C  
HETATM   21  O   UNL     1      -6.046  14.150  66.881  1.00  0.00     0.349 OA 
HETATM   22  N   UNL     1      -7.165  14.894  67.171  1.00  0.00    -0.170 NA 
HETATM   23  C   UNL     1      -8.114  14.032  67.572  1.00  0.00    -0.186 A  
BRANCH  23  24
HETATM   24  C   UNL     1      -9.459  14.519  67.915  1.00  0.00    -0.212 A  
HETATM   25  C   UNL     1     -10.578  13.992  67.246  1.00  0.00    -0.273 A  
HETATM   26  C   UNL     1     -11.882  14.255  67.669  1.00  0.00    -0.420 A  
HETATM   27  F   UNL     1     -10.434  13.184  66.185  1.00  0.00    -0.265 F  
HETATM   28  C   UNL     1     -12.101  15.027  68.802  1.00  0.00    -0.215 A  
HETATM   29  C   UNL     1     -11.017  15.628  69.435  1.00  0.00    -0.283 A  
HETATM   30  C   UNL     1      -9.714  15.433  68.953  1.00  0.00    -0.220 A  
HETATM   31 CL   UNL     1      -8.488  16.428  69.663  1.00  0.00     0.231 Cl 
ENDBRANCH  23  24
ENDBRANCH  15  18
ENDBRANCH  12  14
TORSDOF 3
ENDMDL
MODEL      225
REMARK 921   NORMALIZED FREE ENERGY PREDICTED BY IDOCK:    3.64 KCAL/MOL
REMARK 922        TOTAL FREE ENERGY PREDICTED BY IDOCK:    2.92 KCAL/MOL
REMARK 923 INTER-LIGAND FREE ENERGY PREDICTED BY IDOCK:   -4.02 KCAL/MOL
REMARK 924 INTRA-LIGAND FREE ENERGY PREDICTED BY IDOCK:    6.94 KCAL/MOL
REMARK 927      BINDING AFFINITY PREDICTED BY RF-SCORE:    0.00 PKD
ROOT
HETATM    1  C   UNL     1     -10.928  17.261  67.226  1.00  0.00    -0.005 C  
HETATM    2  S   UNL     1      -9.539  16.317  68.001  1.00  0.00    -0.227 SA 
HETATM    3  C   UNL     1      -8.397  16.561  66.562  1.00  0.00    -0.292 C  
HETATM    4  C   UNL     1      -6.948  16.619  67.053  1.00  0.00    -0.241 C  
HETATM    5  CA  UNL     1      -8.922  17.833  65.852  1.00  0.00     0.157 C  
HETATM    6  C   UNL     1      -8.499  15.319  65.647  1.00  0.00     1.576 C  
HETATM    7  N   UNL     1     -10.389  17.831  65.976  1.00  0.00    -0.355 N  
HETATM    8  C   UNL     1      -8.451  19.191  66.408  1.00  0.00    -0.318 C  
HETATM    9  OXT UNL     1      -7.337  19.444  66.836  1.00  0.00    -0.212 OA 
HETATM   10  O   UNL     1      -9.382  20.172  66.248  1.00  0.00    -0.367 OA 
HETATM   11  C   UNL     1     -11.148  17.033  65.162  1.00  0.00     0.089 C  
HETATM   12  CA  UNL     1     -11.907  16.407  66.370  1.00  0.00     1.481 C  
HETATM   13  O   UNL     1     -11.028  16.856  63.973  1.00  0.00    -0.508 OA 
ENDROOT
BRANCH  12  14
HETATM   14  N   UNL     1     -11.776  14.946  66.587  1.00  0.00    -0.280 N  
HETATM   15  C   UNL     1     -11.723  14.385  67.838  1.00  0.00    -0.356 C  
HETATM   16  H   UNL     1     -11.723  14.334  65.774  1.00  0.00     0.000 HD 
HETATM   17  O   UNL     1     -11.881  15.032  68.866  1.00  0.00    -0.320 OA 
BRANCH  15  18
HETATM   18  C   UNL     1     -11.468  12.951  67.845  1.00  0.00    -0.362 A  
HETATM   19  C   UNL     1     -10.942  12.246  66.781  1.00  0.00    -0.276 A  
HETATM   20  C   UNL     1     -10.476  12.594  65.422  1.00  0.00    -0.306 C  
HETATM   21  O   UNL     1     -10.814  10.943  67.126  1.00  0.00    -0.258 OA 
HETATM   22  N   UNL     1     -11.282  10.750  68.404  1.00  0.00    -0.263 NA 
HETATM   23  C   UNL     1     -11.691  11.947  68.855  1.00  0.00    -0.323 A  
BRANCH  23  24
HETATM   24  C   UNL     1     -12.210  12.086  70.224  1.00  0.00    -0.348 A  
HETATM   25  C   UNL     1     -12.345  13.366  70.788  1.00  0.00    -0.354 A  
HETATM   26  C   UNL     1     -13.022  13.576  71.991  1.00  0.00    -0.420 A  
HETATM   27  F   UNL     1     -11.851  14.451  70.171  1.00  0.00    -0.291 F  
HETATM   28  C   UNL     1     -13.619  12.507  72.645  1.00  0.00     0.105 A  
HETATM   29  C   UNL     1     -13.431  11.218  72.154  1.00  0.00    -0.197 A  
HETATM   30  C   UNL     1     -12.674  11.003  70.993  1.00  0.00    -0.386 A  
HETATM   31 CL   UNL     1     -12.302   9.352  70.628  1.00  0.00    -0.164 Cl 
ENDBRANCH  23  24
ENDBRANCH  15  18
ENDBRANCH  12  14
TORSDOF 3
ENDMDL
MODEL      226
REMARK 921   NORMALIZED FREE ENERGY PREDICTED BY IDOCK:    4.71 KCAL/MOL
REMARK 922        TOTAL FREE ENERGY PREDICTED BY IDOCK:    4.17 KCAL/MOL
REMARK 923 INTER-LIGAND FREE ENERGY PREDICTED BY IDOCK:   -2.45 KCAL/MOL
REMARK 924 INTRA-LIGAND FREE ENERGY PREDICTED BY IDOCK:    6.62 KCAL/MOL
REMARK 927      BINDING AFFINITY PREDICTED BY RF-SCORE:    0.00 PKD
ROOT
HETATM    1  C   UNL     1      -8.290  11.769  67.330  1.00  0.00    -0.159 C  
HETATM    2  S   UNL     1      -8.585  10.811  68.885  1.00  0.00    -0.130 SA 
HETATM    3  C   UNL     1      -6.781  10.584  69.243  1.00  0.00    -0.069 C  
HETATM    4  C   UNL     1      -6.554  10.529  70.756  1.00  0.00     0.179 C  
HETATM    5  CA  UNL     1      -6.081  11.747  68.496  1.00  0.00    -0.050 C  
HETATM    6  C   UNL     1      -6.345   9.210  68.686  1.00  0.00    -0.049 C  
HETATM    7  N   UNL     1      -6.831  11.985  67.253  1.00  0.00    -0.141 N  
HETATM    8  C   UNL     1      -6.015  13.106  69.220  1.00  0.00    -0.095 C  
HETATM    9  OXT UNL     1      -5.832  13.276  70.414  1.00  0.00    -0.156 OA 
HETATM   10  O   UNL     1      -6.041  14.158  68.355  1.00  0.00    -0.085 OA 
HETATM   11  C   UNL     1      -6.660  11.156  66.176  1.00  0.00    -0.022 C  
HETATM   12  CA  UNL     1      -8.193  10.910  66.037  1.00  0.00    -0.155 C  
HETATM   13  O   UNL     1      -5.626  10.723  65.728  1.00  0.00    -0.118 OA 
ENDROOT
BRANCH  12  14
HETATM   14  N   UNL     1      -8.688   9.521  66.200  1.00  0.00    -0.141 N  
HETATM   15  C   UNL     1      -7.961   8.546  66.834  1.00  0.00    -0.095 C  
HETATM   16  H   UNL     1      -9.606   9.282  65.825  1.00  0.00     0.000 HD 
HETATM   17  O   UNL     1      -6.898   8.768  67.400  1.00  0.00    -0.069 OA 
BRANCH  15  18
HETATM   18  C   UNL     1      -8.560   7.219  66.783  1.00  0.00    -0.127 A  
HETATM   19  C   UNL     1      -8.866   6.544  65.618  1.00  0.00    -0.042 A  
HETATM   20  C   UNL     1      -8.720   6.827  64.175  1.00  0.00     0.589 C  
HETATM   21  O   UNL     1      -9.389   5.333  65.926  1.00  0.00    -0.157 OA 
HETATM   22  N   UNL     1      -9.474   5.194  67.291  1.00  0.00    -0.125 NA 
HETATM   23  C   UNL     1      -8.988   6.325  67.829  1.00  0.00    -0.112 A  
BRANCH  23  24
HETATM   24  C   UNL     1      -8.901   6.472  69.291  1.00  0.00    -0.132 A  
HETATM   25  C   UNL     1      -9.705   7.425  69.940  1.00  0.00    -0.171 A  
HETATM   26  C   UNL     1      -9.823   7.468  71.330  1.00  0.00    -0.191 A  
HETATM   27  F   UNL     1     -10.422   8.319  69.241  1.00  0.00    -0.207 F  
HETATM   28  C   UNL     1      -9.165   6.527  72.111  1.00  0.00    -0.139 A  
HETATM   29  C   UNL     1      -8.297   5.625  71.501  1.00  0.00    -0.127 A  
HETATM   30  C   UNL     1      -8.114   5.644  70.110  1.00  0.00    -0.103 A  
HETATM   31 CL   UNL     1      -6.831   4.652  69.503  1.00  0.00    -0.047 Cl 
ENDBRANCH  23  24
ENDBRANCH  15  18
ENDBRANCH  12  14
TORSDOF 3
ENDMDL
MODEL      227
REMARK 921   NORMALIZED FREE ENERGY PREDICTED BY IDOCK:    7.32 KCAL/MOL
REMARK 922        TOTAL FREE ENERGY PREDICTED BY IDOCK:    7.24 KCAL/MOL
REMARK 923 INTER-LIGAND FREE ENERGY PREDICTED BY IDOCK:   -1.77 KCAL/MOL
REMARK 924 INTRA-LIGAND FREE ENERGY PREDICTED BY IDOCK:    9.02 KCAL/MOL
REMARK 927      BINDING AFFINITY PREDICTED BY RF-SCORE:    0.00 PKD
ROOT
HETATM    1  C   UNL     1      -5.852   8.421  68.054  1.00  0.00    -0.042 C  
HETATM    2  S   UNL     1      -6.741  10.042  68.136  1.00  0.00    -0.059 SA 
HETATM    3  C   UNL     1      -8.044   9.417  69.295  1.00  0.00    -0.105 C  
HETATM    4  C   UNL     1      -8.519  10.555  70.204  1.00  0.00     0.608 C  
HETATM    5  CA  UNL     1      -7.391   8.209  70.010  1.00  0.00    -0.061 C  
HETATM    6  C   UNL     1      -9.270   8.986  68.459  1.00  0.00    -0.136 C  
HETATM    7  N   UNL     1      -6.519   7.539  69.032  1.00  0.00    -0.039 N  
HETATM    8  C   UNL     1      -6.503   8.513  71.232  1.00  0.00    -0.056 C  
HETATM    9  OXT UNL     1      -6.711   9.368  72.077  1.00  0.00    -0.299 OA 
HETATM   10  O   UNL     1      -5.489   7.615  71.376  1.00  0.00    -0.034 OA 
HETATM   11  C   UNL     1      -7.058   6.716  68.079  1.00  0.00    -0.089 C  
HETATM   12  CA  UNL     1      -6.330   7.465  66.923  1.00  0.00    -0.048 C  
HETATM   13  O   UNL     1      -7.916   5.877  68.219  1.00  0.00    -0.106 OA 
ENDROOT
BRANCH  12  14
HETATM   14  N   UNL     1      -7.165   8.126  65.892  1.00  0.00    -0.071 N  
HETATM   15  C   UNL     1      -6.885   9.376  65.401  1.00  0.00    -0.079 C  
HETATM   16  H   UNL     1      -7.982   7.631  65.533  1.00  0.00     0.000 HD 
HETATM   17  O   UNL     1      -5.873   9.998  65.699  1.00  0.00    -0.061 OA 
BRANCH  15  18
HETATM   18  C   UNL     1      -7.891   9.904  64.488  1.00  0.00    -0.142 A  
HETATM   19  C   UNL     1      -7.630  10.326  63.200  1.00  0.00    -0.132 A  
HETATM   20  C   UNL     1      -6.430  10.390  62.341  1.00  0.00    -0.147 C  
HETATM   21  O   UNL     1      -8.784  10.737  62.622  1.00  0.00    -0.217 OA 
HETATM   22  N   UNL     1      -9.820  10.632  63.519  1.00  0.00    -0.328 NA 
HETATM   23  C   UNL     1      -9.302  10.140  64.656  1.00  0.00    -0.277 A  
BRANCH  23  24
HETATM   24  C   UNL     1     -10.174   9.866  65.810  1.00  0.00    -0.251 A  
HETATM   25  C   UNL     1     -10.340   8.543  66.253  1.00  0.00     0.157 A  
HETATM   26  C   UNL     1     -10.978   8.243  67.459  1.00  0.00     0.088 A  
HETATM   27  F   UNL     1      -9.860   7.508  65.546  1.00  0.00     0.249 F  
HETATM   28  C   UNL     1     -11.436   9.269  68.274  1.00  0.00     0.649 A  
HETATM   29  C   UNL     1     -11.359  10.583  67.821  1.00  0.00    -0.267 A  
HETATM   30  C   UNL     1     -10.797  10.872  66.569  1.00  0.00    -0.171 A  
HETATM   31 CL   UNL     1     -10.987  12.501  66.013  1.00  0.00    -0.306 Cl 
ENDBRANCH  23  24
ENDBRANCH  15  18
ENDBRANCH  12  14
TORSDOF 3
ENDMDL
MODEL      228
REMARK 921   NORMALIZED FREE ENERGY PREDICTED BY IDOCK:    7.68 KCAL/MOL
REMARK 922        TOTAL FREE ENERGY PREDICTED BY IDOCK:    7.67 KCAL/MOL
REMARK 923 INTER-LIGAND FREE ENERGY PREDICTED BY IDOCK:    5.10 KCAL/MOL
REMARK 924 INTRA-LIGAND FREE ENERGY PREDICTED BY IDOCK:    2.57 KCAL/MOL
REMARK 927      BINDING AFFINITY PREDICTED BY RF-SCORE:    0.00 PKD
ROOT
HETATM    1  C   UNL     1     -11.202   5.992  68.191  1.00  0.00     0.049 C  
HETATM    2  S   UNL     1     -10.499   6.773  69.713  1.00  0.00    -0.222 SA 
HETATM    3  C   UNL     1      -8.953   7.343  68.865  1.00  0.00    -0.130 C  
HETATM    4  C   UNL     1      -8.458   8.642  69.506  1.00  0.00    -0.129 C  
HETATM    5  CA  UNL     1      -9.333   7.430  67.367  1.00  0.00    -0.132 C  
HETATM    6  C   UNL     1      -7.850   6.288  69.110  1.00  0.00    -0.105 C  
HETATM    7  N   UNL     1     -10.281   6.338  67.090  1.00  0.00    -0.172 N  
HETATM    8  C   UNL     1     -10.024   8.723  66.892  1.00  0.00    -0.257 C  
HETATM    9  OXT UNL     1      -9.769   9.854  67.271  1.00  0.00    -0.161 OA 
HETATM   10  O   UNL     1     -10.891   8.504  65.865  1.00  0.00     1.343 OA 
HETATM   11  C   UNL     1      -9.827   5.057  66.927  1.00  0.00    -0.188 C  
HETATM   12  CA  UNL     1     -10.824   4.496  67.985  1.00  0.00     1.383 C  
HETATM   13  O   UNL     1      -8.870   4.682  66.292  1.00  0.00    -0.113 OA 
ENDROOT
BRANCH  12  14
HETATM   14  N   UNL     1     -10.259   3.848  69.193  1.00  0.00     0.457 N  
HETATM   15  C   UNL     1     -10.754   4.070  70.452  1.00  0.00     1.646 C  
HETATM   16  H   UNL     1      -9.470   3.212  69.083  1.00  0.00     0.000 HD 
HETATM   17  O   UNL     1     -11.759   4.738  70.666  1.00  0.00     2.448 OA 
BRANCH  15  18
HETATM   18  C   UNL     1      -9.988   3.442  71.521  1.00  0.00    -0.161 A  
HETATM   19  C   UNL     1     -10.515   3.059  72.738  1.00  0.00    -0.127 A  
HETATM   20  C   UNL     1     -11.855   3.100  73.358  1.00  0.00     0.162 C  
HETATM   21  O   UNL     1      -9.541   2.490  73.489  1.00  0.00    -0.086 OA 
HETATM   22  N   UNL     1      -8.349   2.516  72.805  1.00  0.00    -0.065 NA 
HETATM   23  C   UNL     1      -8.593   3.095  71.617  1.00  0.00    -0.069 A  
BRANCH  23  24
HETATM   24  C   UNL     1      -7.515   3.233  70.625  1.00  0.00    -0.040 A  
HETATM   25  C   UNL     1      -6.460   4.129  70.870  1.00  0.00    -0.026 A  
HETATM   26  C   UNL     1      -5.311   4.151  70.076  1.00  0.00    -0.008 A  
HETATM   27  F   UNL     1      -6.501   4.984  71.903  1.00  0.00    -0.029 F  
HETATM   28  C   UNL     1      -5.172   3.244  69.033  1.00  0.00    -0.012 A  
HETATM   29  C   UNL     1      -6.235   2.403  68.718  1.00  0.00    -0.025 A  
HETATM   30  C   UNL     1      -7.423   2.447  69.463  1.00  0.00    -0.043 A  
HETATM   31 CL   UNL     1      -8.752   1.541  68.822  1.00  0.00    -0.089 Cl 
ENDBRANCH  23  24
ENDBRANCH  15  18
ENDBRANCH  12  14
TORSDOF 3
ENDMDL
MODEL      229
REMARK 921   NORMALIZED FREE ENERGY PREDICTED BY IDOCK:   11.46 KCAL/MOL
REMARK 922        TOTAL FREE ENERGY PREDICTED BY IDOCK:   12.10 KCAL/MOL
REMARK 923 INTER-LIGAND FREE ENERGY PREDICTED BY IDOCK:    5.16 KCAL/MOL
REMARK 924 INTRA-LIGAND FREE ENERGY PREDICTED BY IDOCK:    6.94 KCAL/MOL
REMARK 927      BINDING AFFINITY PREDICTED BY RF-SCORE:    0.00 PKD
ROOT
HETATM    1  C   UNL     1     -11.372   5.895  69.048  1.00  0.00     0.091 C  
HETATM    2  S   UNL     1     -10.562   7.177  70.108  1.00  0.00    -0.236 SA 
HETATM    3  C   UNL     1      -9.446   7.777  68.756  1.00  0.00    -0.149 C  
HETATM    4  C   UNL     1      -9.163   9.271  68.941  1.00  0.00    -0.143 C  
HETATM    5  CA  UNL     1     -10.168   7.384  67.443  1.00  0.00    -0.246 C  
HETATM    6  C   UNL     1      -8.086   7.056  68.893  1.00  0.00    -0.121 C  
HETATM    7  N   UNL     1     -10.845   6.100  67.684  1.00  0.00    -0.312 N  
HETATM    8  C   UNL     1     -11.253   8.347  66.924  1.00  0.00     1.120 C  
HETATM    9  OXT UNL     1     -11.213   9.565  66.968  1.00  0.00     0.111 OA 
HETATM   10  O   UNL     1     -12.247   7.699  66.255  1.00  0.00     5.432 OA 
HETATM   11  C   UNL     1     -10.131   4.931  67.671  1.00  0.00    -0.116 C  
HETATM   12  CA  UNL     1     -10.685   4.499  69.062  1.00  0.00     1.229 C  
HETATM   13  O   UNL     1      -9.282   4.587  66.885  1.00  0.00    -0.119 OA 
ENDROOT
BRANCH  12  14
HETATM   14  N   UNL     1      -9.714   4.320  70.169  1.00  0.00    -0.202 N  
HETATM   15  C   UNL     1     -10.007   4.639  71.470  1.00  0.00    -0.195 C  
HETATM   16  H   UNL     1      -8.791   3.943  69.953  1.00  0.00     0.000 HD 
HETATM   17  O   UNL     1     -11.119   5.000  71.834  1.00  0.00    -0.063 OA 
BRANCH  15  18
HETATM   18  C   UNL     1      -8.884   4.510  72.389  1.00  0.00    -0.128 A  
HETATM   19  C   UNL     1      -8.991   4.080  73.697  1.00  0.00    -0.092 A  
HETATM   20  C   UNL     1     -10.100   3.628  74.563  1.00  0.00    -0.218 C  
HETATM   21  O   UNL     1      -7.761   4.056  74.263  1.00  0.00    -0.077 OA 
HETATM   22  N   UNL     1      -6.823   4.499  73.361  1.00  0.00    -0.062 NA 
HETATM   23  C   UNL     1      -7.480   4.788  72.226  1.00  0.00    -0.084 A  
BRANCH  23  24
HETATM   24  C   UNL     1      -6.741   5.252  71.040  1.00  0.00    -0.043 A  
HETATM   25  C   UNL     1      -6.908   4.582  69.815  1.00  0.00    -0.041 A  
HETATM   26  C   UNL     1      -6.404   5.097  68.618  1.00  0.00    -0.035 A  
HETATM   27  F   UNL     1      -7.590   3.430  69.742  1.00  0.00    -0.044 F  
HETATM   28  C   UNL     1      -5.750   6.321  68.612  1.00  0.00    -0.016 A  
HETATM   29  C   UNL     1      -5.498   6.964  69.820  1.00  0.00    -0.015 A  
HETATM   30  C   UNL     1      -5.928   6.399  71.030  1.00  0.00    -0.027 A  
HETATM   31 CL   UNL     1      -5.340   7.158  72.471  1.00  0.00    -0.037 Cl 
ENDBRANCH  23  24
ENDBRANCH  15  18
ENDBRANCH  12  14
TORSDOF 3
ENDMDL
MODEL      230
REMARK 921   NORMALIZED FREE ENERGY PREDICTED BY IDOCK:   11.53 KCAL/MOL
REMARK 922        TOTAL FREE ENERGY PREDICTED BY IDOCK:   12.18 KCAL/MOL
REMARK 923 INTER-LIGAND FREE ENERGY PREDICTED BY IDOCK:    9.28 KCAL/MOL
REMARK 924 INTRA-LIGAND FREE ENERGY PREDICTED BY IDOCK:    2.91 KCAL/MOL
REMARK 927      BINDING AFFINITY PREDICTED BY RF-SCORE:    0.00 PKD
ROOT
HETATM    1  C   UNL     1      -9.114  13.378  69.617  1.00  0.00     1.726 C  
HETATM    2  S   UNL     1      -8.227  13.535  68.001  1.00  0.00    -0.176 SA 
HETATM    3  C   UNL     1      -7.510  15.194  68.407  1.00  0.00    -0.115 C  
HETATM    4  C   UNL     1      -6.150  15.354  67.721  1.00  0.00    -0.173 C  
HETATM    5  CA  UNL     1      -7.497  15.252  69.955  1.00  0.00    -0.038 C  
HETATM    6  C   UNL     1      -8.431  16.281  67.807  1.00  0.00    -0.169 C  
HETATM    7  N   UNL     1      -8.691  14.536  70.430  1.00  0.00     1.465 N  
HETATM    8  C   UNL     1      -6.298  14.600  70.670  1.00  0.00    -0.063 C  
HETATM    9  OXT UNL     1      -5.137  14.622  70.294  1.00  0.00    -0.093 OA 
HETATM   10  O   UNL     1      -6.632  14.089  71.888  1.00  0.00     0.439 OA 
HETATM   11  C   UNL     1      -9.919  15.143  70.393  1.00  0.00     0.290 C  
HETATM   12  CA  UNL     1     -10.562  13.945  69.631  1.00  0.00     0.250 C  
HETATM   13  O   UNL     1     -10.199  16.273  70.712  1.00  0.00     0.593 OA 
ENDROOT
BRANCH  12  14
HETATM   14  N   UNL     1     -11.119  14.203  68.281  1.00  0.00    -0.245 N  
HETATM   15  C   UNL     1     -11.474  13.195  67.422  1.00  0.00    -0.332 C  
HETATM   16  H   UNL     1     -11.242  15.169  67.979  1.00  0.00     0.000 HD 
HETATM   17  O   UNL     1     -11.455  12.012  67.738  1.00  0.00    -0.282 OA 
BRANCH  15  18
HETATM   18  C   UNL     1     -11.882  13.647  66.098  1.00  0.00    -0.424 A  
HETATM   19  C   UNL     1     -12.315  12.812  65.087  1.00  0.00    -0.496 A  
HETATM   20  C   UNL     1     -12.529  11.356  64.951  1.00  0.00     1.337 C  
HETATM   21  O   UNL     1     -12.635  13.553  64.000  1.00  0.00    -0.661 OA 
HETATM   22  N   UNL     1     -12.390  14.882  64.252  1.00  0.00    -0.678 NA 
HETATM   23  C   UNL     1     -11.925  14.961  65.510  1.00  0.00    -0.098 A  
BRANCH  23  24
HETATM   24  C   UNL     1     -11.607  16.271  66.101  1.00  0.00     0.842 A  
HETATM   25  C   UNL     1     -11.976  16.538  67.431  1.00  0.00     1.192 A  
HETATM   26  C   UNL     1     -11.521  17.670  68.110  1.00  0.00     0.788 A  
HETATM   27  F   UNL     1     -12.762  15.693  68.116  1.00  0.00     0.414 F  
HETATM   28  C   UNL     1     -10.648  18.549  67.483  1.00  0.00    -0.461 A  
HETATM   29  C   UNL     1     -10.332  18.354  66.142  1.00  0.00    -0.431 A  
HETATM   30  C   UNL     1     -10.864  17.263  65.437  1.00  0.00    -0.021 A  
HETATM   31 CL   UNL     1     -10.604  17.269  63.726  1.00  0.00     4.898 Cl 
ENDBRANCH  23  24
ENDBRANCH  15  18
ENDBRANCH  12  14
TORSDOF 3
ENDMDL
MODEL      231
REMARK 921   NORMALIZED FREE ENERGY PREDICTED BY IDOCK:   11.97 KCAL/MOL
REMARK 922        TOTAL FREE ENERGY PREDICTED BY IDOCK:   12.70 KCAL/MOL
REMARK 923 INTER-LIGAND FREE ENERGY PREDICTED BY IDOCK:    6.13 KCAL/MOL
REMARK 924 INTRA-LIGAND FREE ENERGY PREDICTED BY IDOCK:    6.57 KCAL/MOL
REMARK 927      BINDING AFFINITY PREDICTED BY RF-SCORE:    0.00 PKD
ROOT
HETATM    1  C   UNL     1      -8.497   8.183  67.848  1.00  0.00    -0.132 C  
HETATM    2  S   UNL     1      -8.451   8.483  69.673  1.00  0.00    -0.132 SA 
HETATM    3  C   UNL     1      -6.647   8.906  69.690  1.00  0.00    -0.043 C  
HETATM    4  C   UNL     1      -6.364   9.925  70.797  1.00  0.00    -0.086 C  
HETATM    5  CA  UNL     1      -6.337   9.373  68.246  1.00  0.00    -0.053 C  
HETATM    6  C   UNL     1      -5.854   7.631  70.056  1.00  0.00    -0.023 C  
HETATM    7  N   UNL     1      -7.166   8.565  67.337  1.00  0.00    -0.083 N  
HETATM    8  C   UNL     1      -6.641  10.844  67.904  1.00  0.00    -0.063 C  
HETATM    9  OXT UNL     1      -6.475  11.802  68.641  1.00  0.00    -0.053 OA 
HETATM   10  O   UNL     1      -6.997  11.013  66.600  1.00  0.00    -0.124 OA 
HETATM   11  C   UNL     1      -6.800   7.282  67.028  1.00  0.00    -0.076 C  
HETATM   12  CA  UNL     1      -8.201   6.718  67.414  1.00  0.00    -0.122 C  
HETATM   13  O   UNL     1      -5.701   6.869  66.747  1.00  0.00    -0.017 OA 
ENDROOT
BRANCH  12  14
HETATM   14  N   UNL     1      -8.269   5.738  68.525  1.00  0.00    -0.107 N  
HETATM   15  C   UNL     1      -7.268   5.598  69.452  1.00  0.00    -0.066 C  
HETATM   16  H   UNL     1      -9.094   5.143  68.602  1.00  0.00     0.000 HD 
HETATM   17  O   UNL     1      -6.292   6.336  69.496  1.00  0.00    -0.032 OA 
BRANCH  15  18
HETATM   18  C   UNL     1      -7.463   4.499  70.389  1.00  0.00    -0.050 A  
HETATM   19  C   UNL     1      -6.541   3.498  70.621  1.00  0.00    -0.032 A  
HETATM   20  C   UNL     1      -5.189   3.183  70.117  1.00  0.00    -0.008 C  
HETATM   21  O   UNL     1      -7.026   2.652  71.561  1.00  0.00    -0.030 OA 
HETATM   22  N   UNL     1      -8.284   3.050  71.944  1.00  0.00    -0.058 NA 
HETATM   23  C   UNL     1      -8.573   4.158  71.242  1.00  0.00    -0.096 A  
BRANCH  23  24
HETATM   24  C   UNL     1      -9.848   4.861  71.459  1.00  0.00    -0.247 A  
HETATM   25  C   UNL     1      -9.909   5.914  72.388  1.00  0.00    -0.163 A  
HETATM   26  C   UNL     1     -11.023   6.750  72.484  1.00  0.00    -0.281 A  
HETATM   27  F   UNL     1      -8.877   6.180  73.203  1.00  0.00    -0.130 F  
HETATM   28  C   UNL     1     -12.097   6.576  71.621  1.00  0.00    -0.381 A  
HETATM   29  C   UNL     1     -12.098   5.491  70.749  1.00  0.00     1.928 A  
HETATM   30  C   UNL     1     -11.015   4.601  70.718  1.00  0.00     0.970 A  
HETATM   31 CL   UNL     1     -11.244   3.162  69.783  1.00  0.00     5.924 Cl 
ENDBRANCH  23  24
ENDBRANCH  15  18
ENDBRANCH  12  14
TORSDOF 3
ENDMDL
MODEL      232
REMARK 921   NORMALIZED FREE ENERGY PREDICTED BY IDOCK:   12.46 KCAL/MOL
REMARK 922        TOTAL FREE ENERGY PREDICTED BY IDOCK:   13.28 KCAL/MOL
REMARK 923 INTER-LIGAND FREE ENERGY PREDICTED BY IDOCK:    6.29 KCAL/MOL
REMARK 924 INTRA-LIGAND FREE ENERGY PREDICTED BY IDOCK:    7.00 KCAL/MOL
REMARK 927      BINDING AFFINITY PREDICTED BY RF-SCORE:    0.00 PKD
ROOT
HETATM    1  C   UNL     1     -11.412  13.519  71.075  1.00  0.00     1.001 C  
HETATM    2  S   UNL     1     -10.289  14.946  71.428  1.00  0.00     1.847 SA 
HETATM    3  C   UNL     1     -11.621  16.216  71.213  1.00  0.00    -0.413 C  
HETATM    4  C   UNL     1     -11.348  17.415  72.126  1.00  0.00     1.548 C  
HETATM    5  CA  UNL     1     -12.942  15.452  71.477  1.00  0.00    -0.447 C  
HETATM    6  C   UNL     1     -11.554  16.748  69.763  1.00  0.00     0.590 C  
HETATM    7  N   UNL     1     -12.770  14.086  70.957  1.00  0.00    -0.346 N  
HETATM    8  C   UNL     1     -13.381  15.296  72.946  1.00  0.00    -0.514 C  
HETATM    9  OXT UNL     1     -13.262  16.134  73.824  1.00  0.00    -0.657 OA 
HETATM   10  O   UNL     1     -14.070  14.142  73.164  1.00  0.00    -0.197 OA 
HETATM   11  C   UNL     1     -12.869  13.843  69.613  1.00  0.00     0.429 C  
HETATM   12  CA  UNL     1     -11.498  13.104  69.578  1.00  0.00    -0.226 C  
HETATM   13  O   UNL     1     -13.690  14.270  68.838  1.00  0.00     3.486 OA 
ENDROOT
BRANCH  12  14
HETATM   14  N   UNL     1     -10.423  13.679  68.734  1.00  0.00    -0.322 N  
HETATM   15  C   UNL     1      -9.419  14.461  69.244  1.00  0.00     0.148 C  
HETATM   16  H   UNL     1     -10.431  13.484  67.732  1.00  0.00     0.000 HD 
HETATM   17  O   UNL     1      -9.274  14.662  70.444  1.00  0.00     0.891 OA 
BRANCH  15  18
HETATM   18  C   UNL     1      -8.531  15.034  68.240  1.00  0.00    -0.147 A  
HETATM   19  C   UNL     1      -7.194  15.308  68.447  1.00  0.00    -0.114 A  
HETATM   20  C   UNL     1      -6.253  15.146  69.575  1.00  0.00    -0.125 C  
HETATM   21  O   UNL     1      -6.660  15.812  67.308  1.00  0.00    -0.180 OA 
HETATM   22  N   UNL     1      -7.631  15.915  66.342  1.00  0.00    -0.010 NA 
HETATM   23  C   UNL     1      -8.772  15.459  66.885  1.00  0.00    -0.254 A  
BRANCH  23  24
HETATM   24  C   UNL     1     -10.003  15.397  66.081  1.00  0.00    -0.330 A  
HETATM   25  C   UNL     1     -10.910  16.471  66.119  1.00  0.00    -0.050 A  
HETATM   26  C   UNL     1     -11.980  16.565  65.228  1.00  0.00     1.521 A  
HETATM   27  F   UNL     1     -10.763  17.471  67.001  1.00  0.00    -0.327 F  
HETATM   28  C   UNL     1     -12.149  15.601  64.243  1.00  0.00    -0.071 A  
HETATM   29  C   UNL     1     -11.316  14.485  64.235  1.00  0.00    -0.135 A  
HETATM   30  C   UNL     1     -10.297  14.351  65.189  1.00  0.00    -0.421 A  
HETATM   31 CL   UNL     1      -9.499  12.814  65.233  1.00  0.00     0.109 Cl 
ENDBRANCH  23  24
ENDBRANCH  15  18
ENDBRANCH  12  14
TORSDOF 3
ENDMDL
MODEL      233
REMARK 921   NORMALIZED FREE ENERGY PREDICTED BY IDOCK:   12.58 KCAL/MOL
REMARK 922        TOTAL FREE ENERGY PREDICTED BY IDOCK:   13.42 KCAL/MOL
REMARK 923 INTER-LIGAND FREE ENERGY PREDICTED BY IDOCK:   14.14 KCAL/MOL
REMARK 924 INTRA-LIGAND FREE ENERGY PREDICTED BY IDOCK:   -0.72 KCAL/MOL
REMARK 927      BINDING AFFINITY PREDICTED BY RF-SCORE:    0.00 PKD
ROOT
HETATM    1  C   UNL     1      -9.495  14.374  69.342  1.00  0.00     0.258 C  
HETATM    2  S   UNL     1      -9.130  14.772  67.573  1.00  0.00    -0.196 SA 
HETATM    3  C   UNL     1      -7.944  13.363  67.366  1.00  0.00    -0.163 C  
HETATM    4  C   UNL     1      -7.986  12.857  65.921  1.00  0.00     2.027 C  
HETATM    5  CA  UNL     1      -8.352  12.339  68.453  1.00  0.00    -0.144 C  
HETATM    6  C   UNL     1      -6.512  13.897  67.599  1.00  0.00    -0.161 C  
HETATM    7  N   UNL     1      -8.802  13.103  69.628  1.00  0.00     1.610 N  
HETATM    8  C   UNL     1      -9.502  11.372  68.110  1.00  0.00    -0.181 C  
HETATM    9  OXT UNL     1      -9.704  10.853  67.025  1.00  0.00    -0.172 OA 
HETATM   10  O   UNL     1     -10.231  11.019  69.205  1.00  0.00    -0.210 OA 
HETATM   11  C   UNL     1      -7.885  13.672  70.472  1.00  0.00     3.053 C  
HETATM   12  CA  UNL     1      -8.566  15.070  70.378  1.00  0.00     1.166 C  
HETATM   13  O   UNL     1      -6.869  13.183  70.904  1.00  0.00     0.893 OA 
ENDROOT
BRANCH  12  14
HETATM   14  N   UNL     1      -7.773  16.190  69.816  1.00  0.00     0.142 N  
HETATM   15  C   UNL     1      -8.319  17.416  69.534  1.00  0.00     0.640 C  
HETATM   16  H   UNL     1      -6.781  16.042  69.631  1.00  0.00     0.000 HD 
HETATM   17  O   UNL     1      -9.473  17.712  69.817  1.00  0.00     0.524 OA 
BRANCH  15  18
HETATM   18  C   UNL     1      -7.410  18.343  68.872  1.00  0.00    -0.269 A  
HETATM   19  C   UNL     1      -6.070  18.472  69.175  1.00  0.00    -0.240 A  
HETATM   20  C   UNL     1      -5.143  17.822  70.125  1.00  0.00    -0.217 C  
HETATM   21  O   UNL     1      -5.515  19.403  68.362  1.00  0.00    -0.194 OA 
HETATM   22  N   UNL     1      -6.475  19.931  67.533  1.00  0.00    -0.203 NA 
HETATM   23  C   UNL     1      -7.630  19.313  67.829  1.00  0.00    -0.259 A  
BRANCH  23  24
HETATM   24  C   UNL     1      -8.854  19.629  67.077  1.00  0.00    -0.376 A  
HETATM   25  C   UNL     1      -9.866  20.389  67.688  1.00  0.00    -0.398 A  
HETATM   26  C   UNL     1     -10.947  20.897  66.965  1.00  0.00     2.025 A  
HETATM   27  F   UNL     1      -9.816  20.687  68.995  1.00  0.00    -0.030 F  
HETATM   28  C   UNL     1     -11.024  20.687  65.595  1.00  0.00     1.006 A  
HETATM   29  C   UNL     1     -10.081  19.868  64.979  1.00  0.00     1.081 A  
HETATM   30  C   UNL     1      -9.046  19.287  65.726  1.00  0.00     0.270 A  
HETATM   31 CL   UNL     1      -8.095  18.098  64.903  1.00  0.00     2.860 Cl 
ENDBRANCH  23  24
ENDBRANCH  15  18
ENDBRANCH  12  14
TORSDOF 3
ENDMDL
MODEL      234
REMARK 921   NORMALIZED FREE ENERGY PREDICTED BY IDOCK:   13.67 KCAL/MOL
REMARK 922        TOTAL FREE ENERGY PREDICTED BY IDOCK:   14.70 KCAL/MOL
REMARK 923 INTER-LIGAND FREE ENERGY PREDICTED BY IDOCK:    3.49 KCAL/MOL
REMARK 924 INTRA-LIGAND FREE ENERGY PREDICTED BY IDOCK:   11.21 KCAL/MOL
REMARK 927      BINDING AFFINITY PREDICTED BY RF-SCORE:    0.00 PKD
ROOT
HETATM    1  C   UNL     1     -10.596   7.218  71.928  1.00  0.00    -0.212 C  
HETATM    2  S   UNL     1      -9.082   6.164  71.794  1.00  0.00    -0.143 SA 
HETATM    3  C   UNL     1      -7.936   7.608  71.596  1.00  0.00    -0.091 C  
HETATM    4  C   UNL     1      -6.571   7.274  72.202  1.00  0.00    -0.051 C  
HETATM    5  CA  UNL     1      -8.688   8.800  72.237  1.00  0.00    -0.011 C  
HETATM    6  C   UNL     1      -7.699   7.834  70.085  1.00  0.00    -0.090 C  
HETATM    7  N   UNL     1     -10.121   8.616  71.959  1.00  0.00    -0.315 N  
HETATM    8  C   UNL     1      -8.569   8.963  73.765  1.00  0.00     0.897 C  
HETATM    9  OXT UNL     1      -7.569   8.759  74.434  1.00  0.00    -0.414 OA 
HETATM   10  O   UNL     1      -9.685   9.514  74.319  1.00  0.00     5.765 OA 
HETATM   11  C   UNL     1     -10.629   8.927  70.726  1.00  0.00    -0.226 C  
HETATM   12  CA  UNL     1     -11.303   7.529  70.577  1.00  0.00    -0.260 C  
HETATM   13  O   UNL     1     -10.398   9.901  70.050  1.00  0.00    -0.240 OA 
ENDROOT
BRANCH  12  14
HETATM   14  N   UNL     1     -10.861   6.665  69.456  1.00  0.00    -0.263 N  
HETATM   15  C   UNL     1      -9.603   6.123  69.389  1.00  0.00    -0.137 C  
HETATM   16  H   UNL     1     -11.520   6.465  68.703  1.00  0.00     0.000 HD 
HETATM   17  O   UNL     1      -8.784   6.226  70.294  1.00  0.00    -0.139 OA 
BRANCH  15  18
HETATM   18  C   UNL     1      -9.319   5.407  68.152  1.00  0.00    -0.131 A  
HETATM   19  C   UNL     1      -9.433   4.040  67.998  1.00  0.00    -0.165 A  
HETATM   20  C   UNL     1      -9.840   2.918  68.869  1.00  0.00     0.302 C  
HETATM   21  O   UNL     1      -9.116   3.705  66.724  1.00  0.00    -0.140 OA 
HETATM   22  N   UNL     1      -8.754   4.830  66.022  1.00  0.00    -0.116 NA 
HETATM   23  C   UNL     1      -8.860   5.868  66.867  1.00  0.00    -0.115 A  
BRANCH  23  24
HETATM   24  C   UNL     1      -8.581   7.235  66.399  1.00  0.00    -0.141 A  
HETATM   25  C   UNL     1      -7.260   7.605  66.090  1.00  0.00    -0.070 A  
HETATM   26  C   UNL     1      -6.962   8.808  65.447  1.00  0.00    -0.076 A  
HETATM   27  F   UNL     1      -6.229   6.795  66.374  1.00  0.00    -0.037 F  
HETATM   28  C   UNL     1      -7.988   9.660  65.061  1.00  0.00    -0.122 A  
HETATM   29  C   UNL     1      -9.296   9.359  65.428  1.00  0.00    -0.311 A  
HETATM   30  C   UNL     1      -9.581   8.192  66.152  1.00  0.00    -0.118 A  
HETATM   31 CL   UNL     1     -11.196   8.057  66.764  1.00  0.00     0.665 Cl 
ENDBRANCH  23  24
ENDBRANCH  15  18
ENDBRANCH  12  14
TORSDOF 3
ENDMDL
MODEL      235
REMARK 921   NORMALIZED FREE ENERGY PREDICTED BY IDOCK:   17.31 KCAL/MOL
REMARK 922        TOTAL FREE ENERGY PREDICTED BY IDOCK:   18.99 KCAL/MOL
REMARK 923 INTER-LIGAND FREE ENERGY PREDICTED BY IDOCK:   11.51 KCAL/MOL
REMARK 924 INTRA-LIGAND FREE ENERGY PREDICTED BY IDOCK:    7.48 KCAL/MOL
REMARK 927      BINDING AFFINITY PREDICTED BY RF-SCORE:    0.00 PKD
ROOT
HETATM    1  C   UNL     1      -6.492   7.591  70.515  1.00  0.00    -0.038 C  
HETATM    2  S   UNL     1      -7.221   9.271  70.254  1.00  0.00    -0.102 SA 
HETATM    3  C   UNL     1      -8.572   9.021  71.497  1.00  0.00    -0.041 C  
HETATM    4  C   UNL     1      -8.931  10.359  72.150  1.00  0.00     7.399 C  
HETATM    5  CA  UNL     1      -8.034   7.927  72.451  1.00  0.00    -0.117 C  
HETATM    6  C   UNL     1      -9.838   8.548  70.748  1.00  0.00    -0.220 C  
HETATM    7  N   UNL     1      -7.236   6.992  71.641  1.00  0.00    -0.077 N  
HETATM    8  C   UNL     1      -7.114   8.387  73.599  1.00  0.00    -0.084 C  
HETATM    9  OXT UNL     1      -7.236   9.411  74.250  1.00  0.00    -0.108 OA 
HETATM   10  O   UNL     1      -6.190   7.445  73.936  1.00  0.00    -0.070 OA 
HETATM   11  C   UNL     1      -7.856   6.048  70.867  1.00  0.00    -0.107 C  
HETATM   12  CA  UNL     1      -7.065   6.475  69.594  1.00  0.00    -0.072 C  
HETATM   13  O   UNL     1      -8.789   5.341  71.162  1.00  0.00    -0.131 OA 
ENDROOT
BRANCH  12  14
HETATM   14  N   UNL     1      -7.838   6.989  68.438  1.00  0.00    -0.120 N  
HETATM   15  C   UNL     1      -8.065   8.327  68.235  1.00  0.00    -0.124 C  
HETATM   16  H   UNL     1      -8.218   6.321  67.768  1.00  0.00     0.000 HD 
HETATM   17  O   UNL     1      -7.563   9.201  68.930  1.00  0.00    -0.074 OA 
BRANCH  15  18
HETATM   18  C   UNL     1      -8.950   8.625  67.116  1.00  0.00    -0.148 A  
HETATM   19  C   UNL     1      -8.871   8.023  65.876  1.00  0.00    -0.153 A  
HETATM   20  C   UNL     1      -8.014   6.984  65.269  1.00  0.00    -0.127 C  
HETATM   21  O   UNL     1      -9.851   8.512  65.078  1.00  0.00     0.793 OA 
HETATM   22  N   UNL     1     -10.572   9.466  65.755  1.00  0.00     0.416 NA 
HETATM   23  C   UNL     1     -10.040   9.558  66.985  1.00  0.00    -0.234 A  
BRANCH  23  24
HETATM   24  C   UNL     1     -10.624  10.473  67.978  1.00  0.00    -0.251 A  
HETATM   25  C   UNL     1     -11.945  10.271  68.413  1.00  0.00     0.664 A  
HETATM   26  C   UNL     1     -12.480  10.969  69.498  1.00  0.00    -0.148 A  
HETATM   27  F   UNL     1     -12.741   9.369  67.819  1.00  0.00     4.442 F  
HETATM   28  C   UNL     1     -11.688  11.866  70.203  1.00  0.00    -0.337 A  
HETATM   29  C   UNL     1     -10.405  12.147  69.744  1.00  0.00     1.015 A  
HETATM   30  C   UNL     1      -9.903  11.508  68.600  1.00  0.00    -0.177 A  
HETATM   31 CL   UNL     1      -8.404  12.122  67.988  1.00  0.00    -0.159 Cl 
ENDBRANCH  23  24
ENDBRANCH  15  18
ENDBRANCH  12  14
TORSDOF 3
ENDMDL
MODEL      236
REMARK 921   NORMALIZED FREE ENERGY PREDICTED BY IDOCK:   18.20 KCAL/MOL
REMARK 922        TOTAL FREE ENERGY PREDICTED BY IDOCK:   20.03 KCAL/MOL
REMARK 923 INTER-LIGAND FREE ENERGY PREDICTED BY IDOCK:    7.16 KCAL/MOL
REMARK 924 INTRA-LIGAND FREE ENERGY PREDICTED BY IDOCK:   12.88 KCAL/MOL
REMARK 927      BINDING AFFINITY PREDICTED BY RF-SCORE:    0.00 PKD
ROOT
HETATM    1  C   UNL     1     -10.649   7.238  71.911  1.00  0.00    -0.212 C  
HETATM    2  S   UNL     1      -9.110   6.294  71.508  1.00  0.00    -0.144 SA 
HETATM    3  C   UNL     1      -8.186   7.793  70.931  1.00  0.00    -0.107 C  
HETATM    4  C   UNL     1      -6.692   7.626  71.223  1.00  0.00    -0.048 C  
HETATM    5  CA  UNL     1      -8.883   8.983  71.635  1.00  0.00    -0.042 C  
HETATM    6  C   UNL     1      -8.322   7.885  69.394  1.00  0.00    -0.132 C  
HETATM    7  N   UNL     1     -10.318   8.664  71.718  1.00  0.00    -0.287 N  
HETATM    8  C   UNL     1      -8.436   9.307  73.074  1.00  0.00     1.868 C  
HETATM    9  OXT UNL     1      -7.295   9.247  73.502  1.00  0.00     0.029 OA 
HETATM   10  O   UNL     1      -9.445   9.823  73.829  1.00  0.00     5.029 OA 
HETATM   11  C   UNL     1     -11.121   8.811  70.619  1.00  0.00    -0.246 C  
HETATM   12  CA  UNL     1     -11.672   7.358  70.744  1.00  0.00    -0.276 C  
HETATM   13  O   UNL     1     -11.145   9.727  69.833  1.00  0.00    -0.240 OA 
ENDROOT
BRANCH  12  14
HETATM   14  N   UNL     1     -11.416   6.422  69.623  1.00  0.00    -0.563 N  
HETATM   15  C   UNL     1     -10.152   6.124  69.181  1.00  0.00    -0.170 C  
HETATM   16  H   UNL     1     -12.212   5.982  69.161  1.00  0.00     0.000 HD 
HETATM   17  O   UNL     1      -9.139   6.527  69.739  1.00  0.00    -0.141 OA 
BRANCH  15  18
HETATM   18  C   UNL     1     -10.112   5.284  67.991  1.00  0.00    -0.208 A  
HETATM   19  C   UNL     1     -11.023   5.352  66.956  1.00  0.00     0.162 A  
HETATM   20  C   UNL     1     -12.210   6.179  66.658  1.00  0.00     3.805 C  
HETATM   21  O   UNL     1     -10.685   4.451  66.002  1.00  0.00    -0.149 OA 
HETATM   22  N   UNL     1      -9.572   3.747  66.398  1.00  0.00    -0.186 NA 
HETATM   23  C   UNL     1      -9.214   4.226  67.600  1.00  0.00    -0.149 A  
BRANCH  23  24
HETATM   24  C   UNL     1      -8.019   3.703  68.280  1.00  0.00    -0.071 A  
HETATM   25  C   UNL     1      -8.034   2.397  68.799  1.00  0.00    -0.052 A  
HETATM   26  C   UNL     1      -6.873   1.774  69.263  1.00  0.00    -0.033 A  
HETATM   27  F   UNL     1      -9.166   1.679  68.839  1.00  0.00    -0.125 F  
HETATM   28  C   UNL     1      -5.654   2.433  69.185  1.00  0.00    -0.021 A  
HETATM   29  C   UNL     1      -5.624   3.757  68.754  1.00  0.00    -0.017 A  
HETATM   30  C   UNL     1      -6.806   4.408  68.372  1.00  0.00    -0.051 A  
HETATM   31 CL   UNL     1      -6.675   6.113  68.100  1.00  0.00    -0.062 Cl 
ENDBRANCH  23  24
ENDBRANCH  15  18
ENDBRANCH  12  14
TORSDOF 3
ENDMDL
MODEL      237
REMARK 921   NORMALIZED FREE ENERGY PREDICTED BY IDOCK:   21.06 KCAL/MOL
REMARK 922        TOTAL FREE ENERGY PREDICTED BY IDOCK:   23.39 KCAL/MOL
REMARK 923 INTER-LIGAND FREE ENERGY PREDICTED BY IDOCK:   13.37 KCAL/MOL
REMARK 924 INTRA-LIGAND FREE ENERGY PREDICTED BY IDOCK:   10.01 KCAL/MOL
REMARK 927      BINDING AFFINITY PREDICTED BY RF-SCORE:    0.00 PKD
ROOT
HETATM    1  C   UNL     1     -11.735  14.768  72.084  1.00  0.00    -0.154 C  
HETATM    2  S   UNL     1     -10.359  15.954  71.735  1.00  0.00     2.522 SA 
HETATM    3  C   UNL     1     -11.496  17.382  71.418  1.00  0.00     1.930 C  
HETATM    4  C   UNL     1     -10.816  18.690  71.835  1.00  0.00     3.517 C  
HETATM    5  CA  UNL     1     -12.799  17.026  72.175  1.00  0.00     3.346 C  
HETATM    6  C   UNL     1     -11.735  17.482  69.894  1.00  0.00     3.118 C  
HETATM    7  N   UNL     1     -12.976  15.568  72.081  1.00  0.00    -0.391 N  
HETATM    8  C   UNL     1     -12.852  17.365  73.677  1.00  0.00     2.037 C  
HETATM    9  OXT UNL     1     -12.383  18.359  74.206  1.00  0.00     1.608 OA 
HETATM   10  O   UNL     1     -13.624  16.492  74.381  1.00  0.00     0.344 OA 
HETATM   11  C   UNL     1     -13.460  15.005  70.931  1.00  0.00    -0.349 C  
HETATM   12  CA  UNL     1     -12.273  14.000  70.843  1.00  0.00    -0.362 C  
HETATM   13  O   UNL     1     -14.384  15.381  70.250  1.00  0.00     0.521 OA 
ENDROOT
BRANCH  12  14
HETATM   14  N   UNL     1     -11.385  14.079  69.658  1.00  0.00    -0.365 N  
HETATM   15  C   UNL     1     -10.391  15.016  69.538  1.00  0.00    -0.220 C  
HETATM   16  H   UNL     1     -11.520  13.409  68.900  1.00  0.00     0.000 HD 
HETATM   17  O   UNL     1     -10.094  15.791  70.439  1.00  0.00    -0.115 OA 
BRANCH  15  18
HETATM   18  C   UNL     1      -9.711  15.013  68.249  1.00  0.00    -0.215 A  
HETATM   19  C   UNL     1      -9.354  13.872  67.558  1.00  0.00    -0.217 A  
HETATM   20  C   UNL     1      -9.504  12.420  67.785  1.00  0.00    -0.199 C  
HETATM   21  O   UNL     1      -8.761  14.223  66.392  1.00  0.00    -0.075 OA 
HETATM   22  N   UNL     1      -8.680  15.592  66.302  1.00  0.00    -0.300 NA 
HETATM   23  C   UNL     1      -9.239  16.090  67.417  1.00  0.00    -0.208 A  
BRANCH  23  24
HETATM   24  C   UNL     1      -9.348  17.545  67.605  1.00  0.00    -0.244 A  
HETATM   25  C   UNL     1     -10.419  18.241  67.017  1.00  0.00    -0.385 A  
HETATM   26  C   UNL     1     -10.693  19.574  67.330  1.00  0.00    -0.604 A  
HETATM   27  F   UNL     1     -11.246  17.637  66.150  1.00  0.00     0.046 F  
HETATM   28  C   UNL     1      -9.920  20.238  68.273  1.00  0.00    -0.372 A  
HETATM   29  C   UNL     1      -8.804  19.600  68.808  1.00  0.00    -0.292 A  
HETATM   30  C   UNL     1      -8.481  18.290  68.423  1.00  0.00    -0.303 A  
HETATM   31 CL   UNL     1      -6.942  17.703  68.959  1.00  0.00    -0.244 Cl 
ENDBRANCH  23  24
ENDBRANCH  15  18
ENDBRANCH  12  14
TORSDOF 3
ENDMDL
MODEL      238
REMARK 921   NORMALIZED FREE ENERGY PREDICTED BY IDOCK:   21.28 KCAL/MOL
REMARK 922        TOTAL FREE ENERGY PREDICTED BY IDOCK:   23.65 KCAL/MOL
REMARK 923 INTER-LIGAND FREE ENERGY PREDICTED BY IDOCK:   16.65 KCAL/MOL
REMARK 924 INTRA-LIGAND FREE ENERGY PREDICTED BY IDOCK:    7.00 KCAL/MOL
REMARK 927      BINDING AFFINITY PREDICTED BY RF-SCORE:    0.00 PKD
ROOT
HETATM    1  C   UNL     1      -8.213  13.366  69.469  1.00  0.00     1.103 C  
HETATM    2  S   UNL     1      -7.676  14.722  68.331  1.00  0.00    -0.131 SA 
HETATM    3  C   UNL     1      -8.036  16.067  69.554  1.00  0.00    -0.043 C  
HETATM    4  C   UNL     1      -7.064  17.232  69.346  1.00  0.00    -0.076 C  
HETATM    5  CA  UNL     1      -7.972  15.372  70.937  1.00  0.00     2.345 C  
HETATM    6  C   UNL     1      -9.449  16.621  69.263  1.00  0.00    -0.127 C  
HETATM    7  N   UNL     1      -8.498  14.009  70.767  1.00  0.00     3.573 N  
HETATM    8  C   UNL     1      -6.579  15.214  71.578  1.00  0.00     1.240 C  
HETATM    9  OXT UNL     1      -5.672  16.028  71.536  1.00  0.00     0.350 OA 
HETATM   10  O   UNL     1      -6.485  14.096  72.350  1.00  0.00     0.316 OA 
HETATM   11  C   UNL     1      -9.849  13.795  70.694  1.00  0.00     3.865 C  
HETATM   12  CA  UNL     1      -9.718  12.983  69.371  1.00  0.00     0.978 C  
HETATM   13  O   UNL     1     -10.716  14.282  71.380  1.00  0.00     1.296 OA 
ENDROOT
BRANCH  12  14
HETATM   14  N   UNL     1     -10.395  13.513  68.163  1.00  0.00    -0.240 N  
HETATM   15  C   UNL     1     -10.498  12.797  66.998  1.00  0.00    -0.237 C  
HETATM   16  H   UNL     1     -10.800  14.448  68.201  1.00  0.00     0.000 HD 
HETATM   17  O   UNL     1     -10.132  11.633  66.896  1.00  0.00    -0.206 OA 
BRANCH  15  18
HETATM   18  C   UNL     1     -11.086  13.535  65.888  1.00  0.00    -0.292 A  
HETATM   19  C   UNL     1     -11.963  12.994  64.968  1.00  0.00    -0.397 A  
HETATM   20  C   UNL     1     -12.585  11.669  64.769  1.00  0.00     0.730 C  
HETATM   21  O   UNL     1     -12.333  13.952  64.085  1.00  0.00    -0.614 OA 
HETATM   22  N   UNL     1     -11.688  15.130  64.376  1.00  0.00    -0.353 NA 
HETATM   23  C   UNL     1     -10.922  14.899  65.455  1.00  0.00    -0.350 A  
BRANCH  23  24
HETATM   24  C   UNL     1     -10.129  15.988  66.048  1.00  0.00    -0.362 A  
HETATM   25  C   UNL     1      -9.038  16.516  65.336  1.00  0.00     0.829 A  
HETATM   26  C   UNL     1      -8.382  17.680  65.746  1.00  0.00     0.205 A  
HETATM   27  F   UNL     1      -8.599  15.937  64.209  1.00  0.00     4.507 F  
HETATM   28  C   UNL     1      -8.831  18.370  66.864  1.00  0.00    -0.281 A  
HETATM   29  C   UNL     1      -9.855  17.825  67.634  1.00  0.00    -0.299 A  
HETATM   30  C   UNL     1     -10.451  16.609  67.267  1.00  0.00    -0.313 A  
HETATM   31 CL   UNL     1     -11.529  15.915  68.431  1.00  0.00    -0.367 Cl 
ENDBRANCH  23  24
ENDBRANCH  15  18
ENDBRANCH  12  14
TORSDOF 3
ENDMDL
MODEL      239
REMARK 921   NORMALIZED FREE ENERGY PREDICTED BY IDOCK:   21.87 KCAL/MOL
REMARK 922        TOTAL FREE ENERGY PREDICTED BY IDOCK:   24.34 KCAL/MOL
REMARK 923 INTER-LIGAND FREE ENERGY PREDICTED BY IDOCK:   12.12 KCAL/MOL
REMARK 924 INTRA-LIGAND FREE ENERGY PREDICTED BY IDOCK:   12.22 KCAL/MOL
REMARK 927      BINDING AFFINITY PREDICTED BY RF-SCORE:    0.00 PKD
ROOT
HETATM    1  C   UNL     1     -11.540  13.633  71.786  1.00  0.00     1.705 C  
HETATM    2  S   UNL     1     -10.775  15.309  71.956  1.00  0.00     1.219 SA 
HETATM    3  C   UNL     1     -12.358  16.210  71.615  1.00  0.00    -0.293 C  
HETATM    4  C   UNL     1     -12.376  17.536  72.380  1.00  0.00     3.699 C  
HETATM    5  CA  UNL     1     -13.474  15.201  71.984  1.00  0.00    -0.421 C  
HETATM    6  C   UNL     1     -12.396  16.572  70.113  1.00  0.00     1.285 C  
HETATM    7  N   UNL     1     -12.989  13.859  71.623  1.00  0.00    -0.336 N  
HETATM    8  C   UNL     1     -13.883  15.121  73.468  1.00  0.00     1.052 C  
HETATM    9  OXT UNL     1     -13.968  16.060  74.242  1.00  0.00     0.849 OA 
HETATM   10  O   UNL     1     -14.295  13.873  73.828  1.00  0.00     3.428 OA 
HETATM   11  C   UNL     1     -13.013  13.446  70.318  1.00  0.00     0.251 C  
HETATM   12  CA  UNL     1     -11.510  13.039  70.349  1.00  0.00     0.330 C  
HETATM   13  O   UNL     1     -13.901  13.583  69.511  1.00  0.00     3.072 OA 
ENDROOT
BRANCH  12  14
HETATM   14  N   UNL     1     -10.583  13.741  69.428  1.00  0.00    -0.441 N  
HETATM   15  C   UNL     1     -10.374  15.096  69.479  1.00  0.00    -0.243 C  
HETATM   16  H   UNL     1     -10.082  13.195  68.728  1.00  0.00     0.000 HD 
HETATM   17  O   UNL     1     -10.855  15.812  70.349  1.00  0.00    -0.312 OA 
BRANCH  15  18
HETATM   18  C   UNL     1      -9.526  15.616  68.414  1.00  0.00    -0.196 A  
HETATM   19  C   UNL     1      -8.945  16.868  68.420  1.00  0.00    -0.244 A  
HETATM   20  C   UNL     1      -8.925  18.009  69.359  1.00  0.00     0.439 C  
HETATM   21  O   UNL     1      -8.207  17.024  67.296  1.00  0.00    -0.179 OA 
HETATM   22  N   UNL     1      -8.310  15.902  66.509  1.00  0.00    -0.289 NA 
HETATM   23  C   UNL     1      -9.110  15.041  67.160  1.00  0.00    -0.215 A  
BRANCH  23  24
HETATM   24  C   UNL     1      -9.386  13.712  66.593  1.00  0.00    -0.265 A  
HETATM   25  C   UNL     1      -8.735  12.584  67.124  1.00  0.00    -0.200 A  
HETATM   26  C   UNL     1      -9.108  11.285  66.775  1.00  0.00    -0.181 A  
HETATM   27  F   UNL     1      -7.744  12.712  68.019  1.00  0.00    -0.100 F  
HETATM   28  C   UNL     1     -10.174  11.079  65.909  1.00  0.00    -0.309 A  
HETATM   29  C   UNL     1     -10.781  12.176  65.304  1.00  0.00    -0.328 A  
HETATM   30  C   UNL     1     -10.343  13.478  65.590  1.00  0.00    -0.297 A  
HETATM   31 CL   UNL     1     -11.000  14.733  64.594  1.00  0.00    -0.366 Cl 
ENDBRANCH  23  24
ENDBRANCH  15  18
ENDBRANCH  12  14
TORSDOF 3
ENDMDL
MODEL      240
REMARK 921   NORMALIZED FREE ENERGY PREDICTED BY IDOCK:   23.42 KCAL/MOL
REMARK 922        TOTAL FREE ENERGY PREDICTED BY IDOCK:   26.16 KCAL/MOL
REMARK 923 INTER-LIGAND FREE ENERGY PREDICTED BY IDOCK:   27.57 KCAL/MOL
REMARK 924 INTRA-LIGAND FREE ENERGY PREDICTED BY IDOCK:   -1.41 KCAL/MOL
REMARK 927      BINDING AFFINITY PREDICTED BY RF-SCORE:    0.00 PKD
ROOT
HETATM    1  C   UNL     1     -10.676   9.060  65.869  1.00  0.00     1.330 C  
HETATM    2  S   UNL     1      -9.855  10.344  66.918  1.00  0.00    -0.199 SA 
HETATM    3  C   UNL     1      -8.161   9.623  66.704  1.00  0.00    -0.120 C  
HETATM    4  C   UNL     1      -7.113  10.738  66.749  1.00  0.00    -0.127 C  
HETATM    5  CA  UNL     1      -8.238   8.820  65.382  1.00  0.00    -0.136 C  
HETATM    6  C   UNL     1      -7.870   8.703  67.911  1.00  0.00    -0.103 C  
HETATM    7  N   UNL     1      -9.588   8.241  65.298  1.00  0.00     0.545 N  
HETATM    8  C   UNL     1      -8.029   9.604  64.072  1.00  0.00    -0.140 C  
HETATM    9  OXT UNL     1      -7.238  10.517  63.899  1.00  0.00    -0.030 OA 
HETATM   10  O   UNL     1      -8.735   9.078  63.032  1.00  0.00    -0.199 OA 
HETATM   11  C   UNL     1      -9.906   7.125  66.025  1.00  0.00     0.330 C  
HETATM   12  CA  UNL     1     -11.170   7.800  66.637  1.00  0.00     1.358 C  
HETATM   13  O   UNL     1      -9.248   6.124  66.176  1.00  0.00    -0.161 OA 
ENDROOT
BRANCH  12  14
HETATM   14  N   UNL     1     -11.216   7.975  68.109  1.00  0.00    -0.158 N  
HETATM   15  C   UNL     1     -12.194   8.702  68.738  1.00  0.00     3.336 C  
HETATM   16  H   UNL     1     -10.491   7.536  68.677  1.00  0.00     0.000 HD 
HETATM   17  O   UNL     1     -13.156   9.176  68.147  1.00  0.00     7.634 OA 
BRANCH  15  18
HETATM   18  C   UNL     1     -11.998   8.862  70.173  1.00  0.00     0.328 A  
HETATM   19  C   UNL     1     -12.233   7.873  71.107  1.00  0.00    -0.255 A  
HETATM   20  C   UNL     1     -12.685   6.467  71.054  1.00  0.00     0.085 C  
HETATM   21  O   UNL     1     -11.931   8.343  72.342  1.00  0.00    -0.372 OA 
HETATM   22  N   UNL     1     -11.528   9.654  72.257  1.00  0.00     0.393 NA 
HETATM   23  C   UNL     1     -11.569   9.992  70.957  1.00  0.00    -0.393 A  
BRANCH  23  24
HETATM   24  C   UNL     1     -11.149  11.334  70.527  1.00  0.00     0.489 A  
HETATM   25  C   UNL     1     -12.108  12.236  70.034  1.00  0.00    -0.273 A  
HETATM   26  C   UNL     1     -11.811  13.581  69.810  1.00  0.00    -0.395 A  
HETATM   27  F   UNL     1     -13.367  11.842  69.787  1.00  0.00     0.686 F  
HETATM   28  C   UNL     1     -10.547  14.071  70.112  1.00  0.00     0.676 A  
HETATM   29  C   UNL     1      -9.555  13.185  70.522  1.00  0.00     5.405 A  
HETATM   30  C   UNL     1      -9.835  11.817  70.660  1.00  0.00     5.038 A  
HETATM   31 CL   UNL     1      -8.468  10.789  70.928  1.00  0.00     3.002 Cl 
ENDBRANCH  23  24
ENDBRANCH  15  18
ENDBRANCH  12  14
TORSDOF 3
ENDMDL
MODEL      241
REMARK 921   NORMALIZED FREE ENERGY PREDICTED BY IDOCK:   26.02 KCAL/MOL
REMARK 922        TOTAL FREE ENERGY PREDICTED BY IDOCK:   29.22 KCAL/MOL
REMARK 923 INTER-LIGAND FREE ENERGY PREDICTED BY IDOCK:   20.59 KCAL/MOL
REMARK 924 INTRA-LIGAND FREE ENERGY PREDICTED BY IDOCK:    8.63 KCAL/MOL
REMARK 927      BINDING AFFINITY PREDICTED BY RF-SCORE:    0.00 PKD
ROOT
HETATM    1  C   UNL     1     -10.711  14.237  68.051  1.00  0.00    -0.238 C  
HETATM    2  S   UNL     1      -9.724  13.083  66.994  1.00  0.00    -0.242 SA 
HETATM    3  C   UNL     1     -11.215  12.361  66.163  1.00  0.00    -0.322 C  
HETATM    4  C   UNL     1     -10.862  11.947  64.732  1.00  0.00    -0.359 C  
HETATM    5  CA  UNL     1     -12.310  13.447  66.302  1.00  0.00    -0.349 C  
HETATM    6  C   UNL     1     -11.605  11.065  66.909  1.00  0.00     0.217 C  
HETATM    7  N   UNL     1     -12.111  14.106  67.603  1.00  0.00    -0.358 N  
HETATM    8  C   UNL     1     -12.317  14.574  65.251  1.00  0.00    -0.300 C  
HETATM    9  OXT UNL     1     -12.075  14.449  64.062  1.00  0.00    -0.430 OA 
HETATM   10  O   UNL     1     -12.771  15.755  65.756  1.00  0.00     1.523 OA 
HETATM   11  C   UNL     1     -12.533  13.498  68.755  1.00  0.00     0.282 C  
HETATM   12  CA  UNL     1     -11.139  13.661  69.431  1.00  0.00    -0.141 C  
HETATM   13  O   UNL     1     -13.579  12.928  68.955  1.00  0.00     3.333 OA 
ENDROOT
BRANCH  12  14
HETATM   14  N   UNL     1     -10.410  12.429  69.820  1.00  0.00     0.318 N  
HETATM   15  C   UNL     1     -10.734  11.191  69.328  1.00  0.00    -0.199 C  
HETATM   16  H   UNL     1      -9.637  12.506  70.480  1.00  0.00     0.000 HD 
HETATM   17  O   UNL     1     -11.579  11.019  68.457  1.00  0.00    -0.287 OA 
BRANCH  15  18
HETATM   18  C   UNL     1      -9.986  10.091  69.923  1.00  0.00    -0.280 A  
HETATM   19  C   UNL     1      -9.625  10.022  71.253  1.00  0.00     1.476 A  
HETATM   20  C   UNL     1      -9.827  10.880  72.439  1.00  0.00    11.751 C  
HETATM   21  O   UNL     1      -8.960   8.863  71.477  1.00  0.00    -0.222 OA 
HETATM   22  N   UNL     1      -8.836   8.161  70.302  1.00  0.00    -0.140 NA 
HETATM   23  C   UNL     1      -9.440   8.887  69.348  1.00  0.00    -0.161 A  
BRANCH  23  24
HETATM   24  C   UNL     1      -9.518   8.380  67.969  1.00  0.00    -0.157 A  
HETATM   25  C   UNL     1      -8.333   8.092  67.269  1.00  0.00    -0.122 A  
HETATM   26  C   UNL     1      -8.344   7.416  66.047  1.00  0.00    -0.143 A  
HETATM   27  F   UNL     1      -7.134   8.429  67.767  1.00  0.00    -0.075 F  
HETATM   28  C   UNL     1      -9.545   6.975  65.509  1.00  0.00     0.722 A  
HETATM   29  C   UNL     1     -10.739   7.320  66.138  1.00  0.00     1.213 A  
HETATM   30  C   UNL     1     -10.728   8.076  67.320  1.00  0.00    -0.210 A  
HETATM   31 CL   UNL     1     -12.268   8.651  67.863  1.00  0.00     4.492 Cl 
ENDBRANCH  23  24
ENDBRANCH  15  18
ENDBRANCH  12  14
TORSDOF 3
ENDMDL
MODEL      242
REMARK 921   NORMALIZED FREE ENERGY PREDICTED BY IDOCK:   26.68 KCAL/MOL
REMARK 922        TOTAL FREE ENERGY PREDICTED BY IDOCK:   29.99 KCAL/MOL
REMARK 923 INTER-LIGAND FREE ENERGY PREDICTED BY IDOCK:   31.24 KCAL/MOL
REMARK 924 INTRA-LIGAND FREE ENERGY PREDICTED BY IDOCK:   -1.25 KCAL/MOL
REMARK 927      BINDING AFFINITY PREDICTED BY RF-SCORE:    0.00 PKD
ROOT
HETATM    1  C   UNL     1      -9.204  14.941  68.690  1.00  0.00    -0.193 C  
HETATM    2  S   UNL     1      -8.427  15.415  67.080  1.00  0.00    -0.249 SA 
HETATM    3  C   UNL     1      -7.168  14.056  67.137  1.00  0.00     0.245 C  
HETATM    4  C   UNL     1      -6.829  13.603  65.715  1.00  0.00     6.944 C  
HETATM    5  CA  UNL     1      -7.791  12.980  68.060  1.00  0.00    -0.146 C  
HETATM    6  C   UNL     1      -5.863  14.629  67.735  1.00  0.00    -0.099 C  
HETATM    7  N   UNL     1      -8.550  13.684  69.106  1.00  0.00     0.343 N  
HETATM    8  C   UNL     1      -8.777  11.988  67.414  1.00  0.00    -0.170 C  
HETATM    9  OXT UNL     1      -8.681  11.502  66.299  1.00  0.00    -0.185 OA 
HETATM   10  O   UNL     1      -9.740  11.570  68.282  1.00  0.00    -0.185 OA 
HETATM   11  C   UNL     1      -7.897  14.252  70.167  1.00  0.00     1.009 C  
HETATM   12  CA  UNL     1      -8.591  15.629  69.944  1.00  0.00     0.238 C  
HETATM   13  O   UNL     1      -7.000  13.783  70.826  1.00  0.00     0.617 OA 
ENDROOT
BRANCH  12  14
HETATM   14  N   UNL     1      -7.731  16.795  69.629  1.00  0.00     0.255 N  
HETATM   15  C   UNL     1      -8.237  17.992  69.190  1.00  0.00     0.105 C  
HETATM   16  H   UNL     1      -6.722  16.703  69.742  1.00  0.00     0.000 HD 
HETATM   17  O   UNL     1      -9.438  18.223  69.122  1.00  0.00    -0.167 OA 
BRANCH  15  18
HETATM   18  C   UNL     1      -7.227  18.972  68.814  1.00  0.00    -0.358 A  
HETATM   19  C   UNL     1      -6.403  19.626  69.709  1.00  0.00    -0.331 A  
HETATM   20  C   UNL     1      -6.217  19.598  71.174  1.00  0.00     0.028 C  
HETATM   21  O   UNL     1      -5.570  20.450  69.029  1.00  0.00    -0.249 OA 
HETATM   22  N   UNL     1      -5.845  20.388  67.684  1.00  0.00    -0.206 NA 
HETATM   23  C   UNL     1      -6.848  19.508  67.532  1.00  0.00    -0.215 A  
BRANCH  23  24
HETATM   24  C   UNL     1      -7.350  19.183  66.187  1.00  0.00    -0.291 A  
HETATM   25  C   UNL     1      -6.509  18.520  65.276  1.00  0.00    -0.195 A  
HETATM   26  C   UNL     1      -6.988  18.000  64.072  1.00  0.00     5.955 A  
HETATM   27  F   UNL     1      -5.208  18.331  65.544  1.00  0.00    -0.162 F  
HETATM   28  C   UNL     1      -8.339  18.098  63.765  1.00  0.00    13.918 A  
HETATM   29  C   UNL     1      -9.178  18.821  64.608  1.00  0.00     5.283 A  
HETATM   30  C   UNL     1      -8.673  19.418  65.773  1.00  0.00     0.182 A  
HETATM   31 CL   UNL     1      -9.750  20.493  66.599  1.00  0.00    -0.481 Cl 
ENDBRANCH  23  24
ENDBRANCH  15  18
ENDBRANCH  12  14
TORSDOF 3
ENDMDL
MODEL      243
REMARK 921   NORMALIZED FREE ENERGY PREDICTED BY IDOCK:   31.33 KCAL/MOL
REMARK 922        TOTAL FREE ENERGY PREDICTED BY IDOCK:   35.46 KCAL/MOL
REMARK 923 INTER-LIGAND FREE ENERGY PREDICTED BY IDOCK:   36.83 KCAL/MOL
REMARK 924 INTRA-LIGAND FREE ENERGY PREDICTED BY IDOCK:   -1.37 KCAL/MOL
REMARK 927      BINDING AFFINITY PREDICTED BY RF-SCORE:    0.00 PKD
ROOT
HETATM    1  C   UNL     1     -10.700   9.219  66.155  1.00  0.00     0.535 C  
HETATM    2  S   UNL     1      -9.455  10.570  66.367  1.00  0.00    -0.178 SA 
HETATM    3  C   UNL     1      -8.009   9.477  65.981  1.00  0.00    -0.107 C  
HETATM    4  C   UNL     1      -6.905  10.295  65.307  1.00  0.00    -0.131 C  
HETATM    5  CA  UNL     1      -8.602   8.320  65.140  1.00  0.00    -0.105 C  
HETATM    6  C   UNL     1      -7.420   8.964  67.315  1.00  0.00    -0.084 C  
HETATM    7  N   UNL     1      -9.952   8.047  65.660  1.00  0.00     0.661 N  
HETATM    8  C   UNL     1      -8.771   8.567  63.628  1.00  0.00     0.197 C  
HETATM    9  OXT UNL     1      -8.000   9.183  62.910  1.00  0.00    -0.128 OA 
HETATM   10  O   UNL     1      -9.832   7.892  63.105  1.00  0.00     3.616 OA 
HETATM   11  C   UNL     1     -10.113   7.325  66.812  1.00  0.00    -0.221 C  
HETATM   12  CA  UNL     1     -11.026   8.416  67.447  1.00  0.00     0.173 C  
HETATM   13  O   UNL     1      -9.542   6.313  67.142  1.00  0.00    -0.125 OA 
ENDROOT
BRANCH  12  14
HETATM   14  N   UNL     1     -10.559   9.070  68.694  1.00  0.00    -0.334 N  
HETATM   15  C   UNL     1     -11.165  10.182  69.219  1.00  0.00    -0.196 C  
HETATM   16  H   UNL     1      -9.753   8.676  69.180  1.00  0.00     0.000 HD 
HETATM   17  O   UNL     1     -12.196  10.659  68.759  1.00  0.00    -0.381 OA 
BRANCH  15  18
HETATM   18  C   UNL     1     -10.486  10.750  70.376  1.00  0.00     0.493 A  
HETATM   19  C   UNL     1     -10.556  10.232  71.654  1.00  0.00     1.905 A  
HETATM   20  C   UNL     1     -11.222   9.070  72.278  1.00  0.00    -0.160 C  
HETATM   21  O   UNL     1      -9.794  10.984  72.484  1.00  0.00    10.117 OA 
HETATM   22  N   UNL     1      -9.235  12.029  71.787  1.00  0.00    15.085 NA 
HETATM   23  C   UNL     1      -9.646  11.913  70.514  1.00  0.00     5.172 A  
BRANCH  23  24
HETATM   24  C   UNL     1      -9.180  12.866  69.495  1.00  0.00     1.570 A  
HETATM   25  C   UNL     1     -10.098  13.747  68.899  1.00  0.00    -0.066 A  
HETATM   26  C   UNL     1      -9.686  14.807  68.088  1.00  0.00    -0.217 A  
HETATM   27  F   UNL     1     -11.417  13.624  69.113  1.00  0.00    -0.260 F  
HETATM   28  C   UNL     1      -8.332  15.036  67.883  1.00  0.00    -0.151 A  
HETATM   29  C   UNL     1      -7.405  14.130  68.392  1.00  0.00    -0.115 A  
HETATM   30  C   UNL     1      -7.830  13.016  69.131  1.00  0.00     0.382 A  
HETATM   31 CL   UNL     1      -6.613  11.838  69.491  1.00  0.00    -0.117 Cl 
ENDBRANCH  23  24
ENDBRANCH  15  18
ENDBRANCH  12  14
TORSDOF 3
ENDMDL
MODEL      244
REMARK 921   NORMALIZED FREE ENERGY PREDICTED BY IDOCK:   32.16 KCAL/MOL
REMARK 922        TOTAL FREE ENERGY PREDICTED BY IDOCK:   36.44 KCAL/MOL
REMARK 923 INTER-LIGAND FREE ENERGY PREDICTED BY IDOCK:   35.10 KCAL/MOL
REMARK 924 INTRA-LIGAND FREE ENERGY PREDICTED BY IDOCK:    1.34 KCAL/MOL
REMARK 927      BINDING AFFINITY PREDICTED BY RF-SCORE:    0.00 PKD
ROOT
HETATM    1  C   UNL     1      -8.203  15.848  71.135  1.00  0.00     4.281 C  
HETATM    2  S   UNL     1      -7.785  14.886  72.658  1.00  0.00     7.379 SA 
HETATM    3  C   UNL     1      -6.035  15.492  72.718  1.00  0.00     1.515 C  
HETATM    4  C   UNL     1      -5.561  15.570  74.172  1.00  0.00     2.951 C  
HETATM    5  CA  UNL     1      -6.054  16.832  71.941  1.00  0.00     2.419 C  
HETATM    6  C   UNL     1      -5.135  14.446  72.022  1.00  0.00    -0.182 C  
HETATM    7  N   UNL     1      -7.025  16.689  70.845  1.00  0.00     2.410 N  
HETATM    8  C   UNL     1      -6.477  18.090  72.723  1.00  0.00     4.845 C  
HETATM    9  OXT UNL     1      -6.194  18.344  73.882  1.00  0.00     6.123 OA 
HETATM   10  O   UNL     1      -7.107  19.006  71.936  1.00  0.00     2.788 OA 
HETATM   11  C   UNL     1      -6.686  16.005  69.708  1.00  0.00    -0.116 C  
HETATM   12  CA  UNL     1      -7.951  15.100  69.794  1.00  0.00    -0.019 C  
HETATM   13  O   UNL     1      -5.656  16.070  69.081  1.00  0.00    -0.109 OA 
ENDROOT
BRANCH  12  14
HETATM   14  N   UNL     1      -7.748  13.639  69.951  1.00  0.00     0.352 N  
HETATM   15  C   UNL     1      -8.680  12.715  69.555  1.00  0.00     1.636 C  
HETATM   16  H   UNL     1      -6.879  13.309  70.372  1.00  0.00     0.000 HD 
HETATM   17  O   UNL     1      -9.702  13.016  68.951  1.00  0.00     0.000 OA 
BRANCH  15  18
HETATM   18  C   UNL     1      -8.352  11.339  69.906  1.00  0.00     1.274 A  
HETATM   19  C   UNL     1      -7.069  10.832  69.960  1.00  0.00    -0.026 A  
HETATM   20  C   UNL     1      -5.716  11.381  69.740  1.00  0.00    -0.088 C  
HETATM   21  O   UNL     1      -7.118   9.532  70.338  1.00  0.00    -0.089 OA 
HETATM   22  N   UNL     1      -8.425   9.143  70.507  1.00  0.00    -0.186 NA 
HETATM   23  C   UNL     1      -9.189  10.215  70.243  1.00  0.00     0.232 A  
BRANCH  23  24
HETATM   24  C   UNL     1     -10.652  10.135  70.379  1.00  0.00    -0.287 A  
HETATM   25  C   UNL     1     -11.209   9.462  71.480  1.00  0.00    -0.386 A  
HETATM   26  C   UNL     1     -12.572   9.532  71.776  1.00  0.00    -0.490 A  
HETATM   27  F   UNL     1     -10.441   8.747  72.316  1.00  0.00    -0.371 F  
HETATM   28  C   UNL     1     -13.411  10.313  70.993  1.00  0.00    -0.172 A  
HETATM   29  C   UNL     1     -12.902  10.922  69.849  1.00  0.00     0.018 A  
HETATM   30  C   UNL     1     -11.550  10.776  69.507  1.00  0.00    -0.303 A  
HETATM   31 CL   UNL     1     -11.098  11.364  67.942  1.00  0.00    -0.295 Cl 
ENDBRANCH  23  24
ENDBRANCH  15  18
ENDBRANCH  12  14
TORSDOF 3
ENDMDL
MODEL      245
REMARK 921   NORMALIZED FREE ENERGY PREDICTED BY IDOCK:   51.64 KCAL/MOL
REMARK 922        TOTAL FREE ENERGY PREDICTED BY IDOCK:   59.33 KCAL/MOL
REMARK 923 INTER-LIGAND FREE ENERGY PREDICTED BY IDOCK:   60.70 KCAL/MOL
REMARK 924 INTRA-LIGAND FREE ENERGY PREDICTED BY IDOCK:   -1.37 KCAL/MOL
REMARK 927      BINDING AFFINITY PREDICTED BY RF-SCORE:    0.00 PKD
ROOT
HETATM    1  C   UNL     1      -9.958   8.313  67.201  1.00  0.00    -0.239 C  
HETATM    2  S   UNL     1      -8.452   9.333  67.539  1.00  0.00    -0.115 SA 
HETATM    3  C   UNL     1      -7.303   8.156  66.685  1.00  0.00    -0.082 C  
HETATM    4  C   UNL     1      -6.134   8.927  66.066  1.00  0.00    -0.052 C  
HETATM    5  CA  UNL     1      -8.201   7.379  65.690  1.00  0.00    -0.137 C  
HETATM    6  C   UNL     1      -6.692   7.217  67.749  1.00  0.00    -0.064 C  
HETATM    7  N   UNL     1      -9.516   7.206  66.329  1.00  0.00    -0.118 N  
HETATM    8  C   UNL     1      -8.475   8.042  64.327  1.00  0.00     0.098 C  
HETATM    9  OXT UNL     1      -7.677   8.688  63.669  1.00  0.00    -0.121 OA 
HETATM   10  O   UNL     1      -9.699   7.717  63.825  1.00  0.00     3.186 OA 
HETATM   11  C   UNL     1      -9.697   6.243  67.285  1.00  0.00    -0.129 C  
HETATM   12  CA  UNL     1     -10.300   7.263  68.296  1.00  0.00    -0.193 C  
HETATM   13  O   UNL     1      -9.309   5.099  67.271  1.00  0.00    -0.116 OA 
ENDROOT
BRANCH  12  14
HETATM   14  N   UNL     1      -9.583   7.475  69.577  1.00  0.00    -0.156 N  
HETATM   15  C   UNL     1     -10.093   8.242  70.593  1.00  0.00    -0.191 C  
HETATM   16  H   UNL     1      -8.673   7.034  69.706  1.00  0.00     0.000 HD 
HETATM   17  O   UNL     1     -11.219   8.725  70.564  1.00  0.00    -0.255 OA 
BRANCH  15  18
HETATM   18  C   UNL     1      -9.187   8.433  71.718  1.00  0.00    -0.287 A  
HETATM   19  C   UNL     1      -8.804   7.434  72.590  1.00  0.00    -0.129 A  
HETATM   20  C   UNL     1      -9.089   5.989  72.718  1.00  0.00    -0.129 C  
HETATM   21  O   UNL     1      -7.942   7.942  73.503  1.00  0.00    -0.143 OA 
HETATM   22  N   UNL     1      -7.763   9.286  73.279  1.00  0.00     0.494 NA 
HETATM   23  C   UNL     1      -8.512   9.607  72.211  1.00  0.00     2.548 A  
BRANCH  23  24
HETATM   24  C   UNL     1      -8.504  10.981  71.685  1.00  0.00     9.003 A  
HETATM   25  C   UNL     1      -9.642  11.790  71.844  1.00  0.00    15.530 A  
HETATM   26  C   UNL     1      -9.622  13.157  71.558  1.00  0.00    12.611 A  
HETATM   27  F   UNL     1     -10.794  11.284  72.310  1.00  0.00     4.212 F  
HETATM   28  C   UNL     1      -8.443  13.760  71.140  1.00  0.00     6.908 A  
HETATM   29  C   UNL     1      -7.325  12.969  70.895  1.00  0.00     4.111 A  
HETATM   30  C   UNL     1      -7.376  11.582  71.099  1.00  0.00     4.776 A  
HETATM   31 CL   UNL     1      -6.013  10.682  70.523  1.00  0.00    -0.120 Cl 
ENDBRANCH  23  24
ENDBRANCH  15  18
ENDBRANCH  12  14
TORSDOF 3
ENDMDL
