MODEL        1
REMARK 921   NORMALIZED FREE ENERGY PREDICTED BY IDOCK:   -7.76 KCAL/MOL
REMARK 922        TOTAL FREE ENERGY PREDICTED BY IDOCK:   -8.09 KCAL/MOL
REMARK 923 INTER-LIGAND FREE ENERGY PREDICTED BY IDOCK:   -8.66 KCAL/MOL
REMARK 924 INTRA-LIGAND FREE ENERGY PREDICTED BY IDOCK:    0.57 KCAL/MOL
REMARK 927      BINDING AFFINITY PREDICTED BY RF-SCORE:    0.00 PKD
ROOT
HETATM    1  N   UNL     1     -11.103   9.101  69.472  1.00  0.00    -0.422 NA 
HETATM    2  C   UNL     1     -11.424  10.448  69.426  1.00  0.00    -0.227 A  
HETATM    3  H2  UNL     1     -11.897   8.584  69.850  1.00  0.00     0.000 HD 
HETATM    4  H1  UNL     1     -10.790   8.646  68.614  1.00  0.00     0.000 HD 
HETATM    5  N   UNL     1     -11.839  11.050  70.560  1.00  0.00    -0.353 NA 
HETATM    6  C   UNL     1     -12.201  12.347  70.502  1.00  0.00    -0.295 A  
HETATM    7  N   UNL     1     -12.224  13.152  69.419  1.00  0.00    -0.206 NA 
HETATM    8  F   UNL     1     -12.602  12.902  71.657  1.00  0.00    -0.392 F  
HETATM    9  C   UNL     1     -11.770  12.521  68.322  1.00  0.00    -0.340 A  
HETATM   10  C   UNL     1     -11.336  11.210  68.250  1.00  0.00    -0.297 A  
HETATM   11  N   UNL     1     -10.886  10.915  66.986  1.00  0.00    -0.272 NA 
HETATM   12  C   UNL     1     -11.055  12.027  66.299  1.00  0.00    -0.317 A  
HETATM   13  N   UNL     1     -11.685  13.000  67.032  1.00  0.00    -0.366 NA 
ENDROOT
BRANCH  13  14
HETATM   14  C1* UNL     1     -12.095  14.319  66.580  1.00  0.00    -0.429 C  
HETATM   15  O4* UNL     1     -13.075  14.181  65.521  1.00  0.00    -0.691 OA 
HETATM   16  C4* UNL     1     -12.396  14.270  64.250  1.00  0.00    -0.377 C  
HETATM   17  H2* UNL     1      -9.082  15.761  66.035  1.00  0.00     0.000 HD 
HETATM   18  C3* UNL     1     -11.213  15.200  64.474  1.00  0.00    -0.272 C  
HETATM   19  C2* UNL     1     -11.067  15.306  65.992  1.00  0.00    -0.278 C  
HETATM   20  O3* UNL     1     -11.473  16.505  63.946  1.00  0.00    -1.608 OA 
HETATM   21  H3* UNL     1     -10.734  17.085  64.086  1.00  0.00     0.000 HD 
HETATM   22  O2* UNL     1      -9.716  15.152  66.397  1.00  0.00    -0.245 OA 
BRANCH  16  23
HETATM   23  C5* UNL     1     -11.941  12.881  63.777  1.00  0.00    -0.512 C  
HETATM   24  O5* UNL     1     -13.069  12.074  63.463  1.00  0.00    -0.764 OA 
HETATM   25  H5* UNL     1     -12.788  11.215  63.170  1.00  0.00     0.000 HD 
ENDBRANCH  16  23
ENDBRANCH  13  14
TORSDOF 2
ENDMDL
MODEL        2
REMARK 921   NORMALIZED FREE ENERGY PREDICTED BY IDOCK:   -7.56 KCAL/MOL
REMARK 922        TOTAL FREE ENERGY PREDICTED BY IDOCK:   -7.87 KCAL/MOL
REMARK 923 INTER-LIGAND FREE ENERGY PREDICTED BY IDOCK:   -7.66 KCAL/MOL
REMARK 924 INTRA-LIGAND FREE ENERGY PREDICTED BY IDOCK:   -0.21 KCAL/MOL
REMARK 927      BINDING AFFINITY PREDICTED BY RF-SCORE:    0.00 PKD
ROOT
HETATM    1  N   UNL     1      -9.551  20.757  66.971  1.00  0.00    -0.681 NA 
HETATM    2  C   UNL     1      -9.067  19.491  66.683  1.00  0.00    -0.351 A  
HETATM    3  H2  UNL     1      -9.564  21.309  66.114  1.00  0.00     0.000 HD 
HETATM    4  H1  UNL     1     -10.458  20.838  67.431  1.00  0.00     0.000 HD 
HETATM    5  N   UNL     1      -7.868  19.384  66.074  1.00  0.00    -0.363 NA 
HETATM    6  C   UNL     1      -7.423  18.154  65.747  1.00  0.00    -0.087 A  
HETATM    7  N   UNL     1      -8.045  16.971  65.937  1.00  0.00    -0.472 NA 
HETATM    8  F   UNL     1      -6.223  18.098  65.147  1.00  0.00    -0.262 F  
HETATM    9  C   UNL     1      -9.217  17.124  66.577  1.00  0.00    -0.266 A  
HETATM   10  C   UNL     1      -9.773  18.319  66.999  1.00  0.00    -0.303 A  
HETATM   11  N   UNL     1     -10.950  18.098  67.671  1.00  0.00    -0.227 NA 
HETATM   12  C   UNL     1     -11.112  16.791  67.648  1.00  0.00    -0.089 A  
HETATM   13  N   UNL     1     -10.146  16.159  66.907  1.00  0.00    -0.265 NA 
ENDROOT
BRANCH  13  14
HETATM   14  C1* UNL     1     -10.049  14.740  66.607  1.00  0.00    -0.264 C  
HETATM   15  O4* UNL     1     -10.069  14.551  65.169  1.00  0.00    -0.383 OA 
HETATM   16  C4* UNL     1     -11.422  14.254  64.763  1.00  0.00    -0.393 C  
HETATM   17  H2* UNL     1     -12.495  13.509  68.595  1.00  0.00     0.000 HD 
HETATM   18  C3* UNL     1     -12.054  13.512  65.931  1.00  0.00    -0.435 C  
HETATM   19  C2* UNL     1     -11.117  13.752  67.115  1.00  0.00    -0.302 C  
HETATM   20  O3* UNL     1     -12.120  12.105  65.677  1.00  0.00    -0.545 OA 
HETATM   21  H3* UNL     1     -12.515  11.642  66.406  1.00  0.00     0.000 HD 
HETATM   22  O2* UNL     1     -11.836  14.119  68.282  1.00  0.00    -0.333 OA 
BRANCH  16  23
HETATM   23  C5* UNL     1     -12.188  15.544  64.433  1.00  0.00    -0.079 C  
HETATM   24  O5* UNL     1     -11.293  16.536  63.945  1.00  0.00    -1.557 OA 
HETATM   25  H5* UNL     1     -11.766  17.334  63.740  1.00  0.00     0.000 HD 
ENDBRANCH  16  23
ENDBRANCH  13  14
TORSDOF 2
ENDMDL
MODEL        3
REMARK 921   NORMALIZED FREE ENERGY PREDICTED BY IDOCK:   -7.55 KCAL/MOL
REMARK 922        TOTAL FREE ENERGY PREDICTED BY IDOCK:   -7.85 KCAL/MOL
REMARK 923 INTER-LIGAND FREE ENERGY PREDICTED BY IDOCK:   -7.94 KCAL/MOL
REMARK 924 INTRA-LIGAND FREE ENERGY PREDICTED BY IDOCK:    0.08 KCAL/MOL
REMARK 927      BINDING AFFINITY PREDICTED BY RF-SCORE:    0.00 PKD
ROOT
HETATM    1  N   UNL     1     -10.335  18.317  69.189  1.00  0.00    -0.419 NA 
HETATM    2  C   UNL     1      -9.796  17.488  68.219  1.00  0.00    -0.319 A  
HETATM    3  H2  UNL     1     -10.567  19.215  68.766  1.00  0.00     0.000 HD 
HETATM    4  H1  UNL     1     -11.139  17.984  69.722  1.00  0.00     0.000 HD 
HETATM    5  N   UNL     1      -8.733  17.928  67.514  1.00  0.00    -0.242 NA 
HETATM    6  C   UNL     1      -8.243  17.142  66.535  1.00  0.00    -0.273 A  
HETATM    7  N   UNL     1      -8.699  15.937  66.135  1.00  0.00    -0.332 NA 
HETATM    8  F   UNL     1      -7.182  17.622  65.865  1.00  0.00    -0.301 F  
HETATM    9  C   UNL     1      -9.734  15.524  66.886  1.00  0.00    -0.233 A  
HETATM   10  C   UNL     1     -10.311  16.211  67.939  1.00  0.00    -0.277 A  
HETATM   11  N   UNL     1     -11.309  15.467  68.519  1.00  0.00    -0.318 NA 
HETATM   12  C   UNL     1     -11.345  14.350  67.822  1.00  0.00    -0.312 A  
HETATM   13  N   UNL     1     -10.484  14.373  66.755  1.00  0.00    -0.271 NA 
ENDROOT
BRANCH  13  14
HETATM   14  C1* UNL     1     -10.311  13.351  65.736  1.00  0.00    -0.293 C  
HETATM   15  O4* UNL     1     -10.243  13.979  64.432  1.00  0.00    -0.310 OA 
HETATM   16  C4* UNL     1     -11.557  13.946  63.836  1.00  0.00    -0.127 C  
HETATM   17  H2* UNL     1     -12.808  11.220  66.555  1.00  0.00     0.000 HD 
HETATM   18  C3* UNL     1     -12.221  12.682  64.362  1.00  0.00    -0.443 C  
HETATM   19  C2* UNL     1     -11.363  12.240  65.547  1.00  0.00    -0.349 C  
HETATM   20  O3* UNL     1     -12.212  11.644  63.377  1.00  0.00    -0.747 OA 
HETATM   21  H3* UNL     1     -12.628  10.855  63.706  1.00  0.00     0.000 HD 
HETATM   22  O2* UNL     1     -12.160  11.904  66.672  1.00  0.00    -0.587 OA 
BRANCH  16  23
HETATM   23  C5* UNL     1     -12.357  15.202  64.211  1.00  0.00    -0.178 C  
HETATM   24  O5* UNL     1     -11.657  16.371  63.805  1.00  0.00    -1.605 OA 
HETATM   25  H5* UNL     1     -12.151  17.148  64.036  1.00  0.00     0.000 HD 
ENDBRANCH  16  23
ENDBRANCH  13  14
TORSDOF 2
ENDMDL
MODEL        4
REMARK 921   NORMALIZED FREE ENERGY PREDICTED BY IDOCK:   -7.32 KCAL/MOL
REMARK 922        TOTAL FREE ENERGY PREDICTED BY IDOCK:   -7.60 KCAL/MOL
REMARK 923 INTER-LIGAND FREE ENERGY PREDICTED BY IDOCK:   -8.06 KCAL/MOL
REMARK 924 INTRA-LIGAND FREE ENERGY PREDICTED BY IDOCK:    0.46 KCAL/MOL
REMARK 927      BINDING AFFINITY PREDICTED BY RF-SCORE:    0.00 PKD
ROOT
HETATM    1  N   UNL     1     -12.525  13.836  63.163  1.00  0.00    -1.074 NA 
HETATM    2  C   UNL     1     -12.013  13.900  64.449  1.00  0.00    -0.450 A  
HETATM    3  H2  UNL     1     -13.507  13.565  63.211  1.00  0.00     0.000 HD 
HETATM    4  H1  UNL     1     -12.435  14.656  62.562  1.00  0.00     0.000 HD 
HETATM    5  N   UNL     1     -12.131  12.816  65.244  1.00  0.00    -0.432 NA 
HETATM    6  C   UNL     1     -11.680  12.899  66.512  1.00  0.00    -0.393 A  
HETATM    7  N   UNL     1     -11.122  13.964  67.124  1.00  0.00    -0.294 NA 
HETATM    8  F   UNL     1     -11.816  11.794  67.262  1.00  0.00    -0.374 F  
HETATM    9  C   UNL     1     -10.993  15.007  66.285  1.00  0.00    -0.338 A  
HETATM   10  C   UNL     1     -11.378  15.045  64.957  1.00  0.00    -0.394 A  
HETATM   11  N   UNL     1     -11.043  16.249  64.387  1.00  0.00    -0.766 NA 
HETATM   12  C   UNL     1     -10.471  16.934  65.356  1.00  0.00    -0.154 A  
HETATM   13  N   UNL     1     -10.509  16.270  66.556  1.00  0.00    -0.303 NA 
ENDROOT
BRANCH  13  14
HETATM   14  C1* UNL     1     -10.041  16.748  67.846  1.00  0.00    -0.284 C  
HETATM   15  O4* UNL     1     -10.903  17.822  68.301  1.00  0.00    -0.300 OA 
HETATM   16  C4* UNL     1     -10.300  19.082  67.935  1.00  0.00    -0.405 C  
HETATM   17  H2* UNL     1      -6.765  17.263  67.174  1.00  0.00     0.000 HD 
HETATM   18  C3* UNL     1      -8.797  18.852  67.972  1.00  0.00    -0.306 C  
HETATM   19  C2* UNL     1      -8.624  17.333  68.003  1.00  0.00    -0.234 C  
HETATM   20  O3* UNL     1      -8.218  19.403  69.159  1.00  0.00    -0.307 OA 
HETATM   21  H3* UNL     1      -7.279  19.260  69.182  1.00  0.00     0.000 HD 
HETATM   22  O2* UNL     1      -7.638  16.902  67.077  1.00  0.00    -0.163 OA 
BRANCH  16  23
HETATM   23  C5* UNL     1     -10.769  19.526  66.541  1.00  0.00    -0.432 C  
HETATM   24  O5* UNL     1      -9.785  20.350  65.930  1.00  0.00    -0.652 OA 
HETATM   25  H5* UNL     1     -10.075  20.624  65.068  1.00  0.00     0.000 HD 
ENDBRANCH  16  23
ENDBRANCH  13  14
TORSDOF 2
ENDMDL
MODEL        5
REMARK 921   NORMALIZED FREE ENERGY PREDICTED BY IDOCK:   -7.30 KCAL/MOL
REMARK 922        TOTAL FREE ENERGY PREDICTED BY IDOCK:   -7.58 KCAL/MOL
REMARK 923 INTER-LIGAND FREE ENERGY PREDICTED BY IDOCK:   -7.32 KCAL/MOL
REMARK 924 INTRA-LIGAND FREE ENERGY PREDICTED BY IDOCK:   -0.25 KCAL/MOL
REMARK 927      BINDING AFFINITY PREDICTED BY RF-SCORE:    0.00 PKD
ROOT
HETATM    1  N   UNL     1      -9.979   8.764  68.538  1.00  0.00    -0.177 NA 
HETATM    2  C   UNL     1      -9.982   9.306  67.263  1.00  0.00    -0.207 A  
HETATM    3  H2  UNL     1      -9.014   8.641  68.844  1.00  0.00     0.000 HD 
HETATM    4  H1  UNL     1     -10.501   9.243  69.272  1.00  0.00     0.000 HD 
HETATM    5  N   UNL     1      -9.291   8.672  66.293  1.00  0.00    -0.203 NA 
HETATM    6  C   UNL     1      -9.251   9.230  65.066  1.00  0.00    -0.178 A  
HETATM    7  N   UNL     1      -9.814  10.390  64.665  1.00  0.00    -0.322 NA 
HETATM    8  F   UNL     1      -8.556   8.561  64.133  1.00  0.00    -0.164 F  
HETATM    9  C   UNL     1     -10.518  10.967  65.654  1.00  0.00    -0.208 A  
HETATM   10  C   UNL     1     -10.671  10.486  66.942  1.00  0.00    -0.219 A  
HETATM   11  N   UNL     1     -11.505  11.300  67.669  1.00  0.00    -0.482 NA 
HETATM   12  C   UNL     1     -11.845  12.264  66.839  1.00  0.00    -0.264 A  
HETATM   13  N   UNL     1     -11.193  12.170  65.636  1.00  0.00    -0.324 NA 
ENDROOT
BRANCH  13  14
HETATM   14  C1* UNL     1     -11.267  13.093  64.516  1.00  0.00    -0.354 C  
HETATM   15  O4* UNL     1      -9.973  13.716  64.320  1.00  0.00    -0.233 OA 
HETATM   16  C4* UNL     1      -9.967  14.989  65.000  1.00  0.00    -0.153 C  
HETATM   17  H2* UNL     1     -13.997  14.900  65.371  1.00  0.00     0.000 HD 
HETATM   18  C3* UNL     1     -11.399  15.499  64.943  1.00  0.00    -0.335 C  
HETATM   19  C2* UNL     1     -12.241  14.287  64.542  1.00  0.00    -0.455 C  
HETATM   20  O3* UNL     1     -11.548  16.512  63.944  1.00  0.00    -1.598 OA 
HETATM   21  H3* UNL     1     -12.443  16.831  63.908  1.00  0.00     0.000 HD 
HETATM   22  O2* UNL     1     -13.397  14.164  65.355  1.00  0.00    -0.705 OA 
BRANCH  16  23
HETATM   23  C5* UNL     1      -9.481  14.831  66.449  1.00  0.00    -0.301 C  
HETATM   24  O5* UNL     1      -8.579  13.736  66.549  1.00  0.00    -0.441 OA 
HETATM   25  H5* UNL     1      -8.278  13.639  67.445  1.00  0.00     0.000 HD 
ENDBRANCH  16  23
ENDBRANCH  13  14
TORSDOF 2
ENDMDL
MODEL        6
REMARK 921   NORMALIZED FREE ENERGY PREDICTED BY IDOCK:   -7.28 KCAL/MOL
REMARK 922        TOTAL FREE ENERGY PREDICTED BY IDOCK:   -7.55 KCAL/MOL
REMARK 923 INTER-LIGAND FREE ENERGY PREDICTED BY IDOCK:   -7.64 KCAL/MOL
REMARK 924 INTRA-LIGAND FREE ENERGY PREDICTED BY IDOCK:    0.09 KCAL/MOL
REMARK 927      BINDING AFFINITY PREDICTED BY RF-SCORE:    0.00 PKD
ROOT
HETATM    1  N   UNL     1     -13.027  11.594  63.050  1.00  0.00    -0.852 NA 
HETATM    2  C   UNL     1     -11.876  12.030  63.685  1.00  0.00    -0.506 A  
HETATM    3  H2  UNL     1     -13.427  10.821  63.582  1.00  0.00     0.000 HD 
HETATM    4  H1  UNL     1     -13.761  12.274  62.851  1.00  0.00     0.000 HD 
HETATM    5  N   UNL     1     -10.905  11.130  63.948  1.00  0.00    -0.354 NA 
HETATM    6  C   UNL     1      -9.809  11.546  64.614  1.00  0.00    -0.246 A  
HETATM    7  N   UNL     1      -9.548  12.782  65.087  1.00  0.00     0.046 NA 
HETATM    8  F   UNL     1      -8.870  10.616  64.848  1.00  0.00    -0.178 F  
HETATM    9  C   UNL     1     -10.524  13.651  64.772  1.00  0.00    -0.418 A  
HETATM   10  C   UNL     1     -11.679  13.367  64.066  1.00  0.00    -0.416 A  
HETATM   11  N   UNL     1     -12.425  14.505  63.876  1.00  0.00    -0.806 NA 
HETATM   12  C   UNL     1     -11.738  15.462  64.465  1.00  0.00    -0.277 A  
HETATM   13  N   UNL     1     -10.630  14.983  65.115  1.00  0.00    -0.392 NA 
ENDROOT
BRANCH  13  14
HETATM   14  C1* UNL     1      -9.687  15.735  65.925  1.00  0.00    -0.354 C  
HETATM   15  O4* UNL     1      -9.571  15.114  67.230  1.00  0.00    -0.206 OA 
HETATM   16  C4* UNL     1     -10.459  15.793  68.143  1.00  0.00    -0.263 C  
HETATM   17  H2* UNL     1     -10.901  18.872  65.552  1.00  0.00     0.000 HD 
HETATM   18  C3* UNL     1     -10.523  17.237  67.667  1.00  0.00    -0.363 C  
HETATM   19  C2* UNL     1      -9.939  17.220  66.254  1.00  0.00    -0.300 C  
HETATM   20  O3* UNL     1      -9.715  18.088  68.487  1.00  0.00    -0.319 OA 
HETATM   21  H3* UNL     1      -9.756  18.990  68.189  1.00  0.00     0.000 HD 
HETATM   22  O2* UNL     1     -10.746  17.957  65.349  1.00  0.00    -0.634 OA 
BRANCH  16  23
HETATM   23  C5* UNL     1     -11.848  15.136  68.143  1.00  0.00    -0.228 C  
HETATM   24  O5* UNL     1     -12.621  15.618  69.235  1.00  0.00    -0.570 OA 
HETATM   25  H5* UNL     1     -13.479  15.212  69.234  1.00  0.00     0.000 HD 
ENDBRANCH  16  23
ENDBRANCH  13  14
TORSDOF 2
ENDMDL
MODEL        7
REMARK 921   NORMALIZED FREE ENERGY PREDICTED BY IDOCK:   -7.26 KCAL/MOL
REMARK 922        TOTAL FREE ENERGY PREDICTED BY IDOCK:   -7.53 KCAL/MOL
REMARK 923 INTER-LIGAND FREE ENERGY PREDICTED BY IDOCK:   -7.28 KCAL/MOL
REMARK 924 INTRA-LIGAND FREE ENERGY PREDICTED BY IDOCK:   -0.25 KCAL/MOL
REMARK 927      BINDING AFFINITY PREDICTED BY RF-SCORE:    0.00 PKD
ROOT
HETATM    1  N   UNL     1     -11.785  16.312  63.853  1.00  0.00    -1.518 NA 
HETATM    2  C   UNL     1     -10.983  15.821  64.870  1.00  0.00    -0.427 A  
HETATM    3  H2  UNL     1     -11.210  16.474  63.026  1.00  0.00     0.000 HD 
HETATM    4  H1  UNL     1     -12.611  15.778  63.583  1.00  0.00     0.000 HD 
HETATM    5  N   UNL     1      -9.890  16.527  65.227  1.00  0.00    -0.420 NA 
HETATM    6  C   UNL     1      -9.082  16.021  66.180  1.00  0.00    -0.351 A  
HETATM    7  N   UNL     1      -9.212  14.850  66.838  1.00  0.00    -0.232 NA 
HETATM    8  F   UNL     1      -8.011  16.762  66.503  1.00  0.00    -0.221 F  
HETATM    9  C   UNL     1     -10.331  14.198  66.476  1.00  0.00    -0.284 A  
HETATM   10  C   UNL     1     -11.261  14.619  65.542  1.00  0.00    -0.343 A  
HETATM   11  N   UNL     1     -12.309  13.735  65.466  1.00  0.00    -0.444 NA 
HETATM   12  C   UNL     1     -12.015  12.788  66.332  1.00  0.00    -0.375 A  
HETATM   13  N   UNL     1     -10.777  12.963  66.896  1.00  0.00    -0.256 NA 
ENDROOT
BRANCH  13  14
HETATM   14  C1* UNL     1     -10.100  12.082  67.833  1.00  0.00    -0.195 C  
HETATM   15  O4* UNL     1      -8.963  11.466  67.178  1.00  0.00    -0.156 OA 
HETATM   16  C4* UNL     1      -9.363  10.168  66.687  1.00  0.00    -0.162 C  
HETATM   17  H2* UNL     1     -12.708  10.246  68.966  1.00  0.00     0.000 HD 
HETATM   18  C3* UNL     1     -10.419   9.662  67.658  1.00  0.00    -0.261 C  
HETATM   19  C2* UNL     1     -10.840  10.888  68.468  1.00  0.00    -0.220 C  
HETATM   20  O3* UNL     1      -9.875   8.686  68.552  1.00  0.00    -0.160 OA 
HETATM   21  H3* UNL     1     -10.534   8.370  69.158  1.00  0.00     0.000 HD 
HETATM   22  O2* UNL     1     -12.252  10.982  68.574  1.00  0.00    -0.582 OA 
BRANCH  16  23
HETATM   23  C5* UNL     1      -9.914  10.273  65.257  1.00  0.00    -0.317 C  
HETATM   24  O5* UNL     1      -9.317  11.370  64.577  1.00  0.00    -0.358 OA 
HETATM   25  H5* UNL     1      -9.657  11.435  63.693  1.00  0.00     0.000 HD 
ENDBRANCH  16  23
ENDBRANCH  13  14
TORSDOF 2
ENDMDL
MODEL        8
REMARK 921   NORMALIZED FREE ENERGY PREDICTED BY IDOCK:   -7.23 KCAL/MOL
REMARK 922        TOTAL FREE ENERGY PREDICTED BY IDOCK:   -7.50 KCAL/MOL
REMARK 923 INTER-LIGAND FREE ENERGY PREDICTED BY IDOCK:   -8.18 KCAL/MOL
REMARK 924 INTRA-LIGAND FREE ENERGY PREDICTED BY IDOCK:    0.68 KCAL/MOL
REMARK 927      BINDING AFFINITY PREDICTED BY RF-SCORE:    0.00 PKD
ROOT
HETATM    1  N   UNL     1     -13.231  15.650  71.848  1.00  0.00    -0.458 NA 
HETATM    2  C   UNL     1     -12.732  14.646  71.033  1.00  0.00    -0.339 A  
HETATM    3  H2  UNL     1     -12.802  15.572  72.770  1.00  0.00     0.000 HD 
HETATM    4  H1  UNL     1     -13.159  16.616  71.529  1.00  0.00     0.000 HD 
HETATM    5  N   UNL     1     -12.826  13.368  71.454  1.00  0.00    -0.355 NA 
HETATM    6  C   UNL     1     -12.293  12.398  70.684  1.00  0.00    -0.279 A  
HETATM    7  N   UNL     1     -11.635  12.539  69.514  1.00  0.00    -0.291 NA 
HETATM    8  F   UNL     1     -12.416  11.143  71.143  1.00  0.00    -0.420 F  
HETATM    9  C   UNL     1     -11.596  13.822  69.118  1.00  0.00    -0.317 A  
HETATM   10  C   UNL     1     -12.132  14.906  69.790  1.00  0.00    -0.314 A  
HETATM   11  N   UNL     1     -11.959  16.061  69.067  1.00  0.00    -0.272 NA 
HETATM   12  C   UNL     1     -11.320  15.686  67.978  1.00  0.00    -0.324 A  
HETATM   13  N   UNL     1     -10.981  14.358  68.005  1.00  0.00    -0.252 NA 
ENDROOT
BRANCH  13  14
HETATM   14  C1* UNL     1     -10.214  13.621  67.014  1.00  0.00    -0.250 C  
HETATM   15  O4* UNL     1      -9.340  14.536  66.306  1.00  0.00    -0.285 OA 
HETATM   16  C4* UNL     1      -9.992  14.942  65.084  1.00  0.00    -0.242 C  
HETATM   17  H2* UNL     1     -12.687  11.941  65.428  1.00  0.00     0.000 HD 
HETATM   18  C3* UNL     1     -10.847  13.759  64.654  1.00  0.00    -0.406 C  
HETATM   19  C2* UNL     1     -10.923  12.851  65.882  1.00  0.00    -0.276 C  
HETATM   20  O3* UNL     1     -10.230  13.035  63.586  1.00  0.00    -0.643 OA 
HETATM   21  H3* UNL     1     -10.764  12.296  63.317  1.00  0.00     0.000 HD 
HETATM   22  O2* UNL     1     -12.251  12.416  66.127  1.00  0.00    -0.635 OA 
BRANCH  16  23
HETATM   23  C5* UNL     1     -10.843  16.201  65.312  1.00  0.00    -0.336 C  
HETATM   24  O5* UNL     1     -11.382  16.660  64.079  1.00  0.00    -1.486 OA 
HETATM   25  H5* UNL     1     -11.909  17.438  64.220  1.00  0.00     0.000 HD 
ENDBRANCH  16  23
ENDBRANCH  13  14
TORSDOF 2
ENDMDL
MODEL        9
REMARK 921   NORMALIZED FREE ENERGY PREDICTED BY IDOCK:   -7.22 KCAL/MOL
REMARK 922        TOTAL FREE ENERGY PREDICTED BY IDOCK:   -7.48 KCAL/MOL
REMARK 923 INTER-LIGAND FREE ENERGY PREDICTED BY IDOCK:   -7.41 KCAL/MOL
REMARK 924 INTRA-LIGAND FREE ENERGY PREDICTED BY IDOCK:   -0.07 KCAL/MOL
REMARK 927      BINDING AFFINITY PREDICTED BY RF-SCORE:    0.00 PKD
ROOT
HETATM    1  N   UNL     1      -8.471  16.850  68.745  1.00  0.00    -0.255 NA 
HETATM    2  C   UNL     1      -9.579  16.025  68.639  1.00  0.00    -0.222 A  
HETATM    3  H2  UNL     1      -7.769  16.390  69.323  1.00  0.00     0.000 HD 
HETATM    4  H1  UNL     1      -8.029  17.183  67.888  1.00  0.00     0.000 HD 
HETATM    5  N   UNL     1     -10.164  15.584  69.772  1.00  0.00    -0.285 NA 
HETATM    6  C   UNL     1     -11.209  14.738  69.667  1.00  0.00    -0.275 A  
HETATM    7  N   UNL     1     -11.759  14.239  68.541  1.00  0.00    -0.322 NA 
HETATM    8  F   UNL     1     -11.760  14.331  70.822  1.00  0.00    -0.342 F  
HETATM    9  C   UNL     1     -11.167  14.731  67.439  1.00  0.00    -0.339 A  
HETATM   10  C   UNL     1     -10.114  15.629  67.403  1.00  0.00    -0.251 A  
HETATM   11  N   UNL     1      -9.802  15.961  66.108  1.00  0.00    -0.292 NA 
HETATM   12  C   UNL     1     -10.644  15.268  65.369  1.00  0.00    -0.394 A  
HETATM   13  N   UNL     1     -11.424  14.426  66.118  1.00  0.00    -0.351 NA 
ENDROOT
BRANCH  13  14
HETATM   14  C1* UNL     1     -12.407  13.469  65.637  1.00  0.00    -0.476 C  
HETATM   15  O4* UNL     1     -11.954  12.125  65.936  1.00  0.00    -0.561 OA 
HETATM   16  C4* UNL     1     -11.287  11.594  64.771  1.00  0.00    -0.201 C  
HETATM   17  H2* UNL     1     -12.818  14.539  62.453  1.00  0.00     0.000 HD 
HETATM   18  C3* UNL     1     -11.972  12.231  63.572  1.00  0.00    -0.533 C  
HETATM   19  C2* UNL     1     -12.774  13.401  64.142  1.00  0.00    -0.005 C  
HETATM   20  O3* UNL     1     -12.878  11.316  62.947  1.00  0.00    -0.799 OA 
HETATM   21  H3* UNL     1     -13.306  11.714  62.197  1.00  0.00     0.000 HD 
HETATM   22  O2* UNL     1     -12.591  14.581  63.375  1.00  0.00    -0.673 OA 
BRANCH  16  23
HETATM   23  C5* UNL     1      -9.787  11.924  64.805  1.00  0.00    -0.191 C  
HETATM   24  O5* UNL     1      -9.341  12.323  63.515  1.00  0.00    -0.642 OA 
HETATM   25  H5* UNL     1      -8.414  12.527  63.536  1.00  0.00     0.000 HD 
ENDBRANCH  16  23
ENDBRANCH  13  14
TORSDOF 2
ENDMDL
MODEL       10
REMARK 921   NORMALIZED FREE ENERGY PREDICTED BY IDOCK:   -7.13 KCAL/MOL
REMARK 922        TOTAL FREE ENERGY PREDICTED BY IDOCK:   -7.38 KCAL/MOL
REMARK 923 INTER-LIGAND FREE ENERGY PREDICTED BY IDOCK:   -7.36 KCAL/MOL
REMARK 924 INTRA-LIGAND FREE ENERGY PREDICTED BY IDOCK:   -0.03 KCAL/MOL
REMARK 927      BINDING AFFINITY PREDICTED BY RF-SCORE:    0.00 PKD
ROOT
HETATM    1  N   UNL     1     -11.643  16.101  64.032  1.00  0.00    -1.417 NA 
HETATM    2  C   UNL     1     -11.542  14.732  64.224  1.00  0.00    -0.203 A  
HETATM    3  H2  UNL     1     -12.622  16.376  64.118  1.00  0.00     0.000 HD 
HETATM    4  H1  UNL     1     -11.073  16.717  64.612  1.00  0.00     0.000 HD 
HETATM    5  N   UNL     1     -12.296  13.918  63.457  1.00  0.00    -0.765 NA 
HETATM    6  C   UNL     1     -12.236  12.590  63.682  1.00  0.00    -0.550 A  
HETATM    7  N   UNL     1     -11.511  11.940  64.617  1.00  0.00    -0.307 NA 
HETATM    8  F   UNL     1     -13.001  11.820  62.891  1.00  0.00    -0.625 F  
HETATM    9  C   UNL     1     -10.751  12.788  65.332  1.00  0.00    -0.284 A  
HETATM   10  C   UNL     1     -10.690  14.162  65.183  1.00  0.00    -0.388 A  
HETATM   11  N   UNL     1      -9.764  14.704  66.040  1.00  0.00    -0.310 NA 
HETATM   12  C   UNL     1      -9.279  13.676  66.707  1.00  0.00    -0.241 A  
HETATM   13  N   UNL     1      -9.916  12.503  66.392  1.00  0.00    -0.246 NA 
ENDROOT
BRANCH  13  14
HETATM   14  C1* UNL     1      -9.694  11.192  66.979  1.00  0.00    -0.186 C  
HETATM   15  O4* UNL     1     -10.964  10.630  67.393  1.00  0.00    -0.286 OA 
HETATM   16  C4* UNL     1     -11.156  10.911  68.797  1.00  0.00    -0.256 C  
HETATM   17  H2* UNL     1      -7.255  11.908  69.212  1.00  0.00     0.000 HD 
HETATM   18  C3* UNL     1      -9.765  10.932  69.411  1.00  0.00     0.009 C  
HETATM   19  C2* UNL     1      -8.803  11.027  68.226  1.00  0.00    -0.144 C  
HETATM   20  O3* UNL     1      -9.495   9.722  70.124  1.00  0.00    -0.240 OA 
HETATM   21  H3* UNL     1      -8.625   9.736  70.509  1.00  0.00     0.000 HD 
HETATM   22  O2* UNL     1      -7.804  12.011  68.443  1.00  0.00    -0.136 OA 
BRANCH  16  23
HETATM   23  C5* UNL     1     -11.880  12.252  68.990  1.00  0.00    -0.305 C  
HETATM   24  O5* UNL     1     -11.076  13.139  69.757  1.00  0.00    -0.477 OA 
HETATM   25  H5* UNL     1     -11.523  13.968  69.877  1.00  0.00     0.000 HD 
ENDBRANCH  16  23
ENDBRANCH  13  14
TORSDOF 2
ENDMDL
MODEL       11
REMARK 921   NORMALIZED FREE ENERGY PREDICTED BY IDOCK:   -7.12 KCAL/MOL
REMARK 922        TOTAL FREE ENERGY PREDICTED BY IDOCK:   -7.38 KCAL/MOL
REMARK 923 INTER-LIGAND FREE ENERGY PREDICTED BY IDOCK:   -7.20 KCAL/MOL
REMARK 924 INTRA-LIGAND FREE ENERGY PREDICTED BY IDOCK:   -0.17 KCAL/MOL
REMARK 927      BINDING AFFINITY PREDICTED BY RF-SCORE:    0.00 PKD
ROOT
HETATM    1  N   UNL     1     -13.027  14.698  70.224  1.00  0.00    -0.566 NA 
HETATM    2  C   UNL     1     -12.114  14.828  69.191  1.00  0.00    -0.243 A  
HETATM    3  H2  UNL     1     -13.808  15.333  70.058  1.00  0.00     0.000 HD 
HETATM    4  H1  UNL     1     -13.394  13.770  70.436  1.00  0.00     0.000 HD 
HETATM    5  N   UNL     1     -11.629  16.055  68.910  1.00  0.00    -0.374 NA 
HETATM    6  C   UNL     1     -10.782  16.187  67.870  1.00  0.00    -0.321 A  
HETATM    7  N   UNL     1     -10.350  15.226  67.027  1.00  0.00    -0.272 NA 
HETATM    8  F   UNL     1     -10.323  17.427  67.633  1.00  0.00    -0.299 F  
HETATM    9  C   UNL     1     -10.830  14.017  67.366  1.00  0.00    -0.282 A  
HETATM   10  C   UNL     1     -11.675  13.736  68.425  1.00  0.00    -0.358 A  
HETATM   11  N   UNL     1     -11.917  12.386  68.510  1.00  0.00    -0.289 NA 
HETATM   12  C   UNL     1     -11.237  11.858  67.513  1.00  0.00    -0.296 A  
HETATM   13  N   UNL     1     -10.645  12.810  66.723  1.00  0.00    -0.250 NA 
ENDROOT
BRANCH  13  14
HETATM   14  C1* UNL     1      -9.883  12.598  65.504  1.00  0.00    -0.163 C  
HETATM   15  O4* UNL     1     -10.473  13.369  64.428  1.00  0.00    -0.426 OA 
HETATM   16  C4* UNL     1     -11.363  12.511  63.682  1.00  0.00    -0.485 C  
HETATM   17  H2* UNL     1      -9.770   9.217  65.414  1.00  0.00     0.000 HD 
HETATM   18  C3* UNL     1     -10.768  11.114  63.772  1.00  0.00    -0.329 C  
HETATM   19  C2* UNL     1      -9.739  11.187  64.900  1.00  0.00    -0.251 C  
HETATM   20  O3* UNL     1     -10.095  10.759  62.560  1.00  0.00    -0.707 OA 
HETATM   21  H3* UNL     1      -9.723   9.886  62.616  1.00  0.00     0.000 HD 
HETATM   22  O2* UNL     1      -9.859  10.087  65.787  1.00  0.00    -0.240 OA 
BRANCH  16  23
HETATM   23  C5* UNL     1     -12.783  12.559  64.266  1.00  0.00    -0.341 C  
HETATM   24  O5* UNL     1     -13.024  13.823  64.871  1.00  0.00    -0.712 OA 
HETATM   25  H5* UNL     1     -13.902  13.853  65.232  1.00  0.00     0.000 HD 
ENDBRANCH  16  23
ENDBRANCH  13  14
TORSDOF 2
ENDMDL
MODEL       12
REMARK 921   NORMALIZED FREE ENERGY PREDICTED BY IDOCK:   -7.12 KCAL/MOL
REMARK 922        TOTAL FREE ENERGY PREDICTED BY IDOCK:   -7.38 KCAL/MOL
REMARK 923 INTER-LIGAND FREE ENERGY PREDICTED BY IDOCK:   -7.15 KCAL/MOL
REMARK 924 INTRA-LIGAND FREE ENERGY PREDICTED BY IDOCK:   -0.23 KCAL/MOL
REMARK 927      BINDING AFFINITY PREDICTED BY RF-SCORE:    0.00 PKD
ROOT
HETATM    1  N   UNL     1     -12.036  11.576  67.816  1.00  0.00    -0.587 NA 
HETATM    2  C   UNL     1     -11.881  12.613  66.911  1.00  0.00    -0.355 A  
HETATM    3  H2  UNL     1     -11.496  10.773  67.496  1.00  0.00     0.000 HD 
HETATM    4  H1  UNL     1     -11.820  11.751  68.798  1.00  0.00     0.000 HD 
HETATM    5  N   UNL     1     -12.167  12.383  65.613  1.00  0.00    -0.626 NA 
HETATM    6  C   UNL     1     -11.964  13.377  64.725  1.00  0.00    -0.390 A  
HETATM    7  N   UNL     1     -11.480  14.614  64.964  1.00  0.00    -0.371 NA 
HETATM    8  F   UNL     1     -12.267  13.101  63.446  1.00  0.00    -0.539 F  
HETATM    9  C   UNL     1     -11.243  14.809  66.273  1.00  0.00    -0.343 A  
HETATM   10  C   UNL     1     -11.439  13.892  67.289  1.00  0.00    -0.344 A  
HETATM   11  N   UNL     1     -11.150  14.449  68.511  1.00  0.00    -0.243 NA 
HETATM   12  C   UNL     1     -10.775  15.682  68.239  1.00  0.00    -0.283 A  
HETATM   13  N   UNL     1     -10.711  15.922  66.891  1.00  0.00    -0.315 NA 
ENDROOT
BRANCH  13  14
HETATM   14  C1* UNL     1     -10.271  17.139  66.230  1.00  0.00    -0.334 C  
HETATM   15  O4* UNL     1      -9.044  16.874  65.504  1.00  0.00    -0.414 OA 
HETATM   16  C4* UNL     1      -7.926  17.259  66.332  1.00  0.00    -0.303 C  
HETATM   17  H2* UNL     1     -10.371  19.326  68.810  1.00  0.00     0.000 HD 
HETATM   18  C3* UNL     1      -8.417  18.423  67.180  1.00  0.00    -0.254 C  
HETATM   19  C2* UNL     1      -9.940  18.404  67.046  1.00  0.00    -0.342 C  
HETATM   20  O3* UNL     1      -7.928  19.671  66.677  1.00  0.00    -0.271 OA 
HETATM   21  H3* UNL     1      -8.235  20.398  67.207  1.00  0.00     0.000 HD 
HETATM   22  O2* UNL     1     -10.575  18.546  68.307  1.00  0.00    -0.320 OA 
BRANCH  16  23
HETATM   23  C5* UNL     1      -7.464  16.081  67.204  1.00  0.00    -0.218 C  
HETATM   24  O5* UNL     1      -7.822  14.847  66.594  1.00  0.00    -0.295 OA 
HETATM   25  H5* UNL     1      -7.536  14.119  67.133  1.00  0.00     0.000 HD 
ENDBRANCH  16  23
ENDBRANCH  13  14
TORSDOF 2
ENDMDL
MODEL       13
REMARK 921   NORMALIZED FREE ENERGY PREDICTED BY IDOCK:   -7.10 KCAL/MOL
REMARK 922        TOTAL FREE ENERGY PREDICTED BY IDOCK:   -7.35 KCAL/MOL
REMARK 923 INTER-LIGAND FREE ENERGY PREDICTED BY IDOCK:   -7.34 KCAL/MOL
REMARK 924 INTRA-LIGAND FREE ENERGY PREDICTED BY IDOCK:   -0.01 KCAL/MOL
REMARK 927      BINDING AFFINITY PREDICTED BY RF-SCORE:    0.00 PKD
ROOT
HETATM    1  N   UNL     1      -8.711   9.499  69.982  1.00  0.00    -0.203 NA 
HETATM    2  C   UNL     1      -9.877  10.180  69.672  1.00  0.00    -0.225 A  
HETATM    3  H2  UNL     1      -8.882   8.497  69.902  1.00  0.00     0.000 HD 
HETATM    4  H1  UNL     1      -7.860   9.732  69.469  1.00  0.00     0.000 HD 
HETATM    5  N   UNL     1     -11.002   9.872  70.349  1.00  0.00    -0.295 NA 
HETATM    6  C   UNL     1     -12.147  10.497  70.009  1.00  0.00    -0.274 A  
HETATM    7  N   UNL     1     -12.332  11.412  69.035  1.00  0.00    -0.386 NA 
HETATM    8  F   UNL     1     -13.239  10.160  70.715  1.00  0.00    -0.426 F  
HETATM    9  C   UNL     1     -11.180  11.713  68.411  1.00  0.00    -0.249 A  
HETATM   10  C   UNL     1      -9.935  11.175  68.682  1.00  0.00    -0.205 A  
HETATM   11  N   UNL     1      -8.972  11.755  67.893  1.00  0.00    -0.172 NA 
HETATM   12  C   UNL     1      -9.623  12.623  67.148  1.00  0.00    -0.207 A  
HETATM   13  N   UNL     1     -10.979  12.565  67.346  1.00  0.00    -0.250 NA 
ENDROOT
BRANCH  13  14
HETATM   14  C1* UNL     1     -12.007  13.322  66.650  1.00  0.00    -0.388 C  
HETATM   15  O4* UNL     1     -12.650  12.469  65.670  1.00  0.00    -0.612 OA 
HETATM   16  C4* UNL     1     -12.024  12.687  64.388  1.00  0.00    -0.400 C  
HETATM   17  H2* UNL     1     -10.254  16.069  65.736  1.00  0.00     0.000 HD 
HETATM   18  C3* UNL     1     -11.575  14.140  64.384  1.00  0.00    -0.362 C  
HETATM   19  C2* UNL     1     -11.646  14.586  65.845  1.00  0.00    -0.349 C  
HETATM   20  O3* UNL     1     -12.463  14.954  63.613  1.00  0.00    -1.055 OA 
HETATM   21  H3* UNL     1     -12.183  15.862  63.610  1.00  0.00     0.000 HD 
HETATM   22  O2* UNL     1     -10.476  15.289  66.232  1.00  0.00    -0.287 OA 
BRANCH  16  23
HETATM   23  C5* UNL     1     -10.838  11.729  64.191  1.00  0.00    -0.360 C  
HETATM   24  O5* UNL     1      -9.723  12.430  63.655  1.00  0.00    -0.634 OA 
HETATM   25  H5* UNL     1      -8.990  11.838  63.534  1.00  0.00     0.000 HD 
ENDBRANCH  16  23
ENDBRANCH  13  14
TORSDOF 2
ENDMDL
MODEL       14
REMARK 921   NORMALIZED FREE ENERGY PREDICTED BY IDOCK:   -7.06 KCAL/MOL
REMARK 922        TOTAL FREE ENERGY PREDICTED BY IDOCK:   -7.31 KCAL/MOL
REMARK 923 INTER-LIGAND FREE ENERGY PREDICTED BY IDOCK:   -7.60 KCAL/MOL
REMARK 924 INTRA-LIGAND FREE ENERGY PREDICTED BY IDOCK:    0.29 KCAL/MOL
REMARK 927      BINDING AFFINITY PREDICTED BY RF-SCORE:    0.00 PKD
ROOT
HETATM    1  N   UNL     1     -12.210   9.045  70.497  1.00  0.00    -0.476 NA 
HETATM    2  C   UNL     1     -12.179  10.424  70.371  1.00  0.00    -0.303 A  
HETATM    3  H2  UNL     1     -13.154   8.756  70.753  1.00  0.00     0.000 HD 
HETATM    4  H1  UNL     1     -11.891   8.477  69.711  1.00  0.00     0.000 HD 
HETATM    5  N   UNL     1     -12.601  11.175  71.409  1.00  0.00    -0.388 NA 
HETATM    6  C   UNL     1     -12.621  12.515  71.265  1.00  0.00    -0.231 A  
HETATM    7  N   UNL     1     -12.281  13.235  70.176  1.00  0.00    -0.328 NA 
HETATM    8  F   UNL     1     -13.044  13.219  72.328  1.00  0.00    -0.461 F  
HETATM    9  C   UNL     1     -11.836  12.449  69.180  1.00  0.00    -0.300 A  
HETATM   10  C   UNL     1     -11.730  11.070  69.208  1.00  0.00    -0.326 A  
HETATM   11  N   UNL     1     -11.181  10.601  68.039  1.00  0.00    -0.300 NA 
HETATM   12  C   UNL     1     -10.966  11.677  67.311  1.00  0.00    -0.267 A  
HETATM   13  N   UNL     1     -11.441  12.815  67.910  1.00  0.00    -0.295 NA 
ENDROOT
BRANCH  13  14
HETATM   14  C1* UNL     1     -11.442  14.164  67.370  1.00  0.00    -0.345 C  
HETATM   15  O4* UNL     1     -12.632  14.359  66.566  1.00  0.00    -0.301 OA 
HETATM   16  C4* UNL     1     -12.300  14.111  65.183  1.00  0.00    -0.451 C  
HETATM   17  H2* UNL     1      -8.343  14.300  66.016  1.00  0.00     0.000 HD 
HETATM   18  C3* UNL     1     -10.845  14.523  65.024  1.00  0.00    -0.412 C  
HETATM   19  C2* UNL     1     -10.303  14.645  66.449  1.00  0.00    -0.289 C  
HETATM   20  O3* UNL     1     -10.734  15.797  64.381  1.00  0.00    -0.765 OA 
HETATM   21  H3* UNL     1      -9.825  16.054  64.281  1.00  0.00     0.000 HD 
HETATM   22  O2* UNL     1      -9.045  14.003  66.584  1.00  0.00    -0.250 OA 
BRANCH  16  23
HETATM   23  C5* UNL     1     -12.511  12.631  64.830  1.00  0.00    -0.484 C  
HETATM   24  O5* UNL     1     -12.422  12.444  63.423  1.00  0.00    -0.625 OA 
HETATM   25  H5* UNL     1     -12.552  11.529  63.204  1.00  0.00     0.000 HD 
ENDBRANCH  16  23
ENDBRANCH  13  14
TORSDOF 2
ENDMDL
MODEL       15
REMARK 921   NORMALIZED FREE ENERGY PREDICTED BY IDOCK:   -7.03 KCAL/MOL
REMARK 922        TOTAL FREE ENERGY PREDICTED BY IDOCK:   -7.28 KCAL/MOL
REMARK 923 INTER-LIGAND FREE ENERGY PREDICTED BY IDOCK:   -7.26 KCAL/MOL
REMARK 924 INTRA-LIGAND FREE ENERGY PREDICTED BY IDOCK:   -0.02 KCAL/MOL
REMARK 927      BINDING AFFINITY PREDICTED BY RF-SCORE:    0.00 PKD
ROOT
HETATM    1  N   UNL     1     -11.862  12.793  70.082  1.00  0.00    -0.513 NA 
HETATM    2  C   UNL     1     -11.757  13.341  68.813  1.00  0.00    -0.329 A  
HETATM    3  H2  UNL     1     -11.282  11.956  70.130  1.00  0.00     0.000 HD 
HETATM    4  H1  UNL     1     -11.657  13.386  70.886  1.00  0.00     0.000 HD 
HETATM    5  N   UNL     1     -12.028  12.558  67.749  1.00  0.00    -0.429 NA 
HETATM    6  C   UNL     1     -11.873  13.077  66.515  1.00  0.00    -0.403 A  
HETATM    7  N   UNL     1     -11.449  14.315  66.185  1.00  0.00    -0.346 NA 
HETATM    8  F   UNL     1     -12.159  12.261  65.488  1.00  0.00    -0.446 F  
HETATM    9  C   UNL     1     -11.225  15.069  67.275  1.00  0.00    -0.338 A  
HETATM   10  C   UNL     1     -11.378  14.675  68.592  1.00  0.00    -0.283 A  
HETATM   11  N   UNL     1     -11.118  15.719  69.446  1.00  0.00    -0.288 NA 
HETATM   12  C   UNL     1     -10.803  16.728  68.660  1.00  0.00    -0.336 A  
HETATM   13  N   UNL     1     -10.749  16.362  67.340  1.00  0.00    -0.309 NA 
ENDROOT
BRANCH  13  14
HETATM   14  C1* UNL     1     -10.367  17.191  66.208  1.00  0.00    -0.313 C  
HETATM   15  O4* UNL     1      -9.021  16.848  65.794  1.00  0.00    -0.524 OA 
HETATM   16  C4* UNL     1      -8.099  17.770  66.415  1.00  0.00    -0.261 C  
HETATM   17  H2* UNL     1     -11.132  20.266  67.395  1.00  0.00     0.000 HD 
HETATM   18  C3* UNL     1      -8.855  19.083  66.556  1.00  0.00    -0.327 C  
HETATM   19  C2* UNL     1     -10.325  18.727  66.334  1.00  0.00    -0.439 C  
HETATM   20  O3* UNL     1      -8.454  20.021  65.552  1.00  0.00    -0.451 OA 
HETATM   21  H3* UNL     1      -8.926  20.841  65.639  1.00  0.00     0.000 HD 
HETATM   22  O2* UNL     1     -11.158  19.319  67.318  1.00  0.00    -0.442 OA 
BRANCH  16  23
HETATM   23  C5* UNL     1      -7.633  17.239  67.779  1.00  0.00    -0.181 C  
HETATM   24  O5* UNL     1      -7.653  18.280  68.747  1.00  0.00    -0.298 OA 
HETATM   25  H5* UNL     1      -7.365  17.952  69.590  1.00  0.00     0.000 HD 
ENDBRANCH  16  23
ENDBRANCH  13  14
TORSDOF 2
ENDMDL
MODEL       16
REMARK 921   NORMALIZED FREE ENERGY PREDICTED BY IDOCK:   -6.93 KCAL/MOL
REMARK 922        TOTAL FREE ENERGY PREDICTED BY IDOCK:   -7.17 KCAL/MOL
REMARK 923 INTER-LIGAND FREE ENERGY PREDICTED BY IDOCK:   -6.94 KCAL/MOL
REMARK 924 INTRA-LIGAND FREE ENERGY PREDICTED BY IDOCK:   -0.23 KCAL/MOL
REMARK 927      BINDING AFFINITY PREDICTED BY RF-SCORE:    0.00 PKD
ROOT
HETATM    1  N   UNL     1      -7.681  17.964  68.231  1.00  0.00    -0.269 NA 
HETATM    2  C   UNL     1      -8.650  17.869  67.246  1.00  0.00    -0.237 A  
HETATM    3  H2  UNL     1      -8.076  18.444  69.039  1.00  0.00     0.000 HD 
HETATM    4  H1  UNL     1      -7.221  17.109  68.546  1.00  0.00     0.000 HD 
HETATM    5  N   UNL     1      -9.259  18.999  66.830  1.00  0.00    -0.307 NA 
HETATM    6  C   UNL     1     -10.239  18.898  65.910  1.00  0.00    -0.286 A  
HETATM    7  N   UNL     1     -10.726  17.776  65.339  1.00  0.00    -0.569 NA 
HETATM    8  F   UNL     1     -10.811  20.050  65.525  1.00  0.00    -0.569 F  
HETATM    9  C   UNL     1     -10.067  16.681  65.756  1.00  0.00    -0.277 A  
HETATM   10  C   UNL     1      -9.025  16.646  66.665  1.00  0.00    -0.255 A  
HETATM   11  N   UNL     1      -8.551  15.365  66.813  1.00  0.00    -0.254 NA 
HETATM   12  C   UNL     1      -9.301  14.633  66.015  1.00  0.00    -0.181 A  
HETATM   13  N   UNL     1     -10.304  15.362  65.430  1.00  0.00    -0.375 NA 
ENDROOT
BRANCH  13  14
HETATM   14  C1* UNL     1     -11.356  14.873  64.554  1.00  0.00    -0.300 C  
HETATM   15  O4* UNL     1     -12.622  14.903  65.259  1.00  0.00    -0.091 OA 
HETATM   16  C4* UNL     1     -12.869  13.594  65.816  1.00  0.00    -0.333 C  
HETATM   17  H2* UNL     1      -9.984  11.969  63.487  1.00  0.00     0.000 HD 
HETATM   18  C3* UNL     1     -12.221  12.605  64.859  1.00  0.00    -0.471 C  
HETATM   19  C2* UNL     1     -11.299  13.445  63.975  1.00  0.00    -0.320 C  
HETATM   20  O3* UNL     1     -13.199  11.971  64.029  1.00  0.00    -0.681 OA 
HETATM   21  H3* UNL     1     -12.795  11.352  63.431  1.00  0.00     0.000 HD 
HETATM   22  O2* UNL     1     -10.018  12.849  63.844  1.00  0.00    -0.324 OA 
BRANCH  16  23
HETATM   23  C5* UNL     1     -12.279  13.482  67.229  1.00  0.00    -0.260 C  
HETATM   24  O5* UNL     1     -12.332  14.743  67.886  1.00  0.00    -0.582 OA 
HETATM   25  H5* UNL     1     -11.967  14.674  68.760  1.00  0.00     0.000 HD 
ENDBRANCH  16  23
ENDBRANCH  13  14
TORSDOF 2
ENDMDL
MODEL       17
REMARK 921   NORMALIZED FREE ENERGY PREDICTED BY IDOCK:   -6.80 KCAL/MOL
REMARK 922        TOTAL FREE ENERGY PREDICTED BY IDOCK:   -7.02 KCAL/MOL
REMARK 923 INTER-LIGAND FREE ENERGY PREDICTED BY IDOCK:   -6.80 KCAL/MOL
REMARK 924 INTRA-LIGAND FREE ENERGY PREDICTED BY IDOCK:   -0.22 KCAL/MOL
REMARK 927      BINDING AFFINITY PREDICTED BY RF-SCORE:    0.00 PKD
ROOT
HETATM    1  N   UNL     1      -8.298  19.596  65.712  1.00  0.00    -0.394 NA 
HETATM    2  C   UNL     1      -9.077  18.974  66.675  1.00  0.00    -0.329 A  
HETATM    3  H2  UNL     1      -7.377  19.788  66.105  1.00  0.00     0.000 HD 
HETATM    4  H1  UNL     1      -8.184  19.137  64.808  1.00  0.00     0.000 HD 
HETATM    5  N   UNL     1      -9.227  19.580  67.871  1.00  0.00    -0.320 NA 
HETATM    6  C   UNL     1      -9.941  18.948  68.825  1.00  0.00    -0.408 A  
HETATM    7  N   UNL     1     -10.533  17.738  68.750  1.00  0.00    -0.314 NA 
HETATM    8  F   UNL     1     -10.066  19.592  69.996  1.00  0.00    -0.312 F  
HETATM    9  C   UNL     1     -10.387  17.189  67.531  1.00  0.00    -0.341 A  
HETATM   10  C   UNL     1      -9.713  17.741  66.457  1.00  0.00    -0.320 A  
HETATM   11  N   UNL     1      -9.814  16.933  65.351  1.00  0.00    -0.452 NA 
HETATM   12  C   UNL     1     -10.529  15.901  65.751  1.00  0.00    -0.370 A  
HETATM   13  N   UNL     1     -10.814  15.953  67.091  1.00  0.00    -0.302 NA 
ENDROOT
BRANCH  13  14
HETATM   14  C1* UNL     1     -11.517  14.958  67.884  1.00  0.00    -0.340 C  
HETATM   15  O4* UNL     1     -10.572  14.278  68.748  1.00  0.00    -0.242 OA 
HETATM   16  C4* UNL     1     -10.157  13.055  68.103  1.00  0.00    -0.237 C  
HETATM   17  H2* UNL     1     -13.216  13.312  65.464  1.00  0.00     0.000 HD 
HETATM   18  C3* UNL     1     -11.348  12.594  67.277  1.00  0.00    -0.318 C  
HETATM   19  C2* UNL     1     -12.280  13.804  67.205  1.00  0.00    -0.313 C  
HETATM   20  O3* UNL     1     -12.040  11.520  67.922  1.00  0.00    -0.630 OA 
HETATM   21  H3* UNL     1     -12.784  11.232  67.405  1.00  0.00     0.000 HD 
HETATM   22  O2* UNL     1     -12.746  14.024  65.883  1.00  0.00    -0.495 OA 
BRANCH  16  23
HETATM   23  C5* UNL     1      -8.919  13.296  67.225  1.00  0.00    -0.217 C  
HETATM   24  O5* UNL     1      -8.141  14.363  67.752  1.00  0.00    -0.142 OA 
HETATM   25  H5* UNL     1      -7.376  14.512  67.210  1.00  0.00     0.000 HD 
ENDBRANCH  16  23
ENDBRANCH  13  14
TORSDOF 2
ENDMDL
MODEL       18
REMARK 921   NORMALIZED FREE ENERGY PREDICTED BY IDOCK:   -6.80 KCAL/MOL
REMARK 922        TOTAL FREE ENERGY PREDICTED BY IDOCK:   -7.02 KCAL/MOL
REMARK 923 INTER-LIGAND FREE ENERGY PREDICTED BY IDOCK:   -7.14 KCAL/MOL
REMARK 924 INTRA-LIGAND FREE ENERGY PREDICTED BY IDOCK:    0.12 KCAL/MOL
REMARK 927      BINDING AFFINITY PREDICTED BY RF-SCORE:    0.00 PKD
ROOT
HETATM    1  N   UNL     1     -13.513  15.489  73.134  1.00  0.00    -0.560 NA 
HETATM    2  C   UNL     1     -13.248  14.418  72.295  1.00  0.00    -0.406 A  
HETATM    3  H2  UNL     1     -13.019  15.349  74.015  1.00  0.00     0.000 HD 
HETATM    4  H1  UNL     1     -13.324  16.432  72.794  1.00  0.00     0.000 HD 
HETATM    5  N   UNL     1     -13.497  13.171  72.745  1.00  0.00    -0.541 NA 
HETATM    6  C   UNL     1     -13.189  12.129  71.947  1.00  0.00    -0.369 A  
HETATM    7  N   UNL     1     -12.626  12.163  70.721  1.00  0.00    -0.269 NA 
HETATM    8  F   UNL     1     -13.459  10.908  72.437  1.00  0.00    -0.512 F  
HETATM    9  C   UNL     1     -12.428  13.424  70.301  1.00  0.00    -0.215 A  
HETATM   10  C   UNL     1     -12.730  14.579  71.000  1.00  0.00    -0.343 A  
HETATM   11  N   UNL     1     -12.449  15.692  70.245  1.00  0.00    -0.391 NA 
HETATM   12  C   UNL     1     -11.975  15.220  69.110  1.00  0.00    -0.280 A  
HETATM   13  N   UNL     1     -11.841  13.855  69.129  1.00  0.00    -0.337 NA 
ENDROOT
BRANCH  13  14
HETATM   14  C1* UNL     1     -11.288  13.007  68.087  1.00  0.00    -0.294 C  
HETATM   15  O4* UNL     1      -9.857  12.878  68.281  1.00  0.00    -0.225 OA 
HETATM   16  C4* UNL     1      -9.191  13.850  67.447  1.00  0.00    -0.224 C  
HETATM   17  H2* UNL     1     -12.582  14.478  65.328  1.00  0.00     0.000 HD 
HETATM   18  C3* UNL     1     -10.074  14.025  66.222  1.00  0.00    -0.300 C  
HETATM   19  C2* UNL     1     -11.417  13.398  66.601  1.00  0.00    -0.344 C  
HETATM   20  O3* UNL     1      -9.542  13.321  65.095  1.00  0.00    -0.508 OA 
HETATM   21  H3* UNL     1     -10.094  13.430  64.329  1.00  0.00     0.000 HD 
HETATM   22  O2* UNL     1     -12.503  14.237  66.243  1.00  0.00    -0.445 OA 
BRANCH  16  23
HETATM   23  C5* UNL     1      -9.002  15.176  68.201  1.00  0.00    -0.174 C  
HETATM   24  O5* UNL     1      -8.635  14.926  69.552  1.00  0.00    -0.402 OA 
HETATM   25  H5* UNL     1      -8.518  15.745  70.018  1.00  0.00     0.000 HD 
ENDBRANCH  16  23
ENDBRANCH  13  14
TORSDOF 2
ENDMDL
MODEL       19
REMARK 921   NORMALIZED FREE ENERGY PREDICTED BY IDOCK:   -6.79 KCAL/MOL
REMARK 922        TOTAL FREE ENERGY PREDICTED BY IDOCK:   -7.01 KCAL/MOL
REMARK 923 INTER-LIGAND FREE ENERGY PREDICTED BY IDOCK:   -7.49 KCAL/MOL
REMARK 924 INTRA-LIGAND FREE ENERGY PREDICTED BY IDOCK:    0.48 KCAL/MOL
REMARK 927      BINDING AFFINITY PREDICTED BY RF-SCORE:    0.00 PKD
ROOT
HETATM    1  N   UNL     1     -11.275  10.495  70.709  1.00  0.00    -0.387 NA 
HETATM    2  C   UNL     1     -11.102  10.590  69.337  1.00  0.00    -0.258 A  
HETATM    3  H2  UNL     1     -10.418  10.131  71.126  1.00  0.00     0.000 HD 
HETATM    4  H1  UNL     1     -11.566  11.327  71.221  1.00  0.00     0.000 HD 
HETATM    5  N   UNL     1     -10.717   9.489  68.659  1.00  0.00    -0.210 NA 
HETATM    6  C   UNL     1     -10.498   9.597  67.333  1.00  0.00    -0.257 A  
HETATM    7  N   UNL     1     -10.598  10.702  66.565  1.00  0.00    -0.222 NA 
HETATM    8  F   UNL     1     -10.121   8.474  66.701  1.00  0.00    -0.281 F  
HETATM    9  C   UNL     1     -11.018  11.763  67.275  1.00  0.00    -0.267 A  
HETATM   10  C   UNL     1     -11.311  11.783  68.627  1.00  0.00    -0.270 A  
HETATM   11  N   UNL     1     -11.768  13.021  69.008  1.00  0.00    -0.311 NA 
HETATM   12  C   UNL     1     -11.743  13.744  67.907  1.00  0.00    -0.360 A  
HETATM   13  N   UNL     1     -11.197  13.063  66.849  1.00  0.00    -0.284 NA 
ENDROOT
BRANCH  13  14
HETATM   14  C1* UNL     1     -10.947  13.567  65.509  1.00  0.00    -0.288 C  
HETATM   15  O4* UNL     1      -9.820  14.479  65.541  1.00  0.00    -0.338 OA 
HETATM   16  C4* UNL     1     -10.323  15.828  65.646  1.00  0.00    -0.388 C  
HETATM   17  H2* UNL     1     -14.048  14.603  64.638  1.00  0.00     0.000 HD 
HETATM   18  C3* UNL     1     -11.660  15.832  64.920  1.00  0.00    -0.104 C  
HETATM   19  C2* UNL     1     -12.029  14.358  64.749  1.00  0.00    -0.447 C  
HETATM   20  O3* UNL     1     -11.543  16.428  63.624  1.00  0.00    -1.514 OA 
HETATM   21  H3* UNL     1     -12.378  16.431  63.170  1.00  0.00     0.000 HD 
HETATM   22  O2* UNL     1     -13.381  14.115  65.107  1.00  0.00    -0.684 OA 
BRANCH  16  23
HETATM   23  C5* UNL     1     -10.479  16.238  67.118  1.00  0.00    -0.297 C  
HETATM   24  O5* UNL     1     -10.663  17.645  67.220  1.00  0.00    -0.325 OA 
HETATM   25  H5* UNL     1     -10.760  17.899  68.130  1.00  0.00     0.000 HD 
ENDBRANCH  16  23
ENDBRANCH  13  14
TORSDOF 2
ENDMDL
MODEL       20
REMARK 921   NORMALIZED FREE ENERGY PREDICTED BY IDOCK:   -6.74 KCAL/MOL
REMARK 922        TOTAL FREE ENERGY PREDICTED BY IDOCK:   -6.96 KCAL/MOL
REMARK 923 INTER-LIGAND FREE ENERGY PREDICTED BY IDOCK:   -7.02 KCAL/MOL
REMARK 924 INTRA-LIGAND FREE ENERGY PREDICTED BY IDOCK:    0.06 KCAL/MOL
REMARK 927      BINDING AFFINITY PREDICTED BY RF-SCORE:    0.00 PKD
ROOT
HETATM    1  N   UNL     1     -12.502  13.726  66.705  1.00  0.00    -0.413 NA 
HETATM    2  C   UNL     1     -11.774  14.543  67.555  1.00  0.00    -0.386 A  
HETATM    3  H2  UNL     1     -13.490  13.967  66.780  1.00  0.00     0.000 HD 
HETATM    4  H1  UNL     1     -12.242  13.696  65.719  1.00  0.00     0.000 HD 
HETATM    5  N   UNL     1     -12.118  14.584  68.859  1.00  0.00    -0.277 NA 
HETATM    6  C   UNL     1     -11.443  15.419  69.674  1.00  0.00    -0.320 A  
HETATM    7  N   UNL     1     -10.444  16.266  69.348  1.00  0.00    -0.272 NA 
HETATM    8  F   UNL     1     -11.819  15.421  70.963  1.00  0.00    -0.277 F  
HETATM    9  C   UNL     1     -10.113  16.165  68.049  1.00  0.00    -0.242 A  
HETATM   10  C   UNL     1     -10.697  15.328  67.115  1.00  0.00    -0.316 A  
HETATM   11  N   UNL     1     -10.070  15.444  65.898  1.00  0.00    -0.318 NA 
HETATM   12  C   UNL     1      -9.127  16.344  66.088  1.00  0.00    -0.326 A  
HETATM   13  N   UNL     1      -9.176  16.892  67.345  1.00  0.00    -0.221 NA 
ENDROOT
BRANCH  13  14
HETATM   14  C1* UNL     1      -8.342  17.957  67.877  1.00  0.00    -0.247 C  
HETATM   15  O4* UNL     1      -9.162  18.866  68.654  1.00  0.00    -0.343 OA 
HETATM   16  C4* UNL     1      -9.544  19.974  67.811  1.00  0.00    -0.384 C  
HETATM   17  H2* UNL     1      -6.740  18.963  65.072  1.00  0.00     0.000 HD 
HETATM   18  C3* UNL     1      -8.396  20.168  66.831  1.00  0.00    -0.315 C  
HETATM   19  C2* UNL     1      -7.560  18.892  66.934  1.00  0.00    -0.229 C  
HETATM   20  O3* UNL     1      -7.580  21.283  67.204  1.00  0.00    -0.734 OA 
HETATM   21  H3* UNL     1      -6.863  21.404  66.591  1.00  0.00     0.000 HD 
HETATM   22  O2* UNL     1      -7.222  18.386  65.653  1.00  0.00    -0.493 OA 
BRANCH  16  23
HETATM   23  C5* UNL     1     -10.864  19.676  67.084  1.00  0.00    -0.405 C  
HETATM   24  O5* UNL     1     -10.695  19.822  65.679  1.00  0.00    -0.505 OA 
HETATM   25  H5* UNL     1     -11.511  19.637  65.229  1.00  0.00     0.000 HD 
ENDBRANCH  16  23
ENDBRANCH  13  14
TORSDOF 2
ENDMDL
MODEL       21
REMARK 921   NORMALIZED FREE ENERGY PREDICTED BY IDOCK:   -6.74 KCAL/MOL
REMARK 922        TOTAL FREE ENERGY PREDICTED BY IDOCK:   -6.95 KCAL/MOL
REMARK 923 INTER-LIGAND FREE ENERGY PREDICTED BY IDOCK:   -6.88 KCAL/MOL
REMARK 924 INTRA-LIGAND FREE ENERGY PREDICTED BY IDOCK:   -0.08 KCAL/MOL
REMARK 927      BINDING AFFINITY PREDICTED BY RF-SCORE:    0.00 PKD
ROOT
HETATM    1  N   UNL     1      -9.762   9.928  64.427  1.00  0.00    -0.408 NA 
HETATM    2  C   UNL     1     -10.582  11.013  64.691  1.00  0.00    -0.299 A  
HETATM    3  H2  UNL     1      -9.056  10.204  63.745  1.00  0.00     0.000 HD 
HETATM    4  H1  UNL     1      -9.303   9.463  65.210  1.00  0.00     0.000 HD 
HETATM    5  N   UNL     1     -11.189  11.629  63.656  1.00  0.00    -0.421 NA 
HETATM    6  C   UNL     1     -11.944  12.717  63.909  1.00  0.00    -0.479 A  
HETATM    7  N   UNL     1     -12.168  13.309  65.101  1.00  0.00    -0.415 NA 
HETATM    8  F   UNL     1     -12.531  13.292  62.848  1.00  0.00    -0.526 F  
HETATM    9  C   UNL     1     -11.572  12.642  66.106  1.00  0.00    -0.393 A  
HETATM   10  C   UNL     1     -10.804  11.498  65.990  1.00  0.00    -0.276 A  
HETATM   11  N   UNL     1     -10.402  11.054  67.227  1.00  0.00    -0.202 NA 
HETATM   12  C   UNL     1     -10.911  11.921  68.078  1.00  0.00    -0.216 A  
HETATM   13  N   UNL     1     -11.541  12.963  67.447  1.00  0.00    -0.339 NA 
ENDROOT
BRANCH  13  14
HETATM   14  C1* UNL     1     -12.150  14.130  68.062  1.00  0.00    -0.268 C  
HETATM   15  O4* UNL     1     -11.479  15.326  67.593  1.00  0.00    -0.331 OA 
HETATM   16  C4* UNL     1     -10.472  15.698  68.558  1.00  0.00    -0.236 C  
HETATM   17  H2* UNL     1     -12.093  13.224  71.322  1.00  0.00     0.000 HD 
HETATM   18  C3* UNL     1     -11.007  15.254  69.911  1.00  0.00    -0.290 C  
HETATM   19  C2* UNL     1     -12.159  14.300  69.594  1.00  0.00    -0.346 C  
HETATM   20  O3* UNL     1     -11.522  16.364  70.653  1.00  0.00    -0.517 OA 
HETATM   21  H3* UNL     1     -11.856  16.086  71.499  1.00  0.00     0.000 HD 
HETATM   22  O2* UNL     1     -12.087  13.119  70.378  1.00  0.00    -0.351 OA 
BRANCH  16  23
HETATM   23  C5* UNL     1      -9.130  15.023  68.232  1.00  0.00    -0.182 C  
HETATM   24  O5* UNL     1      -8.559  14.469  69.411  1.00  0.00    -0.379 OA 
HETATM   25  H5* UNL     1      -7.730  14.052  69.209  1.00  0.00     0.000 HD 
ENDBRANCH  16  23
ENDBRANCH  13  14
TORSDOF 2
ENDMDL
MODEL       22
REMARK 921   NORMALIZED FREE ENERGY PREDICTED BY IDOCK:   -6.72 KCAL/MOL
REMARK 922        TOTAL FREE ENERGY PREDICTED BY IDOCK:   -6.93 KCAL/MOL
REMARK 923 INTER-LIGAND FREE ENERGY PREDICTED BY IDOCK:   -6.79 KCAL/MOL
REMARK 924 INTRA-LIGAND FREE ENERGY PREDICTED BY IDOCK:   -0.14 KCAL/MOL
REMARK 927      BINDING AFFINITY PREDICTED BY RF-SCORE:    0.00 PKD
ROOT
HETATM    1  N   UNL     1      -9.017  16.976  65.859  1.00  0.00    -0.537 NA 
HETATM    2  C   UNL     1      -9.791  15.837  65.708  1.00  0.00    -0.348 A  
HETATM    3  H2  UNL     1      -9.625  17.761  66.094  1.00  0.00     0.000 HD 
HETATM    4  H1  UNL     1      -8.239  16.951  66.518  1.00  0.00     0.000 HD 
HETATM    5  N   UNL     1     -10.821  15.869  64.837  1.00  0.00    -0.563 NA 
HETATM    6  C   UNL     1     -11.605  14.778  64.730  1.00  0.00    -0.418 A  
HETATM    7  N   UNL     1     -11.508  13.619  65.415  1.00  0.00    -0.307 NA 
HETATM    8  F   UNL     1     -12.614  14.857  63.848  1.00  0.00    -0.459 F  
HETATM    9  C   UNL     1     -10.449  13.619  66.243  1.00  0.00    -0.291 A  
HETATM   10  C   UNL     1      -9.548  14.653  66.423  1.00  0.00    -0.301 A  
HETATM   11  N   UNL     1      -8.557  14.288  67.302  1.00  0.00    -0.205 NA 
HETATM   12  C   UNL     1      -8.858  13.056  67.657  1.00  0.00    -0.191 A  
HETATM   13  N   UNL     1     -10.052  12.638  67.127  1.00  0.00    -0.221 NA 
ENDROOT
BRANCH  13  14
HETATM   14  C1* UNL     1     -10.728  11.373  67.361  1.00  0.00    -0.232 C  
HETATM   15  O4* UNL     1     -12.093  11.626  67.777  1.00  0.00    -0.613 OA 
HETATM   16  C4* UNL     1     -12.148  11.595  69.219  1.00  0.00    -0.259 C  
HETATM   17  H2* UNL     1      -8.505   9.841  69.401  1.00  0.00     0.000 HD 
HETATM   18  C3* UNL     1     -11.083  10.601  69.656  1.00  0.00    -0.284 C  
HETATM   19  C2* UNL     1     -10.206  10.384  68.422  1.00  0.00    -0.165 C  
HETATM   20  O3* UNL     1     -11.666   9.349  70.029  1.00  0.00    -0.451 OA 
HETATM   21  H3* UNL     1     -11.001   8.728  70.302  1.00  0.00     0.000 HD 
HETATM   22  O2* UNL     1      -8.826  10.450  68.747  1.00  0.00    -0.139 OA 
BRANCH  16  23
HETATM   23  C5* UNL     1     -11.891  12.992  69.804  1.00  0.00    -0.311 C  
HETATM   24  O5* UNL     1     -12.425  13.992  68.945  1.00  0.00    -0.501 OA 
HETATM   25  H5* UNL     1     -12.267  14.856  69.307  1.00  0.00     0.000 HD 
ENDBRANCH  16  23
ENDBRANCH  13  14
TORSDOF 2
ENDMDL
MODEL       23
REMARK 921   NORMALIZED FREE ENERGY PREDICTED BY IDOCK:   -6.70 KCAL/MOL
REMARK 922        TOTAL FREE ENERGY PREDICTED BY IDOCK:   -6.91 KCAL/MOL
REMARK 923 INTER-LIGAND FREE ENERGY PREDICTED BY IDOCK:   -6.71 KCAL/MOL
REMARK 924 INTRA-LIGAND FREE ENERGY PREDICTED BY IDOCK:   -0.20 KCAL/MOL
REMARK 927      BINDING AFFINITY PREDICTED BY RF-SCORE:    0.00 PKD
ROOT
HETATM    1  N   UNL     1      -7.804  19.584  68.636  1.00  0.00    -0.354 NA 
HETATM    2  C   UNL     1      -8.604  18.970  67.686  1.00  0.00    -0.289 A  
HETATM    3  H2  UNL     1      -8.387  20.175  69.228  1.00  0.00     0.000 HD 
HETATM    4  H1  UNL     1      -7.215  18.998  69.229  1.00  0.00     0.000 HD 
HETATM    5  N   UNL     1      -9.382  19.744  66.903  1.00  0.00    -0.345 NA 
HETATM    6  C   UNL     1     -10.199  19.141  66.015  1.00  0.00    -0.424 A  
HETATM    7  N   UNL     1     -10.365  17.818  65.809  1.00  0.00    -0.609 NA 
HETATM    8  F   UNL     1     -10.951  19.953  65.255  1.00  0.00    -0.583 F  
HETATM    9  C   UNL     1      -9.545  17.088  66.586  1.00  0.00    -0.266 A  
HETATM   10  C   UNL     1      -8.637  17.577  67.509  1.00  0.00    -0.221 A  
HETATM   11  N   UNL     1      -7.925  16.552  68.081  1.00  0.00    -0.159 NA 
HETATM   12  C   UNL     1      -8.400  15.457  67.522  1.00  0.00    -0.174 A  
HETATM   13  N   UNL     1      -9.456  15.715  66.687  1.00  0.00    -0.242 NA 
ENDROOT
BRANCH  13  14
HETATM   14  C1* UNL     1     -10.266  14.750  65.962  1.00  0.00    -0.304 C  
HETATM   15  O4* UNL     1     -11.656  14.909  66.340  1.00  0.00    -0.330 OA 
HETATM   16  C4* UNL     1     -11.962  13.956  67.380  1.00  0.00    -0.401 C  
HETATM   17  H2* UNL     1      -8.565  11.896  66.604  1.00  0.00     0.000 HD 
HETATM   18  C3* UNL     1     -11.076  12.749  67.114  1.00  0.00    -0.277 C  
HETATM   19  C2* UNL     1     -10.020  13.237  66.121  1.00  0.00    -0.293 C  
HETATM   20  O3* UNL     1     -11.817  11.686  66.508  1.00  0.00    -0.500 OA 
HETATM   21  H3* UNL     1     -11.264  10.931  66.342  1.00  0.00     0.000 HD 
HETATM   22  O2* UNL     1      -8.716  12.829  66.505  1.00  0.00    -0.117 OA 
BRANCH  16  23
HETATM   23  C5* UNL     1     -11.693  14.559  68.768  1.00  0.00    -0.327 C  
HETATM   24  O5* UNL     1     -11.954  15.957  68.756  1.00  0.00    -0.496 OA 
HETATM   25  H5* UNL     1     -11.788  16.330  69.613  1.00  0.00     0.000 HD 
ENDBRANCH  16  23
ENDBRANCH  13  14
TORSDOF 2
ENDMDL
MODEL       24
REMARK 921   NORMALIZED FREE ENERGY PREDICTED BY IDOCK:   -6.65 KCAL/MOL
REMARK 922        TOTAL FREE ENERGY PREDICTED BY IDOCK:   -6.86 KCAL/MOL
REMARK 923 INTER-LIGAND FREE ENERGY PREDICTED BY IDOCK:   -7.59 KCAL/MOL
REMARK 924 INTRA-LIGAND FREE ENERGY PREDICTED BY IDOCK:    0.73 KCAL/MOL
REMARK 927      BINDING AFFINITY PREDICTED BY RF-SCORE:    0.00 PKD
ROOT
HETATM    1  N   UNL     1     -10.654  20.366  65.361  1.00  0.00    -0.209 NA 
HETATM    2  C   UNL     1     -10.530  19.394  66.341  1.00  0.00    -0.488 A  
HETATM    3  H2  UNL     1      -9.825  20.960  65.377  1.00  0.00     0.000 HD 
HETATM    4  H1  UNL     1     -10.830  20.070  64.401  1.00  0.00     0.000 HD 
HETATM    5  N   UNL     1     -10.295  19.786  67.610  1.00  0.00    -0.433 NA 
HETATM    6  C   UNL     1     -10.122  18.837  68.552  1.00  0.00    -0.392 A  
HETATM    7  N   UNL     1     -10.133  17.498  68.389  1.00  0.00    -0.335 NA 
HETATM    8  F   UNL     1      -9.896  19.276  69.801  1.00  0.00    -0.238 F  
HETATM    9  C   UNL     1     -10.404  17.155  67.118  1.00  0.00    -0.307 A  
HETATM   10  C   UNL     1     -10.637  18.021  66.065  1.00  0.00    -0.251 A  
HETATM   11  N   UNL     1     -10.939  17.326  64.920  1.00  0.00    -0.850 NA 
HETATM   12  C   UNL     1     -10.882  16.058  65.270  1.00  0.00    -0.362 A  
HETATM   13  N   UNL     1     -10.458  15.893  66.564  1.00  0.00    -0.300 NA 
ENDROOT
BRANCH  13  14
HETATM   14  C1* UNL     1     -10.211  14.641  67.260  1.00  0.00    -0.241 C  
HETATM   15  O4* UNL     1     -10.090  13.569  66.292  1.00  0.00    -0.283 OA 
HETATM   16  C4* UNL     1     -11.372  12.916  66.166  1.00  0.00    -0.317 C  
HETATM   17  H2* UNL     1     -12.701  14.694  69.552  1.00  0.00     0.000 HD 
HETATM   18  C3* UNL     1     -12.034  13.032  67.531  1.00  0.00    -0.306 C  
HETATM   19  C2* UNL     1     -11.228  14.092  68.280  1.00  0.00    -0.272 C  
HETATM   20  O3* UNL     1     -11.953  11.799  68.252  1.00  0.00    -0.487 OA 
HETATM   21  H3* UNL     1     -12.367  11.871  69.105  1.00  0.00     0.000 HD 
HETATM   22  O2* UNL     1     -12.074  15.033  68.922  1.00  0.00    -0.271 OA 
BRANCH  16  23
HETATM   23  C5* UNL     1     -12.217  13.581  65.070  1.00  0.00    -0.419 C  
HETATM   24  O5* UNL     1     -13.199  12.673  64.586  1.00  0.00    -0.828 OA 
HETATM   25  H5* UNL     1     -13.722  13.084  63.908  1.00  0.00     0.000 HD 
ENDBRANCH  16  23
ENDBRANCH  13  14
TORSDOF 2
ENDMDL
MODEL       25
REMARK 921   NORMALIZED FREE ENERGY PREDICTED BY IDOCK:   -6.53 KCAL/MOL
REMARK 922        TOTAL FREE ENERGY PREDICTED BY IDOCK:   -6.72 KCAL/MOL
REMARK 923 INTER-LIGAND FREE ENERGY PREDICTED BY IDOCK:   -6.59 KCAL/MOL
REMARK 924 INTRA-LIGAND FREE ENERGY PREDICTED BY IDOCK:   -0.12 KCAL/MOL
REMARK 927      BINDING AFFINITY PREDICTED BY RF-SCORE:    0.00 PKD
ROOT
HETATM    1  N   UNL     1     -12.815  11.721  62.857  1.00  0.00    -0.816 NA 
HETATM    2  C   UNL     1     -11.786  11.911  63.765  1.00  0.00    -0.457 A  
HETATM    3  H2  UNL     1     -13.079  10.736  62.856  1.00  0.00     0.000 HD 
HETATM    4  H1  UNL     1     -13.657  12.290  62.950  1.00  0.00     0.000 HD 
HETATM    5  N   UNL     1     -10.673  11.159  63.643  1.00  0.00    -0.360 NA 
HETATM    6  C   UNL     1      -9.695  11.307  64.559  1.00  0.00    -0.253 A  
HETATM    7  N   UNL     1      -9.684  12.123  65.634  1.00  0.00    -0.234 NA 
HETATM    8  F   UNL     1      -8.605  10.540  64.392  1.00  0.00    -0.171 F  
HETATM    9  C   UNL     1     -10.796  12.876  65.695  1.00  0.00    -0.273 A  
HETATM   10  C   UNL     1     -11.856  12.851  64.806  1.00  0.00    -0.363 A  
HETATM   11  N   UNL     1     -12.795  13.795  65.141  1.00  0.00    -0.748 NA 
HETATM   12  C   UNL     1     -12.318  14.377  66.222  1.00  0.00    -0.301 A  
HETATM   13  N   UNL     1     -11.161  13.789  66.663  1.00  0.00    -0.307 NA 
ENDROOT
BRANCH  13  14
HETATM   14  C1* UNL     1     -10.401  14.120  67.857  1.00  0.00    -0.234 C  
HETATM   15  O4* UNL     1     -10.161  12.913  68.623  1.00  0.00    -0.229 OA 
HETATM   16  C4* UNL     1     -11.176  12.808  69.645  1.00  0.00    -0.002 C  
HETATM   17  H2* UNL     1     -12.249  16.672  69.091  1.00  0.00     0.000 HD 
HETATM   18  C3* UNL     1     -11.541  14.236  70.018  1.00  0.00    -0.261 C  
HETATM   19  C2* UNL     1     -10.962  15.105  68.901  1.00  0.00    -0.254 C  
HETATM   20  O3* UNL     1     -10.935  14.619  71.257  1.00  0.00    -0.484 OA 
HETATM   21  H3* UNL     1     -11.164  15.511  71.490  1.00  0.00     0.000 HD 
HETATM   22  O2* UNL     1     -11.903  16.065  68.447  1.00  0.00    -0.304 OA 
BRANCH  16  23
HETATM   23  C5* UNL     1     -12.395  12.031  69.124  1.00  0.00     0.125 C  
HETATM   24  O5* UNL     1     -11.981  11.017  68.216  1.00  0.00    -0.668 OA 
HETATM   25  H5* UNL     1     -12.734  10.537  67.894  1.00  0.00     0.000 HD 
ENDBRANCH  16  23
ENDBRANCH  13  14
TORSDOF 2
ENDMDL
MODEL       26
REMARK 921   NORMALIZED FREE ENERGY PREDICTED BY IDOCK:   -6.52 KCAL/MOL
REMARK 922        TOTAL FREE ENERGY PREDICTED BY IDOCK:   -6.71 KCAL/MOL
REMARK 923 INTER-LIGAND FREE ENERGY PREDICTED BY IDOCK:   -6.74 KCAL/MOL
REMARK 924 INTRA-LIGAND FREE ENERGY PREDICTED BY IDOCK:    0.03 KCAL/MOL
REMARK 927      BINDING AFFINITY PREDICTED BY RF-SCORE:    0.00 PKD
ROOT
HETATM    1  N   UNL     1     -13.213  14.356  71.485  1.00  0.00    -0.330 NA 
HETATM    2  C   UNL     1     -12.259  14.731  70.553  1.00  0.00    -0.322 A  
HETATM    3  H2  UNL     1     -14.017  14.978  71.405  1.00  0.00     0.000 HD 
HETATM    4  H1  UNL     1     -13.541  13.390  71.485  1.00  0.00     0.000 HD 
HETATM    5  N   UNL     1     -11.826  16.009  70.553  1.00  0.00    -0.342 NA 
HETATM    6  C   UNL     1     -10.938  16.385  69.612  1.00  0.00    -0.329 A  
HETATM    7  N   UNL     1     -10.416  15.634  68.620  1.00  0.00    -0.225 NA 
HETATM    8  F   UNL     1     -10.534  17.664  69.656  1.00  0.00    -0.287 F  
HETATM    9  C   UNL     1     -10.848  14.362  68.680  1.00  0.00    -0.251 A  
HETATM   10  C   UNL     1     -11.727  13.837  69.610  1.00  0.00    -0.318 A  
HETATM   11  N   UNL     1     -11.901  12.489  69.409  1.00  0.00    -0.316 NA 
HETATM   12  C   UNL     1     -11.147  12.204  68.367  1.00  0.00    -0.245 A  
HETATM   13  N   UNL     1     -10.569  13.320  67.820  1.00  0.00    -0.238 NA 
ENDROOT
BRANCH  13  14
HETATM   14  C1* UNL     1      -9.738  13.392  66.630  1.00  0.00    -0.275 C  
HETATM   15  O4* UNL     1     -10.213  14.464  65.777  1.00  0.00    -0.305 OA 
HETATM   16  C4* UNL     1     -11.095  13.904  64.781  1.00  0.00    -0.383 C  
HETATM   17  H2* UNL     1      -9.800  10.162  65.624  1.00  0.00     0.000 HD 
HETATM   18  C3* UNL     1     -10.582  12.496  64.515  1.00  0.00    -0.336 C  
HETATM   19  C2* UNL     1      -9.629  12.190  65.671  1.00  0.00    -0.165 C  
HETATM   20  O3* UNL     1      -9.849  12.436  63.288  1.00  0.00    -0.573 OA 
HETATM   21  H3* UNL     1      -9.529  11.556  63.121  1.00  0.00     0.000 HD 
HETATM   22  O2* UNL     1      -9.868  10.902  66.216  1.00  0.00    -0.202 OA 
BRANCH  16  23
HETATM   23  C5* UNL     1     -12.546  13.891  65.284  1.00  0.00    -0.478 C  
HETATM   24  O5* UNL     1     -13.174  12.660  64.945  1.00  0.00    -0.819 OA 
HETATM   25  H5* UNL     1     -14.071  12.652  65.256  1.00  0.00     0.000 HD 
ENDBRANCH  16  23
ENDBRANCH  13  14
TORSDOF 2
ENDMDL
MODEL       27
REMARK 921   NORMALIZED FREE ENERGY PREDICTED BY IDOCK:   -6.49 KCAL/MOL
REMARK 922        TOTAL FREE ENERGY PREDICTED BY IDOCK:   -6.67 KCAL/MOL
REMARK 923 INTER-LIGAND FREE ENERGY PREDICTED BY IDOCK:   -6.75 KCAL/MOL
REMARK 924 INTRA-LIGAND FREE ENERGY PREDICTED BY IDOCK:    0.08 KCAL/MOL
REMARK 927      BINDING AFFINITY PREDICTED BY RF-SCORE:    0.00 PKD
ROOT
HETATM    1  N   UNL     1     -10.298  17.633  68.661  1.00  0.00    -0.368 NA 
HETATM    2  C   UNL     1     -10.924  16.402  68.555  1.00  0.00    -0.350 A  
HETATM    3  H2  UNL     1      -9.663  17.614  69.459  1.00  0.00     0.000 HD 
HETATM    4  H1  UNL     1      -9.799  17.998  67.850  1.00  0.00     0.000 HD 
HETATM    5  N   UNL     1     -11.583  15.919  69.628  1.00  0.00    -0.339 NA 
HETATM    6  C   UNL     1     -12.146  14.697  69.539  1.00  0.00    -0.295 A  
HETATM    7  N   UNL     1     -12.123  13.851  68.489  1.00  0.00    -0.351 NA 
HETATM    8  F   UNL     1     -12.794  14.262  70.632  1.00  0.00    -0.373 F  
HETATM    9  C   UNL     1     -11.487  14.387  67.433  1.00  0.00    -0.358 A  
HETATM   10  C   UNL     1     -10.898  15.637  67.377  1.00  0.00    -0.315 A  
HETATM   11  N   UNL     1     -10.392  15.881  66.124  1.00  0.00    -0.312 NA 
HETATM   12  C   UNL     1     -10.660  14.792  65.433  1.00  0.00    -0.378 A  
HETATM   13  N   UNL     1     -11.229  13.813  66.205  1.00  0.00    -0.303 NA 
ENDROOT
BRANCH  13  14
HETATM   14  C1* UNL     1     -11.589  12.465  65.799  1.00  0.00    -0.398 C  
HETATM   15  O4* UNL     1     -11.470  11.572  66.934  1.00  0.00    -0.441 OA 
HETATM   16  C4* UNL     1     -10.175  10.934  66.885  1.00  0.00    -0.228 C  
HETATM   17  H2* UNL     1      -9.659  12.103  63.043  1.00  0.00     0.000 HD 
HETATM   18  C3* UNL     1      -9.828  10.811  65.409  1.00  0.00    -0.262 C  
HETATM   19  C2* UNL     1     -10.805  11.740  64.687  1.00  0.00    -0.307 C  
HETATM   20  O3* UNL     1     -10.033   9.476  64.938  1.00  0.00    -0.396 OA 
HETATM   21  H3* UNL     1      -9.815   9.399  64.016  1.00  0.00     0.000 HD 
HETATM   22  O2* UNL     1     -10.142  12.550  63.728  1.00  0.00    -0.388 OA 
BRANCH  16  23
HETATM   23  C5* UNL     1      -9.129  11.765  67.644  1.00  0.00    -0.177 C  
HETATM   24  O5* UNL     1      -9.542  11.964  68.990  1.00  0.00    -0.409 OA 
HETATM   25  H5* UNL     1      -8.895  12.477  69.460  1.00  0.00     0.000 HD 
ENDBRANCH  16  23
ENDBRANCH  13  14
TORSDOF 2
ENDMDL
MODEL       28
REMARK 921   NORMALIZED FREE ENERGY PREDICTED BY IDOCK:   -6.44 KCAL/MOL
REMARK 922        TOTAL FREE ENERGY PREDICTED BY IDOCK:   -6.62 KCAL/MOL
REMARK 923 INTER-LIGAND FREE ENERGY PREDICTED BY IDOCK:   -6.68 KCAL/MOL
REMARK 924 INTRA-LIGAND FREE ENERGY PREDICTED BY IDOCK:    0.06 KCAL/MOL
REMARK 927      BINDING AFFINITY PREDICTED BY RF-SCORE:    0.00 PKD
ROOT
HETATM    1  N   UNL     1     -10.969  13.419  69.222  1.00  0.00    -0.429 NA 
HETATM    2  C   UNL     1     -11.683  12.598  70.079  1.00  0.00    -0.215 A  
HETATM    3  H2  UNL     1     -10.457  14.107  69.774  1.00  0.00     0.000 HD 
HETATM    4  H1  UNL     1     -10.330  12.987  68.554  1.00  0.00     0.000 HD 
HETATM    5  N   UNL     1     -12.528  13.168  70.963  1.00  0.00    -0.364 NA 
HETATM    6  C   UNL     1     -13.182  12.371  71.832  1.00  0.00    -0.382 A  
HETATM    7  N   UNL     1     -13.090  11.030  71.955  1.00  0.00    -0.483 NA 
HETATM    8  F   UNL     1     -14.014  12.985  72.688  1.00  0.00    -0.626 F  
HETATM    9  C   UNL     1     -12.266  10.503  71.033  1.00  0.00    -0.400 A  
HETATM   10  C   UNL     1     -11.563  11.199  70.065  1.00  0.00    -0.338 A  
HETATM   11  N   UNL     1     -10.865  10.336  69.256  1.00  0.00    -0.224 NA 
HETATM   12  C   UNL     1     -11.132   9.137  69.731  1.00  0.00    -0.125 A  
HETATM   13  N   UNL     1     -11.891   9.185  70.872  1.00  0.00    -0.286 NA 
ENDROOT
BRANCH  13  14
HETATM   14  C1* UNL     1     -12.312   8.068  71.701  1.00  0.00    -0.314 C  
HETATM   15  O4* UNL     1     -11.771   8.230  73.036  1.00  0.00    -0.265 OA 
HETATM   16  C4* UNL     1     -10.548   7.470  73.132  1.00  0.00    -0.388 C  
HETATM   17  H2* UNL     1     -11.436   5.459  69.732  1.00  0.00     0.000 HD 
HETATM   18  C3* UNL     1     -10.725   6.276  72.206  1.00  0.00    -0.229 C  
HETATM   19  C2* UNL     1     -11.929   6.622  71.329  1.00  0.00    -0.355 C  
HETATM   20  O3* UNL     1     -11.023   5.087  72.945  1.00  0.00    -0.242 OA 
HETATM   21  H3* UNL     1     -11.134   4.341  72.367  1.00  0.00     0.000 HD 
HETATM   22  O2* UNL     1     -11.672   6.351  69.961  1.00  0.00    -0.429 OA 
BRANCH  16  23
HETATM   23  C5* UNL     1      -9.340   8.327  72.723  1.00  0.00    -0.268 C  
HETATM   24  O5* UNL     1      -8.396   8.386  73.784  1.00  0.00    -0.319 OA 
HETATM   25  H5* UNL     1      -7.649   8.915  73.532  1.00  0.00     0.000 HD 
ENDBRANCH  16  23
ENDBRANCH  13  14
TORSDOF 2
ENDMDL
MODEL       29
REMARK 921   NORMALIZED FREE ENERGY PREDICTED BY IDOCK:   -6.34 KCAL/MOL
REMARK 922        TOTAL FREE ENERGY PREDICTED BY IDOCK:   -6.51 KCAL/MOL
REMARK 923 INTER-LIGAND FREE ENERGY PREDICTED BY IDOCK:   -6.61 KCAL/MOL
REMARK 924 INTRA-LIGAND FREE ENERGY PREDICTED BY IDOCK:    0.10 KCAL/MOL
REMARK 927      BINDING AFFINITY PREDICTED BY RF-SCORE:    0.00 PKD
ROOT
HETATM    1  N   UNL     1     -10.884  19.340  67.363  1.00  0.00    -0.487 NA 
HETATM    2  C   UNL     1     -10.176  18.152  67.277  1.00  0.00    -0.367 A  
HETATM    3  H2  UNL     1     -11.081  19.677  66.421  1.00  0.00     0.000 HD 
HETATM    4  H1  UNL     1     -11.746  19.354  67.908  1.00  0.00     0.000 HD 
HETATM    5  N   UNL     1      -9.036  18.132  66.557  1.00  0.00    -0.303 NA 
HETATM    6  C   UNL     1      -8.377  16.963  66.431  1.00  0.00    -0.298 A  
HETATM    7  N   UNL     1      -8.726  15.758  66.931  1.00  0.00    -0.221 NA 
HETATM    8  F   UNL     1      -7.246  16.995  65.708  1.00  0.00    -0.251 F  
HETATM    9  C   UNL     1      -9.847  15.833  67.668  1.00  0.00    -0.232 A  
HETATM   10  C   UNL     1     -10.598  16.970  67.908  1.00  0.00    -0.365 A  
HETATM   11  N   UNL     1     -11.645  16.692  68.752  1.00  0.00    -0.071 NA 
HETATM   12  C   UNL     1     -11.537  15.406  69.013  1.00  0.00    -0.347 A  
HETATM   13  N   UNL     1     -10.528  14.813  68.299  1.00  0.00    -0.237 NA 
ENDROOT
BRANCH  13  14
HETATM   14  C1* UNL     1     -10.168  13.405  68.280  1.00  0.00    -0.250 C  
HETATM   15  O4* UNL     1     -10.151  12.931  66.910  1.00  0.00    -0.234 OA 
HETATM   16  C4* UNL     1     -11.425  12.316  66.620  1.00  0.00    -0.373 C  
HETATM   17  H2* UNL     1     -12.342  12.170  70.561  1.00  0.00     0.000 HD 
HETATM   18  C3* UNL     1     -11.909  11.720  67.934  1.00  0.00    -0.219 C  
HETATM   19  C2* UNL     1     -11.034  12.360  69.012  1.00  0.00    -0.197 C  
HETATM   20  O3* UNL     1     -11.710  10.303  67.963  1.00  0.00    -0.712 OA 
HETATM   21  H3* UNL     1     -12.013   9.931  68.784  1.00  0.00     0.000 HD 
HETATM   22  O2* UNL     1     -11.809  12.815  70.110  1.00  0.00    -0.319 OA 
BRANCH  16  23
HETATM   23  C5* UNL     1     -12.418  13.352  66.071  1.00  0.00    -0.369 C  
HETATM   24  O5* UNL     1     -12.962  12.906  64.835  1.00  0.00    -0.754 OA 
HETATM   25  H5* UNL     1     -13.576  13.546  64.496  1.00  0.00     0.000 HD 
ENDBRANCH  16  23
ENDBRANCH  13  14
TORSDOF 2
ENDMDL
MODEL       30
REMARK 921   NORMALIZED FREE ENERGY PREDICTED BY IDOCK:   -6.33 KCAL/MOL
REMARK 922        TOTAL FREE ENERGY PREDICTED BY IDOCK:   -6.50 KCAL/MOL
REMARK 923 INTER-LIGAND FREE ENERGY PREDICTED BY IDOCK:   -6.81 KCAL/MOL
REMARK 924 INTRA-LIGAND FREE ENERGY PREDICTED BY IDOCK:    0.31 KCAL/MOL
REMARK 927      BINDING AFFINITY PREDICTED BY RF-SCORE:    0.00 PKD
ROOT
HETATM    1  N   UNL     1     -11.779  12.943  66.940  1.00  0.00    -0.366 NA 
HETATM    2  C   UNL     1     -11.249  11.686  67.182  1.00  0.00    -0.309 A  
HETATM    3  H2  UNL     1     -12.453  12.877  66.177  1.00  0.00     0.000 HD 
HETATM    4  H1  UNL     1     -12.206  13.449  67.716  1.00  0.00     0.000 HD 
HETATM    5  N   UNL     1     -10.686  11.017  66.155  1.00  0.00    -0.231 NA 
HETATM    6  C   UNL     1     -10.218   9.772  66.381  1.00  0.00    -0.217 A  
HETATM    7  N   UNL     1     -10.256   9.070  67.533  1.00  0.00    -0.225 NA 
HETATM    8  F   UNL     1      -9.663   9.148  65.330  1.00  0.00    -0.319 F  
HETATM    9  C   UNL     1     -10.793   9.789  68.534  1.00  0.00    -0.188 A  
HETATM   10  C   UNL     1     -11.277  11.082  68.449  1.00  0.00    -0.274 A  
HETATM   11  N   UNL     1     -11.699  11.526  69.679  1.00  0.00    -0.322 NA 
HETATM   12  C   UNL     1     -11.484  10.514  70.495  1.00  0.00    -0.345 A  
HETATM   13  N   UNL     1     -11.035   9.399  69.835  1.00  0.00    -0.237 NA 
ENDROOT
BRANCH  13  14
HETATM   14  C1* UNL     1     -10.763   8.088  70.400  1.00  0.00    -0.233 C  
HETATM   15  O4* UNL     1     -11.998   7.332  70.477  1.00  0.00    -0.255 OA 
HETATM   16  C4* UNL     1     -12.544   7.477  71.805  1.00  0.00    -0.334 C  
HETATM   17  H2* UNL     1      -9.029   8.946  73.176  1.00  0.00     0.000 HD 
HETATM   18  C3* UNL     1     -11.348   7.635  72.732  1.00  0.00    -0.367 C  
HETATM   19  C2* UNL     1     -10.166   7.947  71.814  1.00  0.00    -0.196 C  
HETATM   20  O3* UNL     1     -11.074   6.419  73.436  1.00  0.00    -0.455 OA 
HETATM   21  H3* UNL     1     -10.327   6.518  74.015  1.00  0.00     0.000 HD 
HETATM   22  O2* UNL     1      -9.398   9.034  72.304  1.00  0.00    -0.333 OA 
BRANCH  16  23
HETATM   23  C5* UNL     1     -13.481   8.692  71.881  1.00  0.00    -0.397 C  
HETATM   24  O5* UNL     1     -13.961   8.862  73.209  1.00  0.00    -1.203 OA 
HETATM   25  H5* UNL     1     -14.540   9.613  73.255  1.00  0.00     0.000 HD 
ENDBRANCH  16  23
ENDBRANCH  13  14
TORSDOF 2
ENDMDL
MODEL       31
REMARK 921   NORMALIZED FREE ENERGY PREDICTED BY IDOCK:   -6.30 KCAL/MOL
REMARK 922        TOTAL FREE ENERGY PREDICTED BY IDOCK:   -6.46 KCAL/MOL
REMARK 923 INTER-LIGAND FREE ENERGY PREDICTED BY IDOCK:   -6.22 KCAL/MOL
REMARK 924 INTRA-LIGAND FREE ENERGY PREDICTED BY IDOCK:   -0.24 KCAL/MOL
REMARK 927      BINDING AFFINITY PREDICTED BY RF-SCORE:    0.00 PKD
ROOT
HETATM    1  N   UNL     1      -6.408  18.525  68.469  1.00  0.00    -0.208 NA 
HETATM    2  C   UNL     1      -7.751  18.376  68.163  1.00  0.00    -0.290 A  
HETATM    3  H2  UNL     1      -6.308  18.625  69.479  1.00  0.00     0.000 HD 
HETATM    4  H1  UNL     1      -5.752  17.817  68.139  1.00  0.00     0.000 HD 
HETATM    5  N   UNL     1      -8.618  19.313  68.600  1.00  0.00    -0.364 NA 
HETATM    6  C   UNL     1      -9.931  19.139  68.347  1.00  0.00    -0.418 A  
HETATM    7  N   UNL     1     -10.521  18.107  67.708  1.00  0.00    -0.397 NA 
HETATM    8  F   UNL     1     -10.754  20.099  68.798  1.00  0.00    -0.471 F  
HETATM    9  C   UNL     1      -9.617  17.218  67.261  1.00  0.00    -0.254 A  
HETATM   10  C   UNL     1      -8.245  17.292  67.419  1.00  0.00    -0.191 A  
HETATM   11  N   UNL     1      -7.624  16.244  66.785  1.00  0.00    -0.242 NA 
HETATM   12  C   UNL     1      -8.605  15.539  66.259  1.00  0.00    -0.173 A  
HETATM   13  N   UNL     1      -9.839  16.025  66.605  1.00  0.00    -0.248 NA 
ENDROOT
BRANCH  13  14
HETATM   14  C1* UNL     1     -11.137  15.463  66.267  1.00  0.00    -0.226 C  
HETATM   15  O4* UNL     1     -11.748  14.915  67.462  1.00  0.00    -0.360 OA 
HETATM   16  C4* UNL     1     -11.468  13.500  67.515  1.00  0.00    -0.329 C  
HETATM   17  H2* UNL     1     -10.307  13.503  63.637  1.00  0.00     0.000 HD 
HETATM   18  C3* UNL     1     -11.385  13.037  66.069  1.00  0.00    -0.310 C  
HETATM   19  C2* UNL     1     -11.257  14.318  65.243  1.00  0.00    -0.337 C  
HETATM   20  O3* UNL     1     -12.579  12.355  65.674  1.00  0.00    -0.575 OA 
HETATM   21  H3* UNL     1     -12.527  12.065  64.770  1.00  0.00     0.000 HD 
HETATM   22  O2* UNL     1     -10.232  14.209  64.268  1.00  0.00    -0.161 OA 
BRANCH  16  23
HETATM   23  C5* UNL     1     -10.157  13.233  68.270  1.00  0.00    -0.250 C  
HETATM   24  O5* UNL     1      -9.940  14.238  69.252  1.00  0.00    -0.416 OA 
HETATM   25  H5* UNL     1      -9.130  14.073  69.719  1.00  0.00     0.000 HD 
ENDBRANCH  16  23
ENDBRANCH  13  14
TORSDOF 2
ENDMDL
MODEL       32
REMARK 921   NORMALIZED FREE ENERGY PREDICTED BY IDOCK:   -6.20 KCAL/MOL
REMARK 922        TOTAL FREE ENERGY PREDICTED BY IDOCK:   -6.35 KCAL/MOL
REMARK 923 INTER-LIGAND FREE ENERGY PREDICTED BY IDOCK:   -6.10 KCAL/MOL
REMARK 924 INTRA-LIGAND FREE ENERGY PREDICTED BY IDOCK:   -0.25 KCAL/MOL
REMARK 927      BINDING AFFINITY PREDICTED BY RF-SCORE:    0.00 PKD
ROOT
HETATM    1  N   UNL     1     -14.203   8.916  73.176  1.00  0.00    -1.200 NA 
HETATM    2  C   UNL     1     -13.163   9.347  72.368  1.00  0.00    -0.403 A  
HETATM    3  H2  UNL     1     -15.070   8.942  72.640  1.00  0.00     0.000 HD 
HETATM    4  H1  UNL     1     -14.121   8.006  73.630  1.00  0.00     0.000 HD 
HETATM    5  N   UNL     1     -13.271  10.550  71.766  1.00  0.00    -0.431 NA 
HETATM    6  C   UNL     1     -12.283  10.944  70.939  1.00  0.00    -0.381 A  
HETATM    7  N   UNL     1     -11.165  10.267  70.602  1.00  0.00    -0.330 NA 
HETATM    8  F   UNL     1     -12.434  12.150  70.368  1.00  0.00    -0.353 F  
HETATM    9  C   UNL     1     -11.083   9.092  71.251  1.00  0.00    -0.312 A  
HETATM   10  C   UNL     1     -12.004   8.584  72.150  1.00  0.00    -0.383 A  
HETATM   11  N   UNL     1     -11.572   7.387  72.665  1.00  0.00    -0.282 NA 
HETATM   12  C   UNL     1     -10.412   7.167  72.082  1.00  0.00    -0.206 A  
HETATM   13  N   UNL     1     -10.116   8.115  71.137  1.00  0.00    -0.181 NA 
ENDROOT
BRANCH  13  14
HETATM   14  C1* UNL     1      -8.963   8.153  70.253  1.00  0.00    -0.146 C  
HETATM   15  O4* UNL     1      -9.395   7.921  68.889  1.00  0.00    -0.150 OA 
HETATM   16  C4* UNL     1      -9.225   6.520  68.584  1.00  0.00    -0.127 C  
HETATM   17  H2* UNL     1      -6.882   6.012  71.846  1.00  0.00     0.000 HD 
HETATM   18  C3* UNL     1      -8.028   6.058  69.402  1.00  0.00    -0.103 C  
HETATM   19  C2* UNL     1      -7.797   7.160  70.436  1.00  0.00    -0.100 C  
HETATM   20  O3* UNL     1      -6.858   5.942  68.586  1.00  0.00    -0.061 OA 
HETATM   21  H3* UNL     1      -6.110   5.653  69.097  1.00  0.00     0.000 HD 
HETATM   22  O2* UNL     1      -7.600   6.624  71.734  1.00  0.00    -0.091 OA 
BRANCH  16  23
HETATM   23  C5* UNL     1     -10.492   5.727  68.940  1.00  0.00    -0.256 C  
HETATM   24  O5* UNL     1     -11.639   6.562  68.840  1.00  0.00    -0.606 OA 
HETATM   25  H5* UNL     1     -12.422   6.072  69.059  1.00  0.00     0.000 HD 
ENDBRANCH  16  23
ENDBRANCH  13  14
TORSDOF 2
ENDMDL
MODEL       33
REMARK 921   NORMALIZED FREE ENERGY PREDICTED BY IDOCK:   -6.17 KCAL/MOL
REMARK 922        TOTAL FREE ENERGY PREDICTED BY IDOCK:   -6.32 KCAL/MOL
REMARK 923 INTER-LIGAND FREE ENERGY PREDICTED BY IDOCK:   -6.37 KCAL/MOL
REMARK 924 INTRA-LIGAND FREE ENERGY PREDICTED BY IDOCK:    0.05 KCAL/MOL
REMARK 927      BINDING AFFINITY PREDICTED BY RF-SCORE:    0.00 PKD
ROOT
HETATM    1  N   UNL     1      -9.043  11.008  64.766  1.00  0.00    -0.313 NA 
HETATM    2  C   UNL     1      -9.928  12.067  64.880  1.00  0.00    -0.227 A  
HETATM    3  H2  UNL     1      -8.562  11.073  63.868  1.00  0.00     0.000 HD 
HETATM    4  H1  UNL     1      -8.351  10.870  65.503  1.00  0.00     0.000 HD 
HETATM    5  N   UNL     1     -10.843  12.250  63.905  1.00  0.00    -0.373 NA 
HETATM    6  C   UNL     1     -11.669  13.312  63.992  1.00  0.00    -0.430 A  
HETATM    7  N   UNL     1     -11.694  14.264  64.948  1.00  0.00    -0.377 NA 
HETATM    8  F   UNL     1     -12.564  13.449  63.001  1.00  0.00    -0.473 F  
HETATM    9  C   UNL     1     -10.791  14.022  65.914  1.00  0.00    -0.288 A  
HETATM   10  C   UNL     1      -9.911  12.956  65.967  1.00  0.00    -0.272 A  
HETATM   11  N   UNL     1      -9.174  12.991  67.125  1.00  0.00    -0.218 NA 
HETATM   12  C   UNL     1      -9.592  14.066  67.760  1.00  0.00    -0.216 A  
HETATM   13  N   UNL     1     -10.497  14.787  67.023  1.00  0.00    -0.267 NA 
ENDROOT
BRANCH  13  14
HETATM   14  C1* UNL     1     -11.111  16.056  67.375  1.00  0.00    -0.167 C  
HETATM   15  O4* UNL     1     -10.701  17.069  66.422  1.00  0.00    -0.214 OA 
HETATM   16  C4* UNL     1      -9.575  17.788  66.970  1.00  0.00    -0.284 C  
HETATM   17  H2* UNL     1     -10.293  16.264  70.652  1.00  0.00     0.000 HD 
HETATM   18  C3* UNL     1      -9.770  17.780  68.479  1.00  0.00    -0.343 C  
HETATM   19  C2* UNL     1     -10.835  16.714  68.741  1.00  0.00    -0.331 C  
HETATM   20  O3* UNL     1     -10.260  19.042  68.944  1.00  0.00    -0.489 OA 
HETATM   21  H3* UNL     1     -10.382  19.037  69.886  1.00  0.00     0.000 HD 
HETATM   22  O2* UNL     1     -10.463  15.858  69.809  1.00  0.00    -0.273 OA 
BRANCH  16  23
HETATM   23  C5* UNL     1      -8.253  17.117  66.569  1.00  0.00    -0.273 C  
HETATM   24  O5* UNL     1      -7.582  17.898  65.588  1.00  0.00    -0.546 OA 
HETATM   25  H5* UNL     1      -6.764  17.484  65.340  1.00  0.00     0.000 HD 
ENDBRANCH  16  23
ENDBRANCH  13  14
TORSDOF 2
ENDMDL
MODEL       34
REMARK 921   NORMALIZED FREE ENERGY PREDICTED BY IDOCK:   -6.16 KCAL/MOL
REMARK 922        TOTAL FREE ENERGY PREDICTED BY IDOCK:   -6.30 KCAL/MOL
REMARK 923 INTER-LIGAND FREE ENERGY PREDICTED BY IDOCK:   -6.71 KCAL/MOL
REMARK 924 INTRA-LIGAND FREE ENERGY PREDICTED BY IDOCK:    0.41 KCAL/MOL
REMARK 927      BINDING AFFINITY PREDICTED BY RF-SCORE:    0.00 PKD
ROOT
HETATM    1  N   UNL     1      -6.680  16.215  69.589  1.00  0.00    -0.195 NA 
HETATM    2  C   UNL     1      -7.004  15.057  68.901  1.00  0.00    -0.114 A  
HETATM    3  H2  UNL     1      -5.822  16.603  69.199  1.00  0.00     0.000 HD 
HETATM    4  H1  UNL     1      -7.380  16.955  69.652  1.00  0.00     0.000 HD 
HETATM    5  N   UNL     1      -6.079  14.078  68.817  1.00  0.00    -0.082 NA 
HETATM    6  C   UNL     1      -6.376  12.974  68.102  1.00  0.00    -0.101 A  
HETATM    7  N   UNL     1      -7.509  12.712  67.418  1.00  0.00    -0.152 NA 
HETATM    8  F   UNL     1      -5.425  12.028  68.052  1.00  0.00    -0.044 F  
HETATM    9  C   UNL     1      -8.413  13.697  67.558  1.00  0.00    -0.189 A  
HETATM   10  C   UNL     1      -8.252  14.862  68.288  1.00  0.00    -0.145 A  
HETATM   11  N   UNL     1      -9.400  15.615  68.261  1.00  0.00    -0.190 NA 
HETATM   12  C   UNL     1     -10.240  14.925  67.519  1.00  0.00    -0.233 A  
HETATM   13  N   UNL     1      -9.660  13.805  66.980  1.00  0.00    -0.243 NA 
ENDROOT
BRANCH  13  14
HETATM   14  C1* UNL     1     -10.262  12.854  66.060  1.00  0.00    -0.284 C  
HETATM   15  O4* UNL     1     -10.245  13.405  64.720  1.00  0.00    -0.360 OA 
HETATM   16  C4* UNL     1     -11.522  14.027  64.462  1.00  0.00    -0.370 C  
HETATM   17  H2* UNL     1     -13.163  12.176  67.667  1.00  0.00     0.000 HD 
HETATM   18  C3* UNL     1     -12.543  13.230  65.259  1.00  0.00    -0.470 C  
HETATM   19  C2* UNL     1     -11.723  12.396  66.244  1.00  0.00    -0.395 C  
HETATM   20  O3* UNL     1     -13.282  12.343  64.413  1.00  0.00    -0.816 OA 
HETATM   21  H3* UNL     1     -13.921  11.845  64.911  1.00  0.00     0.000 HD 
HETATM   22  O2* UNL     1     -12.262  12.459  67.554  1.00  0.00    -0.442 OA 
BRANCH  16  23
HETATM   23  C5* UNL     1     -11.503  15.504  64.886  1.00  0.00    -0.279 C  
HETATM   24  O5* UNL     1     -11.628  16.345  63.745  1.00  0.00    -1.605 OA 
HETATM   25  H5* UNL     1     -11.617  17.258  64.007  1.00  0.00     0.000 HD 
ENDBRANCH  16  23
ENDBRANCH  13  14
TORSDOF 2
ENDMDL
MODEL       35
REMARK 921   NORMALIZED FREE ENERGY PREDICTED BY IDOCK:   -6.16 KCAL/MOL
REMARK 922        TOTAL FREE ENERGY PREDICTED BY IDOCK:   -6.30 KCAL/MOL
REMARK 923 INTER-LIGAND FREE ENERGY PREDICTED BY IDOCK:   -6.94 KCAL/MOL
REMARK 924 INTRA-LIGAND FREE ENERGY PREDICTED BY IDOCK:    0.64 KCAL/MOL
REMARK 927      BINDING AFFINITY PREDICTED BY RF-SCORE:    0.00 PKD
ROOT
HETATM    1  N   UNL     1     -14.093  12.804  72.692  1.00  0.00    -0.603 NA 
HETATM    2  C   UNL     1     -13.308  13.918  72.441  1.00  0.00    -0.529 A  
HETATM    3  H2  UNL     1     -15.021  13.112  72.982  1.00  0.00     0.000 HD 
HETATM    4  H1  UNL     1     -14.190  12.102  71.959  1.00  0.00     0.000 HD 
HETATM    5  N   UNL     1     -13.179  14.847  73.411  1.00  0.00    -0.539 NA 
HETATM    6  C   UNL     1     -12.459  15.955  73.145  1.00  0.00    -0.497 A  
HETATM    7  N   UNL     1     -11.840  16.284  71.992  1.00  0.00    -0.524 NA 
HETATM    8  F   UNL     1     -12.356  16.848  74.143  1.00  0.00    -0.523 F  
HETATM    9  C   UNL     1     -11.966  15.315  71.068  1.00  0.00    -0.343 A  
HETATM   10  C   UNL     1     -12.644  14.119  71.220  1.00  0.00    -0.363 A  
HETATM   11  N   UNL     1     -12.517  13.341  70.095  1.00  0.00    -0.199 NA 
HETATM   12  C   UNL     1     -11.783  14.059  69.269  1.00  0.00    -0.326 A  
HETATM   13  N   UNL     1     -11.509  15.307  69.767  1.00  0.00    -0.289 NA 
ENDROOT
BRANCH  13  14
HETATM   14  C1* UNL     1     -10.791  16.384  69.105  1.00  0.00    -0.329 C  
HETATM   15  O4* UNL     1     -11.448  16.701  67.853  1.00  0.00    -0.118 OA 
HETATM   16  C4* UNL     1     -10.782  15.987  66.790  1.00  0.00    -0.259 C  
HETATM   17  H2* UNL     1      -7.630  15.180  69.198  1.00  0.00     0.000 HD 
HETATM   18  C3* UNL     1      -9.325  15.872  67.214  1.00  0.00    -0.211 C  
HETATM   19  C2* UNL     1      -9.312  16.215  68.704  1.00  0.00    -0.222 C  
HETATM   20  O3* UNL     1      -8.507  16.817  66.518  1.00  0.00    -0.230 OA 
HETATM   21  H3* UNL     1      -7.597  16.744  66.783  1.00  0.00     0.000 HD 
HETATM   22  O2* UNL     1      -8.541  15.283  69.446  1.00  0.00    -0.238 OA 
BRANCH  16  23
HETATM   23  C5* UNL     1     -11.420  14.606  66.578  1.00  0.00    -0.351 C  
HETATM   24  O5* UNL     1     -12.512  14.702  65.672  1.00  0.00    -0.250 OA 
HETATM   25  H5* UNL     1     -12.906  13.848  65.541  1.00  0.00     0.000 HD 
ENDBRANCH  16  23
ENDBRANCH  13  14
TORSDOF 2
ENDMDL
MODEL       36
REMARK 921   NORMALIZED FREE ENERGY PREDICTED BY IDOCK:   -6.07 KCAL/MOL
REMARK 922        TOTAL FREE ENERGY PREDICTED BY IDOCK:   -6.20 KCAL/MOL
REMARK 923 INTER-LIGAND FREE ENERGY PREDICTED BY IDOCK:   -6.87 KCAL/MOL
REMARK 924 INTRA-LIGAND FREE ENERGY PREDICTED BY IDOCK:    0.66 KCAL/MOL
REMARK 927      BINDING AFFINITY PREDICTED BY RF-SCORE:    0.00 PKD
ROOT
HETATM    1  N   UNL     1     -12.063  14.719  68.681  1.00  0.00    -0.572 NA 
HETATM    2  C   UNL     1     -12.471  13.963  69.768  1.00  0.00    -0.188 A  
HETATM    3  H2  UNL     1     -11.528  15.520  69.016  1.00  0.00     0.000 HD 
HETATM    4  H1  UNL     1     -11.537  14.258  67.937  1.00  0.00     0.000 HD 
HETATM    5  N   UNL     1     -13.165  14.572  70.751  1.00  0.00    -0.328 NA 
HETATM    6  C   UNL     1     -13.516  13.848  71.832  1.00  0.00    -0.427 A  
HETATM    7  N   UNL     1     -13.241  12.551  72.084  1.00  0.00    -0.467 NA 
HETATM    8  F   UNL     1     -14.209  14.497  72.781  1.00  0.00    -0.468 F  
HETATM    9  C   UNL     1     -12.579  11.977  71.064  1.00  0.00    -0.273 A  
HETATM   10  C   UNL     1     -12.191  12.592  69.887  1.00  0.00    -0.163 A  
HETATM   11  N   UNL     1     -11.589  11.692  69.043  1.00  0.00    -0.287 NA 
HETATM   12  C   UNL     1     -11.602  10.551  69.701  1.00  0.00    -0.271 A  
HETATM   13  N   UNL     1     -12.095  10.688  70.973  1.00  0.00    -0.362 NA 
ENDROOT
BRANCH  13  14
HETATM   14  C1* UNL     1     -12.191   9.664  71.999  1.00  0.00    -0.256 C  
HETATM   15  O4* UNL     1     -10.931   8.951  72.086  1.00  0.00    -0.362 OA 
HETATM   16  C4* UNL     1     -11.024   7.754  71.285  1.00  0.00    -0.234 C  
HETATM   17  H2* UNL     1     -15.051   8.111  71.072  1.00  0.00     0.000 HD 
HETATM   18  C3* UNL     1     -12.482   7.324  71.344  1.00  0.00    -0.383 C  
HETATM   19  C2* UNL     1     -13.236   8.536  71.892  1.00  0.00    -0.369 C  
HETATM   20  O3* UNL     1     -12.662   6.227  72.244  1.00  0.00    -0.537 OA 
HETATM   21  H3* UNL     1     -13.573   5.958  72.281  1.00  0.00     0.000 HD 
HETATM   22  O2* UNL     1     -14.406   8.806  71.137  1.00  0.00    -0.257 OA 
BRANCH  16  23
HETATM   23  C5* UNL     1     -10.574   8.029  69.842  1.00  0.00    -0.242 C  
HETATM   24  O5* UNL     1     -11.092   7.034  68.967  1.00  0.00    -0.420 OA 
HETATM   25  H5* UNL     1     -10.815   7.204  68.075  1.00  0.00     0.000 HD 
ENDBRANCH  16  23
ENDBRANCH  13  14
TORSDOF 2
ENDMDL
MODEL       37
REMARK 921   NORMALIZED FREE ENERGY PREDICTED BY IDOCK:   -6.06 KCAL/MOL
REMARK 922        TOTAL FREE ENERGY PREDICTED BY IDOCK:   -6.19 KCAL/MOL
REMARK 923 INTER-LIGAND FREE ENERGY PREDICTED BY IDOCK:   -7.73 KCAL/MOL
REMARK 924 INTRA-LIGAND FREE ENERGY PREDICTED BY IDOCK:    1.54 KCAL/MOL
REMARK 927      BINDING AFFINITY PREDICTED BY RF-SCORE:    0.00 PKD
ROOT
HETATM    1  N   UNL     1     -11.695  16.319  63.864  1.00  0.00    -1.518 NA 
HETATM    2  C   UNL     1     -11.615  15.023  64.346  1.00  0.00    -0.276 A  
HETATM    3  H2  UNL     1     -12.646  16.663  63.996  1.00  0.00     0.000 HD 
HETATM    4  H1  UNL     1     -11.039  17.013  64.222  1.00  0.00     0.000 HD 
HETATM    5  N   UNL     1     -12.483  14.105  63.873  1.00  0.00    -0.786 NA 
HETATM    6  C   UNL     1     -12.438  12.857  64.383  1.00  0.00    -0.375 A  
HETATM    7  N   UNL     1     -11.624  12.388  65.351  1.00  0.00    -0.366 NA 
HETATM    8  F   UNL     1     -13.319  11.979  63.878  1.00  0.00    -0.495 F  
HETATM    9  C   UNL     1     -10.754  13.326  65.766  1.00  0.00    -0.277 A  
HETATM   10  C   UNL     1     -10.668  14.627  65.306  1.00  0.00    -0.381 A  
HETATM   11  N   UNL     1      -9.627  15.289  65.908  1.00  0.00    -0.335 NA 
HETATM   12  C   UNL     1      -9.096  14.406  66.729  1.00  0.00    -0.257 A  
HETATM   13  N   UNL     1      -9.804  13.233  66.761  1.00  0.00    -0.257 NA 
ENDROOT
BRANCH  13  14
HETATM   14  C1* UNL     1      -9.553  12.072  67.599  1.00  0.00    -0.188 C  
HETATM   15  O4* UNL     1      -8.445  11.314  67.050  1.00  0.00    -0.140 OA 
HETATM   16  C4* UNL     1      -8.976  10.252  66.230  1.00  0.00    -0.153 C  
HETATM   17  H2* UNL     1     -12.667  10.765  67.812  1.00  0.00     0.000 HD 
HETATM   18  C3* UNL     1     -10.307   9.865  66.858  1.00  0.00    -0.235 C  
HETATM   19  C2* UNL     1     -10.645  11.006  67.817  1.00  0.00    -0.211 C  
HETATM   20  O3* UNL     1     -10.191   8.653  67.610  1.00  0.00    -0.208 OA 
HETATM   21  H3* UNL     1     -11.023   8.411  68.002  1.00  0.00     0.000 HD 
HETATM   22  O2* UNL     1     -11.994  11.422  67.677  1.00  0.00    -0.630 OA 
BRANCH  16  23
HETATM   23  C5* UNL     1      -9.152  10.721  64.778  1.00  0.00    -0.200 C  
HETATM   24  O5* UNL     1     -10.243  10.040  64.169  1.00  0.00    -0.446 OA 
HETATM   25  H5* UNL     1     -10.352  10.330  63.272  1.00  0.00     0.000 HD 
ENDBRANCH  16  23
ENDBRANCH  13  14
TORSDOF 2
ENDMDL
MODEL       38
REMARK 921   NORMALIZED FREE ENERGY PREDICTED BY IDOCK:   -6.01 KCAL/MOL
REMARK 922        TOTAL FREE ENERGY PREDICTED BY IDOCK:   -6.14 KCAL/MOL
REMARK 923 INTER-LIGAND FREE ENERGY PREDICTED BY IDOCK:   -5.92 KCAL/MOL
REMARK 924 INTRA-LIGAND FREE ENERGY PREDICTED BY IDOCK:   -0.22 KCAL/MOL
REMARK 927      BINDING AFFINITY PREDICTED BY RF-SCORE:    0.00 PKD
ROOT
HETATM    1  N   UNL     1     -10.391   7.154  72.734  1.00  0.00    -0.209 NA 
HETATM    2  C   UNL     1     -10.999   8.234  72.115  1.00  0.00    -0.326 A  
HETATM    3  H2  UNL     1     -10.981   6.330  72.618  1.00  0.00     0.000 HD 
HETATM    4  H1  UNL     1      -9.434   6.917  72.470  1.00  0.00     0.000 HD 
HETATM    5  N   UNL     1     -12.264   8.548  72.464  1.00  0.00    -0.371 NA 
HETATM    6  C   UNL     1     -12.873   9.565  71.823  1.00  0.00    -0.406 A  
HETATM    7  N   UNL     1     -12.377  10.331  70.828  1.00  0.00    -0.326 NA 
HETATM    8  F   UNL     1     -14.129   9.842  72.208  1.00  0.00    -0.364 F  
HETATM    9  C   UNL     1     -11.105  10.006  70.538  1.00  0.00    -0.331 A  
HETATM   10  C   UNL     1     -10.354   9.012  71.140  1.00  0.00    -0.291 A  
HETATM   11  N   UNL     1      -9.076   8.996  70.638  1.00  0.00    -0.214 NA 
HETATM   12  C   UNL     1      -9.055   9.958  69.738  1.00  0.00    -0.225 A  
HETATM   13  N   UNL     1     -10.287  10.533  69.561  1.00  0.00    -0.234 NA 
ENDROOT
BRANCH  13  14
HETATM   14  C1* UNL     1     -10.651  11.568  68.607  1.00  0.00    -0.208 C  
HETATM   15  O4* UNL     1     -11.489  10.995  67.573  1.00  0.00    -0.468 OA 
HETATM   16  C4* UNL     1     -10.657  10.647  66.446  1.00  0.00    -0.175 C  
HETATM   17  H2* UNL     1      -7.608  12.873  67.907  1.00  0.00     0.000 HD 
HETATM   18  C3* UNL     1      -9.521  11.659  66.438  1.00  0.00    -0.217 C  
HETATM   19  C2* UNL     1      -9.567  12.324  67.814  1.00  0.00    -0.200 C  
HETATM   20  O3* UNL     1      -9.727  12.660  65.437  1.00  0.00    -0.423 OA 
HETATM   21  H3* UNL     1      -9.016  13.292  65.433  1.00  0.00     0.000 HD 
HETATM   22  O2* UNL     1      -8.276  12.406  68.396  1.00  0.00    -0.164 OA 
BRANCH  16  23
HETATM   23  C5* UNL     1     -10.132   9.209  66.579  1.00  0.00    -0.287 C  
HETATM   24  O5* UNL     1     -11.015   8.436  67.382  1.00  0.00    -0.482 OA 
HETATM   25  H5* UNL     1     -10.691   7.547  67.464  1.00  0.00     0.000 HD 
ENDBRANCH  16  23
ENDBRANCH  13  14
TORSDOF 2
ENDMDL
MODEL       39
REMARK 921   NORMALIZED FREE ENERGY PREDICTED BY IDOCK:   -6.01 KCAL/MOL
REMARK 922        TOTAL FREE ENERGY PREDICTED BY IDOCK:   -6.14 KCAL/MOL
REMARK 923 INTER-LIGAND FREE ENERGY PREDICTED BY IDOCK:   -6.78 KCAL/MOL
REMARK 924 INTRA-LIGAND FREE ENERGY PREDICTED BY IDOCK:    0.64 KCAL/MOL
REMARK 927      BINDING AFFINITY PREDICTED BY RF-SCORE:    0.00 PKD
ROOT
HETATM    1  N   UNL     1      -7.327  14.905  70.063  1.00  0.00    -0.329 NA 
HETATM    2  C   UNL     1      -8.390  15.289  69.261  1.00  0.00    -0.243 A  
HETATM    3  H2  UNL     1      -7.544  15.131  71.033  1.00  0.00     0.000 HD 
HETATM    4  H1  UNL     1      -7.004  13.938  70.012  1.00  0.00     0.000 HD 
HETATM    5  N   UNL     1      -8.817  16.567  69.328  1.00  0.00    -0.150 NA 
HETATM    6  C   UNL     1      -9.885  16.925  68.587  1.00  0.00    -0.270 A  
HETATM    7  N   UNL     1     -10.625  16.146  67.771  1.00  0.00    -0.302 NA 
HETATM    8  F   UNL     1     -10.270  18.208  68.684  1.00  0.00    -0.339 F  
HETATM    9  C   UNL     1     -10.142  14.893  67.710  1.00  0.00    -0.234 A  
HETATM   10  C   UNL     1      -9.039  14.404  68.386  1.00  0.00    -0.193 A  
HETATM   11  N   UNL     1      -8.798  13.096  68.042  1.00  0.00    -0.184 NA 
HETATM   12  C   UNL     1      -9.745  12.793  67.179  1.00  0.00    -0.216 A  
HETATM   13  N   UNL     1     -10.650  13.812  67.020  1.00  0.00    -0.277 NA 
ENDROOT
BRANCH  13  14
HETATM   14  C1* UNL     1     -11.855  13.804  66.208  1.00  0.00    -0.398 C  
HETATM   15  O4* UNL     1     -12.173  12.440  65.831  1.00  0.00    -0.629 OA 
HETATM   16  C4* UNL     1     -11.629  12.187  64.518  1.00  0.00    -0.336 C  
HETATM   17  H2* UNL     1     -11.070  16.148  63.896  1.00  0.00     0.000 HD 
HETATM   18  C3* UNL     1     -11.674  13.518  63.784  1.00  0.00    -0.321 C  
HETATM   19  C2* UNL     1     -11.909  14.569  64.870  1.00  0.00    -0.416 C  
HETATM   20  O3* UNL     1     -12.765  13.563  62.859  1.00  0.00    -0.713 OA 
HETATM   21  H3* UNL     1     -12.793  14.395  62.400  1.00  0.00     0.000 HD 
HETATM   22  O2* UNL     1     -11.036  15.677  64.721  1.00  0.00    -0.441 OA 
BRANCH  16  23
HETATM   23  C5* UNL     1     -10.195  11.645  64.618  1.00  0.00    -0.281 C  
HETATM   24  O5* UNL     1      -9.322  12.407  63.793  1.00  0.00    -0.510 OA 
HETATM   25  H5* UNL     1      -8.435  12.072  63.855  1.00  0.00     0.000 HD 
ENDBRANCH  16  23
ENDBRANCH  13  14
TORSDOF 2
ENDMDL
MODEL       40
REMARK 921   NORMALIZED FREE ENERGY PREDICTED BY IDOCK:   -5.93 KCAL/MOL
REMARK 922        TOTAL FREE ENERGY PREDICTED BY IDOCK:   -6.05 KCAL/MOL
REMARK 923 INTER-LIGAND FREE ENERGY PREDICTED BY IDOCK:   -6.75 KCAL/MOL
REMARK 924 INTRA-LIGAND FREE ENERGY PREDICTED BY IDOCK:    0.70 KCAL/MOL
REMARK 927      BINDING AFFINITY PREDICTED BY RF-SCORE:    0.00 PKD
ROOT
HETATM    1  N   UNL     1      -6.294  13.628  70.221  1.00  0.00    -0.365 NA 
HETATM    2  C   UNL     1      -7.027  14.611  69.575  1.00  0.00    -0.165 A  
HETATM    3  H2  UNL     1      -6.246  13.849  71.215  1.00  0.00     0.000 HD 
HETATM    4  H1  UNL     1      -6.582  12.655  70.111  1.00  0.00     0.000 HD 
HETATM    5  N   UNL     1      -6.646  15.897  69.721  1.00  0.00    -0.179 NA 
HETATM    6  C   UNL     1      -7.392  16.856  69.136  1.00  0.00    -0.197 A  
HETATM    7  N   UNL     1      -8.520  16.701  68.412  1.00  0.00    -0.207 NA 
HETATM    8  F   UNL     1      -6.971  18.120  69.305  1.00  0.00    -0.261 F  
HETATM    9  C   UNL     1      -8.841  15.404  68.265  1.00  0.00    -0.176 A  
HETATM   10  C   UNL     1      -8.147  14.323  68.779  1.00  0.00    -0.109 A  
HETATM   11  N   UNL     1      -8.724  13.141  68.384  1.00  0.00    -0.156 NA 
HETATM   12  C   UNL     1      -9.758  13.499  67.649  1.00  0.00    -0.229 A  
HETATM   13  N   UNL     1      -9.937  14.859  67.631  1.00  0.00    -0.225 NA 
ENDROOT
BRANCH  13  14
HETATM   14  C1* UNL     1     -11.009  15.599  66.986  1.00  0.00    -0.261 C  
HETATM   15  O4* UNL     1     -12.035  14.675  66.546  1.00  0.00    -0.362 OA 
HETATM   16  C4* UNL     1     -11.804  14.358  65.157  1.00  0.00    -0.386 C  
HETATM   17  H2* UNL     1      -9.245  17.474  64.790  1.00  0.00     0.000 HD 
HETATM   18  C3* UNL     1     -11.176  15.601  64.545  1.00  0.00    -0.325 C  
HETATM   19  C2* UNL     1     -10.734  16.455  65.734  1.00  0.00    -0.238 C  
HETATM   20  O3* UNL     1     -12.131  16.341  63.779  1.00  0.00    -1.337 OA 
HETATM   21  H3* UNL     1     -11.738  17.118  63.397  1.00  0.00     0.000 HD 
HETATM   22  O2* UNL     1      -9.415  16.946  65.562  1.00  0.00    -0.496 OA 
BRANCH  16  23
HETATM   23  C5* UNL     1     -10.884  13.135  65.022  1.00  0.00    -0.315 C  
HETATM   24  O5* UNL     1      -9.914  13.358  64.006  1.00  0.00    -0.764 OA 
HETATM   25  H5* UNL     1      -9.345  12.603  63.922  1.00  0.00     0.000 HD 
ENDBRANCH  16  23
ENDBRANCH  13  14
TORSDOF 2
ENDMDL
MODEL       41
REMARK 921   NORMALIZED FREE ENERGY PREDICTED BY IDOCK:   -5.92 KCAL/MOL
REMARK 922        TOTAL FREE ENERGY PREDICTED BY IDOCK:   -6.04 KCAL/MOL
REMARK 923 INTER-LIGAND FREE ENERGY PREDICTED BY IDOCK:   -5.80 KCAL/MOL
REMARK 924 INTRA-LIGAND FREE ENERGY PREDICTED BY IDOCK:   -0.24 KCAL/MOL
REMARK 927      BINDING AFFINITY PREDICTED BY RF-SCORE:    0.00 PKD
ROOT
HETATM    1  N   UNL     1     -12.629  14.322  66.846  1.00  0.00    -0.483 NA 
HETATM    2  C   UNL     1     -12.090  13.394  65.970  1.00  0.00    -0.438 A  
HETATM    3  H2  UNL     1     -13.560  14.011  67.126  1.00  0.00     0.000 HD 
HETATM    4  H1  UNL     1     -12.097  14.569  67.681  1.00  0.00     0.000 HD 
HETATM    5  N   UNL     1     -12.793  13.066  64.866  1.00  0.00    -0.747 NA 
HETATM    6  C   UNL     1     -12.291  12.124  64.042  1.00  0.00    -0.451 A  
HETATM    7  N   UNL     1     -11.146  11.424  64.186  1.00  0.00    -0.347 NA 
HETATM    8  F   UNL     1     -13.025  11.835  62.956  1.00  0.00    -0.685 F  
HETATM    9  C   UNL     1     -10.463  11.809  65.278  1.00  0.00    -0.274 A  
HETATM   10  C   UNL     1     -10.844  12.782  66.184  1.00  0.00    -0.279 A  
HETATM   11  N   UNL     1      -9.879  12.956  67.146  1.00  0.00    -0.221 NA 
HETATM   12  C   UNL     1      -8.932  12.095  66.834  1.00  0.00    -0.201 A  
HETATM   13  N   UNL     1      -9.281  11.300  65.773  1.00  0.00    -0.217 NA 
ENDROOT
BRANCH  13  14
HETATM   14  C1* UNL     1      -8.518  10.201  65.204  1.00  0.00    -0.161 C  
HETATM   15  O4* UNL     1      -9.270   8.970  65.346  1.00  0.00    -0.220 OA 
HETATM   16  C4* UNL     1      -8.819   8.291  66.538  1.00  0.00    -0.150 C  
HETATM   17  H2* UNL     1      -5.534  10.648  66.738  1.00  0.00     0.000 HD 
HETATM   18  C3* UNL     1      -7.349   8.649  66.691  1.00  0.00    -0.081 C  
HETATM   19  C2* UNL     1      -7.125   9.839  65.758  1.00  0.00    -0.104 C  
HETATM   20  O3* UNL     1      -6.507   7.571  66.270  1.00  0.00    -0.047 OA 
HETATM   21  H3* UNL     1      -5.588   7.795  66.366  1.00  0.00     0.000 HD 
HETATM   22  O2* UNL     1      -6.393  10.872  66.397  1.00  0.00    -0.109 OA 
BRANCH  16  23
HETATM   23  C5* UNL     1      -9.639   8.732  67.760  1.00  0.00    -0.148 C  
HETATM   24  O5* UNL     1     -10.970   9.048  67.372  1.00  0.00    -0.444 OA 
HETATM   25  H5* UNL     1     -11.477   9.320  68.127  1.00  0.00     0.000 HD 
ENDBRANCH  16  23
ENDBRANCH  13  14
TORSDOF 2
ENDMDL
MODEL       42
REMARK 921   NORMALIZED FREE ENERGY PREDICTED BY IDOCK:   -5.91 KCAL/MOL
REMARK 922        TOTAL FREE ENERGY PREDICTED BY IDOCK:   -6.02 KCAL/MOL
REMARK 923 INTER-LIGAND FREE ENERGY PREDICTED BY IDOCK:   -6.79 KCAL/MOL
REMARK 924 INTRA-LIGAND FREE ENERGY PREDICTED BY IDOCK:    0.77 KCAL/MOL
REMARK 927      BINDING AFFINITY PREDICTED BY RF-SCORE:    0.00 PKD
ROOT
HETATM    1  N   UNL     1     -13.975   9.059  72.990  1.00  0.00    -1.141 NA 
HETATM    2  C   UNL     1     -13.000   8.879  72.022  1.00  0.00    -0.399 A  
HETATM    3  H2  UNL     1     -13.629   8.699  73.880  1.00  0.00     0.000 HD 
HETATM    4  H1  UNL     1     -14.349   9.997  73.135  1.00  0.00     0.000 HD 
HETATM    5  N   UNL     1     -12.504   7.639  71.831  1.00  0.00    -0.311 NA 
HETATM    6  C   UNL     1     -11.518   7.475  70.926  1.00  0.00    -0.281 A  
HETATM    7  N   UNL     1     -10.924   8.422  70.169  1.00  0.00    -0.238 NA 
HETATM    8  F   UNL     1     -11.061   6.223  70.768  1.00  0.00    -0.294 F  
HETATM    9  C   UNL     1     -11.472   9.633  70.368  1.00  0.00    -0.263 A  
HETATM   10  C   UNL     1     -12.507   9.933  71.236  1.00  0.00    -0.381 A  
HETATM   11  N   UNL     1     -12.854  11.259  71.139  1.00  0.00    -0.374 NA 
HETATM   12  C   UNL     1     -12.036  11.757  70.236  1.00  0.00    -0.343 A  
HETATM   13  N   UNL     1     -11.107  10.841  69.812  1.00  0.00    -0.273 NA 
ENDROOT
BRANCH  13  14
HETATM   14  C1* UNL     1     -10.013  11.058  68.881  1.00  0.00    -0.188 C  
HETATM   15  O4* UNL     1      -9.814  12.483  68.697  1.00  0.00    -0.180 OA 
HETATM   16  C4* UNL     1     -10.526  12.898  67.512  1.00  0.00    -0.223 C  
HETATM   17  H2* UNL     1     -10.954   9.051  66.324  1.00  0.00     0.000 HD 
HETATM   18  C3* UNL     1     -10.503  11.702  66.572  1.00  0.00    -0.239 C  
HETATM   19  C2* UNL     1     -10.083  10.516  67.440  1.00  0.00    -0.197 C  
HETATM   20  O3* UNL     1      -9.533  11.878  65.535  1.00  0.00    -0.325 OA 
HETATM   21  H3* UNL     1      -9.519  11.131  64.947  1.00  0.00     0.000 HD 
HETATM   22  O2* UNL     1     -10.910   9.386  67.213  1.00  0.00    -0.247 OA 
BRANCH  16  23
HETATM   23  C5* UNL     1     -11.964  13.316  67.859  1.00  0.00    -0.309 C  
HETATM   24  O5* UNL     1     -12.413  14.323  66.962  1.00  0.00    -0.588 OA 
HETATM   25  H5* UNL     1     -13.302  14.582  67.176  1.00  0.00     0.000 HD 
ENDBRANCH  16  23
ENDBRANCH  13  14
TORSDOF 2
ENDMDL
MODEL       43
REMARK 921   NORMALIZED FREE ENERGY PREDICTED BY IDOCK:   -5.88 KCAL/MOL
REMARK 922        TOTAL FREE ENERGY PREDICTED BY IDOCK:   -5.99 KCAL/MOL
REMARK 923 INTER-LIGAND FREE ENERGY PREDICTED BY IDOCK:   -6.53 KCAL/MOL
REMARK 924 INTRA-LIGAND FREE ENERGY PREDICTED BY IDOCK:    0.54 KCAL/MOL
REMARK 927      BINDING AFFINITY PREDICTED BY RF-SCORE:    0.00 PKD
ROOT
HETATM    1  N   UNL     1     -12.062   9.251  70.404  1.00  0.00    -0.468 NA 
HETATM    2  C   UNL     1     -12.193  10.622  70.558  1.00  0.00    -0.358 A  
HETATM    3  H2  UNL     1     -12.991   8.838  70.319  1.00  0.00     0.000 HD 
HETATM    4  H1  UNL     1     -11.472   8.900  69.649  1.00  0.00     0.000 HD 
HETATM    5  N   UNL     1     -12.973  11.086  71.555  1.00  0.00    -0.450 NA 
HETATM    6  C   UNL     1     -13.141  12.419  71.671  1.00  0.00    -0.307 A  
HETATM    7  N   UNL     1     -12.631  13.389  70.883  1.00  0.00    -0.349 NA 
HETATM    8  F   UNL     1     -13.923  12.833  72.681  1.00  0.00    -0.607 F  
HETATM    9  C   UNL     1     -11.834  12.882  69.926  1.00  0.00    -0.303 A  
HETATM   10  C   UNL     1     -11.548  11.545  69.718  1.00  0.00    -0.326 A  
HETATM   11  N   UNL     1     -10.650  11.393  68.690  1.00  0.00    -0.192 NA 
HETATM   12  C   UNL     1     -10.403  12.618  68.273  1.00  0.00    -0.241 A  
HETATM   13  N   UNL     1     -11.174  13.552  68.917  1.00  0.00    -0.263 NA 
ENDROOT
BRANCH  13  14
HETATM   14  C1* UNL     1     -11.220  14.983  68.667  1.00  0.00    -0.278 C  
HETATM   15  O4* UNL     1     -11.850  15.227  67.385  1.00  0.00    -0.215 OA 
HETATM   16  C4* UNL     1     -10.819  15.374  66.385  1.00  0.00    -0.303 C  
HETATM   17  H2* UNL     1      -7.995  15.827  69.250  1.00  0.00     0.000 HD 
HETATM   18  C3* UNL     1      -9.626  15.986  67.104  1.00  0.00    -0.218 C  
HETATM   19  C2* UNL     1      -9.923  15.813  68.594  1.00  0.00    -0.208 C  
HETATM   20  O3* UNL     1      -9.511  17.384  66.819  1.00  0.00    -0.255 OA 
HETATM   21  H3* UNL     1      -8.766  17.766  67.268  1.00  0.00     0.000 HD 
HETATM   22  O2* UNL     1      -8.795  15.315  69.296  1.00  0.00    -0.229 OA 
BRANCH  16  23
HETATM   23  C5* UNL     1     -10.466  14.015  65.762  1.00  0.00    -0.309 C  
HETATM   24  O5* UNL     1     -10.233  14.159  64.367  1.00  0.00    -0.646 OA 
HETATM   25  H5* UNL     1     -10.015  13.319  63.981  1.00  0.00     0.000 HD 
ENDBRANCH  16  23
ENDBRANCH  13  14
TORSDOF 2
ENDMDL
MODEL       44
REMARK 921   NORMALIZED FREE ENERGY PREDICTED BY IDOCK:   -5.86 KCAL/MOL
REMARK 922        TOTAL FREE ENERGY PREDICTED BY IDOCK:   -5.97 KCAL/MOL
REMARK 923 INTER-LIGAND FREE ENERGY PREDICTED BY IDOCK:   -6.78 KCAL/MOL
REMARK 924 INTRA-LIGAND FREE ENERGY PREDICTED BY IDOCK:    0.82 KCAL/MOL
REMARK 927      BINDING AFFINITY PREDICTED BY RF-SCORE:    0.00 PKD
ROOT
HETATM    1  N   UNL     1      -9.673   9.592  65.251  1.00  0.00    -0.436 NA 
HETATM    2  C   UNL     1     -10.363  10.154  66.312  1.00  0.00    -0.175 A  
HETATM    3  H2  UNL     1      -9.003  10.273  64.893  1.00  0.00     0.000 HD 
HETATM    4  H1  UNL     1      -9.194   8.703  65.398  1.00  0.00     0.000 HD 
HETATM    5  N   UNL     1     -10.995  11.330  66.118  1.00  0.00    -0.236 NA 
HETATM    6  C   UNL     1     -11.622  11.902  67.166  1.00  0.00    -0.290 A  
HETATM    7  N   UNL     1     -11.690  11.451  68.436  1.00  0.00    -0.454 NA 
HETATM    8  F   UNL     1     -12.239  13.069  66.922  1.00  0.00    -0.422 F  
HETATM    9  C   UNL     1     -11.078  10.262  68.573  1.00  0.00    -0.242 A  
HETATM   10  C   UNL     1     -10.431   9.551  67.579  1.00  0.00    -0.275 A  
HETATM   11  N   UNL     1      -9.971   8.350  68.059  1.00  0.00    -0.174 NA 
HETATM   12  C   UNL     1     -10.325   8.336  69.328  1.00  0.00    -0.218 A  
HETATM   13  N   UNL     1     -10.905   9.515  69.720  1.00  0.00    -0.237 NA 
ENDROOT
BRANCH  13  14
HETATM   14  C1* UNL     1     -11.351   9.879  71.054  1.00  0.00    -0.386 C  
HETATM   15  O4* UNL     1     -10.857   8.906  72.008  1.00  0.00    -0.349 OA 
HETATM   16  C4* UNL     1     -11.890   7.925  72.241  1.00  0.00    -0.352 C  
HETATM   17  H2* UNL     1     -14.663  10.315  70.513  1.00  0.00     0.000 HD 
HETATM   18  C3* UNL     1     -13.211   8.662  72.079  1.00  0.00    -0.386 C  
HETATM   19  C2* UNL     1     -12.854   9.977  71.384  1.00  0.00    -0.417 C  
HETATM   20  O3* UNL     1     -13.797   8.960  73.350  1.00  0.00    -1.192 OA 
HETATM   21  H3* UNL     1     -14.622   9.420  73.248  1.00  0.00     0.000 HD 
HETATM   22  O2* UNL     1     -13.737  10.255  70.309  1.00  0.00     0.233 OA 
BRANCH  16  23
HETATM   23  C5* UNL     1     -11.768   6.759  71.247  1.00  0.00    -0.336 C  
HETATM   24  O5* UNL     1     -12.878   6.753  70.358  1.00  0.00    -0.440 OA 
HETATM   25  H5* UNL     1     -12.803   6.033  69.743  1.00  0.00     0.000 HD 
ENDBRANCH  16  23
ENDBRANCH  13  14
TORSDOF 2
ENDMDL
MODEL       45
REMARK 921   NORMALIZED FREE ENERGY PREDICTED BY IDOCK:   -5.85 KCAL/MOL
REMARK 922        TOTAL FREE ENERGY PREDICTED BY IDOCK:   -5.95 KCAL/MOL
REMARK 923 INTER-LIGAND FREE ENERGY PREDICTED BY IDOCK:   -5.72 KCAL/MOL
REMARK 924 INTRA-LIGAND FREE ENERGY PREDICTED BY IDOCK:   -0.24 KCAL/MOL
REMARK 927      BINDING AFFINITY PREDICTED BY RF-SCORE:    0.00 PKD
ROOT
HETATM    1  N   UNL     1     -12.771  14.531  64.204  1.00  0.00    -0.707 NA 
HETATM    2  C   UNL     1     -11.660  14.490  65.031  1.00  0.00    -0.382 A  
HETATM    3  H2  UNL     1     -12.464  14.687  63.244  1.00  0.00     0.000 HD 
HETATM    4  H1  UNL     1     -13.419  13.743  64.221  1.00  0.00     0.000 HD 
HETATM    5  N   UNL     1     -10.802  15.531  65.009  1.00  0.00    -0.434 NA 
HETATM    6  C   UNL     1      -9.694  15.465  65.775  1.00  0.00    -0.350 A  
HETATM    7  N   UNL     1      -9.301  14.453  66.577  1.00  0.00    -0.283 NA 
HETATM    8  F   UNL     1      -8.874  16.527  65.722  1.00  0.00    -0.335 F  
HETATM    9  C   UNL     1     -10.202  13.455  66.593  1.00  0.00    -0.274 A  
HETATM   10  C   UNL     1     -11.391  13.410  65.887  1.00  0.00    -0.309 A  
HETATM   11  N   UNL     1     -12.092  12.267  66.188  1.00  0.00    -0.627 NA 
HETATM   12  C   UNL     1     -11.336  11.625  67.054  1.00  0.00    -0.305 A  
HETATM   13  N   UNL     1     -10.131  12.248  67.256  1.00  0.00    -0.203 NA 
ENDROOT
BRANCH  13  14
HETATM   14  C1* UNL     1      -9.027  11.789  68.084  1.00  0.00    -0.181 C  
HETATM   15  O4* UNL     1      -7.859  11.578  67.252  1.00  0.00    -0.137 OA 
HETATM   16  C4* UNL     1      -7.796  10.181  66.894  1.00  0.00    -0.107 C  
HETATM   17  H2* UNL     1     -10.507   9.243  69.751  1.00  0.00     0.000 HD 
HETATM   18  C3* UNL     1      -8.406   9.423  68.063  1.00  0.00    -0.119 C  
HETATM   19  C2* UNL     1      -9.137  10.481  68.890  1.00  0.00    -0.177 C  
HETATM   20  O3* UNL     1      -7.393   8.823  68.877  1.00  0.00    -0.076 OA 
HETATM   21  H3* UNL     1      -7.775   8.349  69.607  1.00  0.00     0.000 HD 
HETATM   22  O2* UNL     1     -10.439  10.050  69.253  1.00  0.00    -0.198 OA 
BRANCH  16  23
HETATM   23  C5* UNL     1      -8.562   9.918  65.589  1.00  0.00    -0.145 C  
HETATM   24  O5* UNL     1      -8.509  11.064  64.748  1.00  0.00    -0.370 OA 
HETATM   25  H5* UNL     1      -8.982  10.901  63.941  1.00  0.00     0.000 HD 
ENDBRANCH  16  23
ENDBRANCH  13  14
TORSDOF 2
ENDMDL
MODEL       46
REMARK 921   NORMALIZED FREE ENERGY PREDICTED BY IDOCK:   -5.77 KCAL/MOL
REMARK 922        TOTAL FREE ENERGY PREDICTED BY IDOCK:   -5.87 KCAL/MOL
REMARK 923 INTER-LIGAND FREE ENERGY PREDICTED BY IDOCK:   -6.27 KCAL/MOL
REMARK 924 INTRA-LIGAND FREE ENERGY PREDICTED BY IDOCK:    0.40 KCAL/MOL
REMARK 927      BINDING AFFINITY PREDICTED BY RF-SCORE:    0.00 PKD
ROOT
HETATM    1  N   UNL     1      -9.962  19.106  65.866  1.00  0.00    -0.483 NA 
HETATM    2  C   UNL     1     -10.366  17.925  66.466  1.00  0.00    -0.362 A  
HETATM    3  H2  UNL     1      -9.004  19.312  66.151  1.00  0.00     0.000 HD 
HETATM    4  H1  UNL     1     -10.030  19.185  64.852  1.00  0.00     0.000 HD 
HETATM    5  N   UNL     1     -10.276  17.820  67.808  1.00  0.00    -0.344 NA 
HETATM    6  C   UNL     1     -10.619  16.651  68.385  1.00  0.00    -0.343 A  
HETATM    7  N   UNL     1     -11.040  15.521  67.778  1.00  0.00    -0.314 NA 
HETATM    8  F   UNL     1     -10.516  16.597  69.722  1.00  0.00    -0.285 F  
HETATM    9  C   UNL     1     -11.147  15.683  66.448  1.00  0.00    -0.123 A  
HETATM   10  C   UNL     1     -10.863  16.834  65.735  1.00  0.00    -0.087 A  
HETATM   11  N   UNL     1     -11.143  16.661  64.401  1.00  0.00    -1.019 NA 
HETATM   12  C   UNL     1     -11.579  15.422  64.305  1.00  0.00    -0.191 A  
HETATM   13  N   UNL     1     -11.503  14.749  65.497  1.00  0.00    -0.342 NA 
ENDROOT
BRANCH  13  14
HETATM   14  C1* UNL     1     -11.829  13.355  65.747  1.00  0.00    -0.377 C  
HETATM   15  O4* UNL     1     -11.192  12.925  66.976  1.00  0.00    -0.266 OA 
HETATM   16  C4* UNL     1      -9.944  12.278  66.645  1.00  0.00    -0.215 C  
HETATM   17  H2* UNL     1     -11.037  11.980  62.758  1.00  0.00     0.000 HD 
HETATM   18  C3* UNL     1     -10.160  11.626  65.288  1.00  0.00    -0.264 C  
HETATM   19  C2* UNL     1     -11.437  12.260  64.735  1.00  0.00    -0.329 C  
HETATM   20  O3* UNL     1     -10.368  10.216  65.418  1.00  0.00    -0.257 OA 
HETATM   21  H3* UNL     1     -10.502   9.809  64.570  1.00  0.00     0.000 HD 
HETATM   22  O2* UNL     1     -11.279  12.655  63.382  1.00  0.00    -0.467 OA 
BRANCH  16  23
HETATM   23  C5* UNL     1      -8.795  13.298  66.605  1.00  0.00    -0.058 C  
HETATM   24  O5* UNL     1      -8.398  13.643  67.926  1.00  0.00    -0.148 OA 
HETATM   25  H5* UNL     1      -7.688  14.273  67.902  1.00  0.00     0.000 HD 
ENDBRANCH  16  23
ENDBRANCH  13  14
TORSDOF 2
ENDMDL
MODEL       47
REMARK 921   NORMALIZED FREE ENERGY PREDICTED BY IDOCK:   -5.77 KCAL/MOL
REMARK 922        TOTAL FREE ENERGY PREDICTED BY IDOCK:   -5.87 KCAL/MOL
REMARK 923 INTER-LIGAND FREE ENERGY PREDICTED BY IDOCK:   -5.68 KCAL/MOL
REMARK 924 INTRA-LIGAND FREE ENERGY PREDICTED BY IDOCK:   -0.19 KCAL/MOL
REMARK 927      BINDING AFFINITY PREDICTED BY RF-SCORE:    0.00 PKD
ROOT
HETATM    1  N   UNL     1      -9.344  10.521  65.090  1.00  0.00    -0.198 NA 
HETATM    2  C   UNL     1     -10.174  10.723  66.181  1.00  0.00    -0.250 A  
HETATM    3  H2  UNL     1      -8.678  11.291  65.033  1.00  0.00     0.000 HD 
HETATM    4  H1  UNL     1      -8.838   9.638  65.020  1.00  0.00     0.000 HD 
HETATM    5  N   UNL     1     -10.843  11.891  66.273  1.00  0.00    -0.271 NA 
HETATM    6  C   UNL     1     -11.608  12.107  67.362  1.00  0.00    -0.340 A  
HETATM    7  N   UNL     1     -11.788  11.292  68.422  1.00  0.00    -0.552 NA 
HETATM    8  F   UNL     1     -12.258  13.281  67.406  1.00  0.00    -0.389 F  
HETATM    9  C   UNL     1     -11.131  10.129  68.270  1.00  0.00    -0.227 A  
HETATM   10  C   UNL     1     -10.344   9.764  67.193  1.00  0.00    -0.248 A  
HETATM   11  N   UNL     1      -9.874   8.483  67.344  1.00  0.00    -0.172 NA 
HETATM   12  C   UNL     1     -10.360   8.079  68.500  1.00  0.00    -0.199 A  
HETATM   13  N   UNL     1     -11.042   9.073  69.154  1.00  0.00     0.005 NA 
ENDROOT
BRANCH  13  14
HETATM   14  C1* UNL     1     -11.647   9.008  70.474  1.00  0.00    -0.175 C  
HETATM   15  O4* UNL     1     -10.821   9.735  71.417  1.00  0.00    -0.308 OA 
HETATM   16  C4* UNL     1      -9.949   8.797  72.083  1.00  0.00    -0.289 C  
HETATM   17  H2* UNL     1     -12.166   5.677  70.765  1.00  0.00     0.000 HD 
HETATM   18  C3* UNL     1     -10.720   7.488  72.152  1.00  0.00    -0.234 C  
HETATM   19  C2* UNL     1     -11.880   7.652  71.169  1.00  0.00    -0.293 C  
HETATM   20  O3* UNL     1     -11.256   7.270  73.461  1.00  0.00    -0.568 OA 
HETATM   21  H3* UNL     1     -11.737   6.452  73.503  1.00  0.00     0.000 HD 
HETATM   22  O2* UNL     1     -12.022   6.513  70.336  1.00  0.00    -0.397 OA 
BRANCH  16  23
HETATM   23  C5* UNL     1      -8.630   8.637  71.312  1.00  0.00    -0.187 C  
HETATM   24  O5* UNL     1      -8.282   9.857  70.671  1.00  0.00    -0.389 OA 
HETATM   25  H5* UNL     1      -7.467   9.758  70.195  1.00  0.00     0.000 HD 
ENDBRANCH  16  23
ENDBRANCH  13  14
TORSDOF 2
ENDMDL
MODEL       48
REMARK 921   NORMALIZED FREE ENERGY PREDICTED BY IDOCK:   -5.76 KCAL/MOL
REMARK 922        TOTAL FREE ENERGY PREDICTED BY IDOCK:   -5.86 KCAL/MOL
REMARK 923 INTER-LIGAND FREE ENERGY PREDICTED BY IDOCK:   -6.58 KCAL/MOL
REMARK 924 INTRA-LIGAND FREE ENERGY PREDICTED BY IDOCK:    0.73 KCAL/MOL
REMARK 927      BINDING AFFINITY PREDICTED BY RF-SCORE:    0.00 PKD
ROOT
HETATM    1  N   UNL     1     -10.988  11.321  62.840  1.00  0.00    -0.786 NA 
HETATM    2  C   UNL     1     -11.267  11.682  64.148  1.00  0.00    -0.345 A  
HETATM    3  H2  UNL     1     -10.642  12.139  62.337  1.00  0.00     0.000 HD 
HETATM    4  H1  UNL     1     -10.354  10.538  62.675  1.00  0.00     0.000 HD 
HETATM    5  N   UNL     1     -12.104  12.717  64.366  1.00  0.00    -0.390 NA 
HETATM    6  C   UNL     1     -12.333  13.100  65.638  1.00  0.00    -0.461 A  
HETATM    7  N   UNL     1     -11.804  12.581  66.766  1.00  0.00    -0.522 NA 
HETATM    8  F   UNL     1     -13.176  14.132  65.804  1.00  0.00    -0.549 F  
HETATM    9  C   UNL     1     -11.005  11.532  66.503  1.00  0.00    -0.293 A  
HETATM   10  C   UNL     1     -10.714  11.015  65.253  1.00  0.00    -0.164 A  
HETATM   11  N   UNL     1      -9.911   9.906  65.361  1.00  0.00    -0.311 NA 
HETATM   12  C   UNL     1      -9.710   9.759  66.654  1.00  0.00    -0.201 A  
HETATM   13  N   UNL     1     -10.262  10.778  67.387  1.00  0.00    -0.195 NA 
ENDROOT
BRANCH  13  14
HETATM   14  C1* UNL     1     -10.178  10.979  68.823  1.00  0.00    -0.198 C  
HETATM   15  O4* UNL     1      -9.169  10.096  69.374  1.00  0.00    -0.197 OA 
HETATM   16  C4* UNL     1      -9.820   8.905  69.867  1.00  0.00    -0.182 C  
HETATM   17  H2* UNL     1     -13.439  10.711  69.688  1.00  0.00     0.000 HD 
HETATM   18  C3* UNL     1     -11.200   9.346  70.332  1.00  0.00    -0.262 C  
HETATM   19  C2* UNL     1     -11.403  10.735  69.727  1.00  0.00    -0.300 C  
HETATM   20  O3* UNL     1     -11.255   9.454  71.758  1.00  0.00    -0.376 OA 
HETATM   21  H3* UNL     1     -12.118   9.729  72.048  1.00  0.00     0.000 HD 
HETATM   22  O2* UNL     1     -12.684  10.861  69.130  1.00  0.00    -0.262 OA 
BRANCH  16  23
HETATM   23  C5* UNL     1      -9.909   7.838  68.766  1.00  0.00    -0.169 C  
HETATM   24  O5* UNL     1     -11.268   7.504  68.513  1.00  0.00    -0.419 OA 
HETATM   25  H5* UNL     1     -11.324   6.844  67.832  1.00  0.00     0.000 HD 
ENDBRANCH  16  23
ENDBRANCH  13  14
TORSDOF 2
ENDMDL
MODEL       49
REMARK 921   NORMALIZED FREE ENERGY PREDICTED BY IDOCK:   -5.73 KCAL/MOL
REMARK 922        TOTAL FREE ENERGY PREDICTED BY IDOCK:   -5.82 KCAL/MOL
REMARK 923 INTER-LIGAND FREE ENERGY PREDICTED BY IDOCK:   -6.55 KCAL/MOL
REMARK 924 INTRA-LIGAND FREE ENERGY PREDICTED BY IDOCK:    0.73 KCAL/MOL
REMARK 927      BINDING AFFINITY PREDICTED BY RF-SCORE:    0.00 PKD
ROOT
HETATM    1  N   UNL     1     -11.166  15.123  71.729  1.00  0.00    -0.562 NA 
HETATM    2  C   UNL     1     -11.170  15.407  70.373  1.00  0.00    -0.323 A  
HETATM    3  H2  UNL     1     -11.786  15.776  72.206  1.00  0.00     0.000 HD 
HETATM    4  H1  UNL     1     -11.390  14.174  72.028  1.00  0.00     0.000 HD 
HETATM    5  N   UNL     1     -10.873  16.662  69.977  1.00  0.00    -0.275 NA 
HETATM    6  C   UNL     1     -10.930  16.950  68.661  1.00  0.00    -0.262 A  
HETATM    7  N   UNL     1     -11.274  16.127  67.648  1.00  0.00    -0.214 NA 
HETATM    8  F   UNL     1     -10.623  18.210  68.316  1.00  0.00    -0.359 F  
HETATM    9  C   UNL     1     -11.527  14.881  68.085  1.00  0.00    -0.330 A  
HETATM   10  C   UNL     1     -11.471  14.443  69.397  1.00  0.00    -0.288 A  
HETATM   11  N   UNL     1     -11.731  13.097  69.472  1.00  0.00    -0.312 NA 
HETATM   12  C   UNL     1     -11.951  12.725  68.228  1.00  0.00    -0.229 A  
HETATM   13  N   UNL     1     -11.944  13.786  67.358  1.00  0.00    -0.392 NA 
ENDROOT
BRANCH  13  14
HETATM   14  C1* UNL     1     -12.219  13.760  65.931  1.00  0.00    -0.466 C  
HETATM   15  O4* UNL     1     -12.724  12.452  65.562  1.00  0.00    -0.530 OA 
HETATM   16  C4* UNL     1     -11.624  11.654  65.076  1.00  0.00    -0.062 C  
HETATM   17  H2* UNL     1      -9.295  14.945  64.708  1.00  0.00     0.000 HD 
HETATM   18  C3* UNL     1     -10.657  12.631  64.423  1.00  0.00    -0.364 C  
HETATM   19  C2* UNL     1     -11.095  14.014  64.908  1.00  0.00    -0.375 C  
HETATM   20  O3* UNL     1     -10.764  12.590  62.997  1.00  0.00    -0.597 OA 
HETATM   21  H3* UNL     1     -10.159  13.200  62.589  1.00  0.00     0.000 HD 
HETATM   22  O2* UNL     1      -9.987  14.789  65.339  1.00  0.00    -0.357 OA 
BRANCH  16  23
HETATM   23  C5* UNL     1     -10.958  10.885  66.227  1.00  0.00    -0.061 C  
HETATM   24  O5* UNL     1      -9.568  11.182  66.279  1.00  0.00    -0.194 OA 
HETATM   25  H5* UNL     1      -9.157  10.707  66.990  1.00  0.00     0.000 HD 
ENDBRANCH  16  23
ENDBRANCH  13  14
TORSDOF 2
ENDMDL
MODEL       50
REMARK 921   NORMALIZED FREE ENERGY PREDICTED BY IDOCK:   -5.72 KCAL/MOL
REMARK 922        TOTAL FREE ENERGY PREDICTED BY IDOCK:   -5.81 KCAL/MOL
REMARK 923 INTER-LIGAND FREE ENERGY PREDICTED BY IDOCK:   -6.00 KCAL/MOL
REMARK 924 INTRA-LIGAND FREE ENERGY PREDICTED BY IDOCK:    0.19 KCAL/MOL
REMARK 927      BINDING AFFINITY PREDICTED BY RF-SCORE:    0.00 PKD
ROOT
HETATM    1  N   UNL     1     -11.040  11.095  63.237  1.00  0.00    -0.789 NA 
HETATM    2  C   UNL     1     -11.268  11.937  64.314  1.00  0.00    -0.357 A  
HETATM    3  H2  UNL     1     -11.114  11.633  62.374  1.00  0.00     0.000 HD 
HETATM    4  H1  UNL     1     -10.176  10.553  63.217  1.00  0.00     0.000 HD 
HETATM    5  N   UNL     1     -12.411  12.653  64.340  1.00  0.00    -0.583 NA 
HETATM    6  C   UNL     1     -12.606  13.511  65.361  1.00  0.00    -0.483 A  
HETATM    7  N   UNL     1     -11.775  13.776  66.390  1.00  0.00    -0.359 NA 
HETATM    8  F   UNL     1     -13.760  14.198  65.346  1.00  0.00    -0.221 F  
HETATM    9  C   UNL     1     -10.667  13.015  66.341  1.00  0.00    -0.282 A  
HETATM   10  C   UNL     1     -10.359  12.075  65.375  1.00  0.00    -0.266 A  
HETATM   11  N   UNL     1      -9.175  11.443  65.670  1.00  0.00    -0.213 NA 
HETATM   12  C   UNL     1      -8.767  11.999  66.793  1.00  0.00    -0.192 A  
HETATM   13  N   UNL     1      -9.579  13.030  67.189  1.00  0.00    -0.223 NA 
ENDROOT
BRANCH  13  14
HETATM   14  C1* UNL     1      -9.397  13.909  68.332  1.00  0.00    -0.201 C  
HETATM   15  O4* UNL     1     -10.066  15.170  68.080  1.00  0.00    -0.219 OA 
HETATM   16  C4* UNL     1      -9.098  16.110  67.565  1.00  0.00    -0.203 C  
HETATM   17  H2* UNL     1      -6.042  13.728  68.735  1.00  0.00     0.000 HD 
HETATM   18  C3* UNL     1      -7.770  15.733  68.204  1.00  0.00    -0.128 C  
HETATM   19  C2* UNL     1      -7.985  14.334  68.783  1.00  0.00    -0.119 C  
HETATM   20  O3* UNL     1      -7.438  16.625  69.272  1.00  0.00    -0.241 OA 
HETATM   21  H3* UNL     1      -6.608  16.389  69.671  1.00  0.00     0.000 HD 
HETATM   22  O2* UNL     1      -6.912  13.465  68.457  1.00  0.00    -0.088 OA 
BRANCH  16  23
HETATM   23  C5* UNL     1      -9.029  16.036  66.032  1.00  0.00    -0.310 C  
HETATM   24  O5* UNL     1     -10.252  16.484  65.462  1.00  0.00    -0.525 OA 
HETATM   25  H5* UNL     1     -10.210  16.439  64.514  1.00  0.00     0.000 HD 
ENDBRANCH  16  23
ENDBRANCH  13  14
TORSDOF 2
ENDMDL
MODEL       51
REMARK 921   NORMALIZED FREE ENERGY PREDICTED BY IDOCK:   -5.68 KCAL/MOL
REMARK 922        TOTAL FREE ENERGY PREDICTED BY IDOCK:   -5.77 KCAL/MOL
REMARK 923 INTER-LIGAND FREE ENERGY PREDICTED BY IDOCK:   -5.76 KCAL/MOL
REMARK 924 INTRA-LIGAND FREE ENERGY PREDICTED BY IDOCK:   -0.01 KCAL/MOL
REMARK 927      BINDING AFFINITY PREDICTED BY RF-SCORE:    0.00 PKD
ROOT
HETATM    1  N   UNL     1      -9.673  20.316  65.407  1.00  0.00    -0.410 NA 
HETATM    2  C   UNL     1      -9.793  19.578  66.574  1.00  0.00    -0.404 A  
HETATM    3  H2  UNL     1      -8.972  21.043  65.546  1.00  0.00     0.000 HD 
HETATM    4  H1  UNL     1      -9.471  19.822  64.538  1.00  0.00     0.000 HD 
HETATM    5  N   UNL     1     -10.059  20.230  67.724  1.00  0.00    -0.395 NA 
HETATM    6  C   UNL     1     -10.123  19.516  68.866  1.00  0.00    -0.401 A  
HETATM    7  N   UNL     1      -9.930  18.190  69.025  1.00  0.00    -0.331 NA 
HETATM    8  F   UNL     1     -10.395  20.209  69.984  1.00  0.00    -0.382 F  
HETATM    9  C   UNL     1      -9.702  17.578  67.850  1.00  0.00    -0.278 A  
HETATM   10  C   UNL     1      -9.647  18.181  66.606  1.00  0.00    -0.306 A  
HETATM   11  N   UNL     1      -9.454  17.246  65.619  1.00  0.00    -0.450 NA 
HETATM   12  C   UNL     1      -9.384  16.094  66.254  1.00  0.00    -0.317 A  
HETATM   13  N   UNL     1      -9.422  16.247  67.617  1.00  0.00    -0.220 NA 
ENDROOT
BRANCH  13  14
HETATM   14  C1* UNL     1      -9.298  15.209  68.626  1.00  0.00    -0.199 C  
HETATM   15  O4* UNL     1      -8.344  15.630  69.633  1.00  0.00    -0.219 OA 
HETATM   16  C4* UNL     1      -7.053  15.070  69.307  1.00  0.00    -0.170 C  
HETATM   17  H2* UNL     1      -8.744  12.499  66.677  1.00  0.00     0.000 HD 
HETATM   18  C3* UNL     1      -7.337  13.745  68.615  1.00  0.00    -0.117 C  
HETATM   19  C2* UNL     1      -8.820  13.794  68.247  1.00  0.00    -0.185 C  
HETATM   20  O3* UNL     1      -7.120  12.642  69.500  1.00  0.00    -0.326 OA 
HETATM   21  H3* UNL     1      -7.297  11.814  69.068  1.00  0.00     0.000 HD 
HETATM   22  O2* UNL     1      -9.039  13.372  66.910  1.00  0.00    -0.231 OA 
BRANCH  16  23
HETATM   23  C5* UNL     1      -6.259  16.023  68.400  1.00  0.00    -0.106 C  
HETATM   24  O5* UNL     1      -6.184  15.498  67.081  1.00  0.00    -0.316 OA 
HETATM   25  H5* UNL     1      -5.693  16.086  66.520  1.00  0.00     0.000 HD 
ENDBRANCH  16  23
ENDBRANCH  13  14
TORSDOF 2
ENDMDL
MODEL       52
REMARK 921   NORMALIZED FREE ENERGY PREDICTED BY IDOCK:   -5.64 KCAL/MOL
REMARK 922        TOTAL FREE ENERGY PREDICTED BY IDOCK:   -5.72 KCAL/MOL
REMARK 923 INTER-LIGAND FREE ENERGY PREDICTED BY IDOCK:   -6.39 KCAL/MOL
REMARK 924 INTRA-LIGAND FREE ENERGY PREDICTED BY IDOCK:    0.67 KCAL/MOL
REMARK 927      BINDING AFFINITY PREDICTED BY RF-SCORE:    0.00 PKD
ROOT
HETATM    1  N   UNL     1     -12.298   9.605  71.954  1.00  0.00    -0.374 NA 
HETATM    2  C   UNL     1     -11.233   9.722  71.075  1.00  0.00    -0.381 A  
HETATM    3  H2  UNL     1     -12.015   9.962  72.867  1.00  0.00     0.000 HD 
HETATM    4  H1  UNL     1     -13.191  10.026  71.696  1.00  0.00     0.000 HD 
HETATM    5  N   UNL     1     -10.053   9.166  71.417  1.00  0.00    -0.325 NA 
HETATM    6  C   UNL     1      -9.004   9.327  70.585  1.00  0.00    -0.243 A  
HETATM    7  N   UNL     1      -8.968  10.009  69.421  1.00  0.00    -0.182 NA 
HETATM    8  F   UNL     1      -7.852   8.752  70.965  1.00  0.00    -0.076 F  
HETATM    9  C   UNL     1     -10.173  10.515  69.105  1.00  0.00    -0.224 A  
HETATM   10  C   UNL     1     -11.334  10.395  69.847  1.00  0.00    -0.302 A  
HETATM   11  N   UNL     1     -12.391  10.984  69.196  1.00  0.00    -0.424 NA 
HETATM   12  C   UNL     1     -11.876  11.463  68.082  1.00  0.00    -0.218 A  
HETATM   13  N   UNL     1     -10.516  11.300  68.024  1.00  0.00    -0.181 NA 
ENDROOT
BRANCH  13  14
HETATM   14  C1* UNL     1      -9.614  11.765  66.983  1.00  0.00    -0.187 C  
HETATM   15  O4* UNL     1      -9.944  13.134  66.639  1.00  0.00    -0.256 OA 
HETATM   16  C4* UNL     1     -10.811  13.122  65.484  1.00  0.00    -0.283 C  
HETATM   17  H2* UNL     1      -9.895   9.250  64.737  1.00  0.00     0.000 HD 
HETATM   18  C3* UNL     1     -10.407  11.900  64.672  1.00  0.00    -0.284 C  
HETATM   19  C2* UNL     1      -9.553  11.054  65.617  1.00  0.00    -0.226 C  
HETATM   20  O3* UNL     1      -9.611  12.270  63.542  1.00  0.00    -0.650 OA 
HETATM   21  H3* UNL     1      -9.359  11.507  63.035  1.00  0.00     0.000 HD 
HETATM   22  O2* UNL     1      -9.933   9.688  65.579  1.00  0.00    -0.311 OA 
BRANCH  16  23
HETATM   23  C5* UNL     1     -12.285  13.053  65.911  1.00  0.00    -0.432 C  
HETATM   24  O5* UNL     1     -13.089  12.589  64.834  1.00  0.00    -0.833 OA 
HETATM   25  H5* UNL     1     -14.000  12.546  65.097  1.00  0.00     0.000 HD 
ENDBRANCH  16  23
ENDBRANCH  13  14
TORSDOF 2
ENDMDL
MODEL       53
REMARK 921   NORMALIZED FREE ENERGY PREDICTED BY IDOCK:   -5.63 KCAL/MOL
REMARK 922        TOTAL FREE ENERGY PREDICTED BY IDOCK:   -5.71 KCAL/MOL
REMARK 923 INTER-LIGAND FREE ENERGY PREDICTED BY IDOCK:   -5.66 KCAL/MOL
REMARK 924 INTRA-LIGAND FREE ENERGY PREDICTED BY IDOCK:   -0.05 KCAL/MOL
REMARK 927      BINDING AFFINITY PREDICTED BY RF-SCORE:    0.00 PKD
ROOT
HETATM    1  N   UNL     1      -5.217  17.551  70.689  1.00  0.00    -0.259 NA 
HETATM    2  C   UNL     1      -6.172  17.821  69.722  1.00  0.00    -0.174 A  
HETATM    3  H2  UNL     1      -5.362  18.177  71.481  1.00  0.00     0.000 HD 
HETATM    4  H1  UNL     1      -5.131  16.595  71.034  1.00  0.00     0.000 HD 
HETATM    5  N   UNL     1      -6.287  19.085  69.266  1.00  0.00    -0.278 NA 
HETATM    6  C   UNL     1      -7.253  19.356  68.364  1.00  0.00    -0.310 A  
HETATM    7  N   UNL     1      -8.167  18.507  67.850  1.00  0.00    -0.256 NA 
HETATM    8  F   UNL     1      -7.325  20.627  67.938  1.00  0.00    -0.321 F  
HETATM    9  C   UNL     1      -7.992  17.254  68.305  1.00  0.00    -0.244 A  
HETATM   10  C   UNL     1      -7.024  16.833  69.200  1.00  0.00    -0.231 A  
HETATM   11  N   UNL     1      -7.101  15.476  69.397  1.00  0.00    -0.180 NA 
HETATM   12  C   UNL     1      -8.105  15.082  68.642  1.00  0.00    -0.153 A  
HETATM   13  N   UNL     1      -8.749  16.132  68.040  1.00  0.00    -0.174 NA 
ENDROOT
BRANCH  13  14
HETATM   14  C1* UNL     1      -9.934  16.079  67.200  1.00  0.00    -0.249 C  
HETATM   15  O4* UNL     1     -11.069  16.596  67.938  1.00  0.00    -0.315 OA 
HETATM   16  C4* UNL     1     -11.782  15.486  68.524  1.00  0.00    -0.337 C  
HETATM   17  H2* UNL     1      -9.814  12.864  66.149  1.00  0.00     0.000 HD 
HETATM   18  C3* UNL     1     -11.593  14.318  67.568  1.00  0.00    -0.363 C  
HETATM   19  C2* UNL     1     -10.447  14.735  66.646  1.00  0.00    -0.286 C  
HETATM   20  O3* UNL     1     -12.764  14.103  66.775  1.00  0.00    -0.510 OA 
HETATM   21  H3* UNL     1     -12.646  13.373  66.178  1.00  0.00     0.000 HD 
HETATM   22  O2* UNL     1      -9.497  13.693  66.491  1.00  0.00    -0.269 OA 
BRANCH  16  23
HETATM   23  C5* UNL     1     -11.235  15.165  69.924  1.00  0.00    -0.283 C  
HETATM   24  O5* UNL     1     -11.122  13.758  70.097  1.00  0.00    -0.467 OA 
HETATM   25  H5* UNL     1     -10.784  13.559  70.962  1.00  0.00     0.000 HD 
ENDBRANCH  16  23
ENDBRANCH  13  14
TORSDOF 2
ENDMDL
MODEL       54
REMARK 921   NORMALIZED FREE ENERGY PREDICTED BY IDOCK:   -5.62 KCAL/MOL
REMARK 922        TOTAL FREE ENERGY PREDICTED BY IDOCK:   -5.70 KCAL/MOL
REMARK 923 INTER-LIGAND FREE ENERGY PREDICTED BY IDOCK:   -6.59 KCAL/MOL
REMARK 924 INTRA-LIGAND FREE ENERGY PREDICTED BY IDOCK:    0.89 KCAL/MOL
REMARK 927      BINDING AFFINITY PREDICTED BY RF-SCORE:    0.00 PKD
ROOT
HETATM    1  N   UNL     1      -7.325  17.123  68.341  1.00  0.00    -0.210 NA 
HETATM    2  C   UNL     1      -8.497  16.936  67.627  1.00  0.00    -0.200 A  
HETATM    3  H2  UNL     1      -7.492  17.807  69.079  1.00  0.00     0.000 HD 
HETATM    4  H1  UNL     1      -6.865  16.306  68.745  1.00  0.00     0.000 HD 
HETATM    5  N   UNL     1      -9.105  18.016  67.094  1.00  0.00    -0.251 NA 
HETATM    6  C   UNL     1     -10.273  17.839  66.445  1.00  0.00    -0.365 A  
HETATM    7  N   UNL     1     -10.953  16.687  66.264  1.00  0.00     0.016 NA 
HETATM    8  F   UNL     1     -10.838  18.942  65.929  1.00  0.00    -0.465 F  
HETATM    9  C   UNL     1     -10.294  15.636  66.781  1.00  0.00    -0.287 A  
HETATM   10  C   UNL     1      -9.077  15.671  67.437  1.00  0.00    -0.194 A  
HETATM   11  N   UNL     1      -8.671  14.404  67.779  1.00  0.00    -0.170 NA 
HETATM   12  C   UNL     1      -9.631  13.614  67.346  1.00  0.00    -0.226 A  
HETATM   13  N   UNL     1     -10.689  14.315  66.827  1.00  0.00    -0.284 NA 
ENDROOT
BRANCH  13  14
HETATM   14  C1* UNL     1     -11.943  13.779  66.325  1.00  0.00    -0.429 C  
HETATM   15  O4* UNL     1     -11.958  12.341  66.506  1.00  0.00    -0.596 OA 
HETATM   16  C4* UNL     1     -11.529  11.718  65.276  1.00  0.00    -0.186 C  
HETATM   17  H2* UNL     1     -12.040  15.184  63.248  1.00  0.00     0.000 HD 
HETATM   18  C3* UNL     1     -11.988  12.642  64.158  1.00  0.00    -0.426 C  
HETATM   19  C2* UNL     1     -12.343  13.960  64.847  1.00  0.00    -0.420 C  
HETATM   20  O3* UNL     1     -13.158  12.133  63.512  1.00  0.00    -0.785 OA 
HETATM   21  H3* UNL     1     -13.445  12.710  62.814  1.00  0.00     0.000 HD 
HETATM   22  O2* UNL     1     -11.794  15.073  64.159  1.00  0.00    -0.348 OA 
BRANCH  16  23
HETATM   23  C5* UNL     1     -10.004  11.530  65.263  1.00  0.00    -0.260 C  
HETATM   24  O5* UNL     1      -9.430  12.241  64.174  1.00  0.00    -0.501 OA 
HETATM   25  H5* UNL     1      -8.487  12.125  64.166  1.00  0.00     0.000 HD 
ENDBRANCH  16  23
ENDBRANCH  13  14
TORSDOF 2
ENDMDL
MODEL       55
REMARK 921   NORMALIZED FREE ENERGY PREDICTED BY IDOCK:   -5.62 KCAL/MOL
REMARK 922        TOTAL FREE ENERGY PREDICTED BY IDOCK:   -5.70 KCAL/MOL
REMARK 923 INTER-LIGAND FREE ENERGY PREDICTED BY IDOCK:   -5.51 KCAL/MOL
REMARK 924 INTRA-LIGAND FREE ENERGY PREDICTED BY IDOCK:   -0.19 KCAL/MOL
REMARK 927      BINDING AFFINITY PREDICTED BY RF-SCORE:    0.00 PKD
ROOT
HETATM    1  N   UNL     1     -10.992   9.371  71.264  1.00  0.00    -0.345 NA 
HETATM    2  C   UNL     1     -10.261   9.791  70.164  1.00  0.00    -0.275 A  
HETATM    3  H2  UNL     1     -10.513   9.670  72.113  1.00  0.00     0.000 HD 
HETATM    4  H1  UNL     1     -11.974   9.639  71.326  1.00  0.00     0.000 HD 
HETATM    5  N   UNL     1      -8.961   9.438  70.082  1.00  0.00    -0.209 NA 
HETATM    6  C   UNL     1      -8.238   9.892  69.038  1.00  0.00    -0.124 A  
HETATM    7  N   UNL     1      -8.648  10.698  68.036  1.00  0.00    -0.120 NA 
HETATM    8  F   UNL     1      -6.952   9.511  68.998  1.00  0.00    -0.055 F  
HETATM    9  C   UNL     1      -9.955  10.994  68.140  1.00  0.00    -0.177 A  
HETATM   10  C   UNL     1     -10.817  10.568  69.135  1.00  0.00    -0.237 A  
HETATM   11  N   UNL     1     -12.094  11.013  68.896  1.00  0.00    -0.511 NA 
HETATM   12  C   UNL     1     -12.007  11.706  67.779  1.00  0.00    -0.047 A  
HETATM   13  N   UNL     1     -10.715  11.816  67.334  1.00  0.00    -0.226 NA 
ENDROOT
BRANCH  13  14
HETATM   14  C1* UNL     1     -10.238  12.562  66.182  1.00  0.00    -0.252 C  
HETATM   15  O4* UNL     1      -9.283  13.562  66.619  1.00  0.00    -0.248 OA 
HETATM   16  C4* UNL     1      -9.976  14.817  66.787  1.00  0.00    -0.251 C  
HETATM   17  H2* UNL     1     -13.172  13.422  64.731  1.00  0.00     0.000 HD 
HETATM   18  C3* UNL     1     -11.100  14.814  65.762  1.00  0.00    -0.338 C  
HETATM   19  C2* UNL     1     -11.217  13.361  65.299  1.00  0.00    -0.289 C  
HETATM   20  O3* UNL     1     -10.775  15.630  64.633  1.00  0.00    -0.646 OA 
HETATM   21  H3* UNL     1     -11.478  15.628  63.993  1.00  0.00     0.000 HD 
HETATM   22  O2* UNL     1     -12.568  12.929  65.275  1.00  0.00    -0.506 OA 
BRANCH  16  23
HETATM   23  C5* UNL     1     -10.516  14.954  68.218  1.00  0.00    -0.239 C  
HETATM   24  O5* UNL     1      -9.747  14.160  69.113  1.00  0.00    -0.415 OA 
HETATM   25  H5* UNL     1     -10.080  14.244  69.998  1.00  0.00     0.000 HD 
ENDBRANCH  16  23
ENDBRANCH  13  14
TORSDOF 2
ENDMDL
MODEL       56
REMARK 921   NORMALIZED FREE ENERGY PREDICTED BY IDOCK:   -5.62 KCAL/MOL
REMARK 922        TOTAL FREE ENERGY PREDICTED BY IDOCK:   -5.70 KCAL/MOL
REMARK 923 INTER-LIGAND FREE ENERGY PREDICTED BY IDOCK:   -5.64 KCAL/MOL
REMARK 924 INTRA-LIGAND FREE ENERGY PREDICTED BY IDOCK:   -0.06 KCAL/MOL
REMARK 927      BINDING AFFINITY PREDICTED BY RF-SCORE:    0.00 PKD
ROOT
HETATM    1  N   UNL     1     -10.317   8.587  68.292  1.00  0.00    -0.226 NA 
HETATM    2  C   UNL     1     -10.505   9.677  67.458  1.00  0.00    -0.262 A  
HETATM    3  H2  UNL     1      -9.357   8.258  68.196  1.00  0.00     0.000 HD 
HETATM    4  H1  UNL     1     -10.535   8.690  69.284  1.00  0.00     0.000 HD 
HETATM    5  N   UNL     1     -10.216   9.542  66.147  1.00  0.00    -0.247 NA 
HETATM    6  C   UNL     1     -10.349  10.618  65.346  1.00  0.00    -0.233 A  
HETATM    7  N   UNL     1     -10.727  11.866  65.694  1.00  0.00    -0.271 NA 
HETATM    8  F   UNL     1     -10.054  10.432  64.050  1.00  0.00    -0.374 F  
HETATM    9  C   UNL     1     -11.037  11.945  67.000  1.00  0.00    -0.302 A  
HETATM   10  C   UNL     1     -10.981  10.915  67.921  1.00  0.00    -0.271 A  
HETATM   11  N   UNL     1     -11.424  11.336  69.151  1.00  0.00    -0.267 NA 
HETATM   12  C   UNL     1     -11.735  12.605  68.981  1.00  0.00    -0.318 A  
HETATM   13  N   UNL     1     -11.422  13.054  67.724  1.00  0.00    -0.295 NA 
ENDROOT
BRANCH  13  14
HETATM   14  C1* UNL     1     -11.559  14.407  67.209  1.00  0.00    -0.379 C  
HETATM   15  O4* UNL     1     -10.417  14.720  66.372  1.00  0.00    -0.281 OA 
HETATM   16  C4* UNL     1      -9.443  15.427  67.169  1.00  0.00    -0.213 C  
HETATM   17  H2* UNL     1     -12.185  16.106  70.068  1.00  0.00     0.000 HD 
HETATM   18  C3* UNL     1     -10.238  16.213  68.200  1.00  0.00    -0.247 C  
HETATM   19  C2* UNL     1     -11.643  15.610  68.168  1.00  0.00    -0.283 C  
HETATM   20  O3* UNL     1     -10.324  17.596  67.843  1.00  0.00    -0.337 OA 
HETATM   21  H3* UNL     1     -10.821  18.087  68.488  1.00  0.00     0.000 HD 
HETATM   22  O2* UNL     1     -12.133  15.364  69.477  1.00  0.00    -0.333 OA 
BRANCH  16  23
HETATM   23  C5* UNL     1      -8.468  14.445  67.836  1.00  0.00    -0.165 C  
HETATM   24  O5* UNL     1      -8.209  13.345  66.972  1.00  0.00    -0.340 OA 
HETATM   25  H5* UNL     1      -7.606  12.738  67.384  1.00  0.00     0.000 HD 
ENDBRANCH  16  23
ENDBRANCH  13  14
TORSDOF 2
ENDMDL
MODEL       57
REMARK 921   NORMALIZED FREE ENERGY PREDICTED BY IDOCK:   -5.61 KCAL/MOL
REMARK 922        TOTAL FREE ENERGY PREDICTED BY IDOCK:   -5.69 KCAL/MOL
REMARK 923 INTER-LIGAND FREE ENERGY PREDICTED BY IDOCK:   -5.97 KCAL/MOL
REMARK 924 INTRA-LIGAND FREE ENERGY PREDICTED BY IDOCK:    0.29 KCAL/MOL
REMARK 927      BINDING AFFINITY PREDICTED BY RF-SCORE:    0.00 PKD
ROOT
HETATM    1  N   UNL     1      -9.164   6.407  65.694  1.00  0.00    -0.372 NA 
HETATM    2  C   UNL     1      -9.610   7.349  66.607  1.00  0.00    -0.190 A  
HETATM    3  H2  UNL     1      -9.882   5.692  65.579  1.00  0.00     0.000 HD 
HETATM    4  H1  UNL     1      -8.863   6.726  64.773  1.00  0.00     0.000 HD 
HETATM    5  N   UNL     1     -10.009   6.927  67.825  1.00  0.00    -0.142 NA 
HETATM    6  C   UNL     1     -10.492   7.839  68.693  1.00  0.00    -0.172 A  
HETATM    7  N   UNL     1     -10.655   9.164  68.495  1.00  0.00    -0.199 NA 
HETATM    8  F   UNL     1     -10.872   7.371  69.893  1.00  0.00    -0.234 F  
HETATM    9  C   UNL     1     -10.213   9.543  67.284  1.00  0.00    -0.234 A  
HETATM   10  C   UNL     1      -9.665   8.722  66.315  1.00  0.00    -0.272 A  
HETATM   11  N   UNL     1      -9.268   9.454  65.223  1.00  0.00    -0.237 NA 
HETATM   12  C   UNL     1      -9.581  10.699  65.520  1.00  0.00    -0.221 A  
HETATM   13  N   UNL     1     -10.252  10.798  66.712  1.00  0.00    -0.222 NA 
ENDROOT
BRANCH  13  14
HETATM   14  C1* UNL     1     -10.808  11.997  67.316  1.00  0.00    -0.246 C  
HETATM   15  O4* UNL     1     -12.147  12.216  66.804  1.00  0.00    -0.609 OA 
HETATM   16  C4* UNL     1     -12.073  13.148  65.704  1.00  0.00    -0.449 C  
HETATM   17  H2* UNL     1      -8.307  14.205  66.750  1.00  0.00     0.000 HD 
HETATM   18  C3* UNL     1     -10.902  14.069  66.017  1.00  0.00    -0.295 C  
HETATM   19  C2* UNL     1     -10.123  13.365  67.128  1.00  0.00    -0.240 C  
HETATM   20  O3* UNL     1     -11.356  15.335  66.506  1.00  0.00    -0.287 OA 
HETATM   21  H3* UNL     1     -10.625  15.910  66.700  1.00  0.00     0.000 HD 
HETATM   22  O2* UNL     1      -8.729  13.361  66.865  1.00  0.00    -0.210 OA 
BRANCH  16  23
HETATM   23  C5* UNL     1     -11.869  12.407  64.374  1.00  0.00    -0.389 C  
HETATM   24  O5* UNL     1     -11.995  13.310  63.283  1.00  0.00    -0.755 OA 
HETATM   25  H5* UNL     1     -11.869  12.852  62.461  1.00  0.00     0.000 HD 
ENDBRANCH  16  23
ENDBRANCH  13  14
TORSDOF 2
ENDMDL
MODEL       58
REMARK 921   NORMALIZED FREE ENERGY PREDICTED BY IDOCK:   -5.58 KCAL/MOL
REMARK 922        TOTAL FREE ENERGY PREDICTED BY IDOCK:   -5.66 KCAL/MOL
REMARK 923 INTER-LIGAND FREE ENERGY PREDICTED BY IDOCK:   -6.30 KCAL/MOL
REMARK 924 INTRA-LIGAND FREE ENERGY PREDICTED BY IDOCK:    0.64 KCAL/MOL
REMARK 927      BINDING AFFINITY PREDICTED BY RF-SCORE:    0.00 PKD
ROOT
HETATM    1  N   UNL     1     -10.376  19.861  69.701  1.00  0.00    -0.525 NA 
HETATM    2  C   UNL     1     -10.093  19.103  68.577  1.00  0.00    -0.422 A  
HETATM    3  H2  UNL     1     -10.834  20.725  69.411  1.00  0.00     0.000 HD 
HETATM    4  H1  UNL     1     -10.919  19.435  70.452  1.00  0.00     0.000 HD 
HETATM    5  N   UNL     1      -9.376  19.667  67.584  1.00  0.00    -0.326 NA 
HETATM    6  C   UNL     1      -9.147  18.945  66.468  1.00  0.00    -0.327 A  
HETATM    7  N   UNL     1      -9.569  17.693  66.191  1.00  0.00    -0.492 NA 
HETATM    8  F   UNL     1      -8.425  19.548  65.510  1.00  0.00    -0.144 F  
HETATM    9  C   UNL     1     -10.248  17.160  67.221  1.00  0.00    -0.316 A  
HETATM   10  C   UNL     1     -10.523  17.774  68.430  1.00  0.00    -0.347 A  
HETATM   11  N   UNL     1     -11.186  16.915  69.273  1.00  0.00    -0.011 NA 
HETATM   12  C   UNL     1     -11.321  15.802  68.582  1.00  0.00    -0.369 A  
HETATM   13  N   UNL     1     -10.864  15.928  67.295  1.00  0.00    -0.309 NA 
ENDROOT
BRANCH  13  14
HETATM   14  C1* UNL     1     -10.919  14.933  66.237  1.00  0.00    -0.338 C  
HETATM   15  O4* UNL     1     -12.115  14.130  66.394  1.00  0.00    -0.422 OA 
HETATM   16  C4* UNL     1     -11.771  12.928  67.116  1.00  0.00    -0.377 C  
HETATM   17  H2* UNL     1      -7.826  13.583  66.486  1.00  0.00     0.000 HD 
HETATM   18  C3* UNL     1     -10.333  12.610  66.735  1.00  0.00    -0.235 C  
HETATM   19  C2* UNL     1      -9.799  13.886  66.082  1.00  0.00    -0.302 C  
HETATM   20  O3* UNL     1     -10.273  11.547  65.780  1.00  0.00    -0.231 OA 
HETATM   21  H3* UNL     1      -9.374  11.348  65.542  1.00  0.00     0.000 HD 
HETATM   22  O2* UNL     1      -8.516  14.229  66.582  1.00  0.00    -0.100 OA 
BRANCH  16  23
HETATM   23  C5* UNL     1     -11.921  13.140  68.630  1.00  0.00    -0.284 C  
HETATM   24  O5* UNL     1     -10.881  12.465  69.327  1.00  0.00    -0.419 OA 
HETATM   25  H5* UNL     1     -10.973  12.596  70.263  1.00  0.00     0.000 HD 
ENDBRANCH  16  23
ENDBRANCH  13  14
TORSDOF 2
ENDMDL
MODEL       59
REMARK 921   NORMALIZED FREE ENERGY PREDICTED BY IDOCK:   -5.56 KCAL/MOL
REMARK 922        TOTAL FREE ENERGY PREDICTED BY IDOCK:   -5.64 KCAL/MOL
REMARK 923 INTER-LIGAND FREE ENERGY PREDICTED BY IDOCK:   -6.53 KCAL/MOL
REMARK 924 INTRA-LIGAND FREE ENERGY PREDICTED BY IDOCK:    0.89 KCAL/MOL
REMARK 927      BINDING AFFINITY PREDICTED BY RF-SCORE:    0.00 PKD
ROOT
HETATM    1  N   UNL     1     -12.556   9.530  70.865  1.00  0.00    -0.480 NA 
HETATM    2  C   UNL     1     -12.574  10.916  70.884  1.00  0.00    -0.397 A  
HETATM    3  H2  UNL     1     -13.513   9.185  70.936  1.00  0.00     0.000 HD 
HETATM    4  H1  UNL     1     -12.091   9.060  70.088  1.00  0.00     0.000 HD 
HETATM    5  N   UNL     1     -13.190  11.537  71.911  1.00  0.00    -0.456 NA 
HETATM    6  C   UNL     1     -13.253  12.884  71.900  1.00  0.00    -0.423 A  
HETATM    7  N   UNL     1     -12.783  13.727  70.956  1.00  0.00    -0.346 NA 
HETATM    8  F   UNL     1     -13.871  13.456  72.945  1.00  0.00    -0.564 F  
HETATM    9  C   UNL     1     -12.149  13.066  69.972  1.00  0.00    -0.297 A  
HETATM   10  C   UNL     1     -11.981  11.696  69.878  1.00  0.00    -0.340 A  
HETATM   11  N   UNL     1     -11.233  11.372  68.773  1.00  0.00    -0.223 NA 
HETATM   12  C   UNL     1     -10.961  12.526  68.199  1.00  0.00    -0.228 A  
HETATM   13  N   UNL     1     -11.579  13.578  68.825  1.00  0.00    -0.300 NA 
ENDROOT
BRANCH  13  14
HETATM   14  C1* UNL     1     -11.562  14.976  68.429  1.00  0.00    -0.331 C  
HETATM   15  O4* UNL     1     -10.834  15.113  67.183  1.00  0.00    -0.307 OA 
HETATM   16  C4* UNL     1      -9.470  15.477  67.485  1.00  0.00    -0.208 C  
HETATM   17  H2* UNL     1     -10.480  16.426  71.288  1.00  0.00     0.000 HD 
HETATM   18  C3* UNL     1      -9.531  16.299  68.763  1.00  0.00    -0.237 C  
HETATM   19  C2* UNL     1     -10.925  16.045  69.338  1.00  0.00    -0.321 C  
HETATM   20  O3* UNL     1      -9.396  17.697  68.488  1.00  0.00    -0.278 OA 
HETATM   21  H3* UNL     1      -9.434  18.210  69.287  1.00  0.00     0.000 HD 
HETATM   22  O2* UNL     1     -10.873  15.767  70.728  1.00  0.00    -0.312 OA 
BRANCH  16  23
HETATM   23  C5* UNL     1      -8.597  14.225  67.659  1.00  0.00    -0.183 C  
HETATM   24  O5* UNL     1      -8.077  14.167  68.982  1.00  0.00    -0.294 OA 
HETATM   25  H5* UNL     1      -7.539  13.393  69.090  1.00  0.00     0.000 HD 
ENDBRANCH  16  23
ENDBRANCH  13  14
TORSDOF 2
ENDMDL
MODEL       60
REMARK 921   NORMALIZED FREE ENERGY PREDICTED BY IDOCK:   -5.55 KCAL/MOL
REMARK 922        TOTAL FREE ENERGY PREDICTED BY IDOCK:   -5.63 KCAL/MOL
REMARK 923 INTER-LIGAND FREE ENERGY PREDICTED BY IDOCK:   -6.36 KCAL/MOL
REMARK 924 INTRA-LIGAND FREE ENERGY PREDICTED BY IDOCK:    0.74 KCAL/MOL
REMARK 927      BINDING AFFINITY PREDICTED BY RF-SCORE:    0.00 PKD
ROOT
HETATM    1  N   UNL     1      -8.820   8.884  62.612  1.00  0.00    -0.422 NA 
HETATM    2  C   UNL     1      -9.026   9.430  63.869  1.00  0.00    -0.126 A  
HETATM    3  H2  UNL     1      -9.066   7.894  62.637  1.00  0.00     0.000 HD 
HETATM    4  H1  UNL     1      -9.279   9.319  61.812  1.00  0.00     0.000 HD 
HETATM    5  N   UNL     1      -8.419   8.854  64.928  1.00  0.00    -0.172 NA 
HETATM    6  C   UNL     1      -8.663   9.354  66.156  1.00  0.00    -0.147 A  
HETATM    7  N   UNL     1      -9.475  10.380  66.486  1.00  0.00    -0.163 NA 
HETATM    8  F   UNL     1      -8.033   8.750  67.177  1.00  0.00    -0.094 F  
HETATM    9  C   UNL     1     -10.029  10.943  65.398  1.00  0.00    -0.263 A  
HETATM   10  C   UNL     1      -9.838  10.555  64.084  1.00  0.00    -0.337 A  
HETATM   11  N   UNL     1     -10.512  11.390  63.227  1.00  0.00    -0.358 NA 
HETATM   12  C   UNL     1     -11.110  12.265  64.008  1.00  0.00    -0.386 A  
HETATM   13  N   UNL     1     -10.938  11.979  65.338  1.00  0.00    -0.292 NA 
ENDROOT
BRANCH  13  14
HETATM   14  C1* UNL     1     -11.510  12.682  66.475  1.00  0.00    -0.353 C  
HETATM   15  O4* UNL     1     -12.622  13.497  66.025  1.00  0.00    -0.420 OA 
HETATM   16  C4* UNL     1     -12.146  14.840  65.797  1.00  0.00    -0.107 C  
HETATM   17  H2* UNL     1      -8.730  14.060  67.825  1.00  0.00     0.000 HD 
HETATM   18  C3* UNL     1     -11.018  15.058  66.795  1.00  0.00    -0.323 C  
HETATM   19  C2* UNL     1     -10.658  13.662  67.305  1.00  0.00    -0.267 C  
HETATM   20  O3* UNL     1     -11.452  15.853  67.902  1.00  0.00    -0.299 OA 
HETATM   21  H3* UNL     1     -10.747  15.990  68.525  1.00  0.00     0.000 HD 
HETATM   22  O2* UNL     1      -9.255  13.456  67.313  1.00  0.00    -0.204 OA 
BRANCH  16  23
HETATM   23  C5* UNL     1     -11.660  15.008  64.349  1.00  0.00    -0.276 C  
HETATM   24  O5* UNL     1     -12.025  16.289  63.852  1.00  0.00    -1.357 OA 
HETATM   25  H5* UNL     1     -11.725  16.392  62.957  1.00  0.00     0.000 HD 
ENDBRANCH  16  23
ENDBRANCH  13  14
TORSDOF 2
ENDMDL
MODEL       61
REMARK 921   NORMALIZED FREE ENERGY PREDICTED BY IDOCK:   -5.54 KCAL/MOL
REMARK 922        TOTAL FREE ENERGY PREDICTED BY IDOCK:   -5.61 KCAL/MOL
REMARK 923 INTER-LIGAND FREE ENERGY PREDICTED BY IDOCK:   -5.67 KCAL/MOL
REMARK 924 INTRA-LIGAND FREE ENERGY PREDICTED BY IDOCK:    0.06 KCAL/MOL
REMARK 927      BINDING AFFINITY PREDICTED BY RF-SCORE:    0.00 PKD
ROOT
HETATM    1  N   UNL     1     -10.626  16.325  66.144  1.00  0.00    -0.298 NA 
HETATM    2  C   UNL     1     -10.657  15.027  65.661  1.00  0.00    -0.346 A  
HETATM    3  H2  UNL     1     -11.573  16.608  66.393  1.00  0.00     0.000 HD 
HETATM    4  H1  UNL     1     -10.000  16.540  66.920  1.00  0.00     0.000 HD 
HETATM    5  N   UNL     1     -11.485  14.741  64.634  1.00  0.00    -0.395 NA 
HETATM    6  C   UNL     1     -11.553  13.466  64.201  1.00  0.00    -0.398 A  
HETATM    7  N   UNL     1     -10.894  12.392  64.684  1.00  0.00    -0.294 NA 
HETATM    8  F   UNL     1     -12.387  13.233  63.175  1.00  0.00    -0.607 F  
HETATM    9  C   UNL     1     -10.057  12.729  65.680  1.00  0.00    -0.270 A  
HETATM   10  C   UNL     1      -9.864  13.998  66.196  1.00  0.00    -0.303 A  
HETATM   11  N   UNL     1      -8.892  13.987  67.166  1.00  0.00    -0.219 NA 
HETATM   12  C   UNL     1      -8.508  12.729  67.245  1.00  0.00    -0.194 A  
HETATM   13  N   UNL     1      -9.255  11.906  66.442  1.00  0.00    -0.214 NA 
ENDROOT
BRANCH  13  14
HETATM   14  C1* UNL     1      -9.160  10.460  66.328  1.00  0.00    -0.158 C  
HETATM   15  O4* UNL     1     -10.447   9.868  66.639  1.00  0.00    -0.221 OA 
HETATM   16  C4* UNL     1     -10.447   9.473  68.028  1.00  0.00    -0.230 C  
HETATM   17  H2* UNL     1      -6.422   9.858  68.223  1.00  0.00     0.000 HD 
HETATM   18  C3* UNL     1      -9.010   9.098  68.355  1.00  0.00    -0.133 C  
HETATM   19  C2* UNL     1      -8.175   9.663  67.205  1.00  0.00    -0.114 C  
HETATM   20  O3* UNL     1      -8.841   7.678  68.390  1.00  0.00    -0.130 OA 
HETATM   21  H3* UNL     1      -7.943   7.443  68.595  1.00  0.00     0.000 HD 
HETATM   22  O2* UNL     1      -7.029  10.350  67.682  1.00  0.00    -0.081 OA 
BRANCH  16  23
HETATM   23  C5* UNL     1     -10.949  10.619  68.920  1.00  0.00    -0.249 C  
HETATM   24  O5* UNL     1     -12.354  10.781  68.769  1.00  0.00    -0.812 OA 
HETATM   25  H5* UNL     1     -12.665  11.489  69.321  1.00  0.00     0.000 HD 
ENDBRANCH  16  23
ENDBRANCH  13  14
TORSDOF 2
ENDMDL
MODEL       62
REMARK 921   NORMALIZED FREE ENERGY PREDICTED BY IDOCK:   -5.53 KCAL/MOL
REMARK 922        TOTAL FREE ENERGY PREDICTED BY IDOCK:   -5.61 KCAL/MOL
REMARK 923 INTER-LIGAND FREE ENERGY PREDICTED BY IDOCK:   -5.79 KCAL/MOL
REMARK 924 INTRA-LIGAND FREE ENERGY PREDICTED BY IDOCK:    0.18 KCAL/MOL
REMARK 927      BINDING AFFINITY PREDICTED BY RF-SCORE:    0.00 PKD
ROOT
HETATM    1  N   UNL     1     -11.656  13.904  68.052  1.00  0.00    -0.313 NA 
HETATM    2  C   UNL     1     -11.302  14.959  67.226  1.00  0.00    -0.349 A  
HETATM    3  H2  UNL     1     -11.161  13.066  67.748  1.00  0.00     0.000 HD 
HETATM    4  H1  UNL     1     -11.536  14.014  69.059  1.00  0.00     0.000 HD 
HETATM    5  N   UNL     1     -11.460  14.814  65.894  1.00  0.00    -0.344 NA 
HETATM    6  C   UNL     1     -11.066  15.821  65.088  1.00  0.00    -0.324 A  
HETATM    7  N   UNL     1     -10.496  16.991  65.445  1.00  0.00    -0.644 NA 
HETATM    8  F   UNL     1     -11.247  15.632  63.772  1.00  0.00     0.027 F  
HETATM    9  C   UNL     1     -10.391  17.105  66.780  1.00  0.00    -0.302 A  
HETATM   10  C   UNL     1     -10.786  16.169  67.718  1.00  0.00    -0.318 A  
HETATM   11  N   UNL     1     -10.585  16.640  68.992  1.00  0.00    -0.320 NA 
HETATM   12  C   UNL     1     -10.066  17.840  68.830  1.00  0.00    -0.381 A  
HETATM   13  N   UNL     1      -9.828  18.131  67.511  1.00  0.00    -0.303 NA 
ENDROOT
BRANCH  13  14
HETATM   14  C1* UNL     1      -9.203  19.325  66.968  1.00  0.00    -0.307 C  
HETATM   15  O4* UNL     1      -8.522  18.992  65.732  1.00  0.00    -0.428 OA 
HETATM   16  C4* UNL     1      -7.131  18.742  66.025  1.00  0.00    -0.268 C  
HETATM   17  H2* UNL     1      -7.514  20.438  69.681  1.00  0.00     0.000 HD 
HETATM   18  C3* UNL     1      -6.787  19.636  67.207  1.00  0.00    -0.202 C  
HETATM   19  C2* UNL     1      -8.133  20.090  67.773  1.00  0.00    -0.285 C  
HETATM   20  O3* UNL     1      -6.053  20.790  66.787  1.00  0.00    -0.193 OA 
HETATM   21  H3* UNL     1      -5.838  21.348  67.526  1.00  0.00     0.000 HD 
HETATM   22  O2* UNL     1      -8.173  19.966  69.186  1.00  0.00    -0.133 OA 
BRANCH  16  23
HETATM   23  C5* UNL     1      -6.901  17.259  66.353  1.00  0.00    -0.265 C  
HETATM   24  O5* UNL     1      -6.550  17.106  67.722  1.00  0.00    -0.139 OA 
HETATM   25  H5* UNL     1      -6.408  16.189  67.925  1.00  0.00     0.000 HD 
ENDBRANCH  16  23
ENDBRANCH  13  14
TORSDOF 2
ENDMDL
MODEL       63
REMARK 921   NORMALIZED FREE ENERGY PREDICTED BY IDOCK:   -5.53 KCAL/MOL
REMARK 922        TOTAL FREE ENERGY PREDICTED BY IDOCK:   -5.61 KCAL/MOL
REMARK 923 INTER-LIGAND FREE ENERGY PREDICTED BY IDOCK:   -5.37 KCAL/MOL
REMARK 924 INTRA-LIGAND FREE ENERGY PREDICTED BY IDOCK:   -0.24 KCAL/MOL
REMARK 927      BINDING AFFINITY PREDICTED BY RF-SCORE:    0.00 PKD
ROOT
HETATM    1  N   UNL     1     -12.104  14.660  67.700  1.00  0.00    -0.584 NA 
HETATM    2  C   UNL     1     -12.106  13.636  68.633  1.00  0.00    -0.290 A  
HETATM    3  H2  UNL     1     -11.602  15.460  68.086  1.00  0.00     0.000 HD 
HETATM    4  H1  UNL     1     -11.748  14.466  66.764  1.00  0.00     0.000 HD 
HETATM    5  N   UNL     1     -12.577  13.894  69.871  1.00  0.00    -0.217 NA 
HETATM    6  C   UNL     1     -12.528  12.911  70.792  1.00  0.00    -0.286 A  
HETATM    7  N   UNL     1     -12.038  11.662  70.646  1.00  0.00    -0.370 NA 
HETATM    8  F   UNL     1     -13.012  13.214  72.008  1.00  0.00    -0.433 F  
HETATM    9  C   UNL     1     -11.613  11.441  69.390  1.00  0.00    -0.323 A  
HETATM   10  C   UNL     1     -11.638  12.345  68.343  1.00  0.00    -0.324 A  
HETATM   11  N   UNL     1     -11.181  11.762  67.186  1.00  0.00    -0.298 NA 
HETATM   12  C   UNL     1     -10.874  10.527  67.528  1.00  0.00    -0.301 A  
HETATM   13  N   UNL     1     -11.016  10.309  68.874  1.00  0.00    -0.229 NA 
ENDROOT
BRANCH  13  14
HETATM   14  C1* UNL     1     -10.703   9.096  69.610  1.00  0.00    -0.225 C  
HETATM   15  O4* UNL     1      -9.537   9.325  70.440  1.00  0.00    -0.207 OA 
HETATM   16  C4* UNL     1      -8.369   8.857  69.732  1.00  0.00    -0.125 C  
HETATM   17  H2* UNL     1     -10.679   6.826  67.100  1.00  0.00     0.000 HD 
HETATM   18  C3* UNL     1      -8.839   7.689  68.879  1.00  0.00    -0.135 C  
HETATM   19  C2* UNL     1     -10.365   7.788  68.868  1.00  0.00    -0.213 C  
HETATM   20  O3* UNL     1      -8.465   6.437  69.462  1.00  0.00    -0.130 OA 
HETATM   21  H3* UNL     1      -8.759   5.708  68.929  1.00  0.00     0.000 HD 
HETATM   22  O2* UNL     1     -10.888   7.633  67.558  1.00  0.00    -0.223 OA 
BRANCH  16  23
HETATM   23  C5* UNL     1      -7.767   9.979  68.873  1.00  0.00    -0.089 C  
HETATM   24  O5* UNL     1      -7.980  11.242  69.491  1.00  0.00    -0.369 OA 
HETATM   25  H5* UNL     1      -7.608  11.935  68.960  1.00  0.00     0.000 HD 
ENDBRANCH  16  23
ENDBRANCH  13  14
TORSDOF 2
ENDMDL
MODEL       64
REMARK 921   NORMALIZED FREE ENERGY PREDICTED BY IDOCK:   -5.53 KCAL/MOL
REMARK 922        TOTAL FREE ENERGY PREDICTED BY IDOCK:   -5.60 KCAL/MOL
REMARK 923 INTER-LIGAND FREE ENERGY PREDICTED BY IDOCK:   -5.82 KCAL/MOL
REMARK 924 INTRA-LIGAND FREE ENERGY PREDICTED BY IDOCK:    0.22 KCAL/MOL
REMARK 927      BINDING AFFINITY PREDICTED BY RF-SCORE:    0.00 PKD
ROOT
HETATM    1  N   UNL     1     -12.554  12.171  63.013  1.00  0.00    -0.728 NA 
HETATM    2  C   UNL     1     -11.439  11.808  63.750  1.00  0.00    -0.420 A  
HETATM    3  H2  UNL     1     -12.850  11.376  62.447  1.00  0.00     0.000 HD 
HETATM    4  H1  UNL     1     -13.363  12.546  63.507  1.00  0.00     0.000 HD 
HETATM    5  N   UNL     1     -10.368  11.311  63.097  1.00  0.00    -0.326 NA 
HETATM    6  C   UNL     1      -9.305  10.909  63.821  1.00  0.00    -0.248 A  
HETATM    7  N   UNL     1      -9.166  10.918  65.163  1.00  0.00    -0.210 NA 
HETATM    8  F   UNL     1      -8.262  10.426  63.125  1.00  0.00    -0.150 F  
HETATM    9  C   UNL     1     -10.241  11.452  65.769  1.00  0.00    -0.248 A  
HETATM   10  C   UNL     1     -11.379  11.934  65.148  1.00  0.00    -0.269 A  
HETATM   11  N   UNL     1     -12.250  12.462  66.069  1.00  0.00    -0.624 NA 
HETATM   12  C   UNL     1     -11.655  12.293  67.232  1.00  0.00    -0.357 A  
HETATM   13  N   UNL     1     -10.482  11.591  67.120  1.00  0.00    -0.215 NA 
ENDROOT
BRANCH  13  14
HETATM   14  C1* UNL     1      -9.603  11.162  68.195  1.00  0.00    -0.179 C  
HETATM   15  O4* UNL     1      -8.829  10.018  67.755  1.00  0.00    -0.125 OA 
HETATM   16  C4* UNL     1      -9.492   8.815  68.201  1.00  0.00    -0.140 C  
HETATM   17  H2* UNL     1     -11.805  10.940  70.756  1.00  0.00     0.000 HD 
HETATM   18  C3* UNL     1     -10.182   9.179  69.507  1.00  0.00    -0.203 C  
HETATM   19  C2* UNL     1     -10.179  10.707  69.551  1.00  0.00    -0.158 C  
HETATM   20  O3* UNL     1      -9.450   8.687  70.633  1.00  0.00    -0.164 OA 
HETATM   21  H3* UNL     1      -9.882   8.914  71.449  1.00  0.00     0.000 HD 
HETATM   22  O2* UNL     1     -11.450  11.220  69.920  1.00  0.00    -0.281 OA 
BRANCH  16  23
HETATM   23  C5* UNL     1     -10.498   8.325  67.148  1.00  0.00    -0.316 C  
HETATM   24  O5* UNL     1      -9.813   7.871  65.987  1.00  0.00    -0.456 OA 
HETATM   25  H5* UNL     1     -10.434   7.568  65.336  1.00  0.00     0.000 HD 
ENDBRANCH  16  23
ENDBRANCH  13  14
TORSDOF 2
ENDMDL
MODEL       65
REMARK 921   NORMALIZED FREE ENERGY PREDICTED BY IDOCK:   -5.52 KCAL/MOL
REMARK 922        TOTAL FREE ENERGY PREDICTED BY IDOCK:   -5.59 KCAL/MOL
REMARK 923 INTER-LIGAND FREE ENERGY PREDICTED BY IDOCK:   -5.67 KCAL/MOL
REMARK 924 INTRA-LIGAND FREE ENERGY PREDICTED BY IDOCK:    0.08 KCAL/MOL
REMARK 927      BINDING AFFINITY PREDICTED BY RF-SCORE:    0.00 PKD
ROOT
HETATM    1  N   UNL     1     -11.697  12.038  66.347  1.00  0.00    -0.565 NA 
HETATM    2  C   UNL     1     -10.901  11.335  67.236  1.00  0.00    -0.267 A  
HETATM    3  H2  UNL     1     -11.730  11.534  65.461  1.00  0.00     0.000 HD 
HETATM    4  H1  UNL     1     -12.648  12.277  66.629  1.00  0.00     0.000 HD 
HETATM    5  N   UNL     1      -9.643  11.019  66.863  1.00  0.00    -0.180 NA 
HETATM    6  C   UNL     1      -8.888  10.289  67.708  1.00  0.00    -0.125 A  
HETATM    7  N   UNL     1      -9.238   9.795  68.915  1.00  0.00    -0.149 NA 
HETATM    8  F   UNL     1      -7.643  10.004  67.295  1.00  0.00    -0.092 F  
HETATM    9  C   UNL     1     -10.484  10.163  69.259  1.00  0.00    -0.225 A  
HETATM   10  C   UNL     1     -11.350  10.937  68.506  1.00  0.00    -0.299 A  
HETATM   11  N   UNL     1     -12.518  11.166  69.190  1.00  0.00    -0.360 NA 
HETATM   12  C   UNL     1     -12.369  10.534  70.336  1.00  0.00    -0.324 A  
HETATM   13  N   UNL     1     -11.198   9.821  70.388  1.00  0.00    -0.278 NA 
ENDROOT
BRANCH  13  14
HETATM   14  C1* UNL     1     -10.739   8.954  71.461  1.00  0.00    -0.328 C  
HETATM   15  O4* UNL     1     -10.077   7.797  70.892  1.00  0.00    -0.187 OA 
HETATM   16  C4* UNL     1     -11.030   6.715  70.811  1.00  0.00    -0.270 C  
HETATM   17  H2* UNL     1     -13.572   8.662  73.289  1.00  0.00     0.000 HD 
HETATM   18  C3* UNL     1     -11.985   6.913  71.978  1.00  0.00    -0.306 C  
HETATM   19  C2* UNL     1     -11.738   8.342  72.462  1.00  0.00    -0.359 C  
HETATM   20  O3* UNL     1     -11.691   6.010  73.048  1.00  0.00    -0.497 OA 
HETATM   21  H3* UNL     1     -12.288   6.133  73.777  1.00  0.00     0.000 HD 
HETATM   22  O2* UNL     1     -12.956   9.040  72.671  1.00  0.00    -0.405 OA 
BRANCH  16  23
HETATM   23  C5* UNL     1     -11.769   6.741  69.465  1.00  0.00    -0.033 C  
HETATM   24  O5* UNL     1     -10.965   7.366  68.473  1.00  0.00    -0.419 OA 
HETATM   25  H5* UNL     1     -11.422   7.382  67.641  1.00  0.00     0.000 HD 
ENDBRANCH  16  23
ENDBRANCH  13  14
TORSDOF 2
ENDMDL
MODEL       66
REMARK 921   NORMALIZED FREE ENERGY PREDICTED BY IDOCK:   -5.47 KCAL/MOL
REMARK 922        TOTAL FREE ENERGY PREDICTED BY IDOCK:   -5.54 KCAL/MOL
REMARK 923 INTER-LIGAND FREE ENERGY PREDICTED BY IDOCK:   -5.44 KCAL/MOL
REMARK 924 INTRA-LIGAND FREE ENERGY PREDICTED BY IDOCK:   -0.10 KCAL/MOL
REMARK 927      BINDING AFFINITY PREDICTED BY RF-SCORE:    0.00 PKD
ROOT
HETATM    1  N   UNL     1     -10.890  17.746  68.256  1.00  0.00    -0.241 NA 
HETATM    2  C   UNL     1     -10.097  16.627  68.450  1.00  0.00    -0.268 A  
HETATM    3  H2  UNL     1     -10.385  18.413  67.673  1.00  0.00     0.000 HD 
HETATM    4  H1  UNL     1     -11.828  17.617  67.876  1.00  0.00     0.000 HD 
HETATM    5  N   UNL     1      -8.856  16.796  68.952  1.00  0.00    -0.253 NA 
HETATM    6  C   UNL     1      -8.067  15.712  69.090  1.00  0.00    -0.238 A  
HETATM    7  N   UNL     1      -8.352  14.434  68.766  1.00  0.00    -0.151 NA 
HETATM    8  F   UNL     1      -6.843  15.931  69.597  1.00  0.00    -0.174 F  
HETATM    9  C   UNL     1      -9.608  14.308  68.304  1.00  0.00    -0.221 A  
HETATM   10  C   UNL     1     -10.531  15.327  68.146  1.00  0.00    -0.246 A  
HETATM   11  N   UNL     1     -11.734  14.830  67.706  1.00  0.00    -0.355 NA 
HETATM   12  C   UNL     1     -11.541  13.532  67.590  1.00  0.00    -0.339 A  
HETATM   13  N   UNL     1     -10.241  13.174  67.838  1.00  0.00    -0.228 NA 
ENDROOT
BRANCH  13  14
HETATM   14  C1* UNL     1      -9.654  11.848  67.735  1.00  0.00    -0.190 C  
HETATM   15  O4* UNL     1      -8.758  11.807  66.596  1.00  0.00    -0.183 OA 
HETATM   16  C4* UNL     1      -9.476  11.266  65.466  1.00  0.00    -0.229 C  
HETATM   17  H2* UNL     1     -12.430   9.919  67.884  1.00  0.00     0.000 HD 
HETATM   18  C3* UNL     1     -10.489  10.289  66.044  1.00  0.00    -0.111 C  
HETATM   19  C2* UNL     1     -10.544  10.605  67.539  1.00  0.00    -0.252 C  
HETATM   20  O3* UNL     1     -10.056   8.935  65.878  1.00  0.00    -0.432 OA 
HETATM   21  H3* UNL     1     -10.689   8.325  66.239  1.00  0.00     0.000 HD 
HETATM   22  O2* UNL     1     -11.882  10.686  68.005  1.00  0.00    -0.494 OA 
BRANCH  16  23
HETATM   23  C5* UNL     1     -10.163  12.385  64.669  1.00  0.00    -0.287 C  
HETATM   24  O5* UNL     1      -9.567  13.641  64.972  1.00  0.00    -0.549 OA 
HETATM   25  H5* UNL     1      -9.991  14.333  64.479  1.00  0.00     0.000 HD 
ENDBRANCH  16  23
ENDBRANCH  13  14
TORSDOF 2
ENDMDL
MODEL       67
REMARK 921   NORMALIZED FREE ENERGY PREDICTED BY IDOCK:   -5.46 KCAL/MOL
REMARK 922        TOTAL FREE ENERGY PREDICTED BY IDOCK:   -5.52 KCAL/MOL
REMARK 923 INTER-LIGAND FREE ENERGY PREDICTED BY IDOCK:   -5.55 KCAL/MOL
REMARK 924 INTRA-LIGAND FREE ENERGY PREDICTED BY IDOCK:    0.03 KCAL/MOL
REMARK 927      BINDING AFFINITY PREDICTED BY RF-SCORE:    0.00 PKD
ROOT
HETATM    1  N   UNL     1     -14.181   6.977  72.216  1.00  0.00    -0.608 NA 
HETATM    2  C   UNL     1     -13.373   8.060  71.910  1.00  0.00    -0.306 A  
HETATM    3  H2  UNL     1     -15.085   7.098  71.759  1.00  0.00     0.000 HD 
HETATM    4  H1  UNL     1     -13.832   6.039  72.019  1.00  0.00     0.000 HD 
HETATM    5  N   UNL     1     -13.834   9.301  72.170  1.00  0.00    -0.430 NA 
HETATM    6  C   UNL     1     -13.069  10.355  71.823  1.00  0.00    -0.462 A  
HETATM    7  N   UNL     1     -11.867  10.339  71.210  1.00  0.00    -0.360 NA 
HETATM    8  F   UNL     1     -13.569  11.569  72.106  1.00  0.00    -0.512 F  
HETATM    9  C   UNL     1     -11.433   9.084  71.003  1.00  0.00    -0.295 A  
HETATM   10  C   UNL     1     -12.098   7.918  71.340  1.00  0.00    -0.307 A  
HETATM   11  N   UNL     1     -11.335   6.817  71.036  1.00  0.00    -0.290 NA 
HETATM   12  C   UNL     1     -10.230   7.306  70.513  1.00  0.00    -0.196 A  
HETATM   13  N   UNL     1     -10.279   8.669  70.371  1.00  0.00    -0.188 NA 
ENDROOT
BRANCH  13  14
HETATM   14  C1* UNL     1      -9.275   9.532  69.770  1.00  0.00    -0.208 C  
HETATM   15  O4* UNL     1      -9.800  10.096  68.543  1.00  0.00    -0.147 OA 
HETATM   16  C4* UNL     1      -9.353   9.285  67.435  1.00  0.00    -0.127 C  
HETATM   17  H2* UNL     1      -6.591   7.470  69.774  1.00  0.00     0.000 HD 
HETATM   18  C3* UNL     1      -7.996   8.733  67.843  1.00  0.00    -0.107 C  
HETATM   19  C2* UNL     1      -7.902   8.970  69.351  1.00  0.00    -0.094 C  
HETATM   20  O3* UNL     1      -6.933   9.443  67.200  1.00  0.00    -0.083 OA 
HETATM   21  H3* UNL     1      -6.085   9.098  67.455  1.00  0.00     0.000 HD 
HETATM   22  O2* UNL     1      -7.438   7.816  70.032  1.00  0.00    -0.077 OA 
BRANCH  16  23
HETATM   23  C5* UNL     1     -10.358   8.158  67.146  1.00  0.00    -0.321 C  
HETATM   24  O5* UNL     1      -9.866   7.314  66.112  1.00  0.00    -0.430 OA 
HETATM   25  H5* UNL     1     -10.486   6.618  65.934  1.00  0.00     0.000 HD 
ENDBRANCH  16  23
ENDBRANCH  13  14
TORSDOF 2
ENDMDL
MODEL       68
REMARK 921   NORMALIZED FREE ENERGY PREDICTED BY IDOCK:   -5.46 KCAL/MOL
REMARK 922        TOTAL FREE ENERGY PREDICTED BY IDOCK:   -5.52 KCAL/MOL
REMARK 923 INTER-LIGAND FREE ENERGY PREDICTED BY IDOCK:   -5.59 KCAL/MOL
REMARK 924 INTRA-LIGAND FREE ENERGY PREDICTED BY IDOCK:    0.07 KCAL/MOL
REMARK 927      BINDING AFFINITY PREDICTED BY RF-SCORE:    0.00 PKD
ROOT
HETATM    1  N   UNL     1     -12.340  13.793  63.191  1.00  0.00    -1.106 NA 
HETATM    2  C   UNL     1     -12.059  13.443  64.501  1.00  0.00    -0.409 A  
HETATM    3  H2  UNL     1     -11.972  14.727  63.011  1.00  0.00     0.000 HD 
HETATM    4  H1  UNL     1     -12.036  13.168  62.444  1.00  0.00     0.000 HD 
HETATM    5  N   UNL     1     -12.461  14.269  65.489  1.00  0.00    -0.441 NA 
HETATM    6  C   UNL     1     -12.140  13.953  66.760  1.00  0.00    -0.439 A  
HETATM    7  N   UNL     1     -11.429  12.892  67.194  1.00  0.00    -0.316 NA 
HETATM    8  F   UNL     1     -12.565  14.804  67.707  1.00  0.00    -0.124 F  
HETATM    9  C   UNL     1     -11.081  12.080  66.181  1.00  0.00    -0.322 A  
HETATM   10  C   UNL     1     -11.374  12.265  64.842  1.00  0.00    -0.325 A  
HETATM   11  N   UNL     1     -10.915  11.209  64.092  1.00  0.00    -0.308 NA 
HETATM   12  C   UNL     1     -10.344  10.401  64.961  1.00  0.00    -0.179 A  
HETATM   13  N   UNL     1     -10.322  10.929  66.227  1.00  0.00    -0.246 NA 
ENDROOT
BRANCH  13  14
HETATM   14  C1* UNL     1      -9.713  10.352  67.414  1.00  0.00    -0.163 C  
HETATM   15  O4* UNL     1      -8.525  11.106  67.759  1.00  0.00    -0.120 OA 
HETATM   16  C4* UNL     1      -7.376  10.439  67.194  1.00  0.00    -0.092 C  
HETATM   17  H2* UNL     1      -9.552   7.093  66.517  1.00  0.00     0.000 HD 
HETATM   18  C3* UNL     1      -7.716   8.956  67.188  1.00  0.00    -0.095 C  
HETATM   19  C2* UNL     1      -9.226   8.889  67.419  1.00  0.00    -0.135 C  
HETATM   20  O3* UNL     1      -7.058   8.269  68.257  1.00  0.00    -0.078 OA 
HETATM   21  H3* UNL     1      -7.271   7.343  68.253  1.00  0.00     0.000 HD 
HETATM   22  O2* UNL     1      -9.853   7.994  66.514  1.00  0.00    -0.234 OA 
BRANCH  16  23
HETATM   23  C5* UNL     1      -7.087  10.957  65.777  1.00  0.00     0.014 C  
HETATM   24  O5* UNL     1      -5.874  11.699  65.763  1.00  0.00    -0.473 OA 
HETATM   25  H5* UNL     1      -5.695  12.020  64.887  1.00  0.00     0.000 HD 
ENDBRANCH  16  23
ENDBRANCH  13  14
TORSDOF 2
ENDMDL
MODEL       69
REMARK 921   NORMALIZED FREE ENERGY PREDICTED BY IDOCK:   -5.45 KCAL/MOL
REMARK 922        TOTAL FREE ENERGY PREDICTED BY IDOCK:   -5.51 KCAL/MOL
REMARK 923 INTER-LIGAND FREE ENERGY PREDICTED BY IDOCK:   -5.60 KCAL/MOL
REMARK 924 INTRA-LIGAND FREE ENERGY PREDICTED BY IDOCK:    0.08 KCAL/MOL
REMARK 927      BINDING AFFINITY PREDICTED BY RF-SCORE:    0.00 PKD
ROOT
HETATM    1  N   UNL     1      -8.663   8.290  64.051  1.00  0.00    -0.379 NA 
HETATM    2  C   UNL     1      -8.425   9.376  64.878  1.00  0.00    -0.163 A  
HETATM    3  H2  UNL     1      -8.598   7.434  64.603  1.00  0.00     0.000 HD 
HETATM    4  H1  UNL     1      -9.527   8.270  63.509  1.00  0.00     0.000 HD 
HETATM    5  N   UNL     1      -7.283   9.402  65.595  1.00  0.00    -0.090 NA 
HETATM    6  C   UNL     1      -7.079  10.434  66.439  1.00  0.00    -0.118 A  
HETATM    7  N   UNL     1      -7.900  11.475  66.687  1.00  0.00    -0.142 NA 
HETATM    8  F   UNL     1      -5.926  10.417  67.127  1.00  0.00    -0.048 F  
HETATM    9  C   UNL     1      -9.007  11.425  65.926  1.00  0.00    -0.177 A  
HETATM   10  C   UNL     1      -9.324  10.448  64.999  1.00  0.00    -0.229 A  
HETATM   11  N   UNL     1     -10.504  10.746  64.362  1.00  0.00    -0.343 NA 
HETATM   12  C   UNL     1     -10.901  11.880  64.900  1.00  0.00    -0.305 A  
HETATM   13  N   UNL     1     -10.087  12.284  65.927  1.00  0.00    -0.246 NA 
ENDROOT
BRANCH  13  14
HETATM   14  C1* UNL     1     -10.259  13.442  66.788  1.00  0.00    -0.259 C  
HETATM   15  O4* UNL     1      -9.761  13.132  68.114  1.00  0.00    -0.218 OA 
HETATM   16  C4* UNL     1     -10.871  12.712  68.936  1.00  0.00    -0.197 C  
HETATM   17  H2* UNL     1     -13.521  14.156  66.237  1.00  0.00     0.000 HD 
HETATM   18  C3* UNL     1     -12.084  13.471  68.418  1.00  0.00    -0.258 C  
HETATM   19  C2* UNL     1     -11.661  14.023  67.057  1.00  0.00    -0.398 C  
HETATM   20  O3* UNL     1     -12.413  14.569  69.276  1.00  0.00    -0.556 OA 
HETATM   21  H3* UNL     1     -13.171  15.042  68.952  1.00  0.00     0.000 HD 
HETATM   22  O2* UNL     1     -12.656  13.797  66.071  1.00  0.00    -0.454 OA 
BRANCH  16  23
HETATM   23  C5* UNL     1     -11.074  11.192  68.843  1.00  0.00    -0.237 C  
HETATM   24  O5* UNL     1     -12.240  10.897  68.084  1.00  0.00    -0.781 OA 
HETATM   25  H5* UNL     1     -12.365   9.957  68.026  1.00  0.00     0.000 HD 
ENDBRANCH  16  23
ENDBRANCH  13  14
TORSDOF 2
ENDMDL
MODEL       70
REMARK 921   NORMALIZED FREE ENERGY PREDICTED BY IDOCK:   -5.44 KCAL/MOL
REMARK 922        TOTAL FREE ENERGY PREDICTED BY IDOCK:   -5.50 KCAL/MOL
REMARK 923 INTER-LIGAND FREE ENERGY PREDICTED BY IDOCK:   -5.55 KCAL/MOL
REMARK 924 INTRA-LIGAND FREE ENERGY PREDICTED BY IDOCK:    0.05 KCAL/MOL
REMARK 927      BINDING AFFINITY PREDICTED BY RF-SCORE:    0.00 PKD
ROOT
HETATM    1  N   UNL     1      -9.701  12.253  64.042  1.00  0.00    -0.571 NA 
HETATM    2  C   UNL     1     -10.388  12.126  65.238  1.00  0.00    -0.277 A  
HETATM    3  H2  UNL     1      -9.100  13.076  64.091  1.00  0.00     0.000 HD 
HETATM    4  H1  UNL     1      -9.150  11.461  63.710  1.00  0.00     0.000 HD 
HETATM    5  N   UNL     1     -11.116  13.174  65.677  1.00  0.00    -0.275 NA 
HETATM    6  C   UNL     1     -11.741  13.067  66.867  1.00  0.00    -0.383 A  
HETATM    7  N   UNL     1     -11.722  12.021  67.720  1.00  0.00    -0.485 NA 
HETATM    8  F   UNL     1     -12.455  14.133  67.259  1.00  0.00    -0.420 F  
HETATM    9  C   UNL     1     -11.015  10.990  67.226  1.00  0.00    -0.297 A  
HETATM   10  C   UNL     1     -10.357  10.953  66.010  1.00  0.00    -0.245 A  
HETATM   11  N   UNL     1      -9.787   9.721  65.802  1.00  0.00    -0.280 NA 
HETATM   12  C   UNL     1     -10.086   9.024  66.879  1.00  0.00    -0.267 A  
HETATM   13  N   UNL     1     -10.739   9.777  67.821  1.00  0.00    -0.271 NA 
ENDROOT
BRANCH  13  14
HETATM   14  C1* UNL     1     -11.156   9.361  69.150  1.00  0.00    -0.013 C  
HETATM   15  O4* UNL     1     -10.445  10.142  70.143  1.00  0.00    -0.271 OA 
HETATM   16  C4* UNL     1      -9.293   9.390  70.580  1.00  0.00    -0.252 C  
HETATM   17  H2* UNL     1     -10.764   6.008  68.911  1.00  0.00     0.000 HD 
HETATM   18  C3* UNL     1      -9.688   7.925  70.480  1.00  0.00    -0.174 C  
HETATM   19  C2* UNL     1     -10.953   7.907  69.621  1.00  0.00    -0.110 C  
HETATM   20  O3* UNL     1     -10.001   7.383  71.767  1.00  0.00    -0.171 OA 
HETATM   21  H3* UNL     1     -10.247   6.468  71.705  1.00  0.00     0.000 HD 
HETATM   22  O2* UNL     1     -10.889   6.904  68.620  1.00  0.00    -0.219 OA 
BRANCH  16  23
HETATM   23  C5* UNL     1      -8.071   9.707  69.704  1.00  0.00    -0.141 C  
HETATM   24  O5* UNL     1      -7.394  10.855  70.200  1.00  0.00    -0.429 OA 
HETATM   25  H5* UNL     1      -6.638  11.050  69.659  1.00  0.00     0.000 HD 
ENDBRANCH  16  23
ENDBRANCH  13  14
TORSDOF 2
ENDMDL
MODEL       71
REMARK 921   NORMALIZED FREE ENERGY PREDICTED BY IDOCK:   -5.42 KCAL/MOL
REMARK 922        TOTAL FREE ENERGY PREDICTED BY IDOCK:   -5.48 KCAL/MOL
REMARK 923 INTER-LIGAND FREE ENERGY PREDICTED BY IDOCK:   -6.13 KCAL/MOL
REMARK 924 INTRA-LIGAND FREE ENERGY PREDICTED BY IDOCK:    0.65 KCAL/MOL
REMARK 927      BINDING AFFINITY PREDICTED BY RF-SCORE:    0.00 PKD
ROOT
HETATM    1  N   UNL     1      -8.928  20.356  65.764  1.00  0.00    -0.492 NA 
HETATM    2  C   UNL     1      -8.633  19.539  66.843  1.00  0.00    -0.306 A  
HETATM    3  H2  UNL     1      -8.121  20.389  65.142  1.00  0.00     0.000 HD 
HETATM    4  H1  UNL     1      -9.763  20.152  65.213  1.00  0.00     0.000 HD 
HETATM    5  N   UNL     1      -7.529  19.807  67.571  1.00  0.00    -0.262 NA 
HETATM    6  C   UNL     1      -7.214  18.980  68.587  1.00  0.00    -0.316 A  
HETATM    7  N   UNL     1      -7.866  17.865  68.980  1.00  0.00    -0.158 NA 
HETATM    8  F   UNL     1      -6.110  19.291  69.284  1.00  0.00    -0.244 F  
HETATM    9  C   UNL     1      -8.976  17.657  68.250  1.00  0.00    -0.276 A  
HETATM   10  C   UNL     1      -9.433  18.443  67.207  1.00  0.00    -0.278 A  
HETATM   11  N   UNL     1     -10.629  17.968  66.727  1.00  0.00    -0.316 NA 
HETATM   12  C   UNL     1     -10.888  16.905  67.459  1.00  0.00    -0.207 A  
HETATM   13  N   UNL     1      -9.869  16.609  68.327  1.00  0.00    -0.245 NA 
ENDROOT
BRANCH  13  14
HETATM   14  C1* UNL     1      -9.780  15.474  69.231  1.00  0.00    -0.272 C  
HETATM   15  O4* UNL     1      -9.840  14.244  68.466  1.00  0.00    -0.223 OA 
HETATM   16  C4* UNL     1     -11.203  13.770  68.463  1.00  0.00    -0.275 C  
HETATM   17  H2* UNL     1     -12.168  16.281  71.489  1.00  0.00     0.000 HD 
HETATM   18  C3* UNL     1     -11.802  14.215  69.789  1.00  0.00    -0.322 C  
HETATM   19  C2* UNL     1     -10.833  15.262  70.337  1.00  0.00    -0.266 C  
HETATM   20  O3* UNL     1     -11.873  13.127  70.715  1.00  0.00    -0.511 OA 
HETATM   21  H3* UNL     1     -12.248  13.404  71.543  1.00  0.00     0.000 HD 
HETATM   22  O2* UNL     1     -11.519  16.411  70.807  1.00  0.00    -0.368 OA 
BRANCH  16  23
HETATM   23  C5* UNL     1     -11.979  14.350  67.270  1.00  0.00    -0.377 C  
HETATM   24  O5* UNL     1     -12.244  13.332  66.313  1.00  0.00    -0.409 OA 
HETATM   25  H5* UNL     1     -12.723  13.690  65.576  1.00  0.00     0.000 HD 
ENDBRANCH  16  23
ENDBRANCH  13  14
TORSDOF 2
ENDMDL
MODEL       72
REMARK 921   NORMALIZED FREE ENERGY PREDICTED BY IDOCK:   -5.41 KCAL/MOL
REMARK 922        TOTAL FREE ENERGY PREDICTED BY IDOCK:   -5.47 KCAL/MOL
REMARK 923 INTER-LIGAND FREE ENERGY PREDICTED BY IDOCK:   -5.53 KCAL/MOL
REMARK 924 INTRA-LIGAND FREE ENERGY PREDICTED BY IDOCK:    0.06 KCAL/MOL
REMARK 927      BINDING AFFINITY PREDICTED BY RF-SCORE:    0.00 PKD
ROOT
HETATM    1  N   UNL     1     -10.221   9.747  66.071  1.00  0.00    -0.236 NA 
HETATM    2  C   UNL     1     -10.523  10.613  67.110  1.00  0.00    -0.245 A  
HETATM    3  H2  UNL     1     -11.076   9.540  65.554  1.00  0.00     0.000 HD 
HETATM    4  H1  UNL     1      -9.491  10.015  65.411  1.00  0.00     0.000 HD 
HETATM    5  N   UNL     1     -11.489  10.259  67.983  1.00  0.00    -0.307 NA 
HETATM    6  C   UNL     1     -11.818  11.126  68.962  1.00  0.00    -0.348 A  
HETATM    7  N   UNL     1     -11.306  12.355  69.185  1.00  0.00    -0.264 NA 
HETATM    8  F   UNL     1     -12.781  10.728  69.807  1.00  0.00    -0.358 F  
HETATM    9  C   UNL     1     -10.325  12.649  68.315  1.00  0.00    -0.241 A  
HETATM   10  C   UNL     1      -9.866  11.841  67.290  1.00  0.00    -0.185 A  
HETATM   11  N   UNL     1      -8.814  12.434  66.635  1.00  0.00    -0.191 NA 
HETATM   12  C   UNL     1      -8.644  13.589  67.246  1.00  0.00    -0.213 A  
HETATM   13  N   UNL     1      -9.599  13.817  68.204  1.00  0.00    -0.211 NA 
ENDROOT
BRANCH  13  14
HETATM   14  C1* UNL     1      -9.765  15.008  69.020  1.00  0.00    -0.229 C  
HETATM   15  O4* UNL     1     -10.941  15.733  68.580  1.00  0.00    -0.272 OA 
HETATM   16  C4* UNL     1     -10.528  16.767  67.661  1.00  0.00    -0.328 C  
HETATM   17  H2* UNL     1      -6.667  16.352  68.806  1.00  0.00     0.000 HD 
HETATM   18  C3* UNL     1      -9.137  17.191  68.109  1.00  0.00    -0.247 C  
HETATM   19  C2* UNL     1      -8.670  16.092  69.064  1.00  0.00    -0.245 C  
HETATM   20  O3* UNL     1      -9.179  18.431  68.823  1.00  0.00    -0.314 OA 
HETATM   21  H3* UNL     1      -8.310  18.696  69.102  1.00  0.00     0.000 HD 
HETATM   22  O2* UNL     1      -7.342  15.684  68.778  1.00  0.00    -0.128 OA 
BRANCH  16  23
HETATM   23  C5* UNL     1     -10.520  16.242  66.218  1.00  0.00    -0.308 C  
HETATM   24  O5* UNL     1     -10.523  17.327  65.299  1.00  0.00    -0.661 OA 
HETATM   25  H5* UNL     1     -10.518  17.003  64.407  1.00  0.00     0.000 HD 
ENDBRANCH  16  23
ENDBRANCH  13  14
TORSDOF 2
ENDMDL
MODEL       73
REMARK 921   NORMALIZED FREE ENERGY PREDICTED BY IDOCK:   -5.38 KCAL/MOL
REMARK 922        TOTAL FREE ENERGY PREDICTED BY IDOCK:   -5.44 KCAL/MOL
REMARK 923 INTER-LIGAND FREE ENERGY PREDICTED BY IDOCK:   -6.18 KCAL/MOL
REMARK 924 INTRA-LIGAND FREE ENERGY PREDICTED BY IDOCK:    0.75 KCAL/MOL
REMARK 927      BINDING AFFINITY PREDICTED BY RF-SCORE:    0.00 PKD
ROOT
HETATM    1  N   UNL     1      -9.883   7.642  72.570  1.00  0.00    -0.180 NA 
HETATM    2  C   UNL     1     -10.875   8.474  72.077  1.00  0.00    -0.335 A  
HETATM    3  H2  UNL     1     -10.222   6.680  72.557  1.00  0.00     0.000 HD 
HETATM    4  H1  UNL     1      -8.961   7.674  72.136  1.00  0.00     0.000 HD 
HETATM    5  N   UNL     1     -12.096   8.431  72.651  1.00  0.00    -0.345 NA 
HETATM    6  C   UNL     1     -13.074   9.202  72.136  1.00  0.00    -0.446 A  
HETATM    7  N   UNL     1     -13.002  10.030  71.072  1.00  0.00    -0.368 NA 
HETATM    8  F   UNL     1     -14.269   9.127  72.743  1.00  0.00    -0.475 F  
HETATM    9  C   UNL     1     -11.761  10.067  70.556  1.00  0.00    -0.318 A  
HETATM   10  C   UNL     1     -10.662   9.358  71.007  1.00  0.00    -0.337 A  
HETATM   11  N   UNL     1      -9.542   9.683  70.282  1.00  0.00    -0.256 NA 
HETATM   12  C   UNL     1      -9.956  10.568  69.398  1.00  0.00    -0.196 A  
HETATM   13  N   UNL     1     -11.313  10.760  69.450  1.00  0.00    -0.261 NA 
ENDROOT
BRANCH  13  14
HETATM   14  C1* UNL     1     -12.120  11.603  68.584  1.00  0.00    -0.119 C  
HETATM   15  O4* UNL     1     -11.671  11.453  67.214  1.00  0.00    -0.577 OA 
HETATM   16  C4* UNL     1     -10.745  12.520  66.914  1.00  0.00    -0.243 C  
HETATM   17  H2* UNL     1     -11.905  14.562  70.211  1.00  0.00     0.000 HD 
HETATM   18  C3* UNL     1     -11.194  13.709  67.750  1.00  0.00    -0.285 C  
HETATM   19  C2* UNL     1     -12.159  13.131  68.785  1.00  0.00    -0.191 C  
HETATM   20  O3* UNL     1     -11.898  14.666  66.952  1.00  0.00    -0.381 OA 
HETATM   21  H3* UNL     1     -12.178  15.409  67.474  1.00  0.00     0.000 HD 
HETATM   22  O2* UNL     1     -11.880  13.620  70.087  1.00  0.00    -0.299 OA 
BRANCH  16  23
HETATM   23  C5* UNL     1      -9.306  12.103  67.251  1.00  0.00    -0.183 C  
HETATM   24  O5* UNL     1      -8.434  12.426  66.175  1.00  0.00    -0.388 OA 
HETATM   25  H5* UNL     1      -7.544  12.169  66.384  1.00  0.00     0.000 HD 
ENDBRANCH  16  23
ENDBRANCH  13  14
TORSDOF 2
ENDMDL
MODEL       74
REMARK 921   NORMALIZED FREE ENERGY PREDICTED BY IDOCK:   -5.38 KCAL/MOL
REMARK 922        TOTAL FREE ENERGY PREDICTED BY IDOCK:   -5.43 KCAL/MOL
REMARK 923 INTER-LIGAND FREE ENERGY PREDICTED BY IDOCK:   -5.35 KCAL/MOL
REMARK 924 INTRA-LIGAND FREE ENERGY PREDICTED BY IDOCK:   -0.08 KCAL/MOL
REMARK 927      BINDING AFFINITY PREDICTED BY RF-SCORE:    0.00 PKD
ROOT
HETATM    1  N   UNL     1     -11.854   5.388  73.268  1.00  0.00    -0.454 NA 
HETATM    2  C   UNL     1     -10.965   6.348  72.813  1.00  0.00    -0.257 A  
HETATM    3  H2  UNL     1     -12.421   5.790  74.015  1.00  0.00     0.000 HD 
HETATM    4  H1  UNL     1     -12.469   4.935  72.592  1.00  0.00     0.000 HD 
HETATM    5  N   UNL     1     -10.152   6.947  73.707  1.00  0.00    -0.305 NA 
HETATM    6  C   UNL     1      -9.324   7.918  73.271  1.00  0.00    -0.286 A  
HETATM    7  N   UNL     1      -9.206   8.404  72.018  1.00  0.00    -0.211 NA 
HETATM    8  F   UNL     1      -8.532   8.482  74.197  1.00  0.00    -0.297 F  
HETATM    9  C   UNL     1     -10.009   7.754  71.157  1.00  0.00    -0.176 A  
HETATM   10  C   UNL     1     -10.876   6.721  71.462  1.00  0.00    -0.234 A  
HETATM   11  N   UNL     1     -11.495   6.254  70.329  1.00  0.00    -0.388 NA 
HETATM   12  C   UNL     1     -11.019   6.999  69.352  1.00  0.00    -0.201 A  
HETATM   13  N   UNL     1     -10.194   7.993  69.811  1.00  0.00    -0.201 NA 
ENDROOT
BRANCH  13  14
HETATM   14  C1* UNL     1      -9.551   9.038  69.031  1.00  0.00    -0.160 C  
HETATM   15  O4* UNL     1      -9.730  10.313  69.697  1.00  0.00    -0.228 OA 
HETATM   16  C4* UNL     1     -10.872  10.979  69.117  1.00  0.00    -0.237 C  
HETATM   17  H2* UNL     1     -10.861   8.432  65.970  1.00  0.00     0.000 HD 
HETATM   18  C3* UNL     1     -10.920  10.536  67.663  1.00  0.00    -0.314 C  
HETATM   19  C2* UNL     1      -9.991   9.323  67.582  1.00  0.00    -0.196 C  
HETATM   20  O3* UNL     1     -10.418  11.556  66.794  1.00  0.00    -0.222 OA 
HETATM   21  H3* UNL     1     -10.448  11.279  65.885  1.00  0.00     0.000 HD 
HETATM   22  O2* UNL     1     -10.590   8.256  66.864  1.00  0.00    -0.321 OA 
BRANCH  16  23
HETATM   23  C5* UNL     1     -12.160  10.601  69.865  1.00  0.00    -0.299 C  
HETATM   24  O5* UNL     1     -11.864  10.259  71.213  1.00  0.00    -0.364 OA 
HETATM   25  H5* UNL     1     -12.660  10.026  71.676  1.00  0.00     0.000 HD 
ENDBRANCH  16  23
ENDBRANCH  13  14
TORSDOF 2
ENDMDL
MODEL       75
REMARK 921   NORMALIZED FREE ENERGY PREDICTED BY IDOCK:   -5.38 KCAL/MOL
REMARK 922        TOTAL FREE ENERGY PREDICTED BY IDOCK:   -5.43 KCAL/MOL
REMARK 923 INTER-LIGAND FREE ENERGY PREDICTED BY IDOCK:   -5.47 KCAL/MOL
REMARK 924 INTRA-LIGAND FREE ENERGY PREDICTED BY IDOCK:    0.04 KCAL/MOL
REMARK 927      BINDING AFFINITY PREDICTED BY RF-SCORE:    0.00 PKD
ROOT
HETATM    1  N   UNL     1     -12.698  11.368  71.701  1.00  0.00    -0.358 NA 
HETATM    2  C   UNL     1     -12.277  11.779  70.446  1.00  0.00    -0.330 A  
HETATM    3  H2  UNL     1     -12.044  10.672  72.058  1.00  0.00     0.000 HD 
HETATM    4  H1  UNL     1     -12.853  12.076  72.419  1.00  0.00     0.000 HD 
HETATM    5  N   UNL     1     -12.072  10.842  69.497  1.00  0.00    -0.303 NA 
HETATM    6  C   UNL     1     -11.612  11.239  68.294  1.00  0.00    -0.300 A  
HETATM    7  N   UNL     1     -11.299  12.491  67.899  1.00  0.00    -0.270 NA 
HETATM    8  F   UNL     1     -11.428  10.271  67.382  1.00  0.00    -0.347 F  
HETATM    9  C   UNL     1     -11.552  13.393  68.864  1.00  0.00    -0.314 A  
HETATM   10  C   UNL     1     -12.056  13.127  70.125  1.00  0.00    -0.321 A  
HETATM   11  N   UNL     1     -12.244  14.292  70.828  1.00  0.00    -0.330 NA 
HETATM   12  C   UNL     1     -11.852  15.248  70.011  1.00  0.00    -0.334 A  
HETATM   13  N   UNL     1     -11.324  14.753  68.846  1.00  0.00    -0.267 NA 
ENDROOT
BRANCH  13  14
HETATM   14  C1* UNL     1     -10.732  15.507  67.754  1.00  0.00    -0.297 C  
HETATM   15  O4* UNL     1      -9.647  14.740  67.173  1.00  0.00    -0.218 OA 
HETATM   16  C4* UNL     1      -8.406  15.175  67.769  1.00  0.00    -0.151 C  
HETATM   17  H2* UNL     1     -10.190  18.485  69.269  1.00  0.00     0.000 HD 
HETATM   18  C3* UNL     1      -8.594  16.648  68.097  1.00  0.00    -0.200 C  
HETATM   19  C2* UNL     1     -10.101  16.891  68.003  1.00  0.00    -0.293 C  
HETATM   20  O3* UNL     1      -7.935  17.481  67.138  1.00  0.00    -0.199 OA 
HETATM   21  H3* UNL     1      -8.052  18.401  67.344  1.00  0.00     0.000 HD 
HETATM   22  O2* UNL     1     -10.579  17.631  69.115  1.00  0.00    -0.260 OA 
BRANCH  16  23
HETATM   23  C5* UNL     1      -8.087  14.352  69.026  1.00  0.00    -0.047 C  
HETATM   24  O5* UNL     1      -8.281  12.966  68.770  1.00  0.00    -0.335 OA 
HETATM   25  H5* UNL     1      -8.084  12.458  69.547  1.00  0.00     0.000 HD 
ENDBRANCH  16  23
ENDBRANCH  13  14
TORSDOF 2
ENDMDL
MODEL       76
REMARK 921   NORMALIZED FREE ENERGY PREDICTED BY IDOCK:   -5.36 KCAL/MOL
REMARK 922        TOTAL FREE ENERGY PREDICTED BY IDOCK:   -5.41 KCAL/MOL
REMARK 923 INTER-LIGAND FREE ENERGY PREDICTED BY IDOCK:   -5.16 KCAL/MOL
REMARK 924 INTRA-LIGAND FREE ENERGY PREDICTED BY IDOCK:   -0.25 KCAL/MOL
REMARK 927      BINDING AFFINITY PREDICTED BY RF-SCORE:    0.00 PKD
ROOT
HETATM    1  N   UNL     1      -7.349   8.281  66.947  1.00  0.00    -0.083 NA 
HETATM    2  C   UNL     1      -7.619   8.710  68.236  1.00  0.00    -0.097 A  
HETATM    3  H2  UNL     1      -6.821   7.410  66.991  1.00  0.00     0.000 HD 
HETATM    4  H1  UNL     1      -8.130   8.163  66.300  1.00  0.00     0.000 HD 
HETATM    5  N   UNL     1      -6.587   8.867  69.092  1.00  0.00    -0.046 NA 
HETATM    6  C   UNL     1      -6.857   9.233  70.361  1.00  0.00    -0.075 A  
HETATM    7  N   UNL     1      -8.065   9.455  70.919  1.00  0.00    -0.303 NA 
HETATM    8  F   UNL     1      -5.798   9.380  71.173  1.00  0.00    -0.044 F  
HETATM    9  C   UNL     1      -9.058   9.322  70.023  1.00  0.00    -0.210 A  
HETATM   10  C   UNL     1      -8.920   8.987  68.688  1.00  0.00    -0.137 A  
HETATM   11  N   UNL     1     -10.138   8.999  68.054  1.00  0.00    -0.181 NA 
HETATM   12  C   UNL     1     -11.003   9.325  68.992  1.00  0.00    -0.033 A  
HETATM   13  N   UNL     1     -10.418   9.430  70.227  1.00  0.00    -0.231 NA 
ENDROOT
BRANCH  13  14
HETATM   14  C1* UNL     1     -11.073   9.702  71.496  1.00  0.00    -0.264 C  
HETATM   15  O4* UNL     1     -10.984   8.530  72.344  1.00  0.00    -0.357 OA 
HETATM   16  C4* UNL     1     -12.201   7.767  72.205  1.00  0.00    -0.285 C  
HETATM   17  H2* UNL     1     -14.052  10.894  70.420  1.00  0.00     0.000 HD 
HETATM   18  C3* UNL     1     -13.299   8.782  71.925  1.00  0.00    -0.389 C  
HETATM   19  C2* UNL     1     -12.569  10.071  71.547  1.00  0.00    -0.425 C  
HETATM   20  O3* UNL     1     -14.088   9.027  73.093  1.00  0.00    -1.130 OA 
HETATM   21  H3* UNL     1     -14.774   9.661  72.918  1.00  0.00     0.000 HD 
HETATM   22  O2* UNL     1     -13.130  10.667  70.388  1.00  0.00    -0.260 OA 
BRANCH  16  23
HETATM   23  C5* UNL     1     -12.075   6.743  71.067  1.00  0.00    -0.372 C  
HETATM   24  O5* UNL     1     -10.721   6.334  70.920  1.00  0.00    -0.235 OA 
HETATM   25  H5* UNL     1     -10.642   5.701  70.217  1.00  0.00     0.000 HD 
ENDBRANCH  16  23
ENDBRANCH  13  14
TORSDOF 2
ENDMDL
MODEL       77
REMARK 921   NORMALIZED FREE ENERGY PREDICTED BY IDOCK:   -5.36 KCAL/MOL
REMARK 922        TOTAL FREE ENERGY PREDICTED BY IDOCK:   -5.41 KCAL/MOL
REMARK 923 INTER-LIGAND FREE ENERGY PREDICTED BY IDOCK:   -6.11 KCAL/MOL
REMARK 924 INTRA-LIGAND FREE ENERGY PREDICTED BY IDOCK:    0.70 KCAL/MOL
REMARK 927      BINDING AFFINITY PREDICTED BY RF-SCORE:    0.00 PKD
ROOT
HETATM    1  N   UNL     1     -13.120  12.158  62.979  1.00  0.00    -0.522 NA 
HETATM    2  C   UNL     1     -12.076  12.003  63.875  1.00  0.00    -0.457 A  
HETATM    3  H2  UNL     1     -13.545  11.248  62.804  1.00  0.00     0.000 HD 
HETATM    4  H1  UNL     1     -13.856  12.830  63.200  1.00  0.00     0.000 HD 
HETATM    5  N   UNL     1     -11.104  11.114  63.584  1.00  0.00    -0.216 NA 
HETATM    6  C   UNL     1     -10.116  10.926  64.482  1.00  0.00    -0.341 A  
HETATM    7  N   UNL     1      -9.971  11.515  65.688  1.00  0.00    -0.226 NA 
HETATM    8  F   UNL     1      -9.170  10.035  64.145  1.00  0.00    -0.221 F  
HETATM    9  C   UNL     1     -10.942  12.416  65.920  1.00  0.00    -0.288 A  
HETATM   10  C   UNL     1     -11.989  12.731  65.073  1.00  0.00    -0.412 A  
HETATM   11  N   UNL     1     -12.758  13.738  65.604  1.00  0.00    -0.527 NA 
HETATM   12  C   UNL     1     -12.192  14.021  66.759  1.00  0.00    -0.404 A  
HETATM   13  N   UNL     1     -11.150  13.179  67.050  1.00  0.00    -0.273 NA 
ENDROOT
BRANCH  13  14
HETATM   14  C1* UNL     1     -10.347  13.152  68.261  1.00  0.00    -0.252 C  
HETATM   15  O4* UNL     1     -10.961  14.000  69.264  1.00  0.00    -0.250 OA 
HETATM   16  C4* UNL     1     -10.331  15.298  69.216  1.00  0.00    -0.259 C  
HETATM   17  H2* UNL     1      -7.281  13.827  66.998  1.00  0.00     0.000 HD 
HETATM   18  C3* UNL     1      -8.894  15.049  68.787  1.00  0.00    -0.192 C  
HETATM   19  C2* UNL     1      -8.878  13.619  68.244  1.00  0.00    -0.179 C  
HETATM   20  O3* UNL     1      -7.999  15.125  69.901  1.00  0.00    -0.339 OA 
HETATM   21  H3* UNL     1      -7.101  14.969  69.633  1.00  0.00     0.000 HD 
HETATM   22  O2* UNL     1      -8.187  13.539  67.008  1.00  0.00    -0.142 OA 
BRANCH  16  23
HETATM   23  C5* UNL     1     -11.063  16.223  68.231  1.00  0.00    -0.346 C  
HETATM   24  O5* UNL     1     -10.124  16.945  67.444  1.00  0.00    -0.264 OA 
HETATM   25  H5* UNL     1     -10.576  17.516  66.835  1.00  0.00     0.000 HD 
ENDBRANCH  16  23
ENDBRANCH  13  14
TORSDOF 2
ENDMDL
MODEL       78
REMARK 921   NORMALIZED FREE ENERGY PREDICTED BY IDOCK:   -5.35 KCAL/MOL
REMARK 922        TOTAL FREE ENERGY PREDICTED BY IDOCK:   -5.40 KCAL/MOL
REMARK 923 INTER-LIGAND FREE ENERGY PREDICTED BY IDOCK:   -5.50 KCAL/MOL
REMARK 924 INTRA-LIGAND FREE ENERGY PREDICTED BY IDOCK:    0.09 KCAL/MOL
REMARK 927      BINDING AFFINITY PREDICTED BY RF-SCORE:    0.00 PKD
ROOT
HETATM    1  N   UNL     1      -9.889   7.754  66.066  1.00  0.00    -0.431 NA 
HETATM    2  C   UNL     1     -10.077   8.693  67.067  1.00  0.00    -0.272 A  
HETATM    3  H2  UNL     1     -10.756   7.235  65.931  1.00  0.00     0.000 HD 
HETATM    4  H1  UNL     1      -9.547   8.072  65.159  1.00  0.00     0.000 HD 
HETATM    5  N   UNL     1     -10.529   8.273  68.267  1.00  0.00    -0.191 NA 
HETATM    6  C   UNL     1     -10.763   9.194  69.223  1.00  0.00    -0.183 A  
HETATM    7  N   UNL     1     -10.619  10.533  69.134  1.00  0.00    -0.214 NA 
HETATM    8  F   UNL     1     -11.207   8.727  70.400  1.00  0.00    -0.248 F  
HETATM    9  C   UNL     1     -10.134  10.902  67.935  1.00  0.00    -0.177 A  
HETATM   10  C   UNL     1      -9.819  10.061  66.883  1.00  0.00    -0.197 A  
HETATM   11  N   UNL     1      -9.293  10.772  65.832  1.00  0.00    -0.181 NA 
HETATM   12  C   UNL     1      -9.299  12.025  66.236  1.00  0.00    -0.223 A  
HETATM   13  N   UNL     1      -9.895  12.175  67.462  1.00  0.00    -0.189 NA 
ENDROOT
BRANCH  13  14
HETATM   14  C1* UNL     1     -10.140  13.415  68.180  1.00  0.00    -0.244 C  
HETATM   15  O4* UNL     1     -11.545  13.758  68.080  1.00  0.00    -0.293 OA 
HETATM   16  C4* UNL     1     -11.715  14.689  66.990  1.00  0.00    -0.362 C  
HETATM   17  H2* UNL     1      -7.730  15.391  66.862  1.00  0.00     0.000 HD 
HETATM   18  C3* UNL     1     -10.428  15.497  66.927  1.00  0.00    -0.301 C  
HETATM   19  C2* UNL     1      -9.422  14.717  67.773  1.00  0.00    -0.205 C  
HETATM   20  O3* UNL     1     -10.603  16.795  67.503  1.00  0.00    -0.323 OA 
HETATM   21  H3* UNL     1      -9.798  17.300  67.463  1.00  0.00     0.000 HD 
HETATM   22  O2* UNL     1      -8.173  14.588  67.112  1.00  0.00    -0.202 OA 
BRANCH  16  23
HETATM   23  C5* UNL     1     -11.979  13.943  65.673  1.00  0.00    -0.392 C  
HETATM   24  O5* UNL     1     -13.377  13.840  65.437  1.00  0.00    -0.669 OA 
HETATM   25  H5* UNL     1     -13.541  13.379  64.622  1.00  0.00     0.000 HD 
ENDBRANCH  16  23
ENDBRANCH  13  14
TORSDOF 2
ENDMDL
MODEL       79
REMARK 921   NORMALIZED FREE ENERGY PREDICTED BY IDOCK:   -5.34 KCAL/MOL
REMARK 922        TOTAL FREE ENERGY PREDICTED BY IDOCK:   -5.39 KCAL/MOL
REMARK 923 INTER-LIGAND FREE ENERGY PREDICTED BY IDOCK:   -6.03 KCAL/MOL
REMARK 924 INTRA-LIGAND FREE ENERGY PREDICTED BY IDOCK:    0.64 KCAL/MOL
REMARK 927      BINDING AFFINITY PREDICTED BY RF-SCORE:    0.00 PKD
ROOT
HETATM    1  N   UNL     1     -12.131  11.666  67.622  1.00  0.00    -0.573 NA 
HETATM    2  C   UNL     1     -11.616  12.552  66.688  1.00  0.00    -0.380 A  
HETATM    3  H2  UNL     1     -11.728  10.743  67.460  1.00  0.00     0.000 HD 
HETATM    4  H1  UNL     1     -12.043  11.898  68.611  1.00  0.00     0.000 HD 
HETATM    5  N   UNL     1     -11.731  12.246  65.379  1.00  0.00    -0.378 NA 
HETATM    6  C   UNL     1     -11.183  13.082  64.475  1.00  0.00    -0.339 A  
HETATM    7  N   UNL     1     -10.492  14.218  64.710  1.00  0.00    -0.434 NA 
HETATM    8  F   UNL     1     -11.327  12.738  63.185  1.00  0.00    -0.523 F  
HETATM    9  C   UNL     1     -10.433  14.500  66.023  1.00  0.00    -0.308 A  
HETATM   10  C   UNL     1     -10.980  13.750  67.049  1.00  0.00    -0.290 A  
HETATM   11  N   UNL     1     -10.780  14.365  68.261  1.00  0.00    -0.237 NA 
HETATM   12  C   UNL     1     -10.113  15.465  67.976  1.00  0.00    -0.226 A  
HETATM   13  N   UNL     1      -9.784  15.545  66.647  1.00  0.00    -0.236 NA 
ENDROOT
BRANCH  13  14
HETATM   14  C1* UNL     1      -8.995  16.575  65.992  1.00  0.00    -0.241 C  
HETATM   15  O4* UNL     1      -8.038  17.119  66.935  1.00  0.00    -0.188 OA 
HETATM   16  C4* UNL     1      -8.595  18.316  67.518  1.00  0.00    -0.250 C  
HETATM   17  H2* UNL     1     -11.446  18.483  64.649  1.00  0.00     0.000 HD 
HETATM   18  C3* UNL     1      -9.478  18.931  66.443  1.00  0.00    -0.336 C  
HETATM   19  C2* UNL     1      -9.671  17.828  65.401  1.00  0.00     0.901 C  
HETATM   20  O3* UNL     1      -8.833  20.045  65.817  1.00  0.00    -0.461 OA 
HETATM   21  H3* UNL     1      -9.385  20.429  65.146  1.00  0.00     0.000 HD 
HETATM   22  O2* UNL     1     -11.030  17.710  65.013  1.00  0.00    -0.780 OA 
BRANCH  16  23
HETATM   23  C5* UNL     1      -9.397  17.983  68.785  1.00  0.00    -0.241 C  
HETATM   24  O5* UNL     1     -10.316  19.029  69.075  1.00  0.00    -0.515 OA 
HETATM   25  H5* UNL     1     -10.812  18.823  69.858  1.00  0.00     0.000 HD 
ENDBRANCH  16  23
ENDBRANCH  13  14
TORSDOF 2
ENDMDL
MODEL       80
REMARK 921   NORMALIZED FREE ENERGY PREDICTED BY IDOCK:   -5.31 KCAL/MOL
REMARK 922        TOTAL FREE ENERGY PREDICTED BY IDOCK:   -5.36 KCAL/MOL
REMARK 923 INTER-LIGAND FREE ENERGY PREDICTED BY IDOCK:   -5.44 KCAL/MOL
REMARK 924 INTRA-LIGAND FREE ENERGY PREDICTED BY IDOCK:    0.08 KCAL/MOL
REMARK 927      BINDING AFFINITY PREDICTED BY RF-SCORE:    0.00 PKD
ROOT
HETATM    1  N   UNL     1      -9.716   8.511  65.624  1.00  0.00    -0.415 NA 
HETATM    2  C   UNL     1      -9.589   8.345  66.993  1.00  0.00    -0.190 A  
HETATM    3  H2  UNL     1      -9.942   7.611  65.200  1.00  0.00     0.000 HD 
HETATM    4  H1  UNL     1     -10.369   9.214  65.277  1.00  0.00     0.000 HD 
HETATM    5  N   UNL     1      -8.725   7.416  67.452  1.00  0.00    -0.121 NA 
HETATM    6  C   UNL     1      -8.642   7.219  68.783  1.00  0.00    -0.129 A  
HETATM    7  N   UNL     1      -9.346   7.835  69.756  1.00  0.00    -0.153 NA 
HETATM    8  F   UNL     1      -7.767   6.286  69.190  1.00  0.00    -0.091 F  
HETATM    9  C   UNL     1     -10.166   8.775  69.256  1.00  0.00    -0.210 A  
HETATM   10  C   UNL     1     -10.322   9.103  67.921  1.00  0.00    -0.232 A  
HETATM   11  N   UNL     1     -11.199  10.150  67.776  1.00  0.00    -0.248 NA 
HETATM   12  C   UNL     1     -11.577  10.446  69.003  1.00  0.00    -0.150 A  
HETATM   13  N   UNL     1     -11.063   9.577  69.930  1.00  0.00    -0.234 NA 
ENDROOT
BRANCH  13  14
HETATM   14  C1* UNL     1     -11.323   9.556  71.360  1.00  0.00    -0.392 C  
HETATM   15  O4* UNL     1     -11.343   8.182  71.824  1.00  0.00    -0.253 OA 
HETATM   16  C4* UNL     1     -12.713   7.728  71.858  1.00  0.00    -0.302 C  
HETATM   17  H2* UNL     1     -14.066  11.530  71.530  1.00  0.00     0.000 HD 
HETATM   18  C3* UNL     1     -13.552   8.958  72.172  1.00  0.00    -0.453 C  
HETATM   19  C2* UNL     1     -12.624  10.149  71.934  1.00  0.00    -0.343 C  
HETATM   20  O3* UNL     1     -13.966   8.965  73.542  1.00  0.00    -1.160 OA 
HETATM   21  H3* UNL     1     -14.491   9.733  73.738  1.00  0.00     0.000 HD 
HETATM   22  O2* UNL     1     -13.263  11.164  71.176  1.00  0.00    -0.256 OA 
BRANCH  16  23
HETATM   23  C5* UNL     1     -13.112   7.101  70.514  1.00  0.00     0.498 C  
HETATM   24  O5* UNL     1     -11.983   6.489  69.902  1.00  0.00    -0.611 OA 
HETATM   25  H5* UNL     1     -12.230   6.101  69.071  1.00  0.00     0.000 HD 
ENDBRANCH  16  23
ENDBRANCH  13  14
TORSDOF 2
ENDMDL
MODEL       81
REMARK 921   NORMALIZED FREE ENERGY PREDICTED BY IDOCK:   -5.21 KCAL/MOL
REMARK 922        TOTAL FREE ENERGY PREDICTED BY IDOCK:   -5.24 KCAL/MOL
REMARK 923 INTER-LIGAND FREE ENERGY PREDICTED BY IDOCK:   -5.01 KCAL/MOL
REMARK 924 INTRA-LIGAND FREE ENERGY PREDICTED BY IDOCK:   -0.23 KCAL/MOL
REMARK 927      BINDING AFFINITY PREDICTED BY RF-SCORE:    0.00 PKD
ROOT
HETATM    1  N   UNL     1      -9.161  15.687  67.196  1.00  0.00    -0.203 NA 
HETATM    2  C   UNL     1      -9.933  14.598  66.826  1.00  0.00    -0.261 A  
HETATM    3  H2  UNL     1      -9.659  16.221  67.908  1.00  0.00     0.000 HD 
HETATM    4  H1  UNL     1      -8.206  15.521  67.514  1.00  0.00     0.000 HD 
HETATM    5  N   UNL     1     -11.196  14.818  66.405  1.00  0.00    -0.341 NA 
HETATM    6  C   UNL     1     -11.964  13.753  66.097  1.00  0.00    -0.418 A  
HETATM    7  N   UNL     1     -11.635  12.447  66.172  1.00  0.00    -0.380 NA 
HETATM    8  F   UNL     1     -13.211  14.023  65.679  1.00  0.00    -0.554 F  
HETATM    9  C   UNL     1     -10.359  12.278  66.562  1.00  0.00    -0.227 A  
HETATM   10  C   UNL     1      -9.456  13.278  66.873  1.00  0.00    -0.249 A  
HETATM   11  N   UNL     1      -8.226  12.747  67.174  1.00  0.00    -0.171 NA 
HETATM   12  C   UNL     1      -8.383  11.445  67.058  1.00  0.00    -0.161 A  
HETATM   13  N   UNL     1      -9.682  11.098  66.791  1.00  0.00    -0.190 NA 
ENDROOT
BRANCH  13  14
HETATM   14  C1* UNL     1     -10.232   9.758  66.670  1.00  0.00    -0.226 C  
HETATM   15  O4* UNL     1     -11.081   9.482  67.812  1.00  0.00    -0.186 OA 
HETATM   16  C4* UNL     1     -10.307   8.766  68.798  1.00  0.00    -0.213 C  
HETATM   17  H2* UNL     1      -7.418   7.976  66.075  1.00  0.00     0.000 HD 
HETATM   18  C3* UNL     1      -9.295   7.943  68.016  1.00  0.00    -0.145 C  
HETATM   19  C2* UNL     1      -9.305   8.528  66.604  1.00  0.00    -0.189 C  
HETATM   20  O3* UNL     1      -9.688   6.569  67.946  1.00  0.00    -0.122 OA 
HETATM   21  H3* UNL     1      -9.055   6.055  67.458  1.00  0.00     0.000 HD 
HETATM   22  O2* UNL     1      -7.989   8.734  66.115  1.00  0.00    -0.099 OA 
BRANCH  16  23
HETATM   23  C5* UNL     1      -9.617   9.743  69.763  1.00  0.00    -0.230 C  
HETATM   24  O5* UNL     1     -10.416  10.906  69.940  1.00  0.00    -0.446 OA 
HETATM   25  H5* UNL     1      -9.990  11.510  70.537  1.00  0.00     0.000 HD 
ENDBRANCH  16  23
ENDBRANCH  13  14
TORSDOF 2
ENDMDL
MODEL       82
REMARK 921   NORMALIZED FREE ENERGY PREDICTED BY IDOCK:   -5.20 KCAL/MOL
REMARK 922        TOTAL FREE ENERGY PREDICTED BY IDOCK:   -5.23 KCAL/MOL
REMARK 923 INTER-LIGAND FREE ENERGY PREDICTED BY IDOCK:   -4.99 KCAL/MOL
REMARK 924 INTRA-LIGAND FREE ENERGY PREDICTED BY IDOCK:   -0.24 KCAL/MOL
REMARK 927      BINDING AFFINITY PREDICTED BY RF-SCORE:    0.00 PKD
ROOT
HETATM    1  N   UNL     1      -7.340   8.021  67.035  1.00  0.00    -0.089 NA 
HETATM    2  C   UNL     1      -8.525   7.460  67.484  1.00  0.00    -0.116 A  
HETATM    3  H2  UNL     1      -7.524   8.542  66.178  1.00  0.00     0.000 HD 
HETATM    4  H1  UNL     1      -6.807   8.611  67.674  1.00  0.00     0.000 HD 
HETATM    5  N   UNL     1      -9.229   6.680  66.638  1.00  0.00    -0.153 NA 
HETATM    6  C   UNL     1     -10.408   6.179  67.060  1.00  0.00    -0.237 A  
HETATM    7  N   UNL     1     -11.011   6.374  68.251  1.00  0.00    -0.313 NA 
HETATM    8  F   UNL     1     -11.070   5.406  66.184  1.00  0.00    -0.304 F  
HETATM    9  C   UNL     1     -10.258   7.127  69.071  1.00  0.00    -0.190 A  
HETATM   10  C   UNL     1      -9.020   7.672  68.781  1.00  0.00    -0.133 A  
HETATM   11  N   UNL     1      -8.512   8.334  69.871  1.00  0.00    -0.125 NA 
HETATM   12  C   UNL     1      -9.431   8.201  70.806  1.00  0.00    -0.162 A  
HETATM   13  N   UNL     1     -10.556   7.569  70.343  1.00  0.00    -0.224 NA 
ENDROOT
BRANCH  13  14
HETATM   14  C1* UNL     1     -11.789   7.316  71.070  1.00  0.00    -0.318 C  
HETATM   15  O4* UNL     1     -12.881   8.015  70.423  1.00  0.00     0.499 OA 
HETATM   16  C4* UNL     1     -13.080   9.279  71.093  1.00  0.00    -0.190 C  
HETATM   17  H2* UNL     1     -10.822   8.065  74.226  1.00  0.00     0.000 HD 
HETATM   18  C3* UNL     1     -12.695   9.045  72.546  1.00  0.00    -0.303 C  
HETATM   19  C2* UNL     1     -11.929   7.722  72.551  1.00  0.00    -0.253 C  
HETATM   20  O3* UNL     1     -13.855   8.906  73.373  1.00  0.00    -1.192 OA 
HETATM   21  H3* UNL     1     -13.614   8.761  74.281  1.00  0.00     0.000 HD 
HETATM   22  O2* UNL     1     -10.736   7.814  73.313  1.00  0.00    -0.374 OA 
BRANCH  16  23
HETATM   23  C5* UNL     1     -12.220  10.378  70.450  1.00  0.00    -0.303 C  
HETATM   24  O5* UNL     1     -12.007  10.094  69.073  1.00  0.00    -0.510 OA 
HETATM   25  H5* UNL     1     -11.476  10.773  68.676  1.00  0.00     0.000 HD 
ENDBRANCH  16  23
ENDBRANCH  13  14
TORSDOF 2
ENDMDL
MODEL       83
REMARK 921   NORMALIZED FREE ENERGY PREDICTED BY IDOCK:   -5.19 KCAL/MOL
REMARK 922        TOTAL FREE ENERGY PREDICTED BY IDOCK:   -5.22 KCAL/MOL
REMARK 923 INTER-LIGAND FREE ENERGY PREDICTED BY IDOCK:   -5.30 KCAL/MOL
REMARK 924 INTRA-LIGAND FREE ENERGY PREDICTED BY IDOCK:    0.08 KCAL/MOL
REMARK 927      BINDING AFFINITY PREDICTED BY RF-SCORE:    0.00 PKD
ROOT
HETATM    1  N   UNL     1      -7.499   9.952  68.425  1.00  0.00    -0.082 NA 
HETATM    2  C   UNL     1      -8.545  10.859  68.485  1.00  0.00    -0.152 A  
HETATM    3  H2  UNL     1      -7.817   9.112  67.940  1.00  0.00     0.000 HD 
HETATM    4  H1  UNL     1      -6.615  10.255  68.017  1.00  0.00     0.000 HD 
HETATM    5  N   UNL     1      -9.715  10.457  69.024  1.00  0.00    -0.197 NA 
HETATM    6  C   UNL     1     -10.747  11.324  69.034  1.00  0.00    -0.217 A  
HETATM    7  N   UNL     1     -10.777  12.581  68.543  1.00  0.00    -0.234 NA 
HETATM    8  F   UNL     1     -11.889  10.880  69.583  1.00  0.00    -0.293 F  
HETATM    9  C   UNL     1      -9.582  12.949  68.049  1.00  0.00    -0.221 A  
HETATM   10  C   UNL     1      -8.436  12.175  68.009  1.00  0.00    -0.170 A  
HETATM   11  N   UNL     1      -7.384  12.890  67.491  1.00  0.00    -0.150 NA 
HETATM   12  C   UNL     1      -7.886  14.075  67.211  1.00  0.00    -0.122 A  
HETATM   13  N   UNL     1      -9.238  14.133  67.431  1.00  0.00    -0.196 NA 
ENDROOT
BRANCH  13  14
HETATM   14  C1* UNL     1     -10.129  15.251  67.167  1.00  0.00    -0.240 C  
HETATM   15  O4* UNL     1     -11.345  14.760  66.549  1.00  0.00    -0.347 OA 
HETATM   16  C4* UNL     1     -11.219  14.892  65.117  1.00  0.00    -0.386 C  
HETATM   17  H2* UNL     1      -8.034  17.354  65.543  1.00  0.00     0.000 HD 
HETATM   18  C3* UNL     1     -10.340  16.112  64.886  1.00  0.00     0.115 C  
HETATM   19  C2* UNL     1      -9.694  16.404  66.241  1.00  0.00    -0.308 C  
HETATM   20  O3* UNL     1     -11.120  17.246  64.496  1.00  0.00    -1.082 OA 
HETATM   21  H3* UNL     1     -10.570  18.008  64.352  1.00  0.00     0.000 HD 
HETATM   22  O2* UNL     1      -8.302  16.643  66.114  1.00  0.00    -0.310 OA 
BRANCH  16  23
HETATM   23  C5* UNL     1     -10.599  13.626  64.505  1.00  0.00    -0.411 C  
HETATM   24  O5* UNL     1     -11.361  12.481  64.868  1.00  0.00    -0.294 OA 
HETATM   25  H5* UNL     1     -10.979  11.698  64.490  1.00  0.00     0.000 HD 
ENDBRANCH  16  23
ENDBRANCH  13  14
TORSDOF 2
ENDMDL
MODEL       84
REMARK 921   NORMALIZED FREE ENERGY PREDICTED BY IDOCK:   -5.17 KCAL/MOL
REMARK 922        TOTAL FREE ENERGY PREDICTED BY IDOCK:   -5.20 KCAL/MOL
REMARK 923 INTER-LIGAND FREE ENERGY PREDICTED BY IDOCK:   -5.26 KCAL/MOL
REMARK 924 INTRA-LIGAND FREE ENERGY PREDICTED BY IDOCK:    0.06 KCAL/MOL
REMARK 927      BINDING AFFINITY PREDICTED BY RF-SCORE:    0.00 PKD
ROOT
HETATM    1  N   UNL     1     -12.240  13.774  66.240  1.00  0.00    -0.444 NA 
HETATM    2  C   UNL     1     -11.110  13.327  66.905  1.00  0.00    -0.289 A  
HETATM    3  H2  UNL     1     -12.036  13.831  65.242  1.00  0.00     0.000 HD 
HETATM    4  H1  UNL     1     -13.115  13.266  66.371  1.00  0.00     0.000 HD 
HETATM    5  N   UNL     1      -9.953  13.998  66.731  1.00  0.00    -0.262 NA 
HETATM    6  C   UNL     1      -8.843  13.530  67.337  1.00  0.00    -0.221 A  
HETATM    7  N   UNL     1      -8.723  12.429  68.109  1.00  0.00    -0.186 NA 
HETATM    8  F   UNL     1      -7.717  14.234  67.138  1.00  0.00    -0.196 F  
HETATM    9  C   UNL     1      -9.905  11.814  68.282  1.00  0.00    -0.198 A  
HETATM   10  C   UNL     1     -11.121  12.205  67.750  1.00  0.00    -0.250 A  
HETATM   11  N   UNL     1     -12.130  11.379  68.181  1.00  0.00    -0.617 NA 
HETATM   12  C   UNL     1     -11.535  10.494  68.955  1.00  0.00    -0.226 A  
HETATM   13  N   UNL     1     -10.172  10.647  68.967  1.00  0.00    -0.206 NA 
ENDROOT
BRANCH  13  14
HETATM   14  C1* UNL     1      -9.196   9.812  69.648  1.00  0.00    -0.223 C  
HETATM   15  O4* UNL     1      -8.602   8.894  68.697  1.00  0.00    -0.130 OA 
HETATM   16  C4* UNL     1      -9.306   7.636  68.770  1.00  0.00    -0.148 C  
HETATM   17  H2* UNL     1     -11.030   8.713  72.271  1.00  0.00     0.000 HD 
HETATM   18  C3* UNL     1      -9.770   7.502  70.213  1.00  0.00    -0.179 C  
HETATM   19  C2* UNL     1      -9.617   8.898  70.816  1.00  0.00    -0.229 C  
HETATM   20  O3* UNL     1      -8.938   6.594  70.942  1.00  0.00    -0.146 OA 
HETATM   21  H3* UNL     1      -9.228   6.510  71.843  1.00  0.00     0.000 HD 
HETATM   22  O2* UNL     1     -10.770   9.277  71.551  1.00  0.00    -0.334 OA 
BRANCH  16  23
HETATM   23  C5* UNL     1     -10.490   7.616  67.792  1.00  0.00    -0.216 C  
HETATM   24  O5* UNL     1     -11.475   6.688  68.229  1.00  0.00    -0.560 OA 
HETATM   25  H5* UNL     1     -12.207   6.675  67.625  1.00  0.00     0.000 HD 
ENDBRANCH  16  23
ENDBRANCH  13  14
TORSDOF 2
ENDMDL
MODEL       85
REMARK 921   NORMALIZED FREE ENERGY PREDICTED BY IDOCK:   -5.16 KCAL/MOL
REMARK 922        TOTAL FREE ENERGY PREDICTED BY IDOCK:   -5.19 KCAL/MOL
REMARK 923 INTER-LIGAND FREE ENERGY PREDICTED BY IDOCK:   -5.39 KCAL/MOL
REMARK 924 INTRA-LIGAND FREE ENERGY PREDICTED BY IDOCK:    0.20 KCAL/MOL
REMARK 927      BINDING AFFINITY PREDICTED BY RF-SCORE:    0.00 PKD
ROOT
HETATM    1  N   UNL     1      -6.794  17.528  68.120  1.00  0.00    -0.192 NA 
HETATM    2  C   UNL     1      -8.176  17.456  68.047  1.00  0.00    -0.229 A  
HETATM    3  H2  UNL     1      -6.534  18.341  68.678  1.00  0.00     0.000 HD 
HETATM    4  H1  UNL     1      -6.281  16.714  68.461  1.00  0.00     0.000 HD 
HETATM    5  N   UNL     1      -8.854  18.532  67.597  1.00  0.00    -0.269 NA 
HETATM    6  C   UNL     1     -10.201  18.478  67.576  1.00  0.00    -0.385 A  
HETATM    7  N   UNL     1     -10.995  17.464  67.978  1.00  0.00    -0.270 NA 
HETATM    8  F   UNL     1     -10.830  19.571  67.116  1.00  0.00    -0.527 F  
HETATM    9  C   UNL     1     -10.276  16.403  68.384  1.00  0.00    -0.259 A  
HETATM   10  C   UNL     1      -8.897  16.311  68.423  1.00  0.00    -0.202 A  
HETATM   11  N   UNL     1      -8.503  15.061  68.836  1.00  0.00    -0.182 NA 
HETATM   12  C   UNL     1      -9.626  14.409  69.055  1.00  0.00    -0.055 A  
HETATM   13  N   UNL     1     -10.731  15.206  68.899  1.00  0.00    -0.232 NA 
ENDROOT
BRANCH  13  14
HETATM   14  C1* UNL     1     -12.120  14.846  69.127  1.00  0.00    -0.231 C  
HETATM   15  O4* UNL     1     -12.798  15.940  69.794  1.00  0.00    -0.075 OA 
HETATM   16  C4* UNL     1     -12.796  15.685  71.215  1.00  0.00    -0.487 C  
HETATM   17  H2* UNL     1     -11.751  11.822  70.601  1.00  0.00     0.000 HD 
HETATM   18  C3* UNL     1     -12.840  14.172  71.367  1.00  0.00    -0.355 C  
HETATM   19  C2* UNL     1     -12.486  13.619  69.986  1.00  0.00    -0.204 C  
HETATM   20  O3* UNL     1     -14.153  13.725  71.717  1.00  0.00    -0.358 OA 
HETATM   21  H3* UNL     1     -14.180  12.779  71.812  1.00  0.00     0.000 HD 
HETATM   22  O2* UNL     1     -11.525  12.578  70.072  1.00  0.00    -0.172 OA 
BRANCH  16  23
HETATM   23  C5* UNL     1     -11.544  16.283  71.874  1.00  0.00    -0.345 C  
HETATM   24  O5* UNL     1     -11.667  16.244  73.290  1.00  0.00    -0.357 OA 
HETATM   25  H5* UNL     1     -10.892  16.613  73.698  1.00  0.00     0.000 HD 
ENDBRANCH  16  23
ENDBRANCH  13  14
TORSDOF 2
ENDMDL
MODEL       86
REMARK 921   NORMALIZED FREE ENERGY PREDICTED BY IDOCK:   -5.12 KCAL/MOL
REMARK 922        TOTAL FREE ENERGY PREDICTED BY IDOCK:   -5.14 KCAL/MOL
REMARK 923 INTER-LIGAND FREE ENERGY PREDICTED BY IDOCK:   -5.79 KCAL/MOL
REMARK 924 INTRA-LIGAND FREE ENERGY PREDICTED BY IDOCK:    0.65 KCAL/MOL
REMARK 927      BINDING AFFINITY PREDICTED BY RF-SCORE:    0.00 PKD
ROOT
HETATM    1  N   UNL     1     -12.875  14.287  71.234  1.00  0.00    -0.333 NA 
HETATM    2  C   UNL     1     -12.044  14.048  70.151  1.00  0.00    -0.351 A  
HETATM    3  H2  UNL     1     -12.657  13.619  71.972  1.00  0.00     0.000 HD 
HETATM    4  H1  UNL     1     -12.897  15.226  71.632  1.00  0.00     0.000 HD 
HETATM    5  N   UNL     1     -12.014  12.807  69.624  1.00  0.00    -0.310 NA 
HETATM    6  C   UNL     1     -11.165  12.563  68.605  1.00  0.00    -0.278 A  
HETATM    7  N   UNL     1     -10.295  13.419  68.030  1.00  0.00    -0.235 NA 
HETATM    8  F   UNL     1     -11.175  11.314  68.112  1.00  0.00    -0.246 F  
HETATM    9  C   UNL     1     -10.384  14.650  68.563  1.00  0.00    -0.238 A  
HETATM   10  C   UNL     1     -11.232  15.044  69.583  1.00  0.00    -0.275 A  
HETATM   11  N   UNL     1     -11.099  16.387  69.835  1.00  0.00    -0.347 NA 
HETATM   12  C   UNL     1     -10.177  16.800  68.989  1.00  0.00    -0.310 A  
HETATM   13  N   UNL     1      -9.634  15.769  68.267  1.00  0.00    -0.199 NA 
ENDROOT
BRANCH  13  14
HETATM   14  C1* UNL     1      -8.552  15.842  67.300  1.00  0.00    -0.188 C  
HETATM   15  O4* UNL     1      -7.363  16.359  67.948  1.00  0.00    -0.127 OA 
HETATM   16  C4* UNL     1      -7.290  17.781  67.709  1.00  0.00    -0.202 C  
HETATM   17  H2* UNL     1     -10.072  17.512  64.780  1.00  0.00     0.000 HD 
HETATM   18  C3* UNL     1      -7.930  18.008  66.348  1.00  0.00    -0.262 C  
HETATM   19  C2* UNL     1      -8.681  16.714  66.036  1.00  0.00    -0.204 C  
HETATM   20  O3* UNL     1      -6.937  18.217  65.338  1.00  0.00    -0.510 OA 
HETATM   21  H3* UNL     1      -7.337  18.359  64.487  1.00  0.00     0.000 HD 
HETATM   22  O2* UNL     1      -9.992  16.974  65.559  1.00  0.00    -0.567 OA 
BRANCH  16  23
HETATM   23  C5* UNL     1      -8.023  18.557  68.814  1.00  0.00    -0.267 C  
HETATM   24  O5* UNL     1      -7.171  19.555  69.363  1.00  0.00    -0.344 OA 
HETATM   25  H5* UNL     1      -7.624  20.035  70.046  1.00  0.00     0.000 HD 
ENDBRANCH  16  23
ENDBRANCH  13  14
TORSDOF 2
ENDMDL
MODEL       87
REMARK 921   NORMALIZED FREE ENERGY PREDICTED BY IDOCK:   -5.10 KCAL/MOL
REMARK 922        TOTAL FREE ENERGY PREDICTED BY IDOCK:   -5.12 KCAL/MOL
REMARK 923 INTER-LIGAND FREE ENERGY PREDICTED BY IDOCK:   -4.92 KCAL/MOL
REMARK 924 INTRA-LIGAND FREE ENERGY PREDICTED BY IDOCK:   -0.20 KCAL/MOL
REMARK 927      BINDING AFFINITY PREDICTED BY RF-SCORE:    0.00 PKD
ROOT
HETATM    1  N   UNL     1     -11.053  12.189  62.905  1.00  0.00    -0.510 NA 
HETATM    2  C   UNL     1     -10.892  12.617  64.213  1.00  0.00    -0.379 A  
HETATM    3  H2  UNL     1     -10.465  12.758  62.296  1.00  0.00     0.000 HD 
HETATM    4  H1  UNL     1     -10.895  11.204  62.692  1.00  0.00     0.000 HD 
HETATM    5  N   UNL     1     -11.099  13.920  64.495  1.00  0.00    -0.380 NA 
HETATM    6  C   UNL     1     -10.890  14.344  65.758  1.00  0.00    -0.307 A  
HETATM    7  N   UNL     1     -10.467  13.619  66.815  1.00  0.00    -0.268 NA 
HETATM    8  F   UNL     1     -11.114  15.647  65.990  1.00  0.00    -0.318 F  
HETATM    9  C   UNL     1     -10.307  12.323  66.496  1.00  0.00    -0.227 A  
HETATM   10  C   UNL     1     -10.520  11.751  65.255  1.00  0.00    -0.274 A  
HETATM   11  N   UNL     1     -10.317  10.393  65.303  1.00  0.00    -0.255 NA 
HETATM   12  C   UNL     1      -9.977  10.147  66.552  1.00  0.00    -0.224 A  
HETATM   13  N   UNL     1      -9.852  11.294  67.293  1.00  0.00    -0.181 NA 
ENDROOT
BRANCH  13  14
HETATM   14  C1* UNL     1      -9.426  11.409  68.678  1.00  0.00    -0.163 C  
HETATM   15  O4* UNL     1      -8.162  12.118  68.734  1.00  0.00    -0.073 OA 
HETATM   16  C4* UNL     1      -7.093  11.149  68.784  1.00  0.00    -0.093 C  
HETATM   17  H2* UNL     1      -9.705   8.192  69.690  1.00  0.00     0.000 HD 
HETATM   18  C3* UNL     1      -7.656   9.943  69.520  1.00  0.00    -0.125 C  
HETATM   19  C2* UNL     1      -9.171  10.151  69.532  1.00  0.00    -0.204 C  
HETATM   20  O3* UNL     1      -7.190   9.898  70.872  1.00  0.00    -0.330 OA 
HETATM   21  H3* UNL     1      -7.542   9.144  71.332  1.00  0.00     0.000 HD 
HETATM   22  O2* UNL     1      -9.862   8.967  69.164  1.00  0.00    -0.168 OA 
BRANCH  16  23
HETATM   23  C5* UNL     1      -6.628  10.779  67.367  1.00  0.00    -0.071 C  
HETATM   24  O5* UNL     1      -6.961  11.816  66.453  1.00  0.00    -0.372 OA 
HETATM   25  H5* UNL     1      -6.673  11.588  65.577  1.00  0.00     0.000 HD 
ENDBRANCH  16  23
ENDBRANCH  13  14
TORSDOF 2
ENDMDL
MODEL       88
REMARK 921   NORMALIZED FREE ENERGY PREDICTED BY IDOCK:   -5.09 KCAL/MOL
REMARK 922        TOTAL FREE ENERGY PREDICTED BY IDOCK:   -5.12 KCAL/MOL
REMARK 923 INTER-LIGAND FREE ENERGY PREDICTED BY IDOCK:   -5.40 KCAL/MOL
REMARK 924 INTRA-LIGAND FREE ENERGY PREDICTED BY IDOCK:    0.28 KCAL/MOL
REMARK 927      BINDING AFFINITY PREDICTED BY RF-SCORE:    0.00 PKD
ROOT
HETATM    1  N   UNL     1     -11.474  12.051  70.438  1.00  0.00    -0.424 NA 
HETATM    2  C   UNL     1     -11.821  10.754  70.777  1.00  0.00    -0.339 A  
HETATM    3  H2  UNL     1     -11.315  12.586  71.292  1.00  0.00     0.000 HD 
HETATM    4  H1  UNL     1     -10.686  12.195  69.806  1.00  0.00     0.000 HD 
HETATM    5  N   UNL     1     -12.863  10.563  71.613  1.00  0.00    -0.448 NA 
HETATM    6  C   UNL     1     -13.166   9.303  71.984  1.00  0.00    -0.447 A  
HETATM    7  N   UNL     1     -12.534   8.163  71.634  1.00  0.00    -0.310 NA 
HETATM    8  F   UNL     1     -14.212   9.165  72.813  1.00  0.00    -0.475 F  
HETATM    9  C   UNL     1     -11.527   8.398  70.774  1.00  0.00    -0.255 A  
HETATM   10  C   UNL     1     -11.134   9.631  70.287  1.00  0.00    -0.276 A  
HETATM   11  N   UNL     1     -10.109   9.493  69.383  1.00  0.00    -0.187 NA 
HETATM   12  C   UNL     1      -9.877   8.198  69.331  1.00  0.00    -0.182 A  
HETATM   13  N   UNL     1     -10.636   7.496  70.232  1.00  0.00    -0.224 NA 
ENDROOT
BRANCH  13  14
HETATM   14  C1* UNL     1     -10.593   6.068  70.500  1.00  0.00    -0.266 C  
HETATM   15  O4* UNL     1     -11.143   5.810  71.816  1.00  0.00    -0.265 OA 
HETATM   16  C4* UNL     1     -10.055   5.730  72.762  1.00  0.00    -0.179 C  
HETATM   17  H2* UNL     1      -7.363   5.385  69.758  1.00  0.00     0.000 HD 
HETATM   18  C3* UNL     1      -8.870   5.171  71.988  1.00  0.00    -0.130 C  
HETATM   19  C2* UNL     1      -9.252   5.308  70.514  1.00  0.00    -0.146 C  
HETATM   20  O3* UNL     1      -8.667   3.786  72.282  1.00  0.00    -0.094 OA 
HETATM   21  H3* UNL     1      -7.927   3.437  71.799  1.00  0.00     0.000 HD 
HETATM   22  O2* UNL     1      -8.190   5.854  69.749  1.00  0.00    -0.109 OA 
BRANCH  16  23
HETATM   23  C5* UNL     1      -9.743   7.114  73.350  1.00  0.00    -0.232 C  
HETATM   24  O5* UNL     1     -10.871   7.614  74.058  1.00  0.00    -0.408 OA 
HETATM   25  H5* UNL     1     -10.678   8.469  74.422  1.00  0.00     0.000 HD 
ENDBRANCH  16  23
ENDBRANCH  13  14
TORSDOF 2
ENDMDL
MODEL       89
REMARK 921   NORMALIZED FREE ENERGY PREDICTED BY IDOCK:   -5.07 KCAL/MOL
REMARK 922        TOTAL FREE ENERGY PREDICTED BY IDOCK:   -5.09 KCAL/MOL
REMARK 923 INTER-LIGAND FREE ENERGY PREDICTED BY IDOCK:   -6.03 KCAL/MOL
REMARK 924 INTRA-LIGAND FREE ENERGY PREDICTED BY IDOCK:    0.94 KCAL/MOL
REMARK 927      BINDING AFFINITY PREDICTED BY RF-SCORE:    0.00 PKD
ROOT
HETATM    1  N   UNL     1     -11.879  16.278  71.760  1.00  0.00    -0.632 NA 
HETATM    2  C   UNL     1     -11.442  15.883  70.506  1.00  0.00    -0.392 A  
HETATM    3  H2  UNL     1     -12.521  17.064  71.654  1.00  0.00     0.000 HD 
HETATM    4  H1  UNL     1     -12.306  15.580  72.369  1.00  0.00     0.000 HD 
HETATM    5  N   UNL     1     -10.876  16.805  69.701  1.00  0.00    -0.295 NA 
HETATM    6  C   UNL     1     -10.500  16.431  68.461  1.00  0.00    -0.291 A  
HETATM    7  N   UNL     1     -10.634  15.216  67.888  1.00  0.00    -0.253 NA 
HETATM    8  F   UNL     1      -9.939  17.383  67.699  1.00  0.00    -0.266 F  
HETATM    9  C   UNL     1     -11.168  14.322  68.738  1.00  0.00    -0.262 A  
HETATM   10  C   UNL     1     -11.564  14.563  70.041  1.00  0.00    -0.284 A  
HETATM   11  N   UNL     1     -12.011  13.408  70.636  1.00  0.00    -0.280 NA 
HETATM   12  C   UNL     1     -11.899  12.484  69.704  1.00  0.00    -0.314 A  
HETATM   13  N   UNL     1     -11.492  13.002  68.502  1.00  0.00    -0.281 NA 
ENDROOT
BRANCH  13  14
HETATM   14  C1* UNL     1     -11.330  12.294  67.243  1.00  0.00    -0.328 C  
HETATM   15  O4* UNL     1     -11.831  10.941  67.386  1.00  0.00    -0.465 OA 
HETATM   16  C4* UNL     1     -10.720  10.070  67.691  1.00  0.00    -0.284 C  
HETATM   17  H2* UNL     1      -8.072  12.923  66.582  1.00  0.00     0.000 HD 
HETATM   18  C3* UNL     1      -9.511  10.676  66.996  1.00  0.00    -0.164 C  
HETATM   19  C2* UNL     1      -9.933  12.098  66.623  1.00  0.00    -0.206 C  
HETATM   20  O3* UNL     1      -9.192   9.963  65.797  1.00  0.00    -0.156 OA 
HETATM   21  H3* UNL     1      -8.436  10.342  65.363  1.00  0.00     0.000 HD 
HETATM   22  O2* UNL     1      -8.933  13.044  66.965  1.00  0.00    -0.214 OA 
BRANCH  16  23
HETATM   23  C5* UNL     1     -10.508   9.969  69.209  1.00  0.00    -0.225 C  
HETATM   24  O5* UNL     1     -11.558   9.218  69.805  1.00  0.00    -0.441 OA 
HETATM   25  H5* UNL     1     -11.426   9.155  70.743  1.00  0.00     0.000 HD 
ENDBRANCH  16  23
ENDBRANCH  13  14
TORSDOF 2
ENDMDL
MODEL       90
REMARK 921   NORMALIZED FREE ENERGY PREDICTED BY IDOCK:   -5.07 KCAL/MOL
REMARK 922        TOTAL FREE ENERGY PREDICTED BY IDOCK:   -5.09 KCAL/MOL
REMARK 923 INTER-LIGAND FREE ENERGY PREDICTED BY IDOCK:   -4.85 KCAL/MOL
REMARK 924 INTRA-LIGAND FREE ENERGY PREDICTED BY IDOCK:   -0.23 KCAL/MOL
REMARK 927      BINDING AFFINITY PREDICTED BY RF-SCORE:    0.00 PKD
ROOT
HETATM    1  N   UNL     1      -9.498  10.950  67.848  1.00  0.00    -0.157 NA 
HETATM    2  C   UNL     1     -10.328  10.576  68.892  1.00  0.00    -0.208 A  
HETATM    3  H2  UNL     1      -8.966  11.775  68.126  1.00  0.00     0.000 HD 
HETATM    4  H1  UNL     1      -8.858  10.256  67.462  1.00  0.00     0.000 HD 
HETATM    5  N   UNL     1     -11.175  11.494  69.403  1.00  0.00    -0.260 NA 
HETATM    6  C   UNL     1     -11.943  11.143  70.454  1.00  0.00    -0.378 A  
HETATM    7  N   UNL     1     -11.968   9.960  71.102  1.00  0.00    -0.353 NA 
HETATM    8  F   UNL     1     -12.773  12.089  70.923  1.00  0.00    -0.401 F  
HETATM    9  C   UNL     1     -11.135   9.068  70.538  1.00  0.00    -0.254 A  
HETATM   10  C   UNL     1     -10.321   9.283  69.441  1.00  0.00    -0.215 A  
HETATM   11  N   UNL     1      -9.648   8.135  69.101  1.00  0.00    -0.156 NA 
HETATM   12  C   UNL     1     -10.040   7.240  69.984  1.00  0.00    -0.190 A  
HETATM   13  N   UNL     1     -10.860   7.778  70.942  1.00  0.00    -0.233 NA 
ENDROOT
BRANCH  13  14
HETATM   14  C1* UNL     1     -11.421   7.107  72.103  1.00  0.00    -0.269 C  
HETATM   15  O4* UNL     1     -10.928   7.742  73.310  1.00  0.00    -0.382 OA 
HETATM   16  C4* UNL     1      -9.786   6.999  73.787  1.00  0.00    -0.274 C  
HETATM   17  H2* UNL     1     -10.703   3.882  71.373  1.00  0.00     0.000 HD 
HETATM   18  C3* UNL     1     -10.031   5.553  73.385  1.00  0.00    -0.176 C  
HETATM   19  C2* UNL     1     -11.157   5.609  72.352  1.00  0.00    -0.271 C  
HETATM   20  O3* UNL     1     -10.472   4.773  74.501  1.00  0.00    -0.269 OA 
HETATM   21  H3* UNL     1     -10.625   3.869  74.250  1.00  0.00     0.000 HD 
HETATM   22  O2* UNL     1     -10.865   4.805  71.219  1.00  0.00     0.035 OA 
BRANCH  16  23
HETATM   23  C5* UNL     1      -8.486   7.543  73.174  1.00  0.00    -0.136 C  
HETATM   24  O5* UNL     1      -8.591   8.946  72.963  1.00  0.00    -0.309 OA 
HETATM   25  H5* UNL     1      -7.788   9.282  72.584  1.00  0.00     0.000 HD 
ENDBRANCH  16  23
ENDBRANCH  13  14
TORSDOF 2
ENDMDL
MODEL       91
REMARK 921   NORMALIZED FREE ENERGY PREDICTED BY IDOCK:   -5.06 KCAL/MOL
REMARK 922        TOTAL FREE ENERGY PREDICTED BY IDOCK:   -5.08 KCAL/MOL
REMARK 923 INTER-LIGAND FREE ENERGY PREDICTED BY IDOCK:   -5.13 KCAL/MOL
REMARK 924 INTRA-LIGAND FREE ENERGY PREDICTED BY IDOCK:    0.05 KCAL/MOL
REMARK 927      BINDING AFFINITY PREDICTED BY RF-SCORE:    0.00 PKD
ROOT
HETATM    1  N   UNL     1     -12.507  13.437  71.191  1.00  0.00    -0.357 NA 
HETATM    2  C   UNL     1     -12.165  12.223  70.619  1.00  0.00    -0.287 A  
HETATM    3  H2  UNL     1     -11.922  13.592  72.012  1.00  0.00     0.000 HD 
HETATM    4  H1  UNL     1     -12.488  14.274  70.607  1.00  0.00     0.000 HD 
HETATM    5  N   UNL     1     -12.191  11.117  71.391  1.00  0.00    -0.212 NA 
HETATM    6  C   UNL     1     -11.807   9.945  70.845  1.00  0.00    -0.356 A  
HETATM    7  N   UNL     1     -11.366   9.722  69.589  1.00  0.00    -0.174 NA 
HETATM    8  F   UNL     1     -11.853   8.873  71.652  1.00  0.00    -0.319 F  
HETATM    9  C   UNL     1     -11.391  10.843  68.848  1.00  0.00    -0.288 A  
HETATM   10  C   UNL     1     -11.794  12.098  69.270  1.00  0.00    -0.313 A  
HETATM   11  N   UNL     1     -11.746  12.998  68.234  1.00  0.00    -0.335 NA 
HETATM   12  C   UNL     1     -11.311  12.304  67.203  1.00  0.00    -0.335 A  
HETATM   13  N   UNL     1     -10.980  11.018  67.543  1.00  0.00    -0.262 NA 
ENDROOT
BRANCH  13  14
HETATM   14  C1* UNL     1     -10.405   9.996  66.684  1.00  0.00    -0.213 C  
HETATM   15  O4* UNL     1      -9.120   9.588  67.217  1.00  0.00    -0.130 OA 
HETATM   16  C4* UNL     1      -8.084  10.334  66.543  1.00  0.00    -0.121 C  
HETATM   17  H2* UNL     1     -10.681  11.491  63.660  1.00  0.00     0.000 HD 
HETATM   18  C3* UNL     1      -8.605  10.595  65.138  1.00  0.00    -0.167 C  
HETATM   19  C2* UNL     1     -10.103  10.292  65.201  1.00  0.00    -0.285 C  
HETATM   20  O3* UNL     1      -7.999   9.713  64.188  1.00  0.00    -0.127 OA 
HETATM   21  H3* UNL     1      -8.325   9.876  63.310  1.00  0.00     0.000 HD 
HETATM   22  O2* UNL     1     -10.867  11.309  64.574  1.00  0.00    -0.329 OA 
BRANCH  16  23
HETATM   23  C5* UNL     1      -7.785  11.644  67.287  1.00  0.00    -0.154 C  
HETATM   24  O5* UNL     1      -6.575  12.218  66.806  1.00  0.00    -0.368 OA 
HETATM   25  H5* UNL     1      -6.390  13.028  67.266  1.00  0.00     0.000 HD 
ENDBRANCH  16  23
ENDBRANCH  13  14
TORSDOF 2
ENDMDL
MODEL       92
REMARK 921   NORMALIZED FREE ENERGY PREDICTED BY IDOCK:   -5.05 KCAL/MOL
REMARK 922        TOTAL FREE ENERGY PREDICTED BY IDOCK:   -5.07 KCAL/MOL
REMARK 923 INTER-LIGAND FREE ENERGY PREDICTED BY IDOCK:   -6.54 KCAL/MOL
REMARK 924 INTRA-LIGAND FREE ENERGY PREDICTED BY IDOCK:    1.48 KCAL/MOL
REMARK 927      BINDING AFFINITY PREDICTED BY RF-SCORE:    0.00 PKD
ROOT
HETATM    1  N   UNL     1     -11.952  13.275  67.415  1.00  0.00    -0.358 NA 
HETATM    2  C   UNL     1     -11.296  14.414  66.977  1.00  0.00    -0.346 A  
HETATM    3  H2  UNL     1     -11.726  12.502  66.790  1.00  0.00     0.000 HD 
HETATM    4  H1  UNL     1     -11.812  12.973  68.380  1.00  0.00     0.000 HD 
HETATM    5  N   UNL     1     -11.480  14.813  65.702  1.00  0.00    -0.346 NA 
HETATM    6  C   UNL     1     -10.799  15.891  65.263  1.00  0.00    -0.387 A  
HETATM    7  N   UNL     1      -9.911  16.643  65.945  1.00  0.00    -0.488 NA 
HETATM    8  F   UNL     1     -11.019  16.251  63.988  1.00  0.00    -0.207 F  
HETATM    9  C   UNL     1      -9.786  16.230  67.218  1.00  0.00    -0.237 A  
HETATM   10  C   UNL     1     -10.448  15.167  67.806  1.00  0.00    -0.247 A  
HETATM   11  N   UNL     1     -10.125  15.068  69.137  1.00  0.00    -0.240 NA 
HETATM   12  C   UNL     1      -9.272  16.049  69.352  1.00  0.00    -0.202 A  
HETATM   13  N   UNL     1      -8.950  16.720  68.200  1.00  0.00    -0.218 NA 
ENDROOT
BRANCH  13  14
HETATM   14  C1* UNL     1      -7.995  17.805  68.048  1.00  0.00    -0.244 C  
HETATM   15  O4* UNL     1      -8.521  19.001  68.676  1.00  0.00    -0.351 OA 
HETATM   16  C4* UNL     1      -9.165  19.806  67.665  1.00  0.00    -0.338 C  
HETATM   17  H2* UNL     1      -7.405  17.659  64.719  1.00  0.00     0.000 HD 
HETATM   18  C3* UNL     1      -8.402  19.544  66.375  1.00  0.00    -0.347 C  
HETATM   19  C2* UNL     1      -7.570  18.290  66.648  1.00  0.00    -0.233 C  
HETATM   20  O3* UNL     1      -7.516  20.625  66.069  1.00  0.00    -0.499 OA 
HETATM   21  H3* UNL     1      -7.040  20.461  65.263  1.00  0.00     0.000 HD 
HETATM   22  O2* UNL     1      -7.667  17.359  65.582  1.00  0.00    -0.452 OA 
BRANCH  16  23
HETATM   23  C5* UNL     1     -10.648  19.429  67.531  1.00  0.00    -0.474 C  
HETATM   24  O5* UNL     1     -11.017  19.363  66.159  1.00  0.00    -0.330 OA 
HETATM   25  H5* UNL     1     -11.934  19.130  66.076  1.00  0.00     0.000 HD 
ENDBRANCH  16  23
ENDBRANCH  13  14
TORSDOF 2
ENDMDL
MODEL       93
REMARK 921   NORMALIZED FREE ENERGY PREDICTED BY IDOCK:   -5.05 KCAL/MOL
REMARK 922        TOTAL FREE ENERGY PREDICTED BY IDOCK:   -5.07 KCAL/MOL
REMARK 923 INTER-LIGAND FREE ENERGY PREDICTED BY IDOCK:   -5.16 KCAL/MOL
REMARK 924 INTRA-LIGAND FREE ENERGY PREDICTED BY IDOCK:    0.09 KCAL/MOL
REMARK 927      BINDING AFFINITY PREDICTED BY RF-SCORE:    0.00 PKD
ROOT
HETATM    1  N   UNL     1     -11.486  12.355  64.916  1.00  0.00    -0.322 NA 
HETATM    2  C   UNL     1     -10.618  11.509  65.588  1.00  0.00    -0.274 A  
HETATM    3  H2  UNL     1     -11.742  11.928  64.026  1.00  0.00     0.000 HD 
HETATM    4  H1  UNL     1     -12.335  12.659  65.393  1.00  0.00     0.000 HD 
HETATM    5  N   UNL     1      -9.496  11.106  64.957  1.00  0.00    -0.225 NA 
HETATM    6  C   UNL     1      -8.679  10.241  65.592  1.00  0.00    -0.162 A  
HETATM    7  N   UNL     1      -8.846   9.689  66.812  1.00  0.00    -0.134 NA 
HETATM    8  F   UNL     1      -7.573   9.872  64.926  1.00  0.00    -0.112 F  
HETATM    9  C   UNL     1      -9.957  10.146  67.416  1.00  0.00    -0.195 A  
HETATM   10  C   UNL     1     -10.859  11.056  66.895  1.00  0.00    -0.269 A  
HETATM   11  N   UNL     1     -11.845  11.341  67.808  1.00  0.00    -0.638 NA 
HETATM   12  C   UNL     1     -11.552  10.608  68.862  1.00  0.00    -0.249 A  
HETATM   13  N   UNL     1     -10.477   9.785  68.641  1.00  0.00    -0.201 NA 
ENDROOT
BRANCH  13  14
HETATM   14  C1* UNL     1      -9.921   8.795  69.549  1.00  0.00    -0.195 C  
HETATM   15  O4* UNL     1      -9.303   7.732  68.780  1.00  0.00    -0.146 OA 
HETATM   16  C4* UNL     1     -10.252   6.653  68.640  1.00  0.00    -0.171 C  
HETATM   17  H2* UNL     1     -12.583   8.218  71.557  1.00  0.00     0.000 HD 
HETATM   18  C3* UNL     1     -11.104   6.682  69.900  1.00  0.00    -0.348 C  
HETATM   19  C2* UNL     1     -10.825   8.041  70.543  1.00  0.00    -0.241 C  
HETATM   20  O3* UNL     1     -10.712   5.653  70.814  1.00  0.00    -0.260 OA 
HETATM   21  H3* UNL     1     -11.244   5.671  71.601  1.00  0.00     0.000 HD 
HETATM   22  O2* UNL     1     -12.025   8.683  70.944  1.00  0.00    -0.276 OA 
BRANCH  16  23
HETATM   23  C5* UNL     1     -11.105   6.839  67.377  1.00  0.00    -0.295 C  
HETATM   24  O5* UNL     1     -10.271   6.949  66.230  1.00  0.00    -0.445 OA 
HETATM   25  H5* UNL     1     -10.798   7.063  65.449  1.00  0.00     0.000 HD 
ENDBRANCH  16  23
ENDBRANCH  13  14
TORSDOF 2
ENDMDL
MODEL       94
REMARK 921   NORMALIZED FREE ENERGY PREDICTED BY IDOCK:   -5.03 KCAL/MOL
REMARK 922        TOTAL FREE ENERGY PREDICTED BY IDOCK:   -5.05 KCAL/MOL
REMARK 923 INTER-LIGAND FREE ENERGY PREDICTED BY IDOCK:   -5.67 KCAL/MOL
REMARK 924 INTRA-LIGAND FREE ENERGY PREDICTED BY IDOCK:    0.62 KCAL/MOL
REMARK 927      BINDING AFFINITY PREDICTED BY RF-SCORE:    0.00 PKD
ROOT
HETATM    1  N   UNL     1     -10.670  15.866  64.793  1.00  0.00    -0.742 NA 
HETATM    2  C   UNL     1     -11.016  14.529  64.903  1.00  0.00    -0.410 A  
HETATM    3  H2  UNL     1     -11.515  16.414  64.630  1.00  0.00     0.000 HD 
HETATM    4  H1  UNL     1     -10.136  16.295  65.549  1.00  0.00     0.000 HD 
HETATM    5  N   UNL     1     -11.722  13.962  63.903  1.00  0.00    -0.283 NA 
HETATM    6  C   UNL     1     -12.103  12.676  64.037  1.00  0.00    -0.462 A  
HETATM    7  N   UNL     1     -11.883  11.852  65.083  1.00  0.00    -0.249 NA 
HETATM    8  F   UNL     1     -12.800  12.155  63.014  1.00  0.00    -0.588 F  
HETATM    9  C   UNL     1     -11.148  12.448  66.038  1.00  0.00    -0.308 A  
HETATM   10  C   UNL     1     -10.663  13.743  66.012  1.00  0.00    -0.284 A  
HETATM   11  N   UNL     1      -9.902  14.000  67.126  1.00  0.00    -0.235 NA 
HETATM   12  C   UNL     1      -9.932  12.882  67.822  1.00  0.00    -0.230 A  
HETATM   13  N   UNL     1     -10.759  11.942  67.261  1.00  0.00    -0.227 NA 
ENDROOT
BRANCH  13  14
HETATM   14  C1* UNL     1     -11.088  10.628  67.788  1.00  0.00    -0.321 C  
HETATM   15  O4* UNL     1     -10.701  10.559  69.183  1.00  0.00    -0.201 OA 
HETATM   16  C4* UNL     1      -9.394   9.951  69.267  1.00  0.00    -0.206 C  
HETATM   17  H2* UNL     1      -9.668   8.639  65.447  1.00  0.00     0.000 HD 
HETATM   18  C3* UNL     1      -9.312   8.975  68.103  1.00  0.00    -0.142 C  
HETATM   19  C2* UNL     1     -10.468   9.356  67.177  1.00  0.00    -0.244 C  
HETATM   20  O3* UNL     1      -9.501   7.627  68.542  1.00  0.00    -0.146 OA 
HETATM   21  H3* UNL     1      -9.449   7.018  67.815  1.00  0.00     0.000 HD 
HETATM   22  O2* UNL     1     -10.050   9.424  65.823  1.00  0.00    -0.288 OA 
BRANCH  16  23
HETATM   23  C5* UNL     1      -8.291  11.017  69.190  1.00  0.00    -0.026 C  
HETATM   24  O5* UNL     1      -7.268  10.603  68.293  1.00  0.00    -0.080 OA 
HETATM   25  H5* UNL     1      -6.586  11.263  68.244  1.00  0.00     0.000 HD 
ENDBRANCH  16  23
ENDBRANCH  13  14
TORSDOF 2
ENDMDL
MODEL       95
REMARK 921   NORMALIZED FREE ENERGY PREDICTED BY IDOCK:   -5.01 KCAL/MOL
REMARK 922        TOTAL FREE ENERGY PREDICTED BY IDOCK:   -5.03 KCAL/MOL
REMARK 923 INTER-LIGAND FREE ENERGY PREDICTED BY IDOCK:   -4.77 KCAL/MOL
REMARK 924 INTRA-LIGAND FREE ENERGY PREDICTED BY IDOCK:   -0.26 KCAL/MOL
REMARK 927      BINDING AFFINITY PREDICTED BY RF-SCORE:    0.00 PKD
ROOT
HETATM    1  N   UNL     1      -9.784   9.045  65.687  1.00  0.00    -0.462 NA 
HETATM    2  C   UNL     1      -9.439   8.038  66.574  1.00  0.00    -0.214 A  
HETATM    3  H2  UNL     1     -10.538   8.713  65.086  1.00  0.00     0.000 HD 
HETATM    4  H1  UNL     1     -10.037   9.959  66.063  1.00  0.00     0.000 HD 
HETATM    5  N   UNL     1      -9.104   6.829  66.076  1.00  0.00    -0.119 NA 
HETATM    6  C   UNL     1      -8.820   5.836  66.943  1.00  0.00    -0.114 A  
HETATM    7  N   UNL     1      -8.844   5.882  68.291  1.00  0.00    -0.111 NA 
HETATM    8  F   UNL     1      -8.489   4.653  66.400  1.00  0.00    -0.109 F  
HETATM    9  C   UNL     1      -9.147   7.112  68.740  1.00  0.00    -0.134 A  
HETATM   10  C   UNL     1      -9.424   8.225  67.965  1.00  0.00    -0.140 A  
HETATM   11  N   UNL     1      -9.634   9.328  68.755  1.00  0.00    -0.153 NA 
HETATM   12  C   UNL     1      -9.496   8.891  69.990  1.00  0.00    -0.178 A  
HETATM   13  N   UNL     1      -9.305   7.534  70.044  1.00  0.00    -0.154 NA 
ENDROOT
BRANCH  13  14
HETATM   14  C1* UNL     1      -9.187   6.705  71.232  1.00  0.00    -0.155 C  
HETATM   15  O4* UNL     1     -10.334   5.822  71.318  1.00  0.00    -0.206 OA 
HETATM   16  C4* UNL     1     -11.316   6.427  72.185  1.00  0.00    -0.290 C  
HETATM   17  H2* UNL     1      -8.578   9.060  73.584  1.00  0.00     0.000 HD 
HETATM   18  C3* UNL     1     -10.529   7.232  73.209  1.00  0.00    -0.370 C  
HETATM   19  C2* UNL     1      -9.117   7.342  72.634  1.00  0.00    -0.139 C  
HETATM   20  O3* UNL     1     -10.462   6.549  74.464  1.00  0.00    -0.375 OA 
HETATM   21  H3* UNL     1      -9.970   7.052  75.103  1.00  0.00     0.000 HD 
HETATM   22  O2* UNL     1      -8.621   8.668  72.719  1.00  0.00    -0.394 OA 
BRANCH  16  23
HETATM   23  C5* UNL     1     -12.277   7.319  71.383  1.00  0.00    -0.349 C  
HETATM   24  O5* UNL     1     -12.411   6.827  70.055  1.00  0.00    -0.605 OA 
HETATM   25  H5* UNL     1     -13.005   7.378  69.559  1.00  0.00     0.000 HD 
ENDBRANCH  16  23
ENDBRANCH  13  14
TORSDOF 2
ENDMDL
MODEL       96
REMARK 921   NORMALIZED FREE ENERGY PREDICTED BY IDOCK:   -5.01 KCAL/MOL
REMARK 922        TOTAL FREE ENERGY PREDICTED BY IDOCK:   -5.02 KCAL/MOL
REMARK 923 INTER-LIGAND FREE ENERGY PREDICTED BY IDOCK:   -5.59 KCAL/MOL
REMARK 924 INTRA-LIGAND FREE ENERGY PREDICTED BY IDOCK:    0.57 KCAL/MOL
REMARK 927      BINDING AFFINITY PREDICTED BY RF-SCORE:    0.00 PKD
ROOT
HETATM    1  N   UNL     1     -12.080  12.996  70.533  1.00  0.00    -0.493 NA 
HETATM    2  C   UNL     1     -11.826  12.448  69.287  1.00  0.00    -0.304 A  
HETATM    3  H2  UNL     1     -13.067  13.248  70.589  1.00  0.00     0.000 HD 
HETATM    4  H1  UNL     1     -11.828  12.458  71.363  1.00  0.00     0.000 HD 
HETATM    5  N   UNL     1     -12.160  13.159  68.190  1.00  0.00    -0.269 NA 
HETATM    6  C   UNL     1     -11.960  12.601  66.979  1.00  0.00    -0.260 A  
HETATM    7  N   UNL     1     -11.470  11.374  66.704  1.00  0.00    -0.408 NA 
HETATM    8  F   UNL     1     -12.304  13.349  65.918  1.00  0.00    -0.417 F  
HETATM    9  C   UNL     1     -11.120  10.717  67.823  1.00  0.00    -0.318 A  
HETATM   10  C   UNL     1     -11.237  11.184  69.120  1.00  0.00    -0.264 A  
HETATM   11  N   UNL     1     -10.727  10.273  70.013  1.00  0.00    -0.289 NA 
HETATM   12  C   UNL     1     -10.316   9.266  69.270  1.00  0.00    -0.215 A  
HETATM   13  N   UNL     1     -10.625   9.435  67.945  1.00  0.00    -0.245 NA 
ENDROOT
BRANCH  13  14
HETATM   14  C1* UNL     1     -10.390   8.502  66.856  1.00  0.00    -0.297 C  
HETATM   15  O4* UNL     1     -11.237   7.338  67.030  1.00  0.00    -0.221 OA 
HETATM   16  C4* UNL     1     -10.474   6.310  67.698  1.00  0.00    -0.230 C  
HETATM   17  H2* UNL     1      -7.015   8.272  66.942  1.00  0.00     0.000 HD 
HETATM   18  C3* UNL     1      -9.033   6.504  67.253  1.00  0.00    -0.114 C  
HETATM   19  C2* UNL     1      -8.991   7.897  66.624  1.00  0.00    -0.151 C  
HETATM   20  O3* UNL     1      -8.663   5.542  66.260  1.00  0.00    -0.120 OA 
HETATM   21  H3* UNL     1      -7.762   5.664  65.983  1.00  0.00     0.000 HD 
HETATM   22  O2* UNL     1      -7.878   8.645  67.086  1.00  0.00    -0.095 OA 
BRANCH  16  23
HETATM   23  C5* UNL     1     -10.616   6.429  69.223  1.00  0.00    -0.259 C  
HETATM   24  O5* UNL     1     -11.990   6.478  69.588  1.00  0.00    -0.618 OA 
HETATM   25  H5* UNL     1     -12.077   6.552  70.530  1.00  0.00     0.000 HD 
ENDBRANCH  16  23
ENDBRANCH  13  14
TORSDOF 2
ENDMDL
MODEL       97
REMARK 921   NORMALIZED FREE ENERGY PREDICTED BY IDOCK:   -5.00 KCAL/MOL
REMARK 922        TOTAL FREE ENERGY PREDICTED BY IDOCK:   -5.01 KCAL/MOL
REMARK 923 INTER-LIGAND FREE ENERGY PREDICTED BY IDOCK:   -5.05 KCAL/MOL
REMARK 924 INTRA-LIGAND FREE ENERGY PREDICTED BY IDOCK:    0.03 KCAL/MOL
REMARK 927      BINDING AFFINITY PREDICTED BY RF-SCORE:    0.00 PKD
ROOT
HETATM    1  N   UNL     1     -12.019  14.756  67.566  1.00  0.00    -0.508 NA 
HETATM    2  C   UNL     1     -11.729  13.410  67.412  1.00  0.00    -0.373 A  
HETATM    3  H2  UNL     1     -11.545  15.104  68.400  1.00  0.00     0.000 HD 
HETATM    4  H1  UNL     1     -11.827  15.387  66.788  1.00  0.00     0.000 HD 
HETATM    5  N   UNL     1     -11.982  12.575  68.441  1.00  0.00    -0.290 NA 
HETATM    6  C   UNL     1     -11.650  11.275  68.308  1.00  0.00    -0.300 A  
HETATM    7  N   UNL     1     -11.060  10.675  67.254  1.00  0.00    -0.295 NA 
HETATM    8  F   UNL     1     -11.926  10.483  69.357  1.00  0.00    -0.314 F  
HETATM    9  C   UNL     1     -10.859  11.537  66.242  1.00  0.00    -0.282 A  
HETATM   10  C   UNL     1     -11.183  12.882  66.231  1.00  0.00    -0.301 A  
HETATM   11  N   UNL     1     -10.891  13.444  65.012  1.00  0.00    -0.311 NA 
HETATM   12  C   UNL     1     -10.389  12.458  64.298  1.00  0.00    -0.362 A  
HETATM   13  N   UNL     1     -10.248  11.305  65.027  1.00  0.00    -0.267 NA 
ENDROOT
BRANCH  13  14
HETATM   14  C1* UNL     1      -9.667  10.047  64.588  1.00  0.00    -0.269 C  
HETATM   15  O4* UNL     1      -8.951   9.437  65.692  1.00  0.00    -0.166 OA 
HETATM   16  C4* UNL     1      -7.556   9.791  65.587  1.00  0.00    -0.109 C  
HETATM   17  H2* UNL     1      -8.075  11.040  61.771  1.00  0.00     0.000 HD 
HETATM   18  C3* UNL     1      -7.272   9.932  64.099  1.00  0.00    -0.134 C  
HETATM   19  C2* UNL     1      -8.646  10.011  63.433  1.00  0.00    -0.204 C  
HETATM   20  O3* UNL     1      -6.582   8.785  63.593  1.00  0.00    -0.087 OA 
HETATM   21  H3* UNL     1      -6.405   8.873  62.663  1.00  0.00     0.000 HD 
HETATM   22  O2* UNL     1      -8.704  11.063  62.483  1.00  0.00    -0.271 OA 
BRANCH  16  23
HETATM   23  C5* UNL     1      -7.266  11.096  66.344  1.00  0.00    -0.094 C  
HETATM   24  O5* UNL     1      -7.879  11.068  67.626  1.00  0.00    -0.110 OA 
HETATM   25  H5* UNL     1      -7.700  11.875  68.094  1.00  0.00     0.000 HD 
ENDBRANCH  16  23
ENDBRANCH  13  14
TORSDOF 2
ENDMDL
MODEL       98
REMARK 921   NORMALIZED FREE ENERGY PREDICTED BY IDOCK:   -4.99 KCAL/MOL
REMARK 922        TOTAL FREE ENERGY PREDICTED BY IDOCK:   -5.00 KCAL/MOL
REMARK 923 INTER-LIGAND FREE ENERGY PREDICTED BY IDOCK:   -4.94 KCAL/MOL
REMARK 924 INTRA-LIGAND FREE ENERGY PREDICTED BY IDOCK:   -0.06 KCAL/MOL
REMARK 927      BINDING AFFINITY PREDICTED BY RF-SCORE:    0.00 PKD
ROOT
HETATM    1  N   UNL     1     -11.392   4.380  64.985  1.00  0.00    -1.102 NA 
HETATM    2  C   UNL     1     -10.416   4.518  65.958  1.00  0.00    -0.198 A  
HETATM    3  H2  UNL     1     -11.880   3.495  65.128  1.00  0.00     0.000 HD 
HETATM    4  H1  UNL     1     -12.081   5.125  64.877  1.00  0.00     0.000 HD 
HETATM    5  N   UNL     1      -9.506   3.533  66.101  1.00  0.00    -0.165 NA 
HETATM    6  C   UNL     1      -8.589   3.644  67.084  1.00  0.00    -0.108 A  
HETATM    7  N   UNL     1      -8.465   4.636  67.991  1.00  0.00    -0.101 NA 
HETATM    8  F   UNL     1      -7.702   2.642  67.184  1.00  0.00    -0.066 F  
HETATM    9  C   UNL     1      -9.370   5.610  67.788  1.00  0.00    -0.110 A  
HETATM   10  C   UNL     1     -10.338   5.639  66.800  1.00  0.00    -0.262 A  
HETATM   11  N   UNL     1     -11.050   6.812  66.851  1.00  0.00    -0.348 NA 
HETATM   12  C   UNL     1     -10.529   7.480  67.860  1.00  0.00    -0.204 A  
HETATM   13  N   UNL     1      -9.578   6.754  68.530  1.00  0.00    -0.130 NA 
ENDROOT
BRANCH  13  14
HETATM   14  C1* UNL     1      -8.850   7.143  69.726  1.00  0.00    -0.142 C  
HETATM   15  O4* UNL     1      -9.202   6.251  70.814  1.00  0.00    -0.153 OA 
HETATM   16  C4* UNL     1     -10.248   6.869  71.595  1.00  0.00    -0.191 C  
HETATM   17  H2* UNL     1      -9.552  10.451  69.842  1.00  0.00     0.000 HD 
HETATM   18  C3* UNL     1     -10.010   8.368  71.498  1.00  0.00    -0.217 C  
HETATM   19  C2* UNL     1      -9.031   8.546  70.338  1.00  0.00    -0.152 C  
HETATM   20  O3* UNL     1      -9.403   8.873  72.692  1.00  0.00    -0.266 OA 
HETATM   21  H3* UNL     1      -9.255   9.810  72.632  1.00  0.00     0.000 HD 
HETATM   22  O2* UNL     1      -9.441   9.586  69.465  1.00  0.00    -0.164 OA 
BRANCH  16  23
HETATM   23  C5* UNL     1     -11.633   6.481  71.054  1.00  0.00    -0.348 C  
HETATM   24  O5* UNL     1     -12.368   7.646  70.701  1.00  0.00    -0.516 OA 
HETATM   25  H5* UNL     1     -13.224   7.407  70.367  1.00  0.00     0.000 HD 
ENDBRANCH  16  23
ENDBRANCH  13  14
TORSDOF 2
ENDMDL
MODEL       99
REMARK 921   NORMALIZED FREE ENERGY PREDICTED BY IDOCK:   -4.96 KCAL/MOL
REMARK 922        TOTAL FREE ENERGY PREDICTED BY IDOCK:   -4.97 KCAL/MOL
REMARK 923 INTER-LIGAND FREE ENERGY PREDICTED BY IDOCK:   -5.15 KCAL/MOL
REMARK 924 INTRA-LIGAND FREE ENERGY PREDICTED BY IDOCK:    0.19 KCAL/MOL
REMARK 927      BINDING AFFINITY PREDICTED BY RF-SCORE:    0.00 PKD
ROOT
HETATM    1  N   UNL     1      -7.768  17.726  65.717  1.00  0.00    -0.549 NA 
HETATM    2  C   UNL     1      -7.845  16.806  66.749  1.00  0.00    -0.246 A  
HETATM    3  H2  UNL     1      -6.793  17.825  65.433  1.00  0.00     0.000 HD 
HETATM    4  H1  UNL     1      -8.341  17.576  64.886  1.00  0.00     0.000 HD 
HETATM    5  N   UNL     1      -7.087  17.004  67.847  1.00  0.00    -0.154 NA 
HETATM    6  C   UNL     1      -7.124  16.080  68.828  1.00  0.00    -0.146 A  
HETATM    7  N   UNL     1      -7.828  14.929  68.854  1.00  0.00    -0.151 NA 
HETATM    8  F   UNL     1      -6.356  16.324  69.901  1.00  0.00    -0.189 F  
HETATM    9  C   UNL     1      -8.594  14.791  67.757  1.00  0.00    -0.166 A  
HETATM   10  C   UNL     1      -8.678  15.676  66.698  1.00  0.00    -0.298 A  
HETATM   11  N   UNL     1      -9.603  15.247  65.777  1.00  0.00    -0.342 NA 
HETATM   12  C   UNL     1     -10.065  14.114  66.265  1.00  0.00    -0.300 A  
HETATM   13  N   UNL     1      -9.413  13.736  67.411  1.00  0.00    -0.216 NA 
ENDROOT
BRANCH  13  14
HETATM   14  C1* UNL     1      -9.608  12.517  68.177  1.00  0.00    -0.215 C  
HETATM   15  O4* UNL     1      -8.676  11.506  67.717  1.00  0.00    -0.134 OA 
HETATM   16  C4* UNL     1      -9.345  10.668  66.752  1.00  0.00    -0.157 C  
HETATM   17  H2* UNL     1     -12.955  12.116  67.878  1.00  0.00     0.000 HD 
HETATM   18  C3* UNL     1     -10.808  10.638  67.169  1.00  0.00    -0.270 C  
HETATM   19  C2* UNL     1     -10.965  11.787  68.165  1.00  0.00    -0.228 C  
HETATM   20  O3* UNL     1     -11.134   9.411  67.829  1.00  0.00    -0.504 OA 
HETATM   21  H3* UNL     1     -12.048   9.393  68.089  1.00  0.00     0.000 HD 
HETATM   22  O2* UNL     1     -12.118  12.566  67.885  1.00  0.00    -0.384 OA 
BRANCH  16  23
HETATM   23  C5* UNL     1      -9.174  11.229  65.332  1.00  0.00    -0.183 C  
HETATM   24  O5* UNL     1      -9.945  10.472  64.407  1.00  0.00    -0.321 OA 
HETATM   25  H5* UNL     1      -9.840  10.818  63.529  1.00  0.00     0.000 HD 
ENDBRANCH  16  23
ENDBRANCH  13  14
TORSDOF 2
ENDMDL
MODEL      100
REMARK 921   NORMALIZED FREE ENERGY PREDICTED BY IDOCK:   -4.91 KCAL/MOL
REMARK 922        TOTAL FREE ENERGY PREDICTED BY IDOCK:   -4.91 KCAL/MOL
REMARK 923 INTER-LIGAND FREE ENERGY PREDICTED BY IDOCK:   -4.66 KCAL/MOL
REMARK 924 INTRA-LIGAND FREE ENERGY PREDICTED BY IDOCK:   -0.25 KCAL/MOL
REMARK 927      BINDING AFFINITY PREDICTED BY RF-SCORE:    0.00 PKD
ROOT
HETATM    1  N   UNL     1      -7.800   4.258  74.328  1.00  0.00    -0.090 NA 
HETATM    2  C   UNL     1      -8.679   4.414  73.268  1.00  0.00    -0.100 A  
HETATM    3  H2  UNL     1      -6.860   4.116  73.961  1.00  0.00     0.000 HD 
HETATM    4  H1  UNL     1      -7.770   4.983  75.046  1.00  0.00     0.000 HD 
HETATM    5  N   UNL     1      -8.719   3.456  72.319  1.00  0.00    -0.086 NA 
HETATM    6  C   UNL     1      -9.535   3.636  71.262  1.00  0.00    -0.161 A  
HETATM    7  N   UNL     1     -10.335   4.692  71.003  1.00  0.00    -0.133 NA 
HETATM    8  F   UNL     1      -9.544   2.653  70.346  1.00  0.00    -0.203 F  
HETATM    9  C   UNL     1     -10.288   5.603  71.990  1.00  0.00    -0.212 A  
HETATM   10  C   UNL     1      -9.525   5.528  73.142  1.00  0.00    -0.143 A  
HETATM   11  N   UNL     1      -9.769   6.605  73.958  1.00  0.00    -0.232 NA 
HETATM   12  C   UNL     1     -10.658   7.327  73.308  1.00  0.00    -0.382 A  
HETATM   13  N   UNL     1     -10.930   6.822  72.063  1.00  0.00    -0.231 NA 
ENDROOT
BRANCH  13  14
HETATM   14  C1* UNL     1     -11.800   7.392  71.049  1.00  0.00    -0.307 C  
HETATM   15  O4* UNL     1     -11.011   7.757  69.888  1.00  0.00    -0.248 OA 
HETATM   16  C4* UNL     1     -10.676   9.158  69.981  1.00  0.00    -0.232 C  
HETATM   17  H2* UNL     1     -13.454   9.714  72.873  1.00  0.00     0.000 HD 
HETATM   18  C3* UNL     1     -11.835   9.816  70.714  1.00  0.00    -0.319 C  
HETATM   19  C2* UNL     1     -12.622   8.664  71.339  1.00  0.00    -0.291 C  
HETATM   20  O3* UNL     1     -12.691  10.516  69.806  1.00  0.00    -0.539 OA 
HETATM   21  H3* UNL     1     -13.415  10.928  70.264  1.00  0.00     0.000 HD 
HETATM   22  O2* UNL     1     -12.947   8.930  72.694  1.00  0.00    -0.407 OA 
BRANCH  16  23
HETATM   23  C5* UNL     1      -9.350   9.352  70.732  1.00  0.00    -0.226 C  
HETATM   24  O5* UNL     1      -8.497   8.233  70.522  1.00  0.00    -0.121 OA 
HETATM   25  H5* UNL     1      -7.677   8.353  70.985  1.00  0.00     0.000 HD 
ENDBRANCH  16  23
ENDBRANCH  13  14
TORSDOF 2
ENDMDL
MODEL      101
REMARK 921   NORMALIZED FREE ENERGY PREDICTED BY IDOCK:   -4.91 KCAL/MOL
REMARK 922        TOTAL FREE ENERGY PREDICTED BY IDOCK:   -4.91 KCAL/MOL
REMARK 923 INTER-LIGAND FREE ENERGY PREDICTED BY IDOCK:   -6.39 KCAL/MOL
REMARK 924 INTRA-LIGAND FREE ENERGY PREDICTED BY IDOCK:    1.48 KCAL/MOL
REMARK 927      BINDING AFFINITY PREDICTED BY RF-SCORE:    0.00 PKD
ROOT
HETATM    1  N   UNL     1     -11.772  16.382  71.500  1.00  0.00    -0.653 NA 
HETATM    2  C   UNL     1     -11.473  16.053  70.188  1.00  0.00    -0.344 A  
HETATM    3  H2  UNL     1     -12.358  17.217  71.507  1.00  0.00     0.000 HD 
HETATM    4  H1  UNL     1     -12.200  15.672  72.094  1.00  0.00     0.000 HD 
HETATM    5  N   UNL     1     -10.907  16.992  69.402  1.00  0.00    -0.204 NA 
HETATM    6  C   UNL     1     -10.665  16.688  68.111  1.00  0.00    -0.349 A  
HETATM    7  N   UNL     1     -10.940  15.533  67.468  1.00  0.00    -0.317 NA 
HETATM    8  F   UNL     1     -10.098  17.653  67.370  1.00  0.00    -0.287 F  
HETATM    9  C   UNL     1     -11.469  14.617  68.297  1.00  0.00    -0.314 A  
HETATM   10  C   UNL     1     -11.735  14.785  69.644  1.00  0.00    -0.314 A  
HETATM   11  N   UNL     1     -12.220  13.623  70.193  1.00  0.00    -0.345 NA 
HETATM   12  C   UNL     1     -12.257  12.767  69.193  1.00  0.00    -0.018 A  
HETATM   13  N   UNL     1     -11.913  13.346  67.998  1.00  0.00    -0.347 NA 
ENDROOT
BRANCH  13  14
HETATM   14  C1* UNL     1     -11.912  12.726  66.684  1.00  0.00    -0.341 C  
HETATM   15  O4* UNL     1     -10.840  11.753  66.613  1.00  0.00    -0.251 OA 
HETATM   16  C4* UNL     1      -9.690  12.378  66.004  1.00  0.00    -0.244 C  
HETATM   17  H2* UNL     1     -11.960  15.465  64.697  1.00  0.00     0.000 HD 
HETATM   18  C3* UNL     1     -10.242  13.408  65.031  1.00  0.00    -0.307 C  
HETATM   19  C2* UNL     1     -11.713  13.574  65.412  1.00  0.00    -0.332 C  
HETATM   20  O3* UNL     1     -10.169  12.937  63.682  1.00  0.00    -0.604 OA 
HETATM   21  H3* UNL     1     -10.514  13.580  63.073  1.00  0.00     0.000 HD 
HETATM   22  O2* UNL     1     -12.082  14.942  65.482  1.00  0.00    -0.195 OA 
BRANCH  16  23
HETATM   23  C5* UNL     1      -8.797  13.031  67.071  1.00  0.00    -0.212 C  
HETATM   24  O5* UNL     1      -8.373  14.318  66.638  1.00  0.00    -0.412 OA 
HETATM   25  H5* UNL     1      -7.822  14.722  67.297  1.00  0.00     0.000 HD 
ENDBRANCH  16  23
ENDBRANCH  13  14
TORSDOF 2
ENDMDL
MODEL      102
REMARK 921   NORMALIZED FREE ENERGY PREDICTED BY IDOCK:   -4.85 KCAL/MOL
REMARK 922        TOTAL FREE ENERGY PREDICTED BY IDOCK:   -4.84 KCAL/MOL
REMARK 923 INTER-LIGAND FREE ENERGY PREDICTED BY IDOCK:   -5.56 KCAL/MOL
REMARK 924 INTRA-LIGAND FREE ENERGY PREDICTED BY IDOCK:    0.72 KCAL/MOL
REMARK 927      BINDING AFFINITY PREDICTED BY RF-SCORE:    0.00 PKD
ROOT
HETATM    1  N   UNL     1     -12.309  13.980  68.425  1.00  0.00    -0.504 NA 
HETATM    2  C   UNL     1     -11.699  12.811  67.998  1.00  0.00    -0.356 A  
HETATM    3  H2  UNL     1     -13.111  14.173  67.825  1.00  0.00     0.000 HD 
HETATM    4  H1  UNL     1     -12.600  14.048  69.401  1.00  0.00     0.000 HD 
HETATM    5  N   UNL     1     -11.314  12.721  66.708  1.00  0.00    -0.296 NA 
HETATM    6  C   UNL     1     -10.770  11.563  66.281  1.00  0.00    -0.272 A  
HETATM    7  N   UNL     1     -10.566  10.434  66.991  1.00  0.00    -0.251 NA 
HETATM    8  F   UNL     1     -10.399  11.523  64.992  1.00  0.00    -0.271 F  
HETATM    9  C   UNL     1     -10.931  10.582  68.276  1.00  0.00    -0.263 A  
HETATM   10  C   UNL     1     -11.467  11.720  68.851  1.00  0.00    -0.297 A  
HETATM   11  N   UNL     1     -11.667  11.538  70.198  1.00  0.00    -0.324 NA 
HETATM   12  C   UNL     1     -11.268  10.305  70.434  1.00  0.00    -0.332 A  
HETATM   13  N   UNL     1     -10.911   9.644  69.287  1.00  0.00    -0.204 NA 
ENDROOT
BRANCH  13  14
HETATM   14  C1* UNL     1     -10.493   8.258  69.159  1.00  0.00    -0.206 C  
HETATM   15  O4* UNL     1     -11.303   7.429  70.030  1.00  0.00    -0.227 OA 
HETATM   16  C4* UNL     1     -10.591   7.232  71.271  1.00  0.00    -0.220 C  
HETATM   17  H2* UNL     1      -7.152   8.567  69.603  1.00  0.00     0.000 HD 
HETATM   18  C3* UNL     1      -9.113   7.249  70.911  1.00  0.00    -0.151 C  
HETATM   19  C2* UNL     1      -9.050   7.836  69.500  1.00  0.00    -0.146 C  
HETATM   20  O3* UNL     1      -8.572   5.925  70.881  1.00  0.00    -0.128 OA 
HETATM   21  H3* UNL     1      -7.649   5.935  70.657  1.00  0.00     0.000 HD 
HETATM   22  O2* UNL     1      -8.042   8.828  69.393  1.00  0.00    -0.102 OA 
BRANCH  16  23
HETATM   23  C5* UNL     1     -10.939   8.337  72.280  1.00  0.00    -0.348 C  
HETATM   24  O5* UNL     1     -11.986   7.906  73.140  1.00  0.00    -0.662 OA 
HETATM   25  H5* UNL     1     -12.202   8.588  73.765  1.00  0.00     0.000 HD 
ENDBRANCH  16  23
ENDBRANCH  13  14
TORSDOF 2
ENDMDL
MODEL      103
REMARK 921   NORMALIZED FREE ENERGY PREDICTED BY IDOCK:   -4.81 KCAL/MOL
REMARK 922        TOTAL FREE ENERGY PREDICTED BY IDOCK:   -4.80 KCAL/MOL
REMARK 923 INTER-LIGAND FREE ENERGY PREDICTED BY IDOCK:   -4.55 KCAL/MOL
REMARK 924 INTRA-LIGAND FREE ENERGY PREDICTED BY IDOCK:   -0.25 KCAL/MOL
REMARK 927      BINDING AFFINITY PREDICTED BY RF-SCORE:    0.00 PKD
ROOT
HETATM    1  N   UNL     1     -11.315   6.186  69.948  1.00  0.00    -0.421 NA 
HETATM    2  C   UNL     1     -10.484   7.292  70.032  1.00  0.00    -0.224 A  
HETATM    3  H2  UNL     1     -11.996   6.226  70.706  1.00  0.00     0.000 HD 
HETATM    4  H1  UNL     1     -11.804   6.011  69.070  1.00  0.00     0.000 HD 
HETATM    5  N   UNL     1      -9.836   7.523  71.193  1.00  0.00    -0.174 NA 
HETATM    6  C   UNL     1      -9.070   8.629  71.290  1.00  0.00    -0.212 A  
HETATM    7  N   UNL     1      -8.869   9.581  70.355  1.00  0.00    -0.243 NA 
HETATM    8  F   UNL     1      -8.443   8.814  72.463  1.00  0.00    -0.231 F  
HETATM    9  C   UNL     1      -9.504   9.290  69.206  1.00  0.00    -0.160 A  
HETATM   10  C   UNL     1     -10.290   8.179  68.961  1.00  0.00    -0.218 A  
HETATM   11  N   UNL     1     -10.733   8.174  67.661  1.00  0.00    -0.186 NA 
HETATM   12  C   UNL     1     -10.234   9.270  67.129  1.00  0.00    -0.257 A  
HETATM   13  N   UNL     1      -9.568  10.038  68.049  1.00  0.00    -0.138 NA 
ENDROOT
BRANCH  13  14
HETATM   14  C1* UNL     1      -8.955  11.339  67.836  1.00  0.00    -0.146 C  
HETATM   15  O4* UNL     1      -9.664  12.337  68.612  1.00  0.00    -0.170 OA 
HETATM   16  C4* UNL     1     -10.640  12.975  67.760  1.00  0.00    -0.226 C  
HETATM   17  H2* UNL     1      -8.869  11.447  64.455  1.00  0.00     0.000 HD 
HETATM   18  C3* UNL     1     -10.044  12.958  66.360  1.00  0.00    -0.269 C  
HETATM   19  C2* UNL     1      -8.889  11.958  66.426  1.00  0.00    -0.152 C  
HETATM   20  O3* UNL     1      -9.520  14.241  66.005  1.00  0.00    -0.448 OA 
HETATM   21  H3* UNL     1      -9.148  14.231  65.130  1.00  0.00     0.000 HD 
HETATM   22  O2* UNL     1      -8.909  11.065  65.324  1.00  0.00    -0.191 OA 
BRANCH  16  23
HETATM   23  C5* UNL     1     -11.981  12.227  67.812  1.00  0.00    -0.159 C  
HETATM   24  O5* UNL     1     -12.129  11.570  69.065  1.00  0.00    -0.326 OA 
HETATM   25  H5* UNL     1     -12.958  11.108  69.098  1.00  0.00     0.000 HD 
ENDBRANCH  16  23
ENDBRANCH  13  14
TORSDOF 2
ENDMDL
MODEL      104
REMARK 921   NORMALIZED FREE ENERGY PREDICTED BY IDOCK:   -4.81 KCAL/MOL
REMARK 922        TOTAL FREE ENERGY PREDICTED BY IDOCK:   -4.79 KCAL/MOL
REMARK 923 INTER-LIGAND FREE ENERGY PREDICTED BY IDOCK:   -4.80 KCAL/MOL
REMARK 924 INTRA-LIGAND FREE ENERGY PREDICTED BY IDOCK:    0.00 KCAL/MOL
REMARK 927      BINDING AFFINITY PREDICTED BY RF-SCORE:    0.00 PKD
ROOT
HETATM    1  N   UNL     1      -8.347   6.439  67.940  1.00  0.00    -0.118 NA 
HETATM    2  C   UNL     1      -8.124   7.805  68.007  1.00  0.00    -0.123 A  
HETATM    3  H2  UNL     1      -8.362   6.059  68.886  1.00  0.00     0.000 HD 
HETATM    4  H1  UNL     1      -9.168   6.104  67.435  1.00  0.00     0.000 HD 
HETATM    5  N   UNL     1      -7.039   8.248  68.676  1.00  0.00    -0.071 NA 
HETATM    6  C   UNL     1      -6.853   9.579  68.786  1.00  0.00    -0.052 A  
HETATM    7  N   UNL     1      -7.644  10.566  68.316  1.00  0.00    -0.093 NA 
HETATM    8  F   UNL     1      -5.758   9.970  69.456  1.00  0.00    -0.037 F  
HETATM    9  C   UNL     1      -8.691  10.079  67.629  1.00  0.00    -0.121 A  
HETATM   10  C   UNL     1      -8.981   8.744  67.410  1.00  0.00    -0.133 A  
HETATM   11  N   UNL     1     -10.094   8.611  66.617  1.00  0.00    -0.287 NA 
HETATM   12  C   UNL     1     -10.480   9.845  66.367  1.00  0.00    -0.127 A  
HETATM   13  N   UNL     1      -9.728  10.773  67.041  1.00  0.00    -0.173 NA 
ENDROOT
BRANCH  13  14
HETATM   14  C1* UNL     1      -9.913  12.214  67.060  1.00  0.00    -0.202 C  
HETATM   15  O4* UNL     1      -9.782  12.698  68.421  1.00  0.00    -0.222 OA 
HETATM   16  C4* UNL     1     -11.101  12.808  68.998  1.00  0.00    -0.233 C  
HETATM   17  H2* UNL     1     -12.815  12.499  65.344  1.00  0.00     0.000 HD 
HETATM   18  C3* UNL     1     -12.033  13.149  67.846  1.00  0.00    -0.303 C  
HETATM   19  C2* UNL     1     -11.233  12.847  66.578  1.00  0.00    -0.302 C  
HETATM   20  O3* UNL     1     -12.377  14.538  67.851  1.00  0.00    -0.615 OA 
HETATM   21  H3* UNL     1     -12.960  14.750  67.131  1.00  0.00     0.000 HD 
HETATM   22  O2* UNL     1     -12.001  12.109  65.641  1.00  0.00    -0.503 OA 
BRANCH  16  23
HETATM   23  C5* UNL     1     -11.507  11.495  69.684  1.00  0.00    -0.301 C  
HETATM   24  O5* UNL     1     -12.481  10.813  68.905  1.00  0.00    -0.782 OA 
HETATM   25  H5* UNL     1     -12.732  10.001  69.329  1.00  0.00     0.000 HD 
ENDBRANCH  16  23
ENDBRANCH  13  14
TORSDOF 2
ENDMDL
MODEL      105
REMARK 921   NORMALIZED FREE ENERGY PREDICTED BY IDOCK:   -4.80 KCAL/MOL
REMARK 922        TOTAL FREE ENERGY PREDICTED BY IDOCK:   -4.79 KCAL/MOL
REMARK 923 INTER-LIGAND FREE ENERGY PREDICTED BY IDOCK:   -5.49 KCAL/MOL
REMARK 924 INTRA-LIGAND FREE ENERGY PREDICTED BY IDOCK:    0.71 KCAL/MOL
REMARK 927      BINDING AFFINITY PREDICTED BY RF-SCORE:    0.00 PKD
ROOT
HETATM    1  N   UNL     1     -10.537   5.406  69.554  1.00  0.00    -0.287 NA 
HETATM    2  C   UNL     1     -10.461   6.771  69.781  1.00  0.00    -0.210 A  
HETATM    3  H2  UNL     1     -11.284   5.016  70.129  1.00  0.00     0.000 HD 
HETATM    4  H1  UNL     1     -10.650   5.078  68.595  1.00  0.00     0.000 HD 
HETATM    5  N   UNL     1     -10.311   7.206  71.050  1.00  0.00    -0.197 NA 
HETATM    6  C   UNL     1     -10.291   8.535  71.274  1.00  0.00    -0.224 A  
HETATM    7  N   UNL     1     -10.423   9.529  70.370  1.00  0.00    -0.256 NA 
HETATM    8  F   UNL     1     -10.136   8.918  72.551  1.00  0.00    -0.347 F  
HETATM    9  C   UNL     1     -10.535   9.050  69.119  1.00  0.00    -0.225 A  
HETATM   10  C   UNL     1     -10.534   7.717  68.746  1.00  0.00    -0.181 A  
HETATM   11  N   UNL     1     -10.606   7.594  67.380  1.00  0.00    -0.289 NA 
HETATM   12  C   UNL     1     -10.660   8.831  66.932  1.00  0.00    -0.193 A  
HETATM   13  N   UNL     1     -10.726   9.751  67.947  1.00  0.00    -0.259 NA 
ENDROOT
BRANCH  13  14
HETATM   14  C1* UNL     1     -10.866  11.193  67.825  1.00  0.00    -0.239 C  
HETATM   15  O4* UNL     1     -11.574  11.505  66.599  1.00  0.00    -0.469 OA 
HETATM   16  C4* UNL     1     -10.604  11.799  65.570  1.00  0.00    -0.276 C  
HETATM   17  H2* UNL     1      -7.669  12.179  68.333  1.00  0.00     0.000 HD 
HETATM   18  C3* UNL     1      -9.413  12.419  66.285  1.00  0.00    -0.220 C  
HETATM   19  C2* UNL     1      -9.624  12.103  67.766  1.00  0.00    -0.195 C  
HETATM   20  O3* UNL     1      -9.392  13.840  66.118  1.00  0.00    -0.456 OA 
HETATM   21  H3* UNL     1      -8.648  14.228  66.565  1.00  0.00     0.000 HD 
HETATM   22  O2* UNL     1      -8.435  11.617  68.369  1.00  0.00    -0.151 OA 
BRANCH  16  23
HETATM   23  C5* UNL     1     -10.207  10.521  64.815  1.00  0.00    -0.303 C  
HETATM   24  O5* UNL     1     -10.533  10.643  63.436  1.00  0.00    -0.515 OA 
HETATM   25  H5* UNL     1     -10.288   9.853  62.969  1.00  0.00     0.000 HD 
ENDBRANCH  16  23
ENDBRANCH  13  14
TORSDOF 2
ENDMDL
MODEL      106
REMARK 921   NORMALIZED FREE ENERGY PREDICTED BY IDOCK:   -4.80 KCAL/MOL
REMARK 922        TOTAL FREE ENERGY PREDICTED BY IDOCK:   -4.78 KCAL/MOL
REMARK 923 INTER-LIGAND FREE ENERGY PREDICTED BY IDOCK:   -5.03 KCAL/MOL
REMARK 924 INTRA-LIGAND FREE ENERGY PREDICTED BY IDOCK:    0.24 KCAL/MOL
REMARK 927      BINDING AFFINITY PREDICTED BY RF-SCORE:    0.00 PKD
ROOT
HETATM    1  N   UNL     1      -9.441  11.236  65.085  1.00  0.00    -0.222 NA 
HETATM    2  C   UNL     1      -9.898  12.287  65.864  1.00  0.00    -0.251 A  
HETATM    3  H2  UNL     1      -9.603  11.458  64.103  1.00  0.00     0.000 HD 
HETATM    4  H1  UNL     1      -8.475  10.929  65.200  1.00  0.00     0.000 HD 
HETATM    5  N   UNL     1     -11.175  12.694  65.711  1.00  0.00    -0.300 NA 
HETATM    6  C   UNL     1     -11.601  13.751  66.432  1.00  0.00    -0.360 A  
HETATM    7  N   UNL     1     -10.893  14.497  67.306  1.00  0.00    -0.291 NA 
HETATM    8  F   UNL     1     -12.880  14.115  66.249  1.00  0.00    -0.480 F  
HETATM    9  C   UNL     1      -9.639  14.034  67.451  1.00  0.00    -0.227 A  
HETATM   10  C   UNL     1      -9.086  12.944  66.804  1.00  0.00    -0.211 A  
HETATM   11  N   UNL     1      -7.802  12.721  67.236  1.00  0.00    -0.169 NA 
HETATM   12  C   UNL     1      -7.576  13.666  68.125  1.00  0.00    -0.137 A  
HETATM   13  N   UNL     1      -8.617  14.553  68.218  1.00  0.00    -0.164 NA 
ENDROOT
BRANCH  13  14
HETATM   14  C1* UNL     1      -8.686  15.752  69.037  1.00  0.00    -0.237 C  
HETATM   15  O4* UNL     1      -9.385  16.792  68.308  1.00  0.00    -0.218 OA 
HETATM   16  C4* UNL     1      -8.409  17.635  67.659  1.00  0.00    -0.226 C  
HETATM   17  H2* UNL     1      -5.441  16.087  69.935  1.00  0.00     0.000 HD 
HETATM   18  C3* UNL     1      -7.184  17.625  68.561  1.00  0.00    -0.242 C  
HETATM   19  C2* UNL     1      -7.401  16.453  69.519  1.00  0.00    -0.044 C  
HETATM   20  O3* UNL     1      -7.094  18.831  69.326  1.00  0.00    -0.271 OA 
HETATM   21  H3* UNL     1      -6.328  18.824  69.889  1.00  0.00     0.000 HD 
HETATM   22  O2* UNL     1      -6.234  15.655  69.638  1.00  0.00    -0.146 OA 
BRANCH  16  23
HETATM   23  C5* UNL     1      -8.081  17.108  66.254  1.00  0.00    -0.290 C  
HETATM   24  O5* UNL     1      -7.376  18.094  65.511  1.00  0.00    -0.543 OA 
HETATM   25  H5* UNL     1      -7.172  17.768  64.642  1.00  0.00     0.000 HD 
ENDBRANCH  16  23
ENDBRANCH  13  14
TORSDOF 2
ENDMDL
MODEL      107
REMARK 921   NORMALIZED FREE ENERGY PREDICTED BY IDOCK:   -4.79 KCAL/MOL
REMARK 922        TOTAL FREE ENERGY PREDICTED BY IDOCK:   -4.77 KCAL/MOL
REMARK 923 INTER-LIGAND FREE ENERGY PREDICTED BY IDOCK:   -5.53 KCAL/MOL
REMARK 924 INTRA-LIGAND FREE ENERGY PREDICTED BY IDOCK:    0.76 KCAL/MOL
REMARK 927      BINDING AFFINITY PREDICTED BY RF-SCORE:    0.00 PKD
ROOT
HETATM    1  N   UNL     1     -12.212  14.011  67.071  1.00  0.00    -0.520 NA 
HETATM    2  C   UNL     1     -12.031  13.188  68.171  1.00  0.00    -0.294 A  
HETATM    3  H2  UNL     1     -11.721  14.890  67.231  1.00  0.00     0.000 HD 
HETATM    4  H1  UNL     1     -11.961  13.654  66.149  1.00  0.00     0.000 HD 
HETATM    5  N   UNL     1     -12.363  13.660  69.390  1.00  0.00    -0.244 NA 
HETATM    6  C   UNL     1     -12.136  12.878  70.464  1.00  0.00    -0.282 A  
HETATM    7  N   UNL     1     -11.584  11.646  70.490  1.00  0.00    -0.096 NA 
HETATM    8  F   UNL     1     -12.486  13.390  71.655  1.00  0.00    -0.384 F  
HETATM    9  C   UNL     1     -11.302  11.204  69.252  1.00  0.00    -0.281 A  
HETATM   10  C   UNL     1     -11.516  11.885  68.067  1.00  0.00    -0.323 A  
HETATM   11  N   UNL     1     -11.166  11.110  66.989  1.00  0.00    -0.363 NA 
HETATM   12  C   UNL     1     -10.737   9.979  67.512  1.00  0.00    -0.281 A  
HETATM   13  N   UNL     1     -10.699  10.020  68.882  1.00  0.00    -0.211 NA 
ENDROOT
BRANCH  13  14
HETATM   14  C1* UNL     1     -10.216   8.987  69.783  1.00  0.00    -0.205 C  
HETATM   15  O4* UNL     1      -9.443   8.017  69.033  1.00  0.00    -0.151 OA 
HETATM   16  C4* UNL     1     -10.304   6.912  68.685  1.00  0.00    -0.186 C  
HETATM   17  H2* UNL     1     -13.089   8.135  71.356  1.00  0.00     0.000 HD 
HETATM   18  C3* UNL     1     -11.318   6.802  69.813  1.00  0.00    -0.296 C  
HETATM   19  C2* UNL     1     -11.204   8.117  70.585  1.00  0.00    -0.260 C  
HETATM   20  O3* UNL     1     -10.997   5.723  70.695  1.00  0.00    -0.288 OA 
HETATM   21  H3* UNL     1     -11.631   5.654  71.400  1.00  0.00     0.000 HD 
HETATM   22  O2* UNL     1     -12.480   8.671  70.861  1.00  0.00    -0.167 OA 
BRANCH  16  23
HETATM   23  C5* UNL     1     -10.988   7.159  67.332  1.00  0.00    -0.226 C  
HETATM   24  O5* UNL     1     -10.721   6.083  66.441  1.00  0.00    -0.479 OA 
HETATM   25  H5* UNL     1     -11.145   6.236  65.605  1.00  0.00     0.000 HD 
ENDBRANCH  16  23
ENDBRANCH  13  14
TORSDOF 2
ENDMDL
MODEL      108
REMARK 921   NORMALIZED FREE ENERGY PREDICTED BY IDOCK:   -4.75 KCAL/MOL
REMARK 922        TOTAL FREE ENERGY PREDICTED BY IDOCK:   -4.73 KCAL/MOL
REMARK 923 INTER-LIGAND FREE ENERGY PREDICTED BY IDOCK:   -5.44 KCAL/MOL
REMARK 924 INTRA-LIGAND FREE ENERGY PREDICTED BY IDOCK:    0.71 KCAL/MOL
REMARK 927      BINDING AFFINITY PREDICTED BY RF-SCORE:    0.00 PKD
ROOT
HETATM    1  N   UNL     1     -11.047  12.983  68.103  1.00  0.00    -0.243 NA 
HETATM    2  C   UNL     1     -10.813  14.027  67.223  1.00  0.00    -0.284 A  
HETATM    3  H2  UNL     1     -11.007  12.102  67.591  1.00  0.00     0.000 HD 
HETATM    4  H1  UNL     1     -10.462  12.909  68.936  1.00  0.00     0.000 HD 
HETATM    5  N   UNL     1     -11.586  14.125  66.122  1.00  0.00    -0.358 NA 
HETATM    6  C   UNL     1     -11.323  15.110  65.239  1.00  0.00    -0.318 A  
HETATM    7  N   UNL     1     -10.343  16.036  65.300  1.00  0.00    -0.533 NA 
HETATM    8  F   UNL     1     -12.122  15.170  64.162  1.00  0.00    -0.459 F  
HETATM    9  C   UNL     1      -9.621  15.920  66.429  1.00  0.00    -0.287 A  
HETATM   10  C   UNL     1      -9.806  14.983  67.429  1.00  0.00    -0.224 A  
HETATM   11  N   UNL     1      -8.927  15.196  68.463  1.00  0.00    -0.179 NA 
HETATM   12  C   UNL     1      -8.214  16.239  68.091  1.00  0.00    -0.163 A  
HETATM   13  N   UNL     1      -8.521  16.654  66.821  1.00  0.00    -0.211 NA 
ENDROOT
BRANCH  13  14
HETATM   14  C1* UNL     1      -7.890  17.722  66.063  1.00  0.00    -0.158 C  
HETATM   15  O4* UNL     1      -6.609  18.042  66.661  1.00  0.00    -0.174 OA 
HETATM   16  C4* UNL     1      -6.785  19.165  67.552  1.00  0.00    -0.199 C  
HETATM   17  H2* UNL     1     -10.409  19.979  65.942  1.00  0.00     0.000 HD 
HETATM   18  C3* UNL     1      -7.904  20.001  66.952  1.00  0.00    -0.305 C  
HETATM   19  C2* UNL     1      -8.574  19.095  65.918  1.00  0.00     0.065 C  
HETATM   20  O3* UNL     1      -7.387  21.156  66.284  1.00  0.00    -0.478 OA 
HETATM   21  H3* UNL     1      -8.087  21.679  65.909  1.00  0.00     0.000 HD 
HETATM   22  O2* UNL     1      -9.987  19.131  66.031  1.00  0.00    -0.405 OA 
BRANCH  16  23
HETATM   23  C5* UNL     1      -7.134  18.686  68.969  1.00  0.00    -0.274 C  
HETATM   24  O5* UNL     1      -6.036  18.903  69.847  1.00  0.00    -0.254 OA 
HETATM   25  H5* UNL     1      -6.252  18.607  70.723  1.00  0.00     0.000 HD 
ENDBRANCH  16  23
ENDBRANCH  13  14
TORSDOF 2
ENDMDL
MODEL      109
REMARK 921   NORMALIZED FREE ENERGY PREDICTED BY IDOCK:   -4.74 KCAL/MOL
REMARK 922        TOTAL FREE ENERGY PREDICTED BY IDOCK:   -4.71 KCAL/MOL
REMARK 923 INTER-LIGAND FREE ENERGY PREDICTED BY IDOCK:   -4.85 KCAL/MOL
REMARK 924 INTRA-LIGAND FREE ENERGY PREDICTED BY IDOCK:    0.13 KCAL/MOL
REMARK 927      BINDING AFFINITY PREDICTED BY RF-SCORE:    0.00 PKD
ROOT
HETATM    1  N   UNL     1     -10.118   5.152  73.271  1.00  0.00    -0.166 NA 
HETATM    2  C   UNL     1     -10.295   6.294  72.508  1.00  0.00    -0.192 A  
HETATM    3  H2  UNL     1     -11.007   4.658  73.340  1.00  0.00     0.000 HD 
HETATM    4  H1  UNL     1      -9.392   4.490  72.996  1.00  0.00     0.000 HD 
HETATM    5  N   UNL     1     -11.256   7.169  72.872  1.00  0.00    -0.285 NA 
HETATM    6  C   UNL     1     -11.463   8.253  72.097  1.00  0.00    -0.361 A  
HETATM    7  N   UNL     1     -10.828   8.586  70.954  1.00  0.00    -0.225 NA 
HETATM    8  F   UNL     1     -12.426   9.095  72.503  1.00  0.00    -0.416 F  
HETATM    9  C   UNL     1      -9.858   7.706  70.650  1.00  0.00    -0.182 A  
HETATM   10  C   UNL     1      -9.518   6.577  71.373  1.00  0.00    -0.158 A  
HETATM   11  N   UNL     1      -8.442   5.941  70.804  1.00  0.00    -0.128 NA 
HETATM   12  C   UNL     1      -8.140   6.667  69.748  1.00  0.00    -0.126 A  
HETATM   13  N   UNL     1      -9.031   7.690  69.547  1.00  0.00    -0.140 NA 
ENDROOT
BRANCH  13  14
HETATM   14  C1* UNL     1      -9.051   8.641  68.448  1.00  0.00    -0.138 C  
HETATM   15  O4* UNL     1     -10.402   8.752  67.933  1.00  0.00    -0.208 OA 
HETATM   16  C4* UNL     1     -10.535   7.871  66.797  1.00  0.00    -0.247 C  
HETATM   17  H2* UNL     1      -6.516   7.456  66.545  1.00  0.00     0.000 HD 
HETATM   18  C3* UNL     1      -9.161   7.821  66.145  1.00  0.00    -0.128 C  
HETATM   19  C2* UNL     1      -8.202   8.403  67.183  1.00  0.00    -0.108 C  
HETATM   20  O3* UNL     1      -9.116   8.636  64.970  1.00  0.00    -0.415 OA 
HETATM   21  H3* UNL     1      -8.258   8.605  64.563  1.00  0.00     0.000 HD 
HETATM   22  O2* UNL     1      -7.039   7.603  67.325  1.00  0.00    -0.080 OA 
BRANCH  16  23
HETATM   23  C5* UNL     1     -11.001   6.476  67.241  1.00  0.00    -0.400 C  
HETATM   24  O5* UNL     1     -11.057   5.597  66.124  1.00  0.00    -0.743 OA 
HETATM   25  H5* UNL     1     -11.345   4.734  66.399  1.00  0.00     0.000 HD 
ENDBRANCH  16  23
ENDBRANCH  13  14
TORSDOF 2
ENDMDL
MODEL      110
REMARK 921   NORMALIZED FREE ENERGY PREDICTED BY IDOCK:   -4.71 KCAL/MOL
REMARK 922        TOTAL FREE ENERGY PREDICTED BY IDOCK:   -4.69 KCAL/MOL
REMARK 923 INTER-LIGAND FREE ENERGY PREDICTED BY IDOCK:   -4.73 KCAL/MOL
REMARK 924 INTRA-LIGAND FREE ENERGY PREDICTED BY IDOCK:    0.04 KCAL/MOL
REMARK 927      BINDING AFFINITY PREDICTED BY RF-SCORE:    0.00 PKD
ROOT
HETATM    1  N   UNL     1     -12.371  10.959  68.567  1.00  0.00    -0.744 NA 
HETATM    2  C   UNL     1     -11.162  10.577  69.125  1.00  0.00    -0.256 A  
HETATM    3  H2  UNL     1     -12.402  10.646  67.597  1.00  0.00     0.000 HD 
HETATM    4  H1  UNL     1     -13.233  10.676  69.034  1.00  0.00     0.000 HD 
HETATM    5  N   UNL     1     -10.022  10.951  68.507  1.00  0.00    -0.175 NA 
HETATM    6  C   UNL     1      -8.848  10.534  69.022  1.00  0.00    -0.169 A  
HETATM    7  N   UNL     1      -8.650   9.748  70.102  1.00  0.00    -0.208 NA 
HETATM    8  F   UNL     1      -7.742  10.934  68.375  1.00  0.00    -0.094 F  
HETATM    9  C   UNL     1      -9.809   9.431  70.703  1.00  0.00    -0.276 A  
HETATM   10  C   UNL     1     -11.076   9.819  70.303  1.00  0.00    -0.292 A  
HETATM   11  N   UNL     1     -12.026   9.362  71.184  1.00  0.00    -0.317 NA 
HETATM   12  C   UNL     1     -11.348   8.699  72.098  1.00  0.00    -0.364 A  
HETATM   13  N   UNL     1     -10.012   8.619  71.800  1.00  0.00    -0.272 NA 
ENDROOT
BRANCH  13  14
HETATM   14  C1* UNL     1      -8.982   7.908  72.540  1.00  0.00    -0.174 C  
HETATM   15  O4* UNL     1      -8.044   7.314  71.609  1.00  0.00    -0.099 OA 
HETATM   16  C4* UNL     1      -8.428   5.941  71.382  1.00  0.00    -0.128 C  
HETATM   17  H2* UNL     1     -10.884   6.012  74.599  1.00  0.00     0.000 HD 
HETATM   18  C3* UNL     1      -9.065   5.467  72.679  1.00  0.00    -0.135 C  
HETATM   19  C2* UNL     1      -9.349   6.740  73.477  1.00  0.00    -0.156 C  
HETATM   20  O3* UNL     1      -8.164   4.647  73.430  1.00  0.00    -0.101 OA 
HETATM   21  H3* UNL     1      -8.562   4.351  74.240  1.00  0.00     0.000 HD 
HETATM   22  O2* UNL     1     -10.659   6.733  74.022  1.00  0.00    -0.343 OA 
BRANCH  16  23
HETATM   23  C5* UNL     1      -9.405   5.836  70.201  1.00  0.00    -0.155 C  
HETATM   24  O5* UNL     1     -10.717   5.553  70.672  1.00  0.00    -0.269 OA 
HETATM   25  H5* UNL     1     -11.321   5.489  69.942  1.00  0.00     0.000 HD 
ENDBRANCH  16  23
ENDBRANCH  13  14
TORSDOF 2
ENDMDL
MODEL      111
REMARK 921   NORMALIZED FREE ENERGY PREDICTED BY IDOCK:   -4.70 KCAL/MOL
REMARK 922        TOTAL FREE ENERGY PREDICTED BY IDOCK:   -4.68 KCAL/MOL
REMARK 923 INTER-LIGAND FREE ENERGY PREDICTED BY IDOCK:   -5.48 KCAL/MOL
REMARK 924 INTRA-LIGAND FREE ENERGY PREDICTED BY IDOCK:    0.80 KCAL/MOL
REMARK 927      BINDING AFFINITY PREDICTED BY RF-SCORE:    0.00 PKD
ROOT
HETATM    1  N   UNL     1     -11.281  17.223  67.958  1.00  0.00    -0.064 NA 
HETATM    2  C   UNL     1     -11.191  15.894  68.337  1.00  0.00    -0.368 A  
HETATM    3  H2  UNL     1     -10.851  17.803  68.678  1.00  0.00     0.000 HD 
HETATM    4  H1  UNL     1     -10.910  17.496  67.047  1.00  0.00     0.000 HD 
HETATM    5  N   UNL     1     -11.681  15.533  69.541  1.00  0.00    -0.343 NA 
HETATM    6  C   UNL     1     -11.545  14.250  69.931  1.00  0.00    -0.276 A  
HETATM    7  N   UNL     1     -10.946  13.241  69.263  1.00  0.00    -0.150 NA 
HETATM    8  F   UNL     1     -12.053  13.939  71.134  1.00  0.00    -0.390 F  
HETATM    9  C   UNL     1     -10.505  13.638  68.057  1.00  0.00    -0.248 A  
HETATM   10  C   UNL     1     -10.610  14.909  67.521  1.00  0.00    -0.266 A  
HETATM   11  N   UNL     1     -10.105  14.943  66.244  1.00  0.00    -0.269 NA 
HETATM   12  C   UNL     1      -9.690  13.715  66.013  1.00  0.00    -0.222 A  
HETATM   13  N   UNL     1      -9.811  12.907  67.115  1.00  0.00    -0.221 NA 
ENDROOT
BRANCH  13  14
HETATM   14  C1* UNL     1      -9.391  11.522  67.246  1.00  0.00    -0.166 C  
HETATM   15  O4* UNL     1      -8.571  11.159  66.107  1.00  0.00    -0.173 OA 
HETATM   16  C4* UNL     1      -9.409  10.514  65.124  1.00  0.00    -0.216 C  
HETATM   17  H2* UNL     1     -12.362  10.019  67.849  1.00  0.00     0.000 HD 
HETATM   18  C3* UNL     1     -10.495   9.795  65.910  1.00  0.00     0.043 C  
HETATM   19  C2* UNL     1     -10.430  10.387  67.319  1.00  0.00    -0.252 C  
HETATM   20  O3* UNL     1     -10.234   8.391  65.990  1.00  0.00    -0.417 OA 
HETATM   21  H3* UNL     1     -10.914   7.942  66.480  1.00  0.00     0.000 HD 
HETATM   22  O2* UNL     1     -11.721  10.719  67.804  1.00  0.00    -0.547 OA 
BRANCH  16  23
HETATM   23  C5* UNL     1     -10.002  11.545  64.152  1.00  0.00    -0.287 C  
HETATM   24  O5* UNL     1      -9.059  11.863  63.137  1.00  0.00    -0.644 OA 
HETATM   25  H5* UNL     1      -9.426  12.501  62.536  1.00  0.00     0.000 HD 
ENDBRANCH  16  23
ENDBRANCH  13  14
TORSDOF 2
ENDMDL
MODEL      112
REMARK 921   NORMALIZED FREE ENERGY PREDICTED BY IDOCK:   -4.70 KCAL/MOL
REMARK 922        TOTAL FREE ENERGY PREDICTED BY IDOCK:   -4.67 KCAL/MOL
REMARK 923 INTER-LIGAND FREE ENERGY PREDICTED BY IDOCK:   -5.36 KCAL/MOL
REMARK 924 INTRA-LIGAND FREE ENERGY PREDICTED BY IDOCK:    0.68 KCAL/MOL
REMARK 927      BINDING AFFINITY PREDICTED BY RF-SCORE:    0.00 PKD
ROOT
HETATM    1  N   UNL     1      -9.433  18.973  66.622  1.00  0.00    -0.329 NA 
HETATM    2  C   UNL     1      -8.906  17.719  66.887  1.00  0.00    -0.248 A  
HETATM    3  H2  UNL     1      -8.729  19.533  66.140  1.00  0.00     0.000 HD 
HETATM    4  H1  UNL     1     -10.313  19.033  66.109  1.00  0.00     0.000 HD 
HETATM    5  N   UNL     1      -7.743  17.640  67.565  1.00  0.00    -0.199 NA 
HETATM    6  C   UNL     1      -7.205  16.421  67.775  1.00  0.00    -0.138 A  
HETATM    7  N   UNL     1      -7.680  15.226  67.368  1.00  0.00    -0.181 NA 
HETATM    8  F   UNL     1      -6.049  16.394  68.457  1.00  0.00    -0.115 F  
HETATM    9  C   UNL     1      -8.856  15.351  66.728  1.00  0.00    -0.269 A  
HETATM   10  C   UNL     1      -9.533  16.531  66.477  1.00  0.00    -0.273 A  
HETATM   11  N   UNL     1     -10.731  16.281  65.855  1.00  0.00    -0.273 NA 
HETATM   12  C   UNL     1     -10.776  14.972  65.721  1.00  0.00    -0.342 A  
HETATM   13  N   UNL     1      -9.619  14.365  66.137  1.00  0.00    -0.299 NA 
ENDROOT
BRANCH  13  14
HETATM   14  C1* UNL     1      -9.289  12.952  66.071  1.00  0.00    -0.024 C  
HETATM   15  O4* UNL     1     -10.022  12.338  64.982  1.00  0.00    -0.261 OA 
HETATM   16  C4* UNL     1     -11.224  11.740  65.514  1.00  0.00    -0.258 C  
HETATM   17  H2* UNL     1      -9.794  12.037  69.290  1.00  0.00     0.000 HD 
HETATM   18  C3* UNL     1     -10.879  11.301  66.929  1.00  0.00    -0.282 C  
HETATM   19  C2* UNL     1      -9.572  12.019  67.266  1.00  0.00    -0.183 C  
HETATM   20  O3* UNL     1     -10.656   9.889  66.993  1.00  0.00    -0.238 OA 
HETATM   21  H3* UNL     1     -10.441   9.615  67.878  1.00  0.00     0.000 HD 
HETATM   22  O2* UNL     1      -9.620  12.612  68.554  1.00  0.00    -0.195 OA 
BRANCH  16  23
HETATM   23  C5* UNL     1     -12.384  12.747  65.502  1.00  0.00    -0.434 C  
HETATM   24  O5* UNL     1     -13.279  12.454  64.436  1.00  0.00    -0.816 OA 
HETATM   25  H5* UNL     1     -13.996  13.076  64.428  1.00  0.00     0.000 HD 
ENDBRANCH  16  23
ENDBRANCH  13  14
TORSDOF 2
ENDMDL
MODEL      113
REMARK 921   NORMALIZED FREE ENERGY PREDICTED BY IDOCK:   -4.69 KCAL/MOL
REMARK 922        TOTAL FREE ENERGY PREDICTED BY IDOCK:   -4.67 KCAL/MOL
REMARK 923 INTER-LIGAND FREE ENERGY PREDICTED BY IDOCK:   -5.42 KCAL/MOL
REMARK 924 INTRA-LIGAND FREE ENERGY PREDICTED BY IDOCK:    0.76 KCAL/MOL
REMARK 927      BINDING AFFINITY PREDICTED BY RF-SCORE:    0.00 PKD
ROOT
HETATM    1  N   UNL     1      -9.691  17.723  65.875  1.00  0.00    -0.546 NA 
HETATM    2  C   UNL     1     -10.310  16.544  65.493  1.00  0.00    -0.284 A  
HETATM    3  H2  UNL     1     -10.404  18.395  66.159  1.00  0.00     0.000 HD 
HETATM    4  H1  UNL     1      -8.969  17.683  66.595  1.00  0.00     0.000 HD 
HETATM    5  N   UNL     1     -11.265  16.597  64.542  1.00  0.00    -0.982 NA 
HETATM    6  C   UNL     1     -11.903  15.457  64.209  1.00  0.00    -0.199 A  
HETATM    7  N   UNL     1     -11.723  14.226  64.731  1.00  0.00    -0.393 NA 
HETATM    8  F   UNL     1     -12.842  15.560  63.256  1.00  0.00     0.527 F  
HETATM    9  C   UNL     1     -10.740  14.214  65.648  1.00  0.00    -0.313 A  
HETATM   10  C   UNL     1      -9.984  15.299  66.055  1.00  0.00    -0.319 A  
HETATM   11  N   UNL     1      -9.029  14.914  66.964  1.00  0.00    -0.222 NA 
HETATM   12  C   UNL     1      -9.208  13.617  67.113  1.00  0.00    -0.244 A  
HETATM   13  N   UNL     1     -10.299  13.159  66.419  1.00  0.00    -0.281 NA 
ENDROOT
BRANCH  13  14
HETATM   14  C1* UNL     1     -10.836  11.809  66.408  1.00  0.00    -0.282 C  
HETATM   15  O4* UNL     1     -10.519  11.155  67.663  1.00  0.00    -0.182 OA 
HETATM   16  C4* UNL     1      -9.318  10.374  67.485  1.00  0.00    -0.149 C  
HETATM   17  H2* UNL     1      -9.623  10.675  63.459  1.00  0.00     0.000 HD 
HETATM   18  C3* UNL     1      -9.330   9.916  66.034  1.00  0.00    -0.188 C  
HETATM   19  C2* UNL     1     -10.381  10.788  65.346  1.00  0.00    -0.247 C  
HETATM   20  O3* UNL     1      -9.729   8.547  65.927  1.00  0.00    -0.440 OA 
HETATM   21  H3* UNL     1      -9.736   8.260  65.020  1.00  0.00     0.000 HD 
HETATM   22  O2* UNL     1      -9.903  11.305  64.114  1.00  0.00    -0.242 OA 
BRANCH  16  23
HETATM   23  C5* UNL     1      -8.070  11.213  67.802  1.00  0.00    -0.117 C  
HETATM   24  O5* UNL     1      -7.964  11.426  69.204  1.00  0.00    -0.324 OA 
HETATM   25  H5* UNL     1      -7.193  11.944  69.401  1.00  0.00     0.000 HD 
ENDBRANCH  16  23
ENDBRANCH  13  14
TORSDOF 2
ENDMDL
MODEL      114
REMARK 921   NORMALIZED FREE ENERGY PREDICTED BY IDOCK:   -4.69 KCAL/MOL
REMARK 922        TOTAL FREE ENERGY PREDICTED BY IDOCK:   -4.66 KCAL/MOL
REMARK 923 INTER-LIGAND FREE ENERGY PREDICTED BY IDOCK:   -5.24 KCAL/MOL
REMARK 924 INTRA-LIGAND FREE ENERGY PREDICTED BY IDOCK:    0.59 KCAL/MOL
REMARK 927      BINDING AFFINITY PREDICTED BY RF-SCORE:    0.00 PKD
ROOT
HETATM    1  N   UNL     1      -7.249  11.042  67.956  1.00  0.00    -0.084 NA 
HETATM    2  C   UNL     1      -8.303  11.868  67.601  1.00  0.00    -0.152 A  
HETATM    3  H2  UNL     1      -7.194  10.271  67.291  1.00  0.00     0.000 HD 
HETATM    4  H1  UNL     1      -6.322  11.455  68.063  1.00  0.00     0.000 HD 
HETATM    5  N   UNL     1      -9.529  11.322  67.459  1.00  0.00    -0.168 NA 
HETATM    6  C   UNL     1     -10.543  12.117  67.062  1.00  0.00    -0.228 A  
HETATM    7  N   UNL     1     -10.494  13.431  66.758  1.00  0.00    -0.272 NA 
HETATM    8  F   UNL     1     -11.744  11.529  66.939  1.00  0.00    -0.357 F  
HETATM    9  C   UNL     1      -9.263  13.938  66.947  1.00  0.00    -0.259 A  
HETATM   10  C   UNL     1      -8.148  13.246  67.383  1.00  0.00    -0.175 A  
HETATM   11  N   UNL     1      -7.073  14.091  67.519  1.00  0.00    -0.182 NA 
HETATM   12  C   UNL     1      -7.527  15.275  67.162  1.00  0.00    -0.167 A  
HETATM   13  N   UNL     1      -8.819  15.222  66.705  1.00  0.00    -0.276 NA 
ENDROOT
BRANCH  13  14
HETATM   14  C1* UNL     1      -9.612  16.314  66.166  1.00  0.00    -0.331 C  
HETATM   15  O4* UNL     1      -8.729  17.375  65.722  1.00  0.00    -0.522 OA 
HETATM   16  C4* UNL     1      -8.618  18.354  66.777  1.00  0.00    -0.276 C  
HETATM   17  H2* UNL     1     -11.828  16.783  68.680  1.00  0.00     0.000 HD 
HETATM   18  C3* UNL     1      -9.953  18.332  67.507  1.00  0.00    -0.335 C  
HETATM   19  C2* UNL     1     -10.643  17.049  67.045  1.00  0.00    -0.226 C  
HETATM   20  O3* UNL     1     -10.765  19.449  67.133  1.00  0.00    -0.455 OA 
HETATM   21  H3* UNL     1     -11.599  19.436  67.589  1.00  0.00     0.000 HD 
HETATM   22  O2* UNL     1     -11.192  16.330  68.138  1.00  0.00    -0.350 OA 
BRANCH  16  23
HETATM   23  C5* UNL     1      -7.454  18.010  67.719  1.00  0.00    -0.211 C  
HETATM   24  O5* UNL     1      -7.856  18.163  69.075  1.00  0.00    -0.218 OA 
HETATM   25  H5* UNL     1      -7.136  17.951  69.657  1.00  0.00     0.000 HD 
ENDBRANCH  16  23
ENDBRANCH  13  14
TORSDOF 2
ENDMDL
MODEL      115
REMARK 921   NORMALIZED FREE ENERGY PREDICTED BY IDOCK:   -4.68 KCAL/MOL
REMARK 922        TOTAL FREE ENERGY PREDICTED BY IDOCK:   -4.65 KCAL/MOL
REMARK 923 INTER-LIGAND FREE ENERGY PREDICTED BY IDOCK:   -5.27 KCAL/MOL
REMARK 924 INTRA-LIGAND FREE ENERGY PREDICTED BY IDOCK:    0.62 KCAL/MOL
REMARK 927      BINDING AFFINITY PREDICTED BY RF-SCORE:    0.00 PKD
ROOT
HETATM    1  N   UNL     1     -13.716  12.884  72.759  1.00  0.00    -0.719 NA 
HETATM    2  C   UNL     1     -12.938  13.486  71.784  1.00  0.00    -0.348 A  
HETATM    3  H2  UNL     1     -14.540  13.461  72.929  1.00  0.00     0.000 HD 
HETATM    4  H1  UNL     1     -14.012  11.918  72.617  1.00  0.00     0.000 HD 
HETATM    5  N   UNL     1     -12.547  14.764  71.971  1.00  0.00    -0.317 NA 
HETATM    6  C   UNL     1     -11.835  15.366  70.998  1.00  0.00    -0.360 A  
HETATM    7  N   UNL     1     -11.460  14.851  69.808  1.00  0.00    -0.278 NA 
HETATM    8  F   UNL     1     -11.465  16.635  71.232  1.00  0.00    -0.418 F  
HETATM    9  C   UNL     1     -11.841  13.568  69.680  1.00  0.00    -0.336 A  
HETATM   10  C   UNL     1     -12.541  12.823  70.612  1.00  0.00    -0.168 A  
HETATM   11  N   UNL     1     -12.708  11.531  70.176  1.00  0.00    -0.041 NA 
HETATM   12  C   UNL     1     -12.126  11.495  68.995  1.00  0.00    -0.238 A  
HETATM   13  N   UNL     1     -11.676  12.729  68.598  1.00  0.00    -0.307 NA 
ENDROOT
BRANCH  13  14
HETATM   14  C1* UNL     1     -11.053  13.077  67.332  1.00  0.00    -0.272 C  
HETATM   15  O4* UNL     1     -11.579  12.221  66.287  1.00  0.00    -0.366 OA 
HETATM   16  C4* UNL     1     -10.673  11.112  66.101  1.00  0.00    -0.225 C  
HETATM   17  H2* UNL     1      -7.784  13.015  68.203  1.00  0.00     0.000 HD 
HETATM   18  C3* UNL     1      -9.287  11.647  66.425  1.00  0.00    -0.213 C  
HETATM   19  C2* UNL     1      -9.526  12.972  67.150  1.00  0.00    -0.230 C  
HETATM   20  O3* UNL     1      -8.540  11.906  65.232  1.00  0.00    -0.202 OA 
HETATM   21  H3* UNL     1      -7.674  12.241  65.434  1.00  0.00     0.000 HD 
HETATM   22  O2* UNL     1      -8.725  13.080  68.316  1.00  0.00    -0.186 OA 
BRANCH  16  23
HETATM   23  C5* UNL     1     -11.054   9.939  67.018  1.00  0.00     0.112 C  
HETATM   24  O5* UNL     1      -9.884   9.274  67.477  1.00  0.00    -0.158 OA 
HETATM   25  H5* UNL     1     -10.119   8.549  68.044  1.00  0.00     0.000 HD 
ENDBRANCH  16  23
ENDBRANCH  13  14
TORSDOF 2
ENDMDL
MODEL      116
REMARK 921   NORMALIZED FREE ENERGY PREDICTED BY IDOCK:   -4.64 KCAL/MOL
REMARK 922        TOTAL FREE ENERGY PREDICTED BY IDOCK:   -4.61 KCAL/MOL
REMARK 923 INTER-LIGAND FREE ENERGY PREDICTED BY IDOCK:   -5.70 KCAL/MOL
REMARK 924 INTRA-LIGAND FREE ENERGY PREDICTED BY IDOCK:    1.09 KCAL/MOL
REMARK 927      BINDING AFFINITY PREDICTED BY RF-SCORE:    0.00 PKD
ROOT
HETATM    1  N   UNL     1      -7.524  19.175  68.163  1.00  0.00    -0.272 NA 
HETATM    2  C   UNL     1      -7.829  17.824  68.214  1.00  0.00    -0.279 A  
HETATM    3  H2  UNL     1      -6.517  19.283  68.047  1.00  0.00     0.000 HD 
HETATM    4  H1  UNL     1      -8.001  19.756  67.473  1.00  0.00     0.000 HD 
HETATM    5  N   UNL     1      -7.198  17.055  69.125  1.00  0.00    -0.237 NA 
HETATM    6  C   UNL     1      -7.456  15.732  69.137  1.00  0.00    -0.207 A  
HETATM    7  N   UNL     1      -8.278  15.042  68.318  1.00  0.00    -0.140 NA 
HETATM    8  F   UNL     1      -6.807  15.010  70.064  1.00  0.00    -0.166 F  
HETATM    9  C   UNL     1      -8.910  15.852  67.452  1.00  0.00    -0.188 A  
HETATM   10  C   UNL     1      -8.765  17.225  67.355  1.00  0.00    -0.206 A  
HETATM   11  N   UNL     1      -9.608  17.737  66.399  1.00  0.00    -0.355 NA 
HETATM   12  C   UNL     1     -10.246  16.691  65.916  1.00  0.00    -0.340 A  
HETATM   13  N   UNL     1      -9.787  15.512  66.443  1.00  0.00    -0.260 NA 
ENDROOT
BRANCH  13  14
HETATM   14  C1* UNL     1     -10.207  14.165  66.093  1.00  0.00    -0.304 C  
HETATM   15  O4* UNL     1     -10.514  14.110  64.678  1.00  0.00    -0.434 OA 
HETATM   16  C4* UNL     1     -11.937  14.291  64.508  1.00  0.00    -0.462 C  
HETATM   17  H2* UNL     1     -12.573  13.611  68.448  1.00  0.00     0.000 HD 
HETATM   18  C3* UNL     1     -12.583  13.693  65.749  1.00  0.00    -0.461 C  
HETATM   19  C2* UNL     1     -11.444  13.527  66.755  1.00  0.00    -0.346 C  
HETATM   20  O3* UNL     1     -13.142  12.406  65.472  1.00  0.00     0.001 OA 
HETATM   21  H3* UNL     1     -13.546  12.033  66.248  1.00  0.00     0.000 HD 
HETATM   22  O2* UNL     1     -11.810  14.005  68.040  1.00  0.00    -0.338 OA 
BRANCH  16  23
HETATM   23  C5* UNL     1     -12.282  15.779  64.352  1.00  0.00     0.079 C  
HETATM   24  O5* UNL     1     -11.485  16.365  63.330  1.00  0.00    -0.783 OA 
HETATM   25  H5* UNL     1     -11.699  17.286  63.234  1.00  0.00     0.000 HD 
ENDBRANCH  16  23
ENDBRANCH  13  14
TORSDOF 2
ENDMDL
MODEL      117
REMARK 921   NORMALIZED FREE ENERGY PREDICTED BY IDOCK:   -4.64 KCAL/MOL
REMARK 922        TOTAL FREE ENERGY PREDICTED BY IDOCK:   -4.60 KCAL/MOL
REMARK 923 INTER-LIGAND FREE ENERGY PREDICTED BY IDOCK:   -6.50 KCAL/MOL
REMARK 924 INTRA-LIGAND FREE ENERGY PREDICTED BY IDOCK:    1.90 KCAL/MOL
REMARK 927      BINDING AFFINITY PREDICTED BY RF-SCORE:    0.00 PKD
ROOT
HETATM    1  N   UNL     1     -13.250  13.720  72.487  1.00  0.00    -0.499 NA 
HETATM    2  C   UNL     1     -12.676  13.799  71.228  1.00  0.00    -0.371 A  
HETATM    3  H2  UNL     1     -14.137  14.223  72.478  1.00  0.00     0.000 HD 
HETATM    4  H1  UNL     1     -13.395  12.798  72.899  1.00  0.00     0.000 HD 
HETATM    5  N   UNL     1     -12.485  15.018  70.683  1.00  0.00    -0.339 NA 
HETATM    6  C   UNL     1     -11.975  15.091  69.437  1.00  0.00    -0.303 A  
HETATM    7  N   UNL     1     -11.635  14.071  68.621  1.00  0.00    -0.302 NA 
HETATM    8  F   UNL     1     -11.800  16.325  68.939  1.00  0.00    -0.352 F  
HETATM    9  C   UNL     1     -11.809  12.879  69.218  1.00  0.00    -0.309 A  
HETATM   10  C   UNL     1     -12.288  12.664  70.499  1.00  0.00    -0.268 A  
HETATM   11  N   UNL     1     -12.279  11.324  70.803  1.00  0.00    -0.377 NA 
HETATM   12  C   UNL     1     -11.814  10.735  69.720  1.00  0.00    -0.335 A  
HETATM   13  N   UNL     1     -11.612  11.619  68.692  1.00  0.00    -0.285 NA 
ENDROOT
BRANCH  13  14
HETATM   14  C1* UNL     1     -11.176  11.316  67.339  1.00  0.00    -0.303 C  
HETATM   15  O4* UNL     1      -9.736  11.151  67.324  1.00  0.00    -0.165 OA 
HETATM   16  C4* UNL     1      -9.133  12.403  66.932  1.00  0.00    -0.211 C  
HETATM   17  H2* UNL     1     -12.698  13.801  65.617  1.00  0.00     0.000 HD 
HETATM   18  C3* UNL     1     -10.126  13.067  65.990  1.00  0.00    -0.284 C  
HETATM   19  C2* UNL     1     -11.437  12.306  66.186  1.00  0.00    -0.374 C  
HETATM   20  O3* UNL     1      -9.716  12.930  64.626  1.00  0.00    -0.543 OA 
HETATM   21  H3* UNL     1     -10.336  13.346  64.037  1.00  0.00     0.000 HD 
HETATM   22  O2* UNL     1     -12.537  13.191  66.328  1.00  0.00    -0.366 OA 
BRANCH  16  23
HETATM   23  C5* UNL     1      -8.849  13.279  68.162  1.00  0.00    -0.187 C  
HETATM   24  O5* UNL     1      -7.915  12.636  69.020  1.00  0.00    -0.328 OA 
HETATM   25  H5* UNL     1      -7.739  13.177  69.780  1.00  0.00     0.000 HD 
ENDBRANCH  16  23
ENDBRANCH  13  14
TORSDOF 2
ENDMDL
MODEL      118
REMARK 921   NORMALIZED FREE ENERGY PREDICTED BY IDOCK:   -4.63 KCAL/MOL
REMARK 922        TOTAL FREE ENERGY PREDICTED BY IDOCK:   -4.59 KCAL/MOL
REMARK 923 INTER-LIGAND FREE ENERGY PREDICTED BY IDOCK:   -4.74 KCAL/MOL
REMARK 924 INTRA-LIGAND FREE ENERGY PREDICTED BY IDOCK:    0.14 KCAL/MOL
REMARK 927      BINDING AFFINITY PREDICTED BY RF-SCORE:    0.00 PKD
ROOT
HETATM    1  N   UNL     1     -11.455   6.814  71.119  1.00  0.00    -0.296 NA 
HETATM    2  C   UNL     1     -11.135   7.066  69.795  1.00  0.00    -0.241 A  
HETATM    3  H2  UNL     1     -10.686   6.305  71.555  1.00  0.00     0.000 HD 
HETATM    4  H1  UNL     1     -11.713   7.600  71.716  1.00  0.00     0.000 HD 
HETATM    5  N   UNL     1     -10.793   6.027  69.006  1.00  0.00    -0.324 NA 
HETATM    6  C   UNL     1     -10.431   6.282  67.732  1.00  0.00    -0.232 A  
HETATM    7  N   UNL     1     -10.342   7.482  67.121  1.00  0.00    -0.283 NA 
HETATM    8  F   UNL     1     -10.104   5.215  66.985  1.00  0.00    -0.155 F  
HETATM    9  C   UNL     1     -10.725   8.482  67.934  1.00  0.00    -0.082 A  
HETATM   10  C   UNL     1     -11.151   8.358  69.244  1.00  0.00     0.162 A  
HETATM   11  N   UNL     1     -11.520   9.579  69.753  1.00  0.00    -0.088 NA 
HETATM   12  C   UNL     1     -11.311  10.432  68.771  1.00  0.00    -0.214 A  
HETATM   13  N   UNL     1     -10.730   9.838  67.680  1.00  0.00    -0.277 NA 
ENDROOT
BRANCH  13  14
HETATM   14  C1* UNL     1     -10.296  10.480  66.451  1.00  0.00    -0.221 C  
HETATM   15  O4* UNL     1      -8.862  10.691  66.500  1.00  0.00    -0.145 OA 
HETATM   16  C4* UNL     1      -8.611  12.037  66.957  1.00  0.00    -0.185 C  
HETATM   17  H2* UNL     1     -12.469  13.069  66.294  1.00  0.00     0.000 HD 
HETATM   18  C3* UNL     1      -9.781  12.872  66.458  1.00  0.00    -0.257 C  
HETATM   19  C2* UNL     1     -10.849  11.860  66.044  1.00  0.00    -0.299 C  
HETATM   20  O3* UNL     1      -9.413  13.645  65.311  1.00  0.00    -0.507 OA 
HETATM   21  H3* UNL     1     -10.144  14.167  65.000  1.00  0.00     0.000 HD 
HETATM   22  O2* UNL     1     -12.128  12.219  66.545  1.00  0.00    -0.616 OA 
BRANCH  16  23
HETATM   23  C5* UNL     1      -8.498  12.081  68.488  1.00  0.00    -0.098 C  
HETATM   24  O5* UNL     1      -9.439  13.002  69.025  1.00  0.00    -0.379 OA 
HETATM   25  H5* UNL     1      -9.370  13.029  69.972  1.00  0.00     0.000 HD 
ENDBRANCH  16  23
ENDBRANCH  13  14
TORSDOF 2
ENDMDL
MODEL      119
REMARK 921   NORMALIZED FREE ENERGY PREDICTED BY IDOCK:   -4.61 KCAL/MOL
REMARK 922        TOTAL FREE ENERGY PREDICTED BY IDOCK:   -4.58 KCAL/MOL
REMARK 923 INTER-LIGAND FREE ENERGY PREDICTED BY IDOCK:   -5.19 KCAL/MOL
REMARK 924 INTRA-LIGAND FREE ENERGY PREDICTED BY IDOCK:    0.61 KCAL/MOL
REMARK 927      BINDING AFFINITY PREDICTED BY RF-SCORE:    0.00 PKD
ROOT
HETATM    1  N   UNL     1     -10.515  14.499  69.363  1.00  0.00    -0.398 NA 
HETATM    2  C   UNL     1     -10.900  13.896  68.176  1.00  0.00    -0.249 A  
HETATM    3  H2  UNL     1     -11.327  14.574  69.975  1.00  0.00     0.000 HD 
HETATM    4  H1  UNL     1      -9.741  14.092  69.887  1.00  0.00     0.000 HD 
HETATM    5  N   UNL     1     -11.925  14.435  67.483  1.00  0.00    -0.379 NA 
HETATM    6  C   UNL     1     -12.332  13.816  66.357  1.00  0.00    -0.412 A  
HETATM    7  N   UNL     1     -11.849  12.677  65.817  1.00  0.00    -0.425 NA 
HETATM    8  F   UNL     1     -13.352  14.391  65.700  1.00  0.00    -0.480 F  
HETATM    9  C   UNL     1     -10.809  12.197  66.521  1.00  0.00    -0.270 A  
HETATM   10  C   UNL     1     -10.269  12.749  67.668  1.00  0.00    -0.219 A  
HETATM   11  N   UNL     1      -9.177  12.029  68.088  1.00  0.00    -0.191 NA 
HETATM   12  C   UNL     1      -9.063  11.049  67.215  1.00  0.00    -0.138 A  
HETATM   13  N   UNL     1     -10.088  11.041  66.304  1.00  0.00    -0.227 NA 
ENDROOT
BRANCH  13  14
HETATM   14  C1* UNL     1     -10.324  10.071  65.248  1.00  0.00     0.012 C  
HETATM   15  O4* UNL     1      -9.545   8.877  65.510  1.00  0.00    -0.184 OA 
HETATM   16  C4* UNL     1      -8.310   8.960  64.767  1.00  0.00    -0.175 C  
HETATM   17  H2* UNL     1      -9.779  11.981  62.508  1.00  0.00     0.000 HD 
HETATM   18  C3* UNL     1      -8.634   9.749  63.507  1.00  0.00    -0.201 C  
HETATM   19  C2* UNL     1      -9.988  10.405  63.781  1.00  0.00    -0.162 C  
HETATM   20  O3* UNL     1      -8.764   8.885  62.374  1.00  0.00    -0.271 OA 
HETATM   21  H3* UNL     1      -8.966   9.379  61.587  1.00  0.00     0.000 HD 
HETATM   22  O2* UNL     1      -9.987  11.775  63.412  1.00  0.00    -0.379 OA 
BRANCH  16  23
HETATM   23  C5* UNL     1      -7.218   9.649  65.600  1.00  0.00    -0.097 C  
HETATM   24  O5* UNL     1      -6.549  10.630  64.819  1.00  0.00    -0.345 OA 
HETATM   25  H5* UNL     1      -5.874  11.056  65.334  1.00  0.00     0.000 HD 
ENDBRANCH  16  23
ENDBRANCH  13  14
TORSDOF 2
ENDMDL
MODEL      120
REMARK 921   NORMALIZED FREE ENERGY PREDICTED BY IDOCK:   -4.61 KCAL/MOL
REMARK 922        TOTAL FREE ENERGY PREDICTED BY IDOCK:   -4.57 KCAL/MOL
REMARK 923 INTER-LIGAND FREE ENERGY PREDICTED BY IDOCK:   -6.19 KCAL/MOL
REMARK 924 INTRA-LIGAND FREE ENERGY PREDICTED BY IDOCK:    1.62 KCAL/MOL
REMARK 927      BINDING AFFINITY PREDICTED BY RF-SCORE:    0.00 PKD
ROOT
HETATM    1  N   UNL     1     -13.262  12.353  64.603  1.00  0.00    -0.731 NA 
HETATM    2  C   UNL     1     -12.399  13.310  65.113  1.00  0.00    -0.466 A  
HETATM    3  H2  UNL     1     -12.955  12.096  63.665  1.00  0.00     0.000 HD 
HETATM    4  H1  UNL     1     -13.421  11.503  65.144  1.00  0.00     0.000 HD 
HETATM    5  N   UNL     1     -12.189  14.434  64.397  1.00  0.00    -0.574 NA 
HETATM    6  C   UNL     1     -11.308  15.339  64.870  1.00  0.00    -0.384 A  
HETATM    7  N   UNL     1     -10.566  15.263  65.994  1.00  0.00    -0.306 NA 
HETATM    8  F   UNL     1     -11.136  16.442  64.125  1.00  0.00    -0.380 F  
HETATM    9  C   UNL     1     -10.834  14.145  66.691  1.00  0.00    -0.299 A  
HETATM   10  C   UNL     1     -11.736  13.155  66.341  1.00  0.00    -0.379 A  
HETATM   11  N   UNL     1     -11.798  12.187  67.313  1.00  0.00    -0.579 NA 
HETATM   12  C   UNL     1     -10.940  12.578  68.234  1.00  0.00    -0.240 A  
HETATM   13  N   UNL     1     -10.251  13.702  67.860  1.00  0.00    -0.244 NA 
ENDROOT
BRANCH  13  14
HETATM   14  C1* UNL     1      -9.185  14.368  68.589  1.00  0.00    -0.181 C  
HETATM   15  O4* UNL     1      -9.758  15.176  69.648  1.00  0.00    -0.213 OA 
HETATM   16  C4* UNL     1      -9.892  16.532  69.171  1.00  0.00    -0.254 C  
HETATM   17  H2* UNL     1      -7.450  15.756  66.037  1.00  0.00     0.000 HD 
HETATM   18  C3* UNL     1      -8.750  16.743  68.188  1.00  0.00    -0.219 C  
HETATM   19  C2* UNL     1      -8.227  15.341  67.872  1.00  0.00    -0.145 C  
HETATM   20  O3* UNL     1      -7.692  17.504  68.779  1.00  0.00    -0.266 OA 
HETATM   21  H3* UNL     1      -6.979  17.636  68.164  1.00  0.00     0.000 HD 
HETATM   22  O2* UNL     1      -8.040  15.157  66.478  1.00  0.00    -0.083 OA 
BRANCH  16  23
HETATM   23  C5* UNL     1     -11.259  16.742  68.503  1.00  0.00    -0.176 C  
HETATM   24  O5* UNL     1     -11.226  17.891  67.665  1.00  0.00    -0.074 OA 
HETATM   25  H5* UNL     1     -12.071  18.021  67.252  1.00  0.00     0.000 HD 
ENDBRANCH  16  23
ENDBRANCH  13  14
TORSDOF 2
ENDMDL
MODEL      121
REMARK 921   NORMALIZED FREE ENERGY PREDICTED BY IDOCK:   -4.60 KCAL/MOL
REMARK 922        TOTAL FREE ENERGY PREDICTED BY IDOCK:   -4.57 KCAL/MOL
REMARK 923 INTER-LIGAND FREE ENERGY PREDICTED BY IDOCK:   -4.50 KCAL/MOL
REMARK 924 INTRA-LIGAND FREE ENERGY PREDICTED BY IDOCK:   -0.07 KCAL/MOL
REMARK 927      BINDING AFFINITY PREDICTED BY RF-SCORE:    0.00 PKD
ROOT
HETATM    1  N   UNL     1     -11.528  12.428  69.765  1.00  0.00    -0.486 NA 
HETATM    2  C   UNL     1     -11.239  12.306  68.416  1.00  0.00    -0.266 A  
HETATM    3  H2  UNL     1     -12.415  11.963  69.957  1.00  0.00     0.000 HD 
HETATM    4  H1  UNL     1     -10.834  12.112  70.443  1.00  0.00     0.000 HD 
HETATM    5  N   UNL     1     -12.157  12.724  67.520  1.00  0.00    -0.379 NA 
HETATM    6  C   UNL     1     -11.896  12.555  66.208  1.00  0.00    -0.390 A  
HETATM    7  N   UNL     1     -10.808  11.986  65.647  1.00  0.00    -0.273 NA 
HETATM    8  F   UNL     1     -12.837  12.991  65.356  1.00  0.00    -0.533 F  
HETATM    9  C   UNL     1      -9.908  11.617  66.575  1.00  0.00    -0.204 A  
HETATM   10  C   UNL     1     -10.032  11.764  67.945  1.00  0.00    -0.181 A  
HETATM   11  N   UNL     1      -8.897  11.331  68.586  1.00  0.00    -0.160 NA 
HETATM   12  C   UNL     1      -8.101  10.919  67.621  1.00  0.00    -0.115 A  
HETATM   13  N   UNL     1      -8.703  10.971  66.390  1.00  0.00    -0.167 NA 
ENDROOT
BRANCH  13  14
HETATM   14  C1* UNL     1      -8.153  10.532  65.119  1.00  0.00    -0.112 C  
HETATM   15  O4* UNL     1      -8.896   9.379  64.647  1.00  0.00    -0.194 OA 
HETATM   16  C4* UNL     1      -8.188   8.184  65.040  1.00  0.00    -0.154 C  
HETATM   17  H2* UNL     1      -4.865  10.333  65.890  1.00  0.00     0.000 HD 
HETATM   18  C3* UNL     1      -6.713   8.555  65.046  1.00  0.00    -0.064 C  
HETATM   19  C2* UNL     1      -6.683  10.083  65.008  1.00  0.00    -0.128 C  
HETATM   20  O3* UNL     1      -6.049   8.054  63.881  1.00  0.00    -0.060 OA 
HETATM   21  H3* UNL     1      -5.127   8.286  63.885  1.00  0.00     0.000 HD 
HETATM   22  O2* UNL     1      -5.771  10.610  65.959  1.00  0.00    -0.092 OA 
BRANCH  16  23
HETATM   23  C5* UNL     1      -8.656   7.705  66.423  1.00  0.00    -0.143 C  
HETATM   24  O5* UNL     1     -10.074   7.763  66.511  1.00  0.00    -0.398 OA 
HETATM   25  H5* UNL     1     -10.363   7.467  67.366  1.00  0.00     0.000 HD 
ENDBRANCH  16  23
ENDBRANCH  13  14
TORSDOF 2
ENDMDL
MODEL      122
REMARK 921   NORMALIZED FREE ENERGY PREDICTED BY IDOCK:   -4.60 KCAL/MOL
REMARK 922        TOTAL FREE ENERGY PREDICTED BY IDOCK:   -4.57 KCAL/MOL
REMARK 923 INTER-LIGAND FREE ENERGY PREDICTED BY IDOCK:   -6.38 KCAL/MOL
REMARK 924 INTRA-LIGAND FREE ENERGY PREDICTED BY IDOCK:    1.81 KCAL/MOL
REMARK 927      BINDING AFFINITY PREDICTED BY RF-SCORE:    0.00 PKD
ROOT
HETATM    1  N   UNL     1      -8.289  17.812  65.921  1.00  0.00    -0.531 NA 
HETATM    2  C   UNL     1      -8.546  16.510  66.318  1.00  0.00    -0.332 A  
HETATM    3  H2  UNL     1      -7.332  17.870  65.574  1.00  0.00     0.000 HD 
HETATM    4  H1  UNL     1      -8.915  18.246  65.242  1.00  0.00     0.000 HD 
HETATM    5  N   UNL     1      -7.719  15.935  67.216  1.00  0.00    -0.171 NA 
HETATM    6  C   UNL     1      -7.940  14.651  67.561  1.00  0.00    -0.190 A  
HETATM    7  N   UNL     1      -8.901  13.824  67.099  1.00  0.00    -0.225 NA 
HETATM    8  F   UNL     1      -7.093  14.125  68.460  1.00  0.00    -0.081 F  
HETATM    9  C   UNL     1      -9.721  14.448  66.235  1.00  0.00    -0.310 A  
HETATM   10  C   UNL     1      -9.630  15.766  65.824  1.00  0.00    -0.320 A  
HETATM   11  N   UNL     1     -10.667  16.085  64.982  1.00  0.00    -0.593 NA 
HETATM   12  C   UNL     1     -11.370  14.976  64.877  1.00  0.00    -0.417 A  
HETATM   13  N   UNL     1     -10.784  13.924  65.531  1.00  0.00    -0.291 NA 
ENDROOT
BRANCH  13  14
HETATM   14  C1* UNL     1     -11.238  12.544  65.569  1.00  0.00    -0.314 C  
HETATM   15  O4* UNL     1     -12.404  12.445  66.425  1.00  0.00    -0.539 OA 
HETATM   16  C4* UNL     1     -11.974  12.040  67.743  1.00  0.00    -0.106 C  
HETATM   17  H2* UNL     1      -8.347  10.951  66.312  1.00  0.00     0.000 HD 
HETATM   18  C3* UNL     1     -10.747  11.166  67.531  1.00  0.00    -0.236 C  
HETATM   19  C2* UNL     1     -10.314  11.424  66.087  1.00  0.00    -0.248 C  
HETATM   20  O3* UNL     1     -11.068   9.779  67.673  1.00  0.00    -0.449 OA 
HETATM   21  H3* UNL     1     -10.302   9.233  67.541  1.00  0.00     0.000 HD 
HETATM   22  O2* UNL     1      -8.916  11.642  65.993  1.00  0.00    -0.205 OA 
BRANCH  16  23
HETATM   23  C5* UNL     1     -11.651  13.266  68.611  1.00  0.00    -0.327 C  
HETATM   24  O5* UNL     1     -11.349  12.862  69.941  1.00  0.00    -0.491 OA 
HETATM   25  H5* UNL     1     -11.149  13.620  70.477  1.00  0.00     0.000 HD 
ENDBRANCH  16  23
ENDBRANCH  13  14
TORSDOF 2
ENDMDL
MODEL      123
REMARK 921   NORMALIZED FREE ENERGY PREDICTED BY IDOCK:   -4.59 KCAL/MOL
REMARK 922        TOTAL FREE ENERGY PREDICTED BY IDOCK:   -4.56 KCAL/MOL
REMARK 923 INTER-LIGAND FREE ENERGY PREDICTED BY IDOCK:   -4.33 KCAL/MOL
REMARK 924 INTRA-LIGAND FREE ENERGY PREDICTED BY IDOCK:   -0.23 KCAL/MOL
REMARK 927      BINDING AFFINITY PREDICTED BY RF-SCORE:    0.00 PKD
ROOT
HETATM    1  N   UNL     1      -7.676  11.760  69.024  1.00  0.00    -0.329 NA 
HETATM    2  C   UNL     1      -8.236  10.520  68.765  1.00  0.00    -0.134 A  
HETATM    3  H2  UNL     1      -8.338  12.486  68.752  1.00  0.00     0.000 HD 
HETATM    4  H1  UNL     1      -7.339  11.955  69.967  1.00  0.00     0.000 HD 
HETATM    5  N   UNL     1      -8.681  10.262  67.518  1.00  0.00    -0.125 NA 
HETATM    6  C   UNL     1      -9.274   9.075  67.281  1.00  0.00    -0.134 A  
HETATM    7  N   UNL     1      -9.509   8.078  68.159  1.00  0.00    -0.143 NA 
HETATM    8  F   UNL     1      -9.697   8.864  66.024  1.00  0.00    -0.283 F  
HETATM    9  C   UNL     1      -9.018   8.364  69.378  1.00  0.00    -0.153 A  
HETATM   10  C   UNL     1      -8.360   9.523  69.746  1.00  0.00    -0.164 A  
HETATM   11  N   UNL     1      -7.944   9.452  71.053  1.00  0.00    -0.327 NA 
HETATM   12  C   UNL     1      -8.352   8.273  71.474  1.00  0.00    -0.138 A  
HETATM   13  N   UNL     1      -9.101   7.614  70.533  1.00  0.00    -0.151 NA 
ENDROOT
BRANCH  13  14
HETATM   14  C1* UNL     1      -9.769   6.331  70.674  1.00  0.00    -0.176 C  
HETATM   15  O4* UNL     1     -11.202   6.521  70.559  1.00  0.00    -0.292 OA 
HETATM   16  C4* UNL     1     -11.759   6.635  71.886  1.00  0.00    -0.313 C  
HETATM   17  H2* UNL     1      -8.350   5.196  73.529  1.00  0.00     0.000 HD 
HETATM   18  C3* UNL     1     -10.880   5.777  72.783  1.00  0.00    -0.255 C  
HETATM   19  C2* UNL     1      -9.618   5.502  71.965  1.00  0.00    -0.151 C  
HETATM   20  O3* UNL     1     -11.511   4.529  73.085  1.00  0.00    -0.255 OA 
HETATM   21  H3* UNL     1     -10.962   3.993  73.646  1.00  0.00     0.000 HD 
HETATM   22  O2* UNL     1      -8.443   5.708  72.734  1.00  0.00    -0.119 OA 
BRANCH  16  23
HETATM   23  C5* UNL     1     -11.774   8.101  72.346  1.00  0.00    -0.399 C  
HETATM   24  O5* UNL     1     -12.016   8.962  71.240  1.00  0.00    -0.288 OA 
HETATM   25  H5* UNL     1     -12.025   9.868  71.524  1.00  0.00     0.000 HD 
ENDBRANCH  16  23
ENDBRANCH  13  14
TORSDOF 2
ENDMDL
MODEL      124
REMARK 921   NORMALIZED FREE ENERGY PREDICTED BY IDOCK:   -4.59 KCAL/MOL
REMARK 922        TOTAL FREE ENERGY PREDICTED BY IDOCK:   -4.55 KCAL/MOL
REMARK 923 INTER-LIGAND FREE ENERGY PREDICTED BY IDOCK:   -5.15 KCAL/MOL
REMARK 924 INTRA-LIGAND FREE ENERGY PREDICTED BY IDOCK:    0.60 KCAL/MOL
REMARK 927      BINDING AFFINITY PREDICTED BY RF-SCORE:    0.00 PKD
ROOT
HETATM    1  N   UNL     1     -13.208  13.374  71.615  1.00  0.00    -0.377 NA 
HETATM    2  C   UNL     1     -12.504  13.775  70.491  1.00  0.00    -0.339 A  
HETATM    3  H2  UNL     1     -14.072  13.912  71.674  1.00  0.00     0.000 HD 
HETATM    4  H1  UNL     1     -13.425  12.383  71.726  1.00  0.00     0.000 HD 
HETATM    5  N   UNL     1     -12.216  15.085  70.344  1.00  0.00    -0.317 NA 
HETATM    6  C   UNL     1     -11.579  15.479  69.224  1.00  0.00    -0.357 A  
HETATM    7  N   UNL     1     -11.190  14.717  68.181  1.00  0.00    -0.276 NA 
HETATM    8  F   UNL     1     -11.311  16.791  69.126  1.00  0.00    -0.256 F  
HETATM    9  C   UNL     1     -11.465  13.417  68.386  1.00  0.00    -0.316 A  
HETATM   10  C   UNL     1     -12.081  12.874  69.500  1.00  0.00    -0.214 A  
HETATM   11  N   UNL     1     -12.149  11.506  69.400  1.00  0.00    -0.304 NA 
HETATM   12  C   UNL     1     -11.593  11.224  68.239  1.00  0.00    -0.300 A  
HETATM   13  N   UNL     1     -11.256  12.352  67.535  1.00  0.00    -0.275 NA 
ENDROOT
BRANCH  13  14
HETATM   14  C1* UNL     1     -10.693  12.423  66.197  1.00  0.00    -0.260 C  
HETATM   15  O4* UNL     1     -11.113  11.263  65.437  1.00  0.00    -0.190 OA 
HETATM   16  C4* UNL     1     -10.075  10.262  65.512  1.00  0.00    -0.281 C  
HETATM   17  H2* UNL     1      -7.435  12.991  66.917  1.00  0.00     0.000 HD 
HETATM   18  C3* UNL     1      -8.766  11.028  65.625  1.00  0.00    -0.157 C  
HETATM   19  C2* UNL     1      -9.166  12.459  65.986  1.00  0.00    -0.050 C  
HETATM   20  O3* UNL     1      -8.068  11.048  64.376  1.00  0.00    -0.353 OA 
HETATM   21  H3* UNL     1      -7.250  11.526  64.447  1.00  0.00     0.000 HD 
HETATM   22  O2* UNL     1      -8.376  12.969  67.048  1.00  0.00    -0.170 OA 
BRANCH  16  23
HETATM   23  C5* UNL     1     -10.295   9.338  66.720  1.00  0.00    -0.226 C  
HETATM   24  O5* UNL     1      -9.047   8.966  67.289  1.00  0.00    -0.132 OA 
HETATM   25  H5* UNL     1      -9.183   8.395  68.035  1.00  0.00     0.000 HD 
ENDBRANCH  16  23
ENDBRANCH  13  14
TORSDOF 2
ENDMDL
MODEL      125
REMARK 921   NORMALIZED FREE ENERGY PREDICTED BY IDOCK:   -4.59 KCAL/MOL
REMARK 922        TOTAL FREE ENERGY PREDICTED BY IDOCK:   -4.55 KCAL/MOL
REMARK 923 INTER-LIGAND FREE ENERGY PREDICTED BY IDOCK:   -5.27 KCAL/MOL
REMARK 924 INTRA-LIGAND FREE ENERGY PREDICTED BY IDOCK:    0.73 KCAL/MOL
REMARK 927      BINDING AFFINITY PREDICTED BY RF-SCORE:    0.00 PKD
ROOT
HETATM    1  N   UNL     1     -11.373  12.273  64.382  1.00  0.00    -0.319 NA 
HETATM    2  C   UNL     1     -10.656  11.281  65.032  1.00  0.00    -0.289 A  
HETATM    3  H2  UNL     1     -11.830  11.869  63.564  1.00  0.00     0.000 HD 
HETATM    4  H1  UNL     1     -12.060  12.806  64.915  1.00  0.00     0.000 HD 
HETATM    5  N   UNL     1      -9.748  10.575  64.326  1.00  0.00    -0.306 NA 
HETATM    6  C   UNL     1      -9.090   9.576  64.947  1.00  0.00    -0.223 A  
HETATM    7  N   UNL     1      -9.233   9.157  66.221  1.00  0.00    -0.178 NA 
HETATM    8  F   UNL     1      -8.194   8.906  64.204  1.00  0.00    -0.135 F  
HETATM    9  C   UNL     1     -10.121   9.910  66.894  1.00  0.00    -0.225 A  
HETATM   10  C   UNL     1     -10.836  10.982  66.392  1.00  0.00    -0.191 A  
HETATM   11  N   UNL     1     -11.606  11.556  67.373  1.00  0.00    -0.556 NA 
HETATM   12  C   UNL     1     -11.369  10.838  68.452  1.00  0.00    -0.302 A  
HETATM   13  N   UNL     1     -10.558   9.763  68.194  1.00  0.00    -0.220 NA 
ENDROOT
BRANCH  13  14
HETATM   14  C1* UNL     1     -10.147   8.724  69.123  1.00  0.00    -0.198 C  
HETATM   15  O4* UNL     1     -11.308   8.232  69.838  1.00  0.00    -0.105 OA 
HETATM   16  C4* UNL     1     -11.399   8.926  71.101  1.00  0.00    -0.291 C  
HETATM   17  H2* UNL     1      -7.603  10.280  70.722  1.00  0.00     0.000 HD 
HETATM   18  C3* UNL     1      -9.968   9.240  71.508  1.00  0.00    -0.211 C  
HETATM   19  C2* UNL     1      -9.134   9.025  70.245  1.00  0.00    -0.202 C  
HETATM   20  O3* UNL     1      -9.508   8.339  72.520  1.00  0.00    -0.236 OA 
HETATM   21  H3* UNL     1      -8.614   8.535  72.775  1.00  0.00     0.000 HD 
HETATM   22  O2* UNL     1      -8.227  10.095  70.030  1.00  0.00    -0.160 OA 
BRANCH  16  23
HETATM   23  C5* UNL     1     -12.240  10.205  70.959  1.00  0.00    -0.374 C  
HETATM   24  O5* UNL     1     -13.613   9.876  70.794  1.00  0.00    -0.553 OA 
HETATM   25  H5* UNL     1     -14.133  10.666  70.707  1.00  0.00     0.000 HD 
ENDBRANCH  16  23
ENDBRANCH  13  14
TORSDOF 2
ENDMDL
MODEL      126
REMARK 921   NORMALIZED FREE ENERGY PREDICTED BY IDOCK:   -4.57 KCAL/MOL
REMARK 922        TOTAL FREE ENERGY PREDICTED BY IDOCK:   -4.53 KCAL/MOL
REMARK 923 INTER-LIGAND FREE ENERGY PREDICTED BY IDOCK:   -4.38 KCAL/MOL
REMARK 924 INTRA-LIGAND FREE ENERGY PREDICTED BY IDOCK:   -0.15 KCAL/MOL
REMARK 927      BINDING AFFINITY PREDICTED BY RF-SCORE:    0.00 PKD
ROOT
HETATM    1  N   UNL     1      -6.466   8.092  65.537  1.00  0.00    -0.048 NA 
HETATM    2  C   UNL     1      -7.764   8.278  65.986  1.00  0.00    -0.093 A  
HETATM    3  H2  UNL     1      -5.995   8.996  65.502  1.00  0.00     0.000 HD 
HETATM    4  H1  UNL     1      -5.870   7.427  66.032  1.00  0.00     0.000 HD 
HETATM    5  N   UNL     1      -8.551   9.157  65.333  1.00  0.00    -0.158 NA 
HETATM    6  C   UNL     1      -9.796   9.376  65.804  1.00  0.00    -0.275 A  
HETATM    7  N   UNL     1     -10.377   8.828  66.892  1.00  0.00    -0.282 NA 
HETATM    8  F   UNL     1     -10.542  10.256  65.118  1.00  0.00    -0.338 F  
HETATM    9  C   UNL     1      -9.569   7.934  67.489  1.00  0.00    -0.152 A  
HETATM   10  C   UNL     1      -8.290   7.590  67.092  1.00  0.00    -0.121 A  
HETATM   11  N   UNL     1      -7.780   6.601  67.897  1.00  0.00    -0.106 NA 
HETATM   12  C   UNL     1      -8.731   6.356  68.775  1.00  0.00    -0.122 A  
HETATM   13  N   UNL     1      -9.797   7.208  68.640  1.00  0.00    -0.151 NA 
ENDROOT
BRANCH  13  14
HETATM   14  C1* UNL     1     -10.985   7.276  69.473  1.00  0.00    -0.164 C  
HETATM   15  O4* UNL     1     -11.100   8.607  70.038  1.00  0.00    -0.237 OA 
HETATM   16  C4* UNL     1     -10.521   8.597  71.360  1.00  0.00    -0.257 C  
HETATM   17  H2* UNL     1     -10.539   4.549  71.427  1.00  0.00     0.000 HD 
HETATM   18  C3* UNL     1     -10.755   7.198  71.908  1.00  0.00    -0.216 C  
HETATM   19  C2* UNL     1     -11.144   6.351  70.696  1.00  0.00    -0.317 C  
HETATM   20  O3* UNL     1     -11.838   7.183  72.844  1.00  0.00    -0.528 OA 
HETATM   21  H3* UNL     1     -11.984   6.308  73.187  1.00  0.00     0.000 HD 
HETATM   22  O2* UNL     1     -10.440   5.120  70.673  1.00  0.00    -0.250 OA 
BRANCH  16  23
HETATM   23  C5* UNL     1      -9.023   8.937  71.301  1.00  0.00    -0.243 C  
HETATM   24  O5* UNL     1      -8.787   9.955  70.337  1.00  0.00    -0.319 OA 
HETATM   25  H5* UNL     1      -7.862  10.166  70.301  1.00  0.00     0.000 HD 
ENDBRANCH  16  23
ENDBRANCH  13  14
TORSDOF 2
ENDMDL
MODEL      127
REMARK 921   NORMALIZED FREE ENERGY PREDICTED BY IDOCK:   -4.57 KCAL/MOL
REMARK 922        TOTAL FREE ENERGY PREDICTED BY IDOCK:   -4.53 KCAL/MOL
REMARK 923 INTER-LIGAND FREE ENERGY PREDICTED BY IDOCK:   -4.30 KCAL/MOL
REMARK 924 INTRA-LIGAND FREE ENERGY PREDICTED BY IDOCK:   -0.22 KCAL/MOL
REMARK 927      BINDING AFFINITY PREDICTED BY RF-SCORE:    0.00 PKD
ROOT
HETATM    1  N   UNL     1      -7.034   6.959  65.621  1.00  0.00    -0.062 NA 
HETATM    2  C   UNL     1      -8.142   6.483  66.303  1.00  0.00    -0.115 A  
HETATM    3  H2  UNL     1      -7.347   7.557  64.856  1.00  0.00     0.000 HD 
HETATM    4  H1  UNL     1      -6.310   7.447  66.149  1.00  0.00     0.000 HD 
HETATM    5  N   UNL     1      -9.099   5.837  65.605  1.00  0.00    -0.119 NA 
HETATM    6  C   UNL     1     -10.201   5.422  66.261  1.00  0.00    -0.192 A  
HETATM    7  N   UNL     1     -10.497   5.586  67.567  1.00  0.00    -0.217 NA 
HETATM    8  F   UNL     1     -11.123   4.781  65.525  1.00  0.00    -0.336 F  
HETATM    9  C   UNL     1      -9.502   6.202  68.228  1.00  0.00    -0.117 A  
HETATM   10  C   UNL     1      -8.309   6.646  67.687  1.00  0.00    -0.122 A  
HETATM   11  N   UNL     1      -7.499   7.175  68.663  1.00  0.00    -0.100 NA 
HETATM   12  C   UNL     1      -8.195   7.063  69.776  1.00  0.00    -0.131 A  
HETATM   13  N   UNL     1      -9.457   6.577  69.555  1.00  0.00    -0.147 NA 
ENDROOT
BRANCH  13  14
HETATM   14  C1* UNL     1     -10.516   6.391  70.533  1.00  0.00    -0.220 C  
HETATM   15  O4* UNL     1     -11.655   7.210  70.170  1.00  0.00    -0.249 OA 
HETATM   16  C4* UNL     1     -11.584   8.450  70.906  1.00  0.00    -0.262 C  
HETATM   17  H2* UNL     1      -8.809   6.895  73.411  1.00  0.00     0.000 HD 
HETATM   18  C3* UNL     1     -10.909   8.112  72.227  1.00  0.00    -0.320 C  
HETATM   19  C2* UNL     1     -10.286   6.731  72.018  1.00  0.00    -0.196 C  
HETATM   20  O3* UNL     1     -11.865   8.028  73.289  1.00  0.00    -0.590 OA 
HETATM   21  H3* UNL     1     -11.443   7.817  74.115  1.00  0.00     0.000 HD 
HETATM   22  O2* UNL     1      -8.951   6.685  72.495  1.00  0.00    -0.132 OA 
BRANCH  16  23
HETATM   23  C5* UNL     1     -10.790   9.505  70.120  1.00  0.00    -0.258 C  
HETATM   24  O5* UNL     1     -10.999   9.339  68.723  1.00  0.00    -0.418 OA 
HETATM   25  H5* UNL     1     -10.508   9.991  68.238  1.00  0.00     0.000 HD 
ENDBRANCH  16  23
ENDBRANCH  13  14
TORSDOF 2
ENDMDL
MODEL      128
REMARK 921   NORMALIZED FREE ENERGY PREDICTED BY IDOCK:   -4.54 KCAL/MOL
REMARK 922        TOTAL FREE ENERGY PREDICTED BY IDOCK:   -4.50 KCAL/MOL
REMARK 923 INTER-LIGAND FREE ENERGY PREDICTED BY IDOCK:   -4.42 KCAL/MOL
REMARK 924 INTRA-LIGAND FREE ENERGY PREDICTED BY IDOCK:   -0.08 KCAL/MOL
REMARK 927      BINDING AFFINITY PREDICTED BY RF-SCORE:    0.00 PKD
ROOT
HETATM    1  N   UNL     1     -12.635   8.032  72.733  1.00  0.00    -0.583 NA 
HETATM    2  C   UNL     1     -11.338   7.647  72.435  1.00  0.00    -0.329 A  
HETATM    3  H2  UNL     1     -12.646   9.033  72.932  1.00  0.00     0.000 HD 
HETATM    4  H1  UNL     1     -13.373   7.821  72.060  1.00  0.00     0.000 HD 
HETATM    5  N   UNL     1     -10.363   7.927  73.324  1.00  0.00    -0.300 NA 
HETATM    6  C   UNL     1      -9.094   7.599  73.008  1.00  0.00    -0.186 A  
HETATM    7  N   UNL     1      -8.646   7.023  71.873  1.00  0.00    -0.121 NA 
HETATM    8  F   UNL     1      -8.160   7.894  73.926  1.00  0.00    -0.172 F  
HETATM    9  C   UNL     1      -9.655   6.731  71.034  1.00  0.00    -0.170 A  
HETATM   10  C   UNL     1     -10.999   6.979  71.247  1.00  0.00    -0.243 A  
HETATM   11  N   UNL     1     -11.754   6.496  70.207  1.00  0.00    -0.410 NA 
HETATM   12  C   UNL     1     -10.882   5.972  69.371  1.00  0.00    -0.363 A  
HETATM   13  N   UNL     1      -9.587   6.179  69.771  1.00  0.00    -0.149 NA 
ENDROOT
BRANCH  13  14
HETATM   14  C1* UNL     1      -8.373   5.806  69.065  1.00  0.00    -0.101 C  
HETATM   15  O4* UNL     1      -7.708   7.002  68.586  1.00  0.00    -0.114 OA 
HETATM   16  C4* UNL     1      -8.097   7.227  67.214  1.00  0.00    -0.112 C  
HETATM   17  H2* UNL     1      -9.579   3.470  66.934  1.00  0.00     0.000 HD 
HETATM   18  C3* UNL     1      -8.340   5.848  66.619  1.00  0.00    -0.110 C  
HETATM   19  C2* UNL     1      -8.433   4.903  67.817  1.00  0.00    -0.104 C  
HETATM   20  O3* UNL     1      -7.243   5.439  65.796  1.00  0.00    -0.066 OA 
HETATM   21  H3* UNL     1      -7.395   4.578  65.424  1.00  0.00     0.000 HD 
HETATM   22  O2* UNL     1      -9.542   4.026  67.704  1.00  0.00    -0.180 OA 
BRANCH  16  23
HETATM   23  C5* UNL     1      -9.357   8.103  67.142  1.00  0.00    -0.145 C  
HETATM   24  O5* UNL     1     -10.289   7.551  66.220  1.00  0.00    -0.461 OA 
HETATM   25  H5* UNL     1     -11.067   8.092  66.175  1.00  0.00     0.000 HD 
ENDBRANCH  16  23
ENDBRANCH  13  14
TORSDOF 2
ENDMDL
MODEL      129
REMARK 921   NORMALIZED FREE ENERGY PREDICTED BY IDOCK:   -4.54 KCAL/MOL
REMARK 922        TOTAL FREE ENERGY PREDICTED BY IDOCK:   -4.50 KCAL/MOL
REMARK 923 INTER-LIGAND FREE ENERGY PREDICTED BY IDOCK:   -4.49 KCAL/MOL
REMARK 924 INTRA-LIGAND FREE ENERGY PREDICTED BY IDOCK:   -0.00 KCAL/MOL
REMARK 927      BINDING AFFINITY PREDICTED BY RF-SCORE:    0.00 PKD
ROOT
HETATM    1  N   UNL     1     -12.497  14.391  67.180  1.00  0.00    -0.521 NA 
HETATM    2  C   UNL     1     -11.306  13.851  67.639  1.00  0.00    -0.309 A  
HETATM    3  H2  UNL     1     -12.312  14.928  66.333  1.00  0.00     0.000 HD 
HETATM    4  H1  UNL     1     -13.282  13.762  67.009  1.00  0.00     0.000 HD 
HETATM    5  N   UNL     1     -10.267  14.681  67.864  1.00  0.00    -0.225 NA 
HETATM    6  C   UNL     1      -9.094  14.148  68.260  1.00  0.00    -0.190 A  
HETATM    7  N   UNL     1      -8.800  12.845  68.451  1.00  0.00    -0.160 NA 
HETATM    8  F   UNL     1      -8.092  15.015  68.475  1.00  0.00    -0.125 F  
HETATM    9  C   UNL     1      -9.873  12.060  68.249  1.00  0.00    -0.204 A  
HETATM   10  C   UNL     1     -11.138  12.477  67.878  1.00  0.00    -0.245 A  
HETATM   11  N   UNL     1     -12.005  11.413  67.820  1.00  0.00    -0.646 NA 
HETATM   12  C   UNL     1     -11.274  10.365  68.141  1.00  0.00    -0.268 A  
HETATM   13  N   UNL     1      -9.951  10.684  68.309  1.00  0.00    -0.154 NA 
ENDROOT
BRANCH  13  14
HETATM   14  C1* UNL     1      -8.853   9.776  68.595  1.00  0.00    -0.126 C  
HETATM   15  O4* UNL     1      -7.731  10.092  67.733  1.00  0.00    -0.090 OA 
HETATM   16  C4* UNL     1      -7.775   9.221  66.583  1.00  0.00    -0.093 C  
HETATM   17  H2* UNL     1     -10.442   6.793  68.422  1.00  0.00     0.000 HD 
HETATM   18  C3* UNL     1      -8.394   7.919  67.069  1.00  0.00    -0.117 C  
HETATM   19  C2* UNL     1      -9.023   8.254  68.422  1.00  0.00    -0.136 C  
HETATM   20  O3* UNL     1      -7.397   6.912  67.263  1.00  0.00    -0.086 OA 
HETATM   21  H3* UNL     1      -7.784   6.098  67.566  1.00  0.00     0.000 HD 
HETATM   22  O2* UNL     1     -10.338   7.732  68.528  1.00  0.00    -0.198 OA 
BRANCH  16  23
HETATM   23  C5* UNL     1      -8.602   9.852  65.452  1.00  0.00    -0.152 C  
HETATM   24  O5* UNL     1      -9.831   9.155  65.293  1.00  0.00    -0.444 OA 
HETATM   25  H5* UNL     1     -10.343   9.546  64.595  1.00  0.00     0.000 HD 
ENDBRANCH  16  23
ENDBRANCH  13  14
TORSDOF 2
ENDMDL
MODEL      130
REMARK 921   NORMALIZED FREE ENERGY PREDICTED BY IDOCK:   -4.48 KCAL/MOL
REMARK 922        TOTAL FREE ENERGY PREDICTED BY IDOCK:   -4.43 KCAL/MOL
REMARK 923 INTER-LIGAND FREE ENERGY PREDICTED BY IDOCK:   -4.37 KCAL/MOL
REMARK 924 INTRA-LIGAND FREE ENERGY PREDICTED BY IDOCK:   -0.06 KCAL/MOL
REMARK 927      BINDING AFFINITY PREDICTED BY RF-SCORE:    0.00 PKD
ROOT
HETATM    1  N   UNL     1     -13.012   6.427  72.292  1.00  0.00    -0.498 NA 
HETATM    2  C   UNL     1     -12.094   7.142  71.540  1.00  0.00    -0.342 A  
HETATM    3  H2  UNL     1     -13.954   6.714  72.026  1.00  0.00     0.000 HD 
HETATM    4  H1  UNL     1     -12.960   5.408  72.283  1.00  0.00     0.000 HD 
HETATM    5  N   UNL     1     -12.162   8.489  71.551  1.00  0.00    -0.301 NA 
HETATM    6  C   UNL     1     -11.302   9.181  70.777  1.00  0.00    -0.280 A  
HETATM    7  N   UNL     1     -10.359   8.691  69.946  1.00  0.00    -0.204 NA 
HETATM    8  F   UNL     1     -11.406  10.519  70.826  1.00  0.00    -0.367 F  
HETATM    9  C   UNL     1     -10.305   7.349  69.993  1.00  0.00    -0.219 A  
HETATM   10  C   UNL     1     -11.099   6.521  70.766  1.00  0.00    -0.300 A  
HETATM   11  N   UNL     1     -10.731   5.208  70.610  1.00  0.00    -0.141 NA 
HETATM   12  C   UNL     1      -9.735   5.236  69.749  1.00  0.00    -0.189 A  
HETATM   13  N   UNL     1      -9.504   6.497  69.261  1.00  0.00    -0.140 NA 
ENDROOT
BRANCH  13  14
HETATM   14  C1* UNL     1      -8.538   6.889  68.249  1.00  0.00    -0.125 C  
HETATM   15  O4* UNL     1      -9.237   7.242  67.029  1.00  0.00    -0.134 OA 
HETATM   16  C4* UNL     1      -9.254   6.090  66.159  1.00  0.00    -0.138 C  
HETATM   17  H2* UNL     1      -6.396   4.273  68.376  1.00  0.00     0.000 HD 
HETATM   18  C3* UNL     1      -7.972   5.327  66.453  1.00  0.00    -0.104 C  
HETATM   19  C2* UNL     1      -7.453   5.904  67.770  1.00  0.00    -0.078 C  
HETATM   20  O3* UNL     1      -6.990   5.551  65.436  1.00  0.00    -0.061 OA 
HETATM   21  H3* UNL     1      -6.189   5.074  65.620  1.00  0.00     0.000 HD 
HETATM   22  O2* UNL     1      -7.065   4.880  68.671  1.00  0.00    -0.055 OA 
BRANCH  16  23
HETATM   23  C5* UNL     1     -10.498   5.227  66.421  1.00  0.00    -0.292 C  
HETATM   24  O5* UNL     1     -10.149   3.848  66.420  1.00  0.00    -0.403 OA 
HETATM   25  H5* UNL     1     -10.918   3.315  66.583  1.00  0.00     0.000 HD 
ENDBRANCH  16  23
ENDBRANCH  13  14
TORSDOF 2
ENDMDL
MODEL      131
REMARK 921   NORMALIZED FREE ENERGY PREDICTED BY IDOCK:   -4.48 KCAL/MOL
REMARK 922        TOTAL FREE ENERGY PREDICTED BY IDOCK:   -4.43 KCAL/MOL
REMARK 923 INTER-LIGAND FREE ENERGY PREDICTED BY IDOCK:   -5.13 KCAL/MOL
REMARK 924 INTRA-LIGAND FREE ENERGY PREDICTED BY IDOCK:    0.70 KCAL/MOL
REMARK 927      BINDING AFFINITY PREDICTED BY RF-SCORE:    0.00 PKD
ROOT
HETATM    1  N   UNL     1     -11.123   7.856  70.956  1.00  0.00    -0.246 NA 
HETATM    2  C   UNL     1     -10.542   8.213  69.750  1.00  0.00    -0.231 A  
HETATM    3  H2  UNL     1     -10.426   7.386  71.534  1.00  0.00     0.000 HD 
HETATM    4  H1  UNL     1     -11.579   8.581  71.510  1.00  0.00     0.000 HD 
HETATM    5  N   UNL     1      -9.938   7.255  69.018  1.00  0.00    -0.172 NA 
HETATM    6  C   UNL     1      -9.327   7.614  67.871  1.00  0.00    -0.139 A  
HETATM    7  N   UNL     1      -9.216   8.852  67.345  1.00  0.00    -0.134 NA 
HETATM    8  F   UNL     1      -8.744   6.625  67.175  1.00  0.00    -0.111 F  
HETATM    9  C   UNL     1      -9.860   9.767  68.090  1.00  0.00    -0.148 A  
HETATM   10  C   UNL     1     -10.554   9.530  69.263  1.00  0.00    -0.220 A  
HETATM   11  N   UNL     1     -11.138  10.684  69.724  1.00  0.00    -0.277 NA 
HETATM   12  C   UNL     1     -10.796  11.609  68.851  1.00  0.00    -0.220 A  
HETATM   13  N   UNL     1      -9.935  11.131  67.897  1.00  0.00    -0.170 NA 
ENDROOT
BRANCH  13  14
HETATM   14  C1* UNL     1      -9.299  11.879  66.825  1.00  0.00    -0.201 C  
HETATM   15  O4* UNL     1      -9.318  13.292  67.149  1.00  0.00    -0.222 OA 
HETATM   16  C4* UNL     1     -10.462  13.896  66.508  1.00  0.00    -0.282 C  
HETATM   17  H2* UNL     1     -10.948  10.651  64.137  1.00  0.00     0.000 HD 
HETATM   18  C3* UNL     1     -10.685  13.108  65.226  1.00  0.00    -0.303 C  
HETATM   19  C2* UNL     1      -9.860  11.832  65.390  1.00  0.00    -0.233 C  
HETATM   20  O3* UNL     1     -10.201  13.825  64.087  1.00  0.00    -0.705 OA 
HETATM   21  H3* UNL     1     -10.341  13.332  63.286  1.00  0.00     0.000 HD 
HETATM   22  O2* UNL     1     -10.603  10.680  65.022  1.00  0.00    -0.255 OA 
BRANCH  16  23
HETATM   23  C5* UNL     1     -11.692  13.844  67.426  1.00  0.00    -0.389 C  
HETATM   24  O5* UNL     1     -12.035  15.152  67.865  1.00  0.00    -0.473 OA 
HETATM   25  H5* UNL     1     -12.796  15.119  68.432  1.00  0.00     0.000 HD 
ENDBRANCH  16  23
ENDBRANCH  13  14
TORSDOF 2
ENDMDL
MODEL      132
REMARK 921   NORMALIZED FREE ENERGY PREDICTED BY IDOCK:   -4.45 KCAL/MOL
REMARK 922        TOTAL FREE ENERGY PREDICTED BY IDOCK:   -4.40 KCAL/MOL
REMARK 923 INTER-LIGAND FREE ENERGY PREDICTED BY IDOCK:   -5.00 KCAL/MOL
REMARK 924 INTRA-LIGAND FREE ENERGY PREDICTED BY IDOCK:    0.60 KCAL/MOL
REMARK 927      BINDING AFFINITY PREDICTED BY RF-SCORE:    0.00 PKD
ROOT
HETATM    1  N   UNL     1      -7.196  11.086  68.902  1.00  0.00    -0.094 NA 
HETATM    2  C   UNL     1      -8.455  10.578  69.177  1.00  0.00    -0.147 A  
HETATM    3  H2  UNL     1      -7.256  12.102  68.837  1.00  0.00     0.000 HD 
HETATM    4  H1  UNL     1      -6.425  10.839  69.522  1.00  0.00     0.000 HD 
HETATM    5  N   UNL     1      -9.475  10.906  68.357  1.00  0.00    -0.171 NA 
HETATM    6  C   UNL     1     -10.709  10.454  68.656  1.00  0.00    -0.218 A  
HETATM    7  N   UNL     1     -11.082   9.705  69.715  1.00  0.00    -0.236 NA 
HETATM    8  F   UNL     1     -11.690  10.803  67.808  1.00  0.00    -0.362 F  
HETATM    9  C   UNL     1     -10.030   9.374  70.484  1.00  0.00    -0.267 A  
HETATM   10  C   UNL     1      -8.712   9.739  70.273  1.00  0.00    -0.129 A  
HETATM   11  N   UNL     1      -7.894   9.176  71.222  1.00  0.00    -0.324 NA 
HETATM   12  C   UNL     1      -8.703   8.489  72.002  1.00  0.00    -0.196 A  
HETATM   13  N   UNL     1     -10.021   8.659  71.664  1.00  0.00    -0.254 NA 
ENDROOT
BRANCH  13  14
HETATM   14  C1* UNL     1     -11.185   8.115  72.343  1.00  0.00    -0.386 C  
HETATM   15  O4* UNL     1     -10.812   7.710  73.684  1.00  0.00    -0.308 OA 
HETATM   16  C4* UNL     1     -10.514   6.297  73.672  1.00  0.00    -0.284 C  
HETATM   17  H2* UNL     1     -12.264   5.877  70.045  1.00  0.00     0.000 HD 
HETATM   18  C3* UNL     1     -11.407   5.692  72.600  1.00  0.00    -0.305 C  
HETATM   19  C2* UNL     1     -11.918   6.880  71.784  1.00  0.00    -0.333 C  
HETATM   20  O3* UNL     1     -12.529   5.018  73.180  1.00  0.00    -0.342 OA 
HETATM   21  H3* UNL     1     -13.087   4.640  72.510  1.00  0.00     0.000 HD 
HETATM   22  O2* UNL     1     -11.812   6.639  70.390  1.00  0.00    -0.396 OA 
BRANCH  16  23
HETATM   23  C5* UNL     1      -9.027   6.057  73.369  1.00  0.00    -0.129 C  
HETATM   24  O5* UNL     1      -8.875   4.945  72.495  1.00  0.00    -0.121 OA 
HETATM   25  H5* UNL     1      -7.956   4.797  72.308  1.00  0.00     0.000 HD 
ENDBRANCH  16  23
ENDBRANCH  13  14
TORSDOF 2
ENDMDL
MODEL      133
REMARK 921   NORMALIZED FREE ENERGY PREDICTED BY IDOCK:   -4.45 KCAL/MOL
REMARK 922        TOTAL FREE ENERGY PREDICTED BY IDOCK:   -4.40 KCAL/MOL
REMARK 923 INTER-LIGAND FREE ENERGY PREDICTED BY IDOCK:   -5.37 KCAL/MOL
REMARK 924 INTRA-LIGAND FREE ENERGY PREDICTED BY IDOCK:    0.97 KCAL/MOL
REMARK 927      BINDING AFFINITY PREDICTED BY RF-SCORE:    0.00 PKD
ROOT
HETATM    1  N   UNL     1     -11.255  12.107  67.440  1.00  0.00    -0.282 NA 
HETATM    2  C   UNL     1     -11.527  11.592  68.697  1.00  0.00    -0.290 A  
HETATM    3  H2  UNL     1     -10.944  13.073  67.538  1.00  0.00     0.000 HD 
HETATM    4  H1  UNL     1     -10.599  11.606  66.840  1.00  0.00     0.000 HD 
HETATM    5  N   UNL     1     -12.394  12.254  69.490  1.00  0.00    -0.052 NA 
HETATM    6  C   UNL     1     -12.616  11.781  70.733  1.00  0.00    -0.253 A  
HETATM    7  N   UNL     1     -12.054  10.704  71.321  1.00  0.00    -0.331 NA 
HETATM    8  F   UNL     1     -13.490  12.471  71.483  1.00  0.00    -0.413 F  
HETATM    9  C   UNL     1     -11.225  10.058  70.483  1.00  0.00    -0.336 A  
HETATM   10  C   UNL     1     -10.936  10.413  69.178  1.00  0.00    -0.241 A  
HETATM   11  N   UNL     1     -10.095   9.494  68.598  1.00  0.00    -0.174 NA 
HETATM   12  C   UNL     1      -9.870   8.601  69.540  1.00  0.00    -0.187 A  
HETATM   13  N   UNL     1     -10.445   8.948  70.736  1.00  0.00    -0.212 NA 
ENDROOT
BRANCH  13  14
HETATM   14  C1* UNL     1     -10.346   8.242  72.002  1.00  0.00    -0.279 C  
HETATM   15  O4* UNL     1      -9.473   7.096  71.846  1.00  0.00    -0.147 OA 
HETATM   16  C4* UNL     1     -10.285   5.931  71.586  1.00  0.00    -0.202 C  
HETATM   17  H2* UNL     1     -13.620   7.890  72.782  1.00  0.00     0.000 HD 
HETATM   18  C3* UNL     1     -11.595   6.163  72.324  1.00  0.00    -0.313 C  
HETATM   19  C2* UNL     1     -11.600   7.651  72.675  1.00  0.00    -0.317 C  
HETATM   20  O3* UNL     1     -11.648   5.405  73.537  1.00  0.00    -0.449 OA 
HETATM   21  H3* UNL     1     -12.466   5.550  73.997  1.00  0.00     0.000 HD 
HETATM   22  O2* UNL     1     -12.847   8.255  72.367  1.00  0.00    -0.301 OA 
BRANCH  16  23
HETATM   23  C5* UNL     1     -10.511   5.750  70.077  1.00  0.00    -0.283 C  
HETATM   24  O5* UNL     1     -11.834   6.138  69.727  1.00  0.00    -0.310 OA 
HETATM   25  H5* UNL     1     -11.974   6.026  68.795  1.00  0.00     0.000 HD 
ENDBRANCH  16  23
ENDBRANCH  13  14
TORSDOF 2
ENDMDL
MODEL      134
REMARK 921   NORMALIZED FREE ENERGY PREDICTED BY IDOCK:   -4.44 KCAL/MOL
REMARK 922        TOTAL FREE ENERGY PREDICTED BY IDOCK:   -4.39 KCAL/MOL
REMARK 923 INTER-LIGAND FREE ENERGY PREDICTED BY IDOCK:   -4.66 KCAL/MOL
REMARK 924 INTRA-LIGAND FREE ENERGY PREDICTED BY IDOCK:    0.27 KCAL/MOL
REMARK 927      BINDING AFFINITY PREDICTED BY RF-SCORE:    0.00 PKD
ROOT
HETATM    1  N   UNL     1     -12.513  13.777  69.854  1.00  0.00    -0.262 NA 
HETATM    2  C   UNL     1     -11.317  13.535  69.199  1.00  0.00    -0.282 A  
HETATM    3  H2  UNL     1     -13.038  14.482  69.337  1.00  0.00     0.000 HD 
HETATM    4  H1  UNL     1     -13.128  12.987  70.053  1.00  0.00     0.000 HD 
HETATM    5  N   UNL     1     -10.505  14.580  68.936  1.00  0.00    -0.243 NA 
HETATM    6  C   UNL     1      -9.366  14.350  68.252  1.00  0.00    -0.206 A  
HETATM    7  N   UNL     1      -8.919  13.176  67.759  1.00  0.00    -0.183 NA 
HETATM    8  F   UNL     1      -8.589  15.420  68.018  1.00  0.00    -0.147 F  
HETATM    9  C   UNL     1      -9.741  12.160  68.075  1.00  0.00    -0.203 A  
HETATM   10  C   UNL     1     -10.917  12.250  68.798  1.00  0.00    -0.236 A  
HETATM   11  N   UNL     1     -11.471  11.007  68.983  1.00  0.00    -0.272 NA 
HETATM   12  C   UNL     1     -10.650  10.177  68.373  1.00  0.00    -0.217 A  
HETATM   13  N   UNL     1      -9.641  10.832  67.715  1.00  0.00    -0.161 NA 
ENDROOT
BRANCH  13  14
HETATM   14  C1* UNL     1      -8.602  10.247  66.884  1.00  0.00    -0.126 C  
HETATM   15  O4* UNL     1      -8.300  11.147  65.788  1.00  0.00    -0.140 OA 
HETATM   16  C4* UNL     1      -9.060  10.734  64.632  1.00  0.00    -0.201 C  
HETATM   17  H2* UNL     1      -9.887   7.163  66.350  1.00  0.00     0.000 HD 
HETATM   18  C3* UNL     1      -9.203   9.223  64.745  1.00  0.00    -0.095 C  
HETATM   19  C2* UNL     1      -8.821   8.890  66.187  1.00  0.00    -0.161 C  
HETATM   20  O3* UNL     1      -8.299   8.550  63.863  1.00  0.00    -0.274 OA 
HETATM   21  H3* UNL     1      -8.389   7.607  63.934  1.00  0.00     0.000 HD 
HETATM   22  O2* UNL     1      -9.752   7.999  66.780  1.00  0.00    -0.198 OA 
BRANCH  16  23
HETATM   23  C5* UNL     1     -10.429  11.430  64.602  1.00  0.00    -0.315 C  
HETATM   24  O5* UNL     1     -11.030  11.281  63.322  1.00  0.00    -0.738 OA 
HETATM   25  H5* UNL     1     -11.876  11.712  63.304  1.00  0.00     0.000 HD 
ENDBRANCH  16  23
ENDBRANCH  13  14
TORSDOF 2
ENDMDL
MODEL      135
REMARK 921   NORMALIZED FREE ENERGY PREDICTED BY IDOCK:   -4.44 KCAL/MOL
REMARK 922        TOTAL FREE ENERGY PREDICTED BY IDOCK:   -4.39 KCAL/MOL
REMARK 923 INTER-LIGAND FREE ENERGY PREDICTED BY IDOCK:   -4.17 KCAL/MOL
REMARK 924 INTRA-LIGAND FREE ENERGY PREDICTED BY IDOCK:   -0.22 KCAL/MOL
REMARK 927      BINDING AFFINITY PREDICTED BY RF-SCORE:    0.00 PKD
ROOT
HETATM    1  N   UNL     1     -11.797   6.888  71.694  1.00  0.00    -0.304 NA 
HETATM    2  C   UNL     1     -11.350   7.127  70.404  1.00  0.00    -0.289 A  
HETATM    3  H2  UNL     1     -11.292   6.089  72.077  1.00  0.00     0.000 HD 
HETATM    4  H1  UNL     1     -11.769   7.652  72.369  1.00  0.00     0.000 HD 
HETATM    5  N   UNL     1     -11.386   6.116  69.512  1.00  0.00    -0.421 NA 
HETATM    6  C   UNL     1     -10.901   6.336  68.274  1.00  0.00    -0.319 A  
HETATM    7  N   UNL     1     -10.346   7.468  67.791  1.00  0.00    -0.202 NA 
HETATM    8  F   UNL     1     -10.964   5.301  67.420  1.00  0.00    -0.230 F  
HETATM    9  C   UNL     1     -10.363   8.456  68.702  1.00  0.00    -0.197 A  
HETATM   10  C   UNL     1     -10.860   8.377  69.991  1.00  0.00    -0.225 A  
HETATM   11  N   UNL     1     -10.769   9.592  70.624  1.00  0.00    -0.299 NA 
HETATM   12  C   UNL     1     -10.216  10.394  69.737  1.00  0.00    -0.184 A  
HETATM   13  N   UNL     1      -9.852   9.732  68.592  1.00  0.00    -0.154 NA 
ENDROOT
BRANCH  13  14
HETATM   14  C1* UNL     1      -9.158  10.279  67.438  1.00  0.00    -0.138 C  
HETATM   15  O4* UNL     1      -7.915   9.559  67.240  1.00  0.00    -0.105 OA 
HETATM   16  C4* UNL     1      -6.849  10.298  67.874  1.00  0.00    -0.074 C  
HETATM   17  H2* UNL     1      -9.200  13.579  68.185  1.00  0.00     0.000 HD 
HETATM   18  C3* UNL     1      -7.243  11.764  67.776  1.00  0.00    -0.097 C  
HETATM   19  C2* UNL     1      -8.726  11.759  67.406  1.00  0.00    -0.162 C  
HETATM   20  O3* UNL     1      -6.514  12.428  66.738  1.00  0.00    -0.449 OA 
HETATM   21  H3* UNL     1      -6.760  13.344  66.678  1.00  0.00     0.000 HD 
HETATM   22  O2* UNL     1      -9.466  12.667  68.205  1.00  0.00    -0.213 OA 
BRANCH  16  23
HETATM   23  C5* UNL     1      -6.674   9.857  69.334  1.00  0.00    -0.057 C  
HETATM   24  O5* UNL     1      -7.054   8.495  69.486  1.00  0.00    -0.051 OA 
HETATM   25  H5* UNL     1      -6.945   8.221  70.389  1.00  0.00     0.000 HD 
ENDBRANCH  16  23
ENDBRANCH  13  14
TORSDOF 2
ENDMDL
MODEL      136
REMARK 921   NORMALIZED FREE ENERGY PREDICTED BY IDOCK:   -4.44 KCAL/MOL
REMARK 922        TOTAL FREE ENERGY PREDICTED BY IDOCK:   -4.38 KCAL/MOL
REMARK 923 INTER-LIGAND FREE ENERGY PREDICTED BY IDOCK:   -4.34 KCAL/MOL
REMARK 924 INTRA-LIGAND FREE ENERGY PREDICTED BY IDOCK:   -0.05 KCAL/MOL
REMARK 927      BINDING AFFINITY PREDICTED BY RF-SCORE:    0.00 PKD
ROOT
HETATM    1  N   UNL     1     -11.760  11.652  63.157  1.00  0.00    -0.881 NA 
HETATM    2  C   UNL     1     -10.584  11.087  63.623  1.00  0.00    -0.269 A  
HETATM    3  H2  UNL     1     -12.377  10.910  62.830  1.00  0.00     0.000 HD 
HETATM    4  H1  UNL     1     -12.283  12.268  63.780  1.00  0.00     0.000 HD 
HETATM    5  N   UNL     1      -9.892  10.272  62.800  1.00  0.00    -0.138 NA 
HETATM    6  C   UNL     1      -8.776   9.681  63.272  1.00  0.00    -0.230 A  
HETATM    7  N   UNL     1      -8.246   9.782  64.510  1.00  0.00    -0.145 NA 
HETATM    8  F   UNL     1      -8.120   8.883  62.415  1.00  0.00    -0.125 F  
HETATM    9  C   UNL     1      -8.948  10.630  65.282  1.00  0.00    -0.190 A  
HETATM   10  C   UNL     1     -10.085  11.327  64.913  1.00  0.00    -0.281 A  
HETATM   11  N   UNL     1     -10.506  12.146  65.932  1.00  0.00    -0.246 NA 
HETATM   12  C   UNL     1      -9.644  11.942  66.907  1.00  0.00    -0.200 A  
HETATM   13  N   UNL     1      -8.740  10.955  66.606  1.00  0.00    -0.150 NA 
ENDROOT
BRANCH  13  14
HETATM   14  C1* UNL     1      -7.698  10.420  67.465  1.00  0.00    -0.094 C  
HETATM   15  O4* UNL     1      -8.095   9.110  67.943  1.00  0.00    -0.104 OA 
HETATM   16  C4* UNL     1      -8.697   9.259  69.247  1.00  0.00    -0.141 C  
HETATM   17  H2* UNL     1      -7.231  13.018  69.582  1.00  0.00     0.000 HD 
HETATM   18  C3* UNL     1      -8.003  10.449  69.893  1.00  0.00     0.007 C  
HETATM   19  C2* UNL     1      -7.277  11.160  68.750  1.00  0.00    -0.098 C  
HETATM   20  O3* UNL     1      -7.034  10.023  70.856  1.00  0.00    -0.337 OA 
HETATM   21  H3* UNL     1      -6.601  10.767  71.260  1.00  0.00     0.000 HD 
HETATM   22  O2* UNL     1      -7.491  12.562  68.790  1.00  0.00    -0.108 OA 
BRANCH  16  23
HETATM   23  C5* UNL     1     -10.211   9.486  69.125  1.00  0.00    -0.201 C  
HETATM   24  O5* UNL     1     -10.767   8.597  68.165  1.00  0.00    -0.404 OA 
HETATM   25  H5* UNL     1     -11.703   8.737  68.090  1.00  0.00     0.000 HD 
ENDBRANCH  16  23
ENDBRANCH  13  14
TORSDOF 2
ENDMDL
MODEL      137
REMARK 921   NORMALIZED FREE ENERGY PREDICTED BY IDOCK:   -4.43 KCAL/MOL
REMARK 922        TOTAL FREE ENERGY PREDICTED BY IDOCK:   -4.38 KCAL/MOL
REMARK 923 INTER-LIGAND FREE ENERGY PREDICTED BY IDOCK:   -4.94 KCAL/MOL
REMARK 924 INTRA-LIGAND FREE ENERGY PREDICTED BY IDOCK:    0.56 KCAL/MOL
REMARK 927      BINDING AFFINITY PREDICTED BY RF-SCORE:    0.00 PKD
ROOT
HETATM    1  N   UNL     1     -10.379  20.044  69.159  1.00  0.00    -0.561 NA 
HETATM    2  C   UNL     1      -9.489  19.283  68.419  1.00  0.00    -0.376 A  
HETATM    3  H2  UNL     1     -10.899  20.654  68.528  1.00  0.00     0.000 HD 
HETATM    4  H1  UNL     1     -11.037  19.563  69.773  1.00  0.00     0.000 HD 
HETATM    5  N   UNL     1      -8.619  19.919  67.607  1.00  0.00    -0.324 NA 
HETATM    6  C   UNL     1      -7.790  19.174  66.847  1.00  0.00    -0.252 A  
HETATM    7  N   UNL     1      -7.721  17.829  66.771  1.00  0.00    -0.214 NA 
HETATM    8  F   UNL     1      -6.940  19.852  66.060  1.00  0.00    -0.217 F  
HETATM    9  C   UNL     1      -8.581  17.240  67.621  1.00  0.00    -0.217 A  
HETATM   10  C   UNL     1      -9.458  17.880  68.478  1.00  0.00    -0.313 A  
HETATM   11  N   UNL     1     -10.143  16.969  69.244  1.00  0.00    -0.247 NA 
HETATM   12  C   UNL     1      -9.696  15.794  68.851  1.00  0.00    -0.225 A  
HETATM   13  N   UNL     1      -8.826  15.894  67.796  1.00  0.00    -0.174 NA 
ENDROOT
BRANCH  13  14
HETATM   14  C1* UNL     1      -8.196  14.807  67.064  1.00  0.00    -0.179 C  
HETATM   15  O4* UNL     1      -9.210  14.060  66.347  1.00  0.00    -0.246 OA 
HETATM   16  C4* UNL     1      -9.593  12.920  67.146  1.00  0.00    -0.225 C  
HETATM   17  H2* UNL     1      -6.344  13.389  69.516  1.00  0.00     0.000 HD 
HETATM   18  C3* UNL     1      -8.350  12.523  67.929  1.00  0.00    -0.167 C  
HETATM   19  C2* UNL     1      -7.400  13.715  67.805  1.00  0.00    -0.166 C  
HETATM   20  O3* UNL     1      -7.721  11.374  67.353  1.00  0.00    -0.121 OA 
HETATM   21  H3* UNL     1      -6.945  11.126  67.842  1.00  0.00     0.000 HD 
HETATM   22  O2* UNL     1      -6.835  14.062  69.059  1.00  0.00    -0.103 OA 
BRANCH  16  23
HETATM   23  C5* UNL     1     -10.759  13.276  68.081  1.00  0.00    -0.249 C  
HETATM   24  O5* UNL     1     -11.997  12.905  67.488  1.00  0.00    -0.359 OA 
HETATM   25  H5* UNL     1     -12.718  13.125  68.066  1.00  0.00     0.000 HD 
ENDBRANCH  16  23
ENDBRANCH  13  14
TORSDOF 2
ENDMDL
MODEL      138
REMARK 921   NORMALIZED FREE ENERGY PREDICTED BY IDOCK:   -4.41 KCAL/MOL
REMARK 922        TOTAL FREE ENERGY PREDICTED BY IDOCK:   -4.35 KCAL/MOL
REMARK 923 INTER-LIGAND FREE ENERGY PREDICTED BY IDOCK:   -4.51 KCAL/MOL
REMARK 924 INTRA-LIGAND FREE ENERGY PREDICTED BY IDOCK:    0.16 KCAL/MOL
REMARK 927      BINDING AFFINITY PREDICTED BY RF-SCORE:    0.00 PKD
ROOT
HETATM    1  N   UNL     1     -11.951  12.358  67.517  1.00  0.00    -0.506 NA 
HETATM    2  C   UNL     1     -11.885  11.596  68.672  1.00  0.00    -0.308 A  
HETATM    3  H2  UNL     1     -11.580  13.288  67.711  1.00  0.00     0.000 HD 
HETATM    4  H1  UNL     1     -11.513  11.996  66.669  1.00  0.00     0.000 HD 
HETATM    5  N   UNL     1     -12.464  12.075  69.793  1.00  0.00    -0.004 NA 
HETATM    6  C   UNL     1     -12.353  11.357  70.929  1.00  0.00    -0.381 A  
HETATM    7  N   UNL     1     -11.700  10.190  71.109  1.00  0.00    -0.369 NA 
HETATM    8  F   UNL     1     -12.950  11.872  72.015  1.00  0.00    -0.514 F  
HETATM    9  C   UNL     1     -11.170   9.735  69.961  1.00  0.00    -0.251 A  
HETATM   10  C   UNL     1     -11.239  10.350  68.724  1.00  0.00    -0.241 A  
HETATM   11  N   UNL     1     -10.638   9.577  67.761  1.00  0.00    -0.258 NA 
HETATM   12  C   UNL     1     -10.201   8.514  68.406  1.00  0.00    -0.203 A  
HETATM   13  N   UNL     1     -10.403   8.607  69.759  1.00  0.00    -0.207 NA 
ENDROOT
BRANCH  13  14
HETATM   14  C1* UNL     1      -9.988   7.660  70.781  1.00  0.00    -0.181 C  
HETATM   15  O4* UNL     1      -9.366   8.377  71.876  1.00  0.00    -0.194 OA 
HETATM   16  C4* UNL     1      -7.935   8.361  71.684  1.00  0.00    -0.134 C  
HETATM   17  H2* UNL     1      -8.261   5.432  68.909  1.00  0.00     0.000 HD 
HETATM   18  C3* UNL     1      -7.625   7.052  70.973  1.00  0.00    -0.086 C  
HETATM   19  C2* UNL     1      -8.973   6.546  70.458  1.00  0.00    -0.152 C  
HETATM   20  O3* UNL     1      -7.089   6.084  71.880  1.00  0.00    -0.081 OA 
HETATM   21  H3* UNL     1      -6.895   5.267  71.436  1.00  0.00     0.000 HD 
HETATM   22  O2* UNL     1      -8.887   6.119  69.107  1.00  0.00    -0.123 OA 
BRANCH  16  23
HETATM   23  C5* UNL     1      -7.483   9.574  70.857  1.00  0.00    -0.013 C  
HETATM   24  O5* UNL     1      -6.255  10.084  71.363  1.00  0.00    -0.302 OA 
HETATM   25  H5* UNL     1      -5.975  10.833  70.852  1.00  0.00     0.000 HD 
ENDBRANCH  16  23
ENDBRANCH  13  14
TORSDOF 2
ENDMDL
MODEL      139
REMARK 921   NORMALIZED FREE ENERGY PREDICTED BY IDOCK:   -4.41 KCAL/MOL
REMARK 922        TOTAL FREE ENERGY PREDICTED BY IDOCK:   -4.35 KCAL/MOL
REMARK 923 INTER-LIGAND FREE ENERGY PREDICTED BY IDOCK:   -4.42 KCAL/MOL
REMARK 924 INTRA-LIGAND FREE ENERGY PREDICTED BY IDOCK:    0.07 KCAL/MOL
REMARK 927      BINDING AFFINITY PREDICTED BY RF-SCORE:    0.00 PKD
ROOT
HETATM    1  N   UNL     1      -9.283   8.994  64.923  1.00  0.00    -0.443 NA 
HETATM    2  C   UNL     1      -9.433   9.661  66.127  1.00  0.00    -0.217 A  
HETATM    3  H2  UNL     1      -8.332   9.136  64.582  1.00  0.00     0.000 HD 
HETATM    4  H1  UNL     1      -9.502   7.998  64.887  1.00  0.00     0.000 HD 
HETATM    5  N   UNL     1      -9.143  10.978  66.175  1.00  0.00    -0.186 NA 
HETATM    6  C   UNL     1      -9.239  11.613  67.360  1.00  0.00    -0.168 A  
HETATM    7  N   UNL     1      -9.582  11.089  68.555  1.00  0.00    -0.181 NA 
HETATM    8  F   UNL     1      -8.944  12.923  67.355  1.00  0.00    -0.167 F  
HETATM    9  C   UNL     1      -9.895   9.785  68.453  1.00  0.00    -0.152 A  
HETATM   10  C   UNL     1      -9.874   9.023  67.298  1.00  0.00    -0.196 A  
HETATM   11  N   UNL     1     -10.311   7.746  67.550  1.00  0.00    -0.241 NA 
HETATM   12  C   UNL     1     -10.583   7.730  68.839  1.00  0.00    -0.150 A  
HETATM   13  N   UNL     1     -10.250   8.908  69.456  1.00  0.00    -0.199 NA 
ENDROOT
BRANCH  13  14
HETATM   14  C1* UNL     1     -10.344   9.221  70.873  1.00  0.00    -0.296 C  
HETATM   15  O4* UNL     1      -9.019   9.188  71.461  1.00  0.00    -0.319 OA 
HETATM   16  C4* UNL     1      -8.811   7.888  72.053  1.00  0.00    -0.141 C  
HETATM   17  H2* UNL     1     -12.768   7.064  71.833  1.00  0.00     0.000 HD 
HETATM   18  C3* UNL     1     -10.180   7.418  72.519  1.00  0.00    -0.216 C  
HETATM   19  C2* UNL     1     -11.181   8.339  71.821  1.00  0.00    -0.283 C  
HETATM   20  O3* UNL     1     -10.327   7.570  73.934  1.00  0.00    -0.385 OA 
HETATM   21  H3* UNL     1     -11.182   7.276  74.225  1.00  0.00     0.000 HD 
HETATM   22  O2* UNL     1     -12.252   7.607  71.248  1.00  0.00    -0.310 OA 
BRANCH  16  23
HETATM   23  C5* UNL     1      -8.196   6.917  71.034  1.00  0.00    -0.118 C  
HETATM   24  O5* UNL     1      -6.853   7.287  70.748  1.00  0.00    -0.051 OA 
HETATM   25  H5* UNL     1      -6.473   6.687  70.118  1.00  0.00     0.000 HD 
ENDBRANCH  16  23
ENDBRANCH  13  14
TORSDOF 2
ENDMDL
MODEL      140
REMARK 921   NORMALIZED FREE ENERGY PREDICTED BY IDOCK:   -4.38 KCAL/MOL
REMARK 922        TOTAL FREE ENERGY PREDICTED BY IDOCK:   -4.31 KCAL/MOL
REMARK 923 INTER-LIGAND FREE ENERGY PREDICTED BY IDOCK:   -5.93 KCAL/MOL
REMARK 924 INTRA-LIGAND FREE ENERGY PREDICTED BY IDOCK:    1.61 KCAL/MOL
REMARK 927      BINDING AFFINITY PREDICTED BY RF-SCORE:    0.00 PKD
ROOT
HETATM    1  N   UNL     1     -10.111  19.170  69.601  1.00  0.00    -0.286 NA 
HETATM    2  C   UNL     1      -9.946  18.234  68.593  1.00  0.00    -0.389 A  
HETATM    3  H2  UNL     1     -10.326  20.074  69.181  1.00  0.00     0.000 HD 
HETATM    4  H1  UNL     1     -10.790  18.976  70.338  1.00  0.00     0.000 HD 
HETATM    5  N   UNL     1      -9.049  18.489  67.618  1.00  0.00    -0.279 NA 
HETATM    6  C   UNL     1      -8.927  17.603  66.610  1.00  0.00    -0.265 A  
HETATM    7  N   UNL     1      -9.620  16.459  66.425  1.00  0.00    -0.270 NA 
HETATM    8  F   UNL     1      -8.019  17.899  65.666  1.00  0.00    -0.166 F  
HETATM    9  C   UNL     1     -10.476  16.229  67.436  1.00  0.00    -0.304 A  
HETATM   10  C   UNL     1     -10.673  17.034  68.544  1.00  0.00    -0.352 A  
HETATM   11  N   UNL     1     -11.579  16.463  69.405  1.00  0.00    -0.157 NA 
HETATM   12  C   UNL     1     -11.933  15.335  68.824  1.00  0.00    -0.251 A  
HETATM   13  N   UNL     1     -11.375  15.193  67.579  1.00  0.00    -0.333 NA 
ENDROOT
BRANCH  13  14
HETATM   14  C1* UNL     1     -11.597  14.116  66.629  1.00  0.00    -0.384 C  
HETATM   15  O4* UNL     1     -10.937  12.915  67.101  1.00  0.00    -0.252 OA 
HETATM   16  C4* UNL     1      -9.643  12.823  66.468  1.00  0.00    -0.257 C  
HETATM   17  H2* UNL     1     -10.686  15.628  63.742  1.00  0.00     0.000 HD 
HETATM   18  C3* UNL     1      -9.801  13.468  65.099  1.00  0.00    -0.075 C  
HETATM   19  C2* UNL     1     -11.118  14.241  65.169  1.00  0.00    -0.352 C  
HETATM   20  O3* UNL     1      -9.904  12.479  64.070  1.00  0.00    -0.587 OA 
HETATM   21  H3* UNL     1     -10.002  12.882  63.215  1.00  0.00     0.000 HD 
HETATM   22  O2* UNL     1     -10.982  15.551  64.642  1.00  0.00    -0.409 OA 
BRANCH  16  23
HETATM   23  C5* UNL     1      -8.573  13.536  67.308  1.00  0.00    -0.213 C  
HETATM   24  O5* UNL     1      -8.798  13.303  68.693  1.00  0.00    -0.346 OA 
HETATM   25  H5* UNL     1      -8.137  13.744  69.213  1.00  0.00     0.000 HD 
ENDBRANCH  16  23
ENDBRANCH  13  14
TORSDOF 2
ENDMDL
MODEL      141
REMARK 921   NORMALIZED FREE ENERGY PREDICTED BY IDOCK:   -4.34 KCAL/MOL
REMARK 922        TOTAL FREE ENERGY PREDICTED BY IDOCK:   -4.28 KCAL/MOL
REMARK 923 INTER-LIGAND FREE ENERGY PREDICTED BY IDOCK:   -4.98 KCAL/MOL
REMARK 924 INTRA-LIGAND FREE ENERGY PREDICTED BY IDOCK:    0.71 KCAL/MOL
REMARK 927      BINDING AFFINITY PREDICTED BY RF-SCORE:    0.00 PKD
ROOT
HETATM    1  N   UNL     1     -13.078  11.975  64.128  1.00  0.00    -0.685 NA 
HETATM    2  C   UNL     1     -12.267  13.021  64.540  1.00  0.00    -0.416 A  
HETATM    3  H2  UNL     1     -13.054  11.919  63.110  1.00  0.00     0.000 HD 
HETATM    4  H1  UNL     1     -12.909  11.047  64.516  1.00  0.00     0.000 HD 
HETATM    5  N   UNL     1     -12.490  14.249  64.028  1.00  0.00    -0.774 NA 
HETATM    6  C   UNL     1     -11.666  15.253  64.390  1.00  0.00    -0.285 A  
HETATM    7  N   UNL     1     -10.597  15.192  65.212  1.00  0.00    -0.379 NA 
HETATM    8  F   UNL     1     -11.931  16.457  63.857  1.00  0.00    -0.355 F  
HETATM    9  C   UNL     1     -10.436  13.960  65.724  1.00  0.00    -0.307 A  
HETATM   10  C   UNL     1     -11.225  12.853  65.467  1.00  0.00    -0.288 A  
HETATM   11  N   UNL     1     -10.807  11.774  66.206  1.00  0.00    -0.271 NA 
HETATM   12  C   UNL     1      -9.774  12.216  66.894  1.00  0.00    -0.206 A  
HETATM   13  N   UNL     1      -9.439  13.504  66.562  1.00  0.00    -0.271 NA 
ENDROOT
BRANCH  13  14
HETATM   14  C1* UNL     1      -8.320  14.283  67.064  1.00  0.00    -0.131 C  
HETATM   15  O4* UNL     1      -7.106  13.497  66.969  1.00  0.00     0.014 OA 
HETATM   16  C4* UNL     1      -6.867  12.864  68.244  1.00  0.00    -0.093 C  
HETATM   17  H2* UNL     1      -9.550  15.301  70.047  1.00  0.00     0.000 HD 
HETATM   18  C3* UNL     1      -7.426  13.814  69.292  1.00  0.00     0.142 C  
HETATM   19  C2* UNL     1      -8.305  14.796  68.517  1.00  0.00    -0.160 C  
HETATM   20  O3* UNL     1      -6.380  14.546  69.938  1.00  0.00    -0.135 OA 
HETATM   21  H3* UNL     1      -6.729  15.139  70.593  1.00  0.00     0.000 HD 
HETATM   22  O2* UNL     1      -9.560  14.985  69.151  1.00  0.00    -0.210 OA 
BRANCH  16  23
HETATM   23  C5* UNL     1      -7.551  11.489  68.306  1.00  0.00    -0.115 C  
HETATM   24  O5* UNL     1      -6.620  10.462  67.989  1.00  0.00    -0.060 OA 
HETATM   25  H5* UNL     1      -7.042   9.612  68.028  1.00  0.00     0.000 HD 
ENDBRANCH  16  23
ENDBRANCH  13  14
TORSDOF 2
ENDMDL
MODEL      142
REMARK 921   NORMALIZED FREE ENERGY PREDICTED BY IDOCK:   -4.34 KCAL/MOL
REMARK 922        TOTAL FREE ENERGY PREDICTED BY IDOCK:   -4.28 KCAL/MOL
REMARK 923 INTER-LIGAND FREE ENERGY PREDICTED BY IDOCK:   -4.31 KCAL/MOL
REMARK 924 INTRA-LIGAND FREE ENERGY PREDICTED BY IDOCK:    0.03 KCAL/MOL
REMARK 927      BINDING AFFINITY PREDICTED BY RF-SCORE:    0.00 PKD
ROOT
HETATM    1  N   UNL     1     -10.230  12.251  69.067  1.00  0.00    -0.425 NA 
HETATM    2  C   UNL     1     -10.884  11.243  69.756  1.00  0.00    -0.026 A  
HETATM    3  H2  UNL     1      -9.993  12.998  69.720  1.00  0.00     0.000 HD 
HETATM    4  H1  UNL     1      -9.400  12.010  68.524  1.00  0.00     0.000 HD 
HETATM    5  N   UNL     1     -11.980  11.561  70.475  1.00  0.00    -0.369 NA 
HETATM    6  C   UNL     1     -12.585  10.589  71.188  1.00  0.00    -0.417 A  
HETATM    7  N   UNL     1     -12.218   9.295  71.299  1.00  0.00    -0.320 NA 
HETATM    8  F   UNL     1     -13.673  10.954  71.883  1.00  0.00    -0.335 F  
HETATM    9  C   UNL     1     -11.144   9.017  70.539  1.00  0.00    -0.254 A  
HETATM   10  C   UNL     1     -10.453   9.906  69.737  1.00  0.00    -0.261 A  
HETATM   11  N   UNL     1      -9.445   9.267  69.057  1.00  0.00    -0.153 NA 
HETATM   12  C   UNL     1      -9.518   8.011  69.448  1.00  0.00    -0.159 A  
HETATM   13  N   UNL     1     -10.461   7.824  70.425  1.00  0.00    -0.217 NA 
ENDROOT
BRANCH  13  14
HETATM   14  C1* UNL     1     -10.764   6.593  71.136  1.00  0.00    -0.234 C  
HETATM   15  O4* UNL     1     -10.203   6.659  72.471  1.00  0.00    -0.179 OA 
HETATM   16  C4* UNL     1      -8.917   6.002  72.463  1.00  0.00    -0.132 C  
HETATM   17  H2* UNL     1      -9.722   4.293  68.883  1.00  0.00     0.000 HD 
HETATM   18  C3* UNL     1      -9.018   4.902  71.418  1.00  0.00    -0.134 C  
HETATM   19  C2* UNL     1     -10.269   5.233  70.605  1.00  0.00    -0.257 C  
HETATM   20  O3* UNL     1      -9.194   3.621  72.030  1.00  0.00    -0.104 OA 
HETATM   21  H3* UNL     1      -9.256   2.933  71.376  1.00  0.00     0.000 HD 
HETATM   22  O2* UNL     1     -10.027   5.131  69.211  1.00  0.00    -0.175 OA 
BRANCH  16  23
HETATM   23  C5* UNL     1      -7.798   7.000  72.128  1.00  0.00    -0.092 C  
HETATM   24  O5* UNL     1      -7.032   6.528  71.027  1.00  0.00    -0.065 OA 
HETATM   25  H5* UNL     1      -6.340   7.145  70.820  1.00  0.00     0.000 HD 
ENDBRANCH  16  23
ENDBRANCH  13  14
TORSDOF 2
ENDMDL
MODEL      143
REMARK 921   NORMALIZED FREE ENERGY PREDICTED BY IDOCK:   -4.34 KCAL/MOL
REMARK 922        TOTAL FREE ENERGY PREDICTED BY IDOCK:   -4.27 KCAL/MOL
REMARK 923 INTER-LIGAND FREE ENERGY PREDICTED BY IDOCK:   -5.11 KCAL/MOL
REMARK 924 INTRA-LIGAND FREE ENERGY PREDICTED BY IDOCK:    0.84 KCAL/MOL
REMARK 927      BINDING AFFINITY PREDICTED BY RF-SCORE:    0.00 PKD
ROOT
HETATM    1  N   UNL     1      -8.330   7.302  67.876  1.00  0.00    -0.119 NA 
HETATM    2  C   UNL     1      -8.469   8.672  68.029  1.00  0.00    -0.127 A  
HETATM    3  H2  UNL     1      -8.462   6.852  68.782  1.00  0.00     0.000 HD 
HETATM    4  H1  UNL     1      -8.910   6.828  67.183  1.00  0.00     0.000 HD 
HETATM    5  N   UNL     1      -7.702   9.298  68.945  1.00  0.00    -0.078 NA 
HETATM    6  C   UNL     1      -7.877  10.622  69.130  1.00  0.00    -0.142 A  
HETATM    7  N   UNL     1      -8.761  11.435  68.513  1.00  0.00    -0.156 NA 
HETATM    8  F   UNL     1      -7.088  11.201  70.049  1.00  0.00    -0.131 F  
HETATM    9  C   UNL     1      -9.477  10.775  67.586  1.00  0.00    -0.154 A  
HETATM   10  C   UNL     1      -9.375   9.432  67.272  1.00  0.00    -0.131 A  
HETATM   11  N   UNL     1     -10.217   9.109  66.236  1.00  0.00    -0.248 NA 
HETATM   12  C   UNL     1     -10.828  10.236  65.933  1.00  0.00     0.211 A  
HETATM   13  N   UNL     1     -10.496  11.255  66.789  1.00  0.00    -0.238 NA 
ENDROOT
BRANCH  13  14
HETATM   14  C1* UNL     1     -11.027  12.608  66.801  1.00  0.00    -0.262 C  
HETATM   15  O4* UNL     1     -12.141  12.695  65.878  1.00  0.00    -0.482 OA 
HETATM   16  C4* UNL     1     -11.654  13.202  64.616  1.00  0.00    -0.345 C  
HETATM   17  H2* UNL     1      -8.193  14.399  66.341  1.00  0.00     0.000 HD 
HETATM   18  C3* UNL     1     -10.496  14.127  64.958  1.00  0.00    -0.425 C  
HETATM   19  C2* UNL     1     -10.140  13.806  66.410  1.00  0.00    -0.295 C  
HETATM   20  O3* UNL     1     -10.889  15.501  64.876  1.00  0.00    -0.430 OA 
HETATM   21  H3* UNL     1     -10.165  16.079  65.089  1.00  0.00     0.000 HD 
HETATM   22  O2* UNL     1      -8.739  13.660  66.582  1.00  0.00    -0.137 OA 
BRANCH  16  23
HETATM   23  C5* UNL     1     -11.207  12.051  63.702  1.00  0.00    -0.450 C  
HETATM   24  O5* UNL     1     -12.320  11.530  62.987  1.00  0.00    -0.975 OA 
HETATM   25  H5* UNL     1     -12.044  10.819  62.421  1.00  0.00     0.000 HD 
ENDBRANCH  16  23
ENDBRANCH  13  14
TORSDOF 2
ENDMDL
MODEL      144
REMARK 921   NORMALIZED FREE ENERGY PREDICTED BY IDOCK:   -4.32 KCAL/MOL
REMARK 922        TOTAL FREE ENERGY PREDICTED BY IDOCK:   -4.25 KCAL/MOL
REMARK 923 INTER-LIGAND FREE ENERGY PREDICTED BY IDOCK:   -4.30 KCAL/MOL
REMARK 924 INTRA-LIGAND FREE ENERGY PREDICTED BY IDOCK:    0.05 KCAL/MOL
REMARK 927      BINDING AFFINITY PREDICTED BY RF-SCORE:    0.00 PKD
ROOT
HETATM    1  N   UNL     1      -8.411   8.491  73.017  1.00  0.00    -0.395 NA 
HETATM    2  C   UNL     1      -9.375   8.396  72.027  1.00  0.00    -0.262 A  
HETATM    3  H2  UNL     1      -8.164   7.552  73.330  1.00  0.00     0.000 HD 
HETATM    4  H1  UNL     1      -7.556   9.009  72.816  1.00  0.00     0.000 HD 
HETATM    5  N   UNL     1     -10.506   7.710  72.294  1.00  0.00    -0.222 NA 
HETATM    6  C   UNL     1     -11.420   7.573  71.312  1.00  0.00    -0.274 A  
HETATM    7  N   UNL     1     -11.347   8.031  70.044  1.00  0.00    -0.094 NA 
HETATM    8  F   UNL     1     -12.530   6.887  71.626  1.00  0.00    -0.347 F  
HETATM    9  C   UNL     1     -10.221   8.736  69.835  1.00  0.00    -0.200 A  
HETATM   10  C   UNL     1      -9.222   8.982  70.760  1.00  0.00    -0.245 A  
HETATM   11  N   UNL     1      -8.248   9.786  70.222  1.00  0.00    -0.185 NA 
HETATM   12  C   UNL     1      -8.644  10.016  68.987  1.00  0.00    -0.153 A  
HETATM   13  N   UNL     1      -9.779   9.318  68.665  1.00  0.00    -0.148 NA 
ENDROOT
BRANCH  13  14
HETATM   14  C1* UNL     1     -10.455   9.274  67.379  1.00  0.00    -0.273 C  
HETATM   15  O4* UNL     1     -10.364   7.933  66.835  1.00  0.00    -0.298 OA 
HETATM   16  C4* UNL     1      -9.243   7.878  65.928  1.00  0.00    -0.042 C  
HETATM   17  H2* UNL     1      -9.026  11.920  65.827  1.00  0.00     0.000 HD 
HETATM   18  C3* UNL     1      -9.130   9.269  65.322  1.00  0.00    -0.215 C  
HETATM   19  C2* UNL     1      -9.988  10.167  66.213  1.00  0.00    -0.242 C  
HETATM   20  O3* UNL     1      -9.660   9.300  63.993  1.00  0.00    -0.318 OA 
HETATM   21  H3* UNL     1      -9.589  10.168  63.614  1.00  0.00     0.000 HD 
HETATM   22  O2* UNL     1      -9.313  11.369  66.547  1.00  0.00    -0.179 OA 
BRANCH  16  23
HETATM   23  C5* UNL     1      -7.959   7.480  66.671  1.00  0.00    -0.110 C  
HETATM   24  O5* UNL     1      -7.806   6.066  66.666  1.00  0.00    -0.099 OA 
HETATM   25  H5* UNL     1      -7.012   5.820  67.125  1.00  0.00     0.000 HD 
ENDBRANCH  16  23
ENDBRANCH  13  14
TORSDOF 2
ENDMDL
MODEL      145
REMARK 921   NORMALIZED FREE ENERGY PREDICTED BY IDOCK:   -4.32 KCAL/MOL
REMARK 922        TOTAL FREE ENERGY PREDICTED BY IDOCK:   -4.25 KCAL/MOL
REMARK 923 INTER-LIGAND FREE ENERGY PREDICTED BY IDOCK:   -4.86 KCAL/MOL
REMARK 924 INTRA-LIGAND FREE ENERGY PREDICTED BY IDOCK:    0.61 KCAL/MOL
REMARK 927      BINDING AFFINITY PREDICTED BY RF-SCORE:    0.00 PKD
ROOT
HETATM    1  N   UNL     1     -11.331  12.892  69.634  1.00  0.00    -0.474 NA 
HETATM    2  C   UNL     1     -11.092  11.610  69.167  1.00  0.00    -0.245 A  
HETATM    3  H2  UNL     1     -12.037  13.333  69.044  1.00  0.00     0.000 HD 
HETATM    4  H1  UNL     1     -11.593  13.013  70.612  1.00  0.00     0.000 HD 
HETATM    5  N   UNL     1     -10.745  11.450  67.873  1.00  0.00    -0.189 NA 
HETATM    6  C   UNL     1     -10.565  10.198  67.407  1.00  0.00    -0.272 A  
HETATM    7  N   UNL     1     -10.708   9.037  68.079  1.00  0.00    -0.175 NA 
HETATM    8  F   UNL     1     -10.218  10.091  66.115  1.00  0.00    -0.287 F  
HETATM    9  C   UNL     1     -11.019   9.246  69.370  1.00  0.00    -0.120 A  
HETATM   10  C   UNL     1     -11.197  10.473  69.984  1.00  0.00    -0.315 A  
HETATM   11  N   UNL     1     -11.448  10.315  71.325  1.00  0.00    -0.257 NA 
HETATM   12  C   UNL     1     -11.432   9.012  71.520  1.00  0.00    -0.337 A  
HETATM   13  N   UNL     1     -11.282   8.312  70.351  1.00  0.00    -0.251 NA 
ENDROOT
BRANCH  13  14
HETATM   14  C1* UNL     1     -11.291   6.869  70.178  1.00  0.00    -0.314 C  
HETATM   15  O4* UNL     1     -11.914   6.251  71.332  1.00  0.00    -0.290 OA 
HETATM   16  C4* UNL     1     -10.878   5.847  72.253  1.00  0.00    -0.245 C  
HETATM   17  H2* UNL     1      -8.046   6.309  69.397  1.00  0.00     0.000 HD 
HETATM   18  C3* UNL     1      -9.671   5.498  71.396  1.00  0.00    -0.158 C  
HETATM   19  C2* UNL     1      -9.973   6.086  70.017  1.00  0.00    -0.177 C  
HETATM   20  O3* UNL     1      -9.520   4.081  71.267  1.00  0.00    -0.139 OA 
HETATM   21  H3* UNL     1      -8.765   3.863  70.732  1.00  0.00     0.000 HD 
HETATM   22  O2* UNL     1      -8.859   6.792  69.496  1.00  0.00    -0.138 OA 
BRANCH  16  23
HETATM   23  C5* UNL     1     -10.560   6.977  73.244  1.00  0.00    -0.344 C  
HETATM   24  O5* UNL     1      -9.158   7.211  73.290  1.00  0.00    -0.131 OA 
HETATM   25  H5* UNL     1      -8.960   7.910  73.902  1.00  0.00     0.000 HD 
ENDBRANCH  16  23
ENDBRANCH  13  14
TORSDOF 2
ENDMDL
MODEL      146
REMARK 921   NORMALIZED FREE ENERGY PREDICTED BY IDOCK:   -4.31 KCAL/MOL
REMARK 922        TOTAL FREE ENERGY PREDICTED BY IDOCK:   -4.24 KCAL/MOL
REMARK 923 INTER-LIGAND FREE ENERGY PREDICTED BY IDOCK:   -4.37 KCAL/MOL
REMARK 924 INTRA-LIGAND FREE ENERGY PREDICTED BY IDOCK:    0.12 KCAL/MOL
REMARK 927      BINDING AFFINITY PREDICTED BY RF-SCORE:    0.00 PKD
ROOT
HETATM    1  N   UNL     1      -6.324   5.020  68.677  1.00  0.00    -0.034 NA 
HETATM    2  C   UNL     1      -7.703   5.091  68.795  1.00  0.00    -0.078 A  
HETATM    3  H2  UNL     1      -6.023   5.645  67.930  1.00  0.00     0.000 HD 
HETATM    4  H1  UNL     1      -5.756   5.195  69.506  1.00  0.00     0.000 HD 
HETATM    5  N   UNL     1      -8.455   4.859  67.699  1.00  0.00    -0.104 NA 
HETATM    6  C   UNL     1      -9.794   4.981  67.802  1.00  0.00    -0.154 A  
HETATM    7  N   UNL     1     -10.511   5.334  68.890  1.00  0.00    -0.166 NA 
HETATM    8  F   UNL     1     -10.499   4.736  66.687  1.00  0.00    -0.254 F  
HETATM    9  C   UNL     1      -9.724   5.521  69.964  1.00  0.00    -0.178 A  
HETATM   10  C   UNL     1      -8.347   5.395  70.005  1.00  0.00    -0.107 A  
HETATM   11  N   UNL     1      -7.877   5.599  71.279  1.00  0.00    -0.108 NA 
HETATM   12  C   UNL     1      -8.951   5.856  71.998  1.00  0.00    -0.137 A  
HETATM   13  N   UNL     1     -10.086   5.925  71.232  1.00  0.00    -0.190 NA 
ENDROOT
BRANCH  13  14
HETATM   14  C1* UNL     1     -11.431   6.257  71.672  1.00  0.00    -0.296 C  
HETATM   15  O4* UNL     1     -12.096   7.032  70.644  1.00  0.00    -0.341 OA 
HETATM   16  C4* UNL     1     -11.954   8.433  70.959  1.00  0.00    -0.231 C  
HETATM   17  H2* UNL     1     -10.788   7.550  74.733  1.00  0.00     0.000 HD 
HETATM   18  C3* UNL     1     -11.913   8.517  72.477  1.00  0.00    -0.331 C  
HETATM   19  C2* UNL     1     -11.659   7.086  72.952  1.00  0.00    -0.035 C  
HETATM   20  O3* UNL     1     -13.166   8.960  73.006  1.00  0.00    -0.819 OA 
HETATM   21  H3* UNL     1     -13.140   9.013  73.954  1.00  0.00     0.000 HD 
HETATM   22  O2* UNL     1     -10.647   7.038  73.944  1.00  0.00    -0.371 OA 
BRANCH  16  23
HETATM   23  C5* UNL     1     -10.677   9.008  70.326  1.00  0.00    -0.230 C  
HETATM   24  O5* UNL     1      -9.804   9.495  71.336  1.00  0.00    -0.204 OA 
HETATM   25  H5* UNL     1      -9.014   9.850  70.946  1.00  0.00     0.000 HD 
ENDBRANCH  16  23
ENDBRANCH  13  14
TORSDOF 2
ENDMDL
MODEL      147
REMARK 921   NORMALIZED FREE ENERGY PREDICTED BY IDOCK:   -4.27 KCAL/MOL
REMARK 922        TOTAL FREE ENERGY PREDICTED BY IDOCK:   -4.19 KCAL/MOL
REMARK 923 INTER-LIGAND FREE ENERGY PREDICTED BY IDOCK:   -4.81 KCAL/MOL
REMARK 924 INTRA-LIGAND FREE ENERGY PREDICTED BY IDOCK:    0.62 KCAL/MOL
REMARK 927      BINDING AFFINITY PREDICTED BY RF-SCORE:    0.00 PKD
ROOT
HETATM    1  N   UNL     1     -13.579  13.870  65.637  1.00  0.00    -0.394 NA 
HETATM    2  C   UNL     1     -12.211  13.972  65.832  1.00  0.00    -0.456 A  
HETATM    3  H2  UNL     1     -13.801  14.173  64.688  1.00  0.00     0.000 HD 
HETATM    4  H1  UNL     1     -14.030  12.973  65.813  1.00  0.00     0.000 HD 
HETATM    5  N   UNL     1     -11.613  15.159  65.599  1.00  0.00    -0.196 NA 
HETATM    6  C   UNL     1     -10.275  15.241  65.738  1.00  0.00    -0.349 A  
HETATM    7  N   UNL     1      -9.416  14.256  66.074  1.00  0.00    -0.234 NA 
HETATM    8  F   UNL     1      -9.727  16.443  65.499  1.00  0.00    -0.314 F  
HETATM    9  C   UNL     1     -10.058  13.103  66.330  1.00  0.00    -0.281 A  
HETATM   10  C   UNL     1     -11.423  12.891  66.261  1.00  0.00    -0.348 A  
HETATM   11  N   UNL     1     -11.737  11.610  66.646  1.00  0.00    -0.504 NA 
HETATM   12  C   UNL     1     -10.580  11.052  66.934  1.00  0.00    -0.258 A  
HETATM   13  N   UNL     1      -9.520  11.877  66.660  1.00  0.00    -0.204 NA 
ENDROOT
BRANCH  13  14
HETATM   14  C1* UNL     1      -8.105  11.570  66.786  1.00  0.00    -0.158 C  
HETATM   15  O4* UNL     1      -7.933  10.135  66.896  1.00  0.00    -0.112 OA 
HETATM   16  C4* UNL     1      -7.841   9.787  68.294  1.00  0.00    -0.089 C  
HETATM   17  H2* UNL     1      -7.230  13.661  69.300  1.00  0.00     0.000 HD 
HETATM   18  C3* UNL     1      -7.190  10.980  68.978  1.00  0.00    -0.111 C  
HETATM   19  C2* UNL     1      -7.280  12.122  67.966  1.00  0.00    -0.099 C  
HETATM   20  O3* UNL     1      -5.811  10.725  69.260  1.00  0.00    -0.041 OA 
HETATM   21  H3* UNL     1      -5.404  11.470  69.688  1.00  0.00     0.000 HD 
HETATM   22  O2* UNL     1      -7.739  13.320  68.572  1.00  0.00    -0.131 OA 
BRANCH  16  23
HETATM   23  C5* UNL     1      -9.233   9.493  68.874  1.00  0.00    -0.145 C  
HETATM   24  O5* UNL     1      -9.412  10.190  70.101  1.00  0.00    -0.389 OA 
HETATM   25  H5* UNL     1     -10.272  10.009  70.460  1.00  0.00     0.000 HD 
ENDBRANCH  16  23
ENDBRANCH  13  14
TORSDOF 2
ENDMDL
MODEL      148
REMARK 921   NORMALIZED FREE ENERGY PREDICTED BY IDOCK:   -4.22 KCAL/MOL
REMARK 922        TOTAL FREE ENERGY PREDICTED BY IDOCK:   -4.14 KCAL/MOL
REMARK 923 INTER-LIGAND FREE ENERGY PREDICTED BY IDOCK:   -5.72 KCAL/MOL
REMARK 924 INTRA-LIGAND FREE ENERGY PREDICTED BY IDOCK:    1.58 KCAL/MOL
REMARK 927      BINDING AFFINITY PREDICTED BY RF-SCORE:    0.00 PKD
ROOT
HETATM    1  N   UNL     1     -12.531  13.814  63.333  1.00  0.00    -1.072 NA 
HETATM    2  C   UNL     1     -11.851  13.295  64.422  1.00  0.00    -0.399 A  
HETATM    3  H2  UNL     1     -12.474  14.832  63.362  1.00  0.00     0.000 HD 
HETATM    4  H1  UNL     1     -12.273  13.494  62.400  1.00  0.00     0.000 HD 
HETATM    5  N   UNL     1     -12.192  13.719  65.657  1.00  0.00    -0.424 NA 
HETATM    6  C   UNL     1     -11.493  13.252  66.711  1.00  0.00    -0.350 A  
HETATM    7  N   UNL     1     -10.446  12.400  66.698  1.00  0.00    -0.228 NA 
HETATM    8  F   UNL     1     -11.872  13.699  67.918  1.00  0.00    -0.329 F  
HETATM    9  C   UNL     1     -10.165  11.978  65.453  1.00  0.00    -0.263 A  
HETATM   10  C   UNL     1     -10.822  12.348  64.293  1.00  0.00    -0.355 A  
HETATM   11  N   UNL     1     -10.308  11.679  63.208  1.00  0.00    -0.402 NA 
HETATM   12  C   UNL     1      -9.349  10.923  63.701  1.00  0.00    -0.262 A  
HETATM   13  N   UNL     1      -9.148  11.143  65.040  1.00  0.00    -0.166 NA 
ENDROOT
BRANCH  13  14
HETATM   14  C1* UNL     1      -8.134  10.544  65.891  1.00  0.00    -0.154 C  
HETATM   15  O4* UNL     1      -8.551   9.208  66.268  1.00  0.00    -0.120 OA 
HETATM   16  C4* UNL     1      -9.191   9.273  67.561  1.00  0.00    -0.124 C  
HETATM   17  H2* UNL     1      -7.720  12.991  68.192  1.00  0.00     0.000 HD 
HETATM   18  C3* UNL     1      -8.511  10.412  68.305  1.00  0.00    -0.123 C  
HETATM   19  C2* UNL     1      -7.749  11.193  67.235  1.00  0.00    -0.130 C  
HETATM   20  O3* UNL     1      -7.574   9.916  69.266  1.00  0.00    -0.083 OA 
HETATM   21  H3* UNL     1      -7.150  10.627  69.732  1.00  0.00     0.000 HD 
HETATM   22  O2* UNL     1      -7.957  12.591  67.363  1.00  0.00    -0.161 OA 
BRANCH  16  23
HETATM   23  C5* UNL     1     -10.700   9.517  67.410  1.00  0.00    -0.227 C  
HETATM   24  O5* UNL     1     -11.197  10.235  68.533  1.00  0.00    -0.345 OA 
HETATM   25  H5* UNL     1     -12.130  10.386  68.439  1.00  0.00     0.000 HD 
ENDBRANCH  16  23
ENDBRANCH  13  14
TORSDOF 2
ENDMDL
MODEL      149
REMARK 921   NORMALIZED FREE ENERGY PREDICTED BY IDOCK:   -4.21 KCAL/MOL
REMARK 922        TOTAL FREE ENERGY PREDICTED BY IDOCK:   -4.13 KCAL/MOL
REMARK 923 INTER-LIGAND FREE ENERGY PREDICTED BY IDOCK:   -3.94 KCAL/MOL
REMARK 924 INTRA-LIGAND FREE ENERGY PREDICTED BY IDOCK:   -0.19 KCAL/MOL
REMARK 927      BINDING AFFINITY PREDICTED BY RF-SCORE:    0.00 PKD
ROOT
HETATM    1  N   UNL     1     -12.434   8.508  70.734  1.00  0.00    -0.489 NA 
HETATM    2  C   UNL     1     -11.826   7.287  70.977  1.00  0.00    -0.318 A  
HETATM    3  H2  UNL     1     -12.017   9.213  71.343  1.00  0.00     0.000 HD 
HETATM    4  H1  UNL     1     -12.447   8.864  69.777  1.00  0.00     0.000 HD 
HETATM    5  N   UNL     1     -11.808   6.818  72.242  1.00  0.00    -0.271 NA 
HETATM    6  C   UNL     1     -11.169   5.655  72.485  1.00  0.00    -0.293 A  
HETATM    7  N   UNL     1     -10.505   4.876  71.605  1.00  0.00    -0.167 NA 
HETATM    8  F   UNL     1     -11.182   5.227  73.757  1.00  0.00    -0.335 F  
HETATM    9  C   UNL     1     -10.580   5.365  70.355  1.00  0.00    -0.252 A  
HETATM   10  C   UNL     1     -11.229   6.521  69.962  1.00  0.00    -0.393 A  
HETATM   11  N   UNL     1     -11.153   6.684  68.601  1.00  0.00    -0.243 NA 
HETATM   12  C   UNL     1     -10.459   5.649  68.175  1.00  0.00    -0.195 A  
HETATM   13  N   UNL     1      -9.997   4.872  69.206  1.00  0.00    -0.205 NA 
ENDROOT
BRANCH  13  14
HETATM   14  C1* UNL     1      -9.145   3.698  69.115  1.00  0.00    -0.137 C  
HETATM   15  O4* UNL     1      -7.874   3.976  69.754  1.00  0.00    -0.052 OA 
HETATM   16  C4* UNL     1      -6.930   4.388  68.742  1.00  0.00    -0.051 C  
HETATM   17  H2* UNL     1      -9.359   3.022  65.806  1.00  0.00     0.000 HD 
HETATM   18  C3* UNL     1      -7.330   3.650  67.474  1.00  0.00    -0.066 C  
HETATM   19  C2* UNL     1      -8.740   3.123  67.743  1.00  0.00    -0.111 C  
HETATM   20  O3* UNL     1      -6.464   2.538  67.226  1.00  0.00    -0.034 OA 
HETATM   21  H3* UNL     1      -6.714   2.078  66.433  1.00  0.00     0.000 HD 
HETATM   22  O2* UNL     1      -9.609   3.377  66.651  1.00  0.00    -0.167 OA 
BRANCH  16  23
HETATM   23  C5* UNL     1      -6.971   5.911  68.546  1.00  0.00    -0.075 C  
HETATM   24  O5* UNL     1      -7.505   6.542  69.704  1.00  0.00    -0.088 OA 
HETATM   25  H5* UNL     1      -7.531   7.484  69.583  1.00  0.00     0.000 HD 
ENDBRANCH  16  23
ENDBRANCH  13  14
TORSDOF 2
ENDMDL
MODEL      150
REMARK 921   NORMALIZED FREE ENERGY PREDICTED BY IDOCK:   -4.21 KCAL/MOL
REMARK 922        TOTAL FREE ENERGY PREDICTED BY IDOCK:   -4.12 KCAL/MOL
REMARK 923 INTER-LIGAND FREE ENERGY PREDICTED BY IDOCK:   -4.83 KCAL/MOL
REMARK 924 INTRA-LIGAND FREE ENERGY PREDICTED BY IDOCK:    0.71 KCAL/MOL
REMARK 927      BINDING AFFINITY PREDICTED BY RF-SCORE:    0.00 PKD
ROOT
HETATM    1  N   UNL     1     -10.045   5.173  65.343  1.00  0.00    -0.390 NA 
HETATM    2  C   UNL     1      -9.959   4.771  66.666  1.00  0.00    -0.235 A  
HETATM    3  H2  UNL     1     -10.548   4.462  64.812  1.00  0.00     0.000 HD 
HETATM    4  H1  UNL     1     -10.448   6.087  65.137  1.00  0.00     0.000 HD 
HETATM    5  N   UNL     1      -9.427   3.562  66.938  1.00  0.00    -0.195 NA 
HETATM    6  C   UNL     1      -9.393   3.150  68.221  1.00  0.00    -0.187 A  
HETATM    7  N   UNL     1      -9.854   3.799  69.311  1.00  0.00    -0.033 NA 
HETATM    8  F   UNL     1      -8.850   1.942  68.442  1.00  0.00    -0.087 F  
HETATM    9  C   UNL     1     -10.343   5.011  68.996  1.00  0.00    -0.085 A  
HETATM   10  C   UNL     1     -10.405   5.569  67.732  1.00  0.00    -0.189 A  
HETATM   11  N   UNL     1     -10.909   6.845  67.787  1.00  0.00    -0.247 NA 
HETATM   12  C   UNL     1     -11.159   7.055  69.063  1.00  0.00    -0.074 A  
HETATM   13  N   UNL     1     -10.933   5.940  69.828  1.00  0.00    -0.378 NA 
ENDROOT
BRANCH  13  14
HETATM   14  C1* UNL     1     -11.168   5.784  71.254  1.00  0.00    -0.153 C  
HETATM   15  O4* UNL     1     -12.358   6.522  71.629  1.00  0.00    -0.343 OA 
HETATM   16  C4* UNL     1     -11.959   7.818  72.125  1.00  0.00    -0.317 C  
HETATM   17  H2* UNL     1      -8.119   6.587  72.483  1.00  0.00     0.000 HD 
HETATM   18  C3* UNL     1     -10.599   7.614  72.776  1.00  0.00    -0.325 C  
HETATM   19  C2* UNL     1     -10.117   6.250  72.281  1.00  0.00    -0.177 C  
HETATM   20  O3* UNL     1     -10.709   7.571  74.202  1.00  0.00    -0.458 OA 
HETATM   21  H3* UNL     1      -9.859   7.444  74.609  1.00  0.00     0.000 HD 
HETATM   22  O2* UNL     1      -8.766   6.300  71.850  1.00  0.00    -0.135 OA 
BRANCH  16  23
HETATM   23  C5* UNL     1     -11.890   8.842  70.982  1.00  0.00    -0.271 C  
HETATM   24  O5* UNL     1     -13.179   9.387  70.731  1.00  0.00    -0.554 OA 
HETATM   25  H5* UNL     1     -13.137  10.020  70.025  1.00  0.00     0.000 HD 
ENDBRANCH  16  23
ENDBRANCH  13  14
TORSDOF 2
ENDMDL
MODEL      151
REMARK 921   NORMALIZED FREE ENERGY PREDICTED BY IDOCK:   -4.20 KCAL/MOL
REMARK 922        TOTAL FREE ENERGY PREDICTED BY IDOCK:   -4.12 KCAL/MOL
REMARK 923 INTER-LIGAND FREE ENERGY PREDICTED BY IDOCK:   -5.60 KCAL/MOL
REMARK 924 INTRA-LIGAND FREE ENERGY PREDICTED BY IDOCK:    1.48 KCAL/MOL
REMARK 927      BINDING AFFINITY PREDICTED BY RF-SCORE:    0.00 PKD
ROOT
HETATM    1  N   UNL     1      -6.454  13.879  70.384  1.00  0.00    -0.401 NA 
HETATM    2  C   UNL     1      -7.069  14.751  69.502  1.00  0.00    -0.172 A  
HETATM    3  H2  UNL     1      -6.097  13.077  69.864  1.00  0.00     0.000 HD 
HETATM    4  H1  UNL     1      -5.713  14.238  70.987  1.00  0.00     0.000 HD 
HETATM    5  N   UNL     1      -8.048  14.275  68.704  1.00  0.00    -0.145 NA 
HETATM    6  C   UNL     1      -8.609  15.112  67.808  1.00  0.00    -0.152 A  
HETATM    7  N   UNL     1      -8.301  16.406  67.580  1.00  0.00    -0.159 NA 
HETATM    8  F   UNL     1      -9.580  14.594  67.040  1.00  0.00    -0.215 F  
HETATM    9  C   UNL     1      -7.348  16.845  68.419  1.00  0.00    -0.202 A  
HETATM   10  C   UNL     1      -6.716  16.106  69.403  1.00  0.00    -0.205 A  
HETATM   11  N   UNL     1      -5.837  16.889  70.112  1.00  0.00    -0.215 NA 
HETATM   12  C   UNL     1      -5.927  18.082  69.560  1.00  0.00    -0.246 A  
HETATM   13  N   UNL     1      -6.749  18.087  68.462  1.00  0.00    -0.217 NA 
ENDROOT
BRANCH  13  14
HETATM   14  C1* UNL     1      -7.025  19.202  67.571  1.00  0.00    -0.208 C  
HETATM   15  O4* UNL     1      -7.827  20.188  68.269  1.00  0.00    -0.252 OA 
HETATM   16  C4* UNL     1      -9.216  19.960  67.952  1.00  0.00    -0.328 C  
HETATM   17  H2* UNL     1      -8.199  17.558  64.856  1.00  0.00     0.000 HD 
HETATM   18  C3* UNL     1      -9.235  19.400  66.538  1.00  0.00    -0.356 C  
HETATM   19  C2* UNL     1      -7.791  18.984  66.251  1.00  0.00    -0.287 C  
HETATM   20  O3* UNL     1      -9.621  20.399  65.590  1.00  0.00    -0.589 OA 
HETATM   21  H3* UNL     1      -9.633  20.049  64.706  1.00  0.00     0.000 HD 
HETATM   22  O2* UNL     1      -7.727  17.692  65.670  1.00  0.00    -0.527 OA 
BRANCH  16  23
HETATM   23  C5* UNL     1      -9.851  18.984  68.954  1.00  0.00    -0.404 C  
HETATM   24  O5* UNL     1     -10.723  18.084  68.281  1.00  0.00    -0.323 OA 
HETATM   25  H5* UNL     1     -11.115  17.481  68.901  1.00  0.00     0.000 HD 
ENDBRANCH  16  23
ENDBRANCH  13  14
TORSDOF 2
ENDMDL
MODEL      152
REMARK 921   NORMALIZED FREE ENERGY PREDICTED BY IDOCK:   -4.17 KCAL/MOL
REMARK 922        TOTAL FREE ENERGY PREDICTED BY IDOCK:   -4.08 KCAL/MOL
REMARK 923 INTER-LIGAND FREE ENERGY PREDICTED BY IDOCK:   -5.56 KCAL/MOL
REMARK 924 INTRA-LIGAND FREE ENERGY PREDICTED BY IDOCK:    1.47 KCAL/MOL
REMARK 927      BINDING AFFINITY PREDICTED BY RF-SCORE:    0.00 PKD
ROOT
HETATM    1  N   UNL     1     -12.723  13.364  63.825  1.00  0.00    -0.644 NA 
HETATM    2  C   UNL     1     -11.819  12.448  64.337  1.00  0.00    -0.389 A  
HETATM    3  H2  UNL     1     -13.345  12.886  63.172  1.00  0.00     0.000 HD 
HETATM    4  H1  UNL     1     -13.285  13.911  64.478  1.00  0.00     0.000 HD 
HETATM    5  N   UNL     1     -11.076  11.725  63.473  1.00  0.00    -0.423 NA 
HETATM    6  C   UNL     1     -10.235  10.797  63.972  1.00  0.00    -0.322 A  
HETATM    7  N   UNL     1     -10.040  10.467  65.267  1.00  0.00    -0.306 NA 
HETATM    8  F   UNL     1      -9.515  10.106  63.074  1.00  0.00    -0.272 F  
HETATM    9  C   UNL     1     -10.774  11.236  66.090  1.00  0.00    -0.250 A  
HETATM   10  C   UNL     1     -11.645  12.242  65.715  1.00  0.00    -0.388 A  
HETATM   11  N   UNL     1     -12.180  12.859  66.819  1.00  0.00    -0.432 NA 
HETATM   12  C   UNL     1     -11.650  12.230  67.848  1.00  0.00    -0.354 A  
HETATM   13  N   UNL     1     -10.871  11.169  67.464  1.00  0.00    -0.236 NA 
ENDROOT
BRANCH  13  14
HETATM   14  C1* UNL     1     -10.192  10.214  68.325  1.00  0.00    -0.166 C  
HETATM   15  O4* UNL     1      -9.059  10.860  68.959  1.00  0.00    -0.163 OA 
HETATM   16  C4* UNL     1      -7.875  10.573  68.185  1.00  0.00    -0.109 C  
HETATM   17  H2* UNL     1      -9.793   7.618  66.192  1.00  0.00     0.000 HD 
HETATM   18  C3* UNL     1      -8.096   9.196  67.578  1.00  0.00    -0.104 C  
HETATM   19  C2* UNL     1      -9.591   8.919  67.745  1.00  0.00    -0.147 C  
HETATM   20  O3* UNL     1      -7.362   8.193  68.287  1.00  0.00    -0.091 OA 
HETATM   21  H3* UNL     1      -7.500   7.333  67.907  1.00  0.00     0.000 HD 
HETATM   22  O2* UNL     1     -10.164   8.417  66.549  1.00  0.00    -0.293 OA 
BRANCH  16  23
HETATM   23  C5* UNL     1      -7.660  11.640  67.101  1.00  0.00    -0.152 C  
HETATM   24  O5* UNL     1      -7.218  11.033  65.893  1.00  0.00    -0.317 OA 
HETATM   25  H5* UNL     1      -7.086  11.693  65.223  1.00  0.00     0.000 HD 
ENDBRANCH  16  23
ENDBRANCH  13  14
TORSDOF 2
ENDMDL
MODEL      153
REMARK 921   NORMALIZED FREE ENERGY PREDICTED BY IDOCK:   -4.13 KCAL/MOL
REMARK 922        TOTAL FREE ENERGY PREDICTED BY IDOCK:   -4.03 KCAL/MOL
REMARK 923 INTER-LIGAND FREE ENERGY PREDICTED BY IDOCK:   -4.74 KCAL/MOL
REMARK 924 INTRA-LIGAND FREE ENERGY PREDICTED BY IDOCK:    0.70 KCAL/MOL
REMARK 927      BINDING AFFINITY PREDICTED BY RF-SCORE:    0.00 PKD
ROOT
HETATM    1  N   UNL     1      -8.341   7.668  68.091  1.00  0.00    -0.124 NA 
HETATM    2  C   UNL     1      -8.469   8.298  66.864  1.00  0.00    -0.118 A  
HETATM    3  H2  UNL     1      -7.359   7.439  68.245  1.00  0.00     0.000 HD 
HETATM    4  H1  UNL     1      -8.707   8.137  68.920  1.00  0.00     0.000 HD 
HETATM    5  N   UNL     1      -7.986   7.677  65.768  1.00  0.00    -0.108 NA 
HETATM    6  C   UNL     1      -8.063   8.316  64.583  1.00  0.00    -0.150 A  
HETATM    7  N   UNL     1      -8.561   9.546  64.336  1.00  0.00    -0.182 NA 
HETATM    8  F   UNL     1      -7.573   7.656  63.521  1.00  0.00    -0.089 F  
HETATM    9  C   UNL     1      -9.062  10.110  65.449  1.00  0.00    -0.188 A  
HETATM   10  C   UNL     1      -9.079   9.554  66.716  1.00  0.00    -0.146 A  
HETATM   11  N   UNL     1      -9.721  10.384  67.603  1.00  0.00    -0.166 NA 
HETATM   12  C   UNL     1     -10.078  11.431  66.888  1.00  0.00    -0.214 A  
HETATM   13  N   UNL     1      -9.612  11.366  65.600  1.00  0.00    -0.226 NA 
ENDROOT
BRANCH  13  14
HETATM   14  C1* UNL     1      -9.752  12.370  64.558  1.00  0.00     0.038 C  
HETATM   15  O4* UNL     1      -9.818  13.685  65.164  1.00  0.00    -0.213 OA 
HETATM   16  C4* UNL     1     -11.206  14.055  65.310  1.00  0.00    -0.319 C  
HETATM   17  H2* UNL     1     -12.345  11.091  62.799  1.00  0.00     0.000 HD 
HETATM   18  C3* UNL     1     -11.938  13.391  64.154  1.00  0.00    -0.450 C  
HETATM   19  C2* UNL     1     -10.962  12.351  63.603  1.00  0.00    -0.470 C  
HETATM   20  O3* UNL     1     -12.235  14.334  63.120  1.00  0.00    -0.951 OA 
HETATM   21  H3* UNL     1     -12.694  13.920  62.398  1.00  0.00     0.000 HD 
HETATM   22  O2* UNL     1     -11.599  11.102  63.387  1.00  0.00    -0.021 OA 
BRANCH  16  23
HETATM   23  C5* UNL     1     -11.753  13.589  66.668  1.00  0.00    -0.387 C  
HETATM   24  O5* UNL     1     -13.008  14.206  66.931  1.00  0.00    -0.254 OA 
HETATM   25  H5* UNL     1     -13.346  13.918  67.770  1.00  0.00     0.000 HD 
ENDBRANCH  16  23
ENDBRANCH  13  14
TORSDOF 2
ENDMDL
MODEL      154
REMARK 921   NORMALIZED FREE ENERGY PREDICTED BY IDOCK:   -4.05 KCAL/MOL
REMARK 922        TOTAL FREE ENERGY PREDICTED BY IDOCK:   -3.95 KCAL/MOL
REMARK 923 INTER-LIGAND FREE ENERGY PREDICTED BY IDOCK:   -4.68 KCAL/MOL
REMARK 924 INTRA-LIGAND FREE ENERGY PREDICTED BY IDOCK:    0.72 KCAL/MOL
REMARK 927      BINDING AFFINITY PREDICTED BY RF-SCORE:    0.00 PKD
ROOT
HETATM    1  N   UNL     1     -11.439  12.315  62.960  1.00  0.00    -0.657 NA 
HETATM    2  C   UNL     1     -11.181  11.949  64.271  1.00  0.00    -0.357 A  
HETATM    3  H2  UNL     1     -11.304  13.322  62.864  1.00  0.00     0.000 HD 
HETATM    4  H1  UNL     1     -10.932  11.840  62.213  1.00  0.00     0.000 HD 
HETATM    5  N   UNL     1     -11.851  12.579  65.259  1.00  0.00    -0.394 NA 
HETATM    6  C   UNL     1     -11.560  12.259  66.536  1.00  0.00    -0.377 A  
HETATM    7  N   UNL     1     -10.641  11.374  66.978  1.00  0.00    -0.236 NA 
HETATM    8  F   UNL     1     -12.255  12.908  67.482  1.00  0.00    -0.384 F  
HETATM    9  C   UNL     1     -10.025  10.748  65.961  1.00  0.00    -0.242 A  
HETATM   10  C   UNL     1     -10.252  10.954  64.612  1.00  0.00    -0.345 A  
HETATM   11  N   UNL     1      -9.487  10.100  63.854  1.00  0.00    -0.286 NA 
HETATM   12  C   UNL     1      -8.800   9.395  64.729  1.00  0.00    -0.204 A  
HETATM   13  N   UNL     1      -9.008   9.818  66.017  1.00  0.00    -0.149 NA 
ENDROOT
BRANCH  13  14
HETATM   14  C1* UNL     1      -8.368   9.322  67.224  1.00  0.00    -0.125 C  
HETATM   15  O4* UNL     1      -7.161   8.602  66.867  1.00  0.00    -0.074 OA 
HETATM   16  C4* UNL     1      -7.470   7.194  66.795  1.00  0.00    -0.089 C  
HETATM   17  H2* UNL     1     -10.976   7.782  68.732  1.00  0.00     0.000 HD 
HETATM   18  C3* UNL     1      -8.574   6.956  67.814  1.00  0.00    -0.122 C  
HETATM   19  C2* UNL     1      -9.104   8.347  68.164  1.00  0.00    -0.138 C  
HETATM   20  O3* UNL     1      -8.059   6.350  69.003  1.00  0.00    -0.109 OA 
HETATM   21  H3* UNL     1      -8.749   6.201  69.640  1.00  0.00     0.000 HD 
HETATM   22  O2* UNL     1     -10.522   8.383  68.153  1.00  0.00    -0.212 OA 
BRANCH  16  23
HETATM   23  C5* UNL     1      -7.918   6.806  65.377  1.00  0.00    -0.121 C  
HETATM   24  O5* UNL     1      -7.081   5.779  64.860  1.00  0.00    -0.057 OA 
HETATM   25  H5* UNL     1      -7.357   5.539  63.984  1.00  0.00     0.000 HD 
ENDBRANCH  16  23
ENDBRANCH  13  14
TORSDOF 2
ENDMDL
MODEL      155
REMARK 921   NORMALIZED FREE ENERGY PREDICTED BY IDOCK:   -4.05 KCAL/MOL
REMARK 922        TOTAL FREE ENERGY PREDICTED BY IDOCK:   -3.95 KCAL/MOL
REMARK 923 INTER-LIGAND FREE ENERGY PREDICTED BY IDOCK:   -3.71 KCAL/MOL
REMARK 924 INTRA-LIGAND FREE ENERGY PREDICTED BY IDOCK:   -0.24 KCAL/MOL
REMARK 927      BINDING AFFINITY PREDICTED BY RF-SCORE:    0.00 PKD
ROOT
HETATM    1  N   UNL     1      -7.769  12.920  68.097  1.00  0.00    -0.127 NA 
HETATM    2  C   UNL     1      -8.856  12.062  68.149  1.00  0.00    -0.182 A  
HETATM    3  H2  UNL     1      -7.898  13.660  68.787  1.00  0.00     0.000 HD 
HETATM    4  H1  UNL     1      -6.834  12.527  68.204  1.00  0.00     0.000 HD 
HETATM    5  N   UNL     1     -10.093  12.582  68.008  1.00  0.00    -0.214 NA 
HETATM    6  C   UNL     1     -11.152  11.753  68.112  1.00  0.00    -0.243 A  
HETATM    7  N   UNL     1     -11.144  10.428  68.365  1.00  0.00    -0.266 NA 
HETATM    8  F   UNL     1     -12.362  12.316  67.961  1.00  0.00    -0.299 F  
HETATM    9  C   UNL     1      -9.892   9.949  68.463  1.00  0.00    -0.156 A  
HETATM   10  C   UNL     1      -8.722  10.678  68.342  1.00  0.00    -0.141 A  
HETATM   11  N   UNL     1      -7.625   9.857  68.439  1.00  0.00    -0.083 NA 
HETATM   12  C   UNL     1      -8.121   8.651  68.625  1.00  0.00    -0.117 A  
HETATM   13  N   UNL     1      -9.486   8.663  68.753  1.00  0.00    -0.142 NA 
ENDROOT
BRANCH  13  14
HETATM   14  C1* UNL     1     -10.357   7.535  69.037  1.00  0.00    -0.212 C  
HETATM   15  O4* UNL     1     -10.891   7.665  70.378  1.00  0.00    -0.236 OA 
HETATM   16  C4* UNL     1     -10.069   6.891  71.278  1.00  0.00    -0.190 C  
HETATM   17  H2* UNL     1      -8.347   4.955  68.167  1.00  0.00     0.000 HD 
HETATM   18  C3* UNL     1      -9.550   5.717  70.462  1.00  0.00    -0.174 C  
HETATM   19  C2* UNL     1      -9.815   6.092  69.004  1.00  0.00    -0.141 C  
HETATM   20  O3* UNL     1     -10.269   4.517  70.764  1.00  0.00    -0.194 OA 
HETATM   21  H3* UNL     1      -9.944   3.784  70.255  1.00  0.00     0.000 HD 
HETATM   22  O2* UNL     1      -8.681   5.845  68.188  1.00  0.00    -0.113 OA 
BRANCH  16  23
HETATM   23  C5* UNL     1      -8.920   7.743  71.836  1.00  0.00    -0.128 C  
HETATM   24  O5* UNL     1      -9.308   9.110  71.904  1.00  0.00    -0.349 OA 
HETATM   25  H5* UNL     1      -8.598   9.637  72.249  1.00  0.00     0.000 HD 
ENDBRANCH  16  23
ENDBRANCH  13  14
TORSDOF 2
ENDMDL
MODEL      156
REMARK 921   NORMALIZED FREE ENERGY PREDICTED BY IDOCK:   -4.04 KCAL/MOL
REMARK 922        TOTAL FREE ENERGY PREDICTED BY IDOCK:   -3.94 KCAL/MOL
REMARK 923 INTER-LIGAND FREE ENERGY PREDICTED BY IDOCK:   -5.65 KCAL/MOL
REMARK 924 INTRA-LIGAND FREE ENERGY PREDICTED BY IDOCK:    1.71 KCAL/MOL
REMARK 927      BINDING AFFINITY PREDICTED BY RF-SCORE:    0.00 PKD
ROOT
HETATM    1  N   UNL     1      -9.393   9.347  63.100  1.00  0.00    -0.490 NA 
HETATM    2  C   UNL     1      -9.804  10.501  63.748  1.00  0.00    -0.300 A  
HETATM    3  H2  UNL     1      -9.078   9.590  62.161  1.00  0.00     0.000 HD 
HETATM    4  H1  UNL     1      -8.686   8.764  63.547  1.00  0.00     0.000 HD 
HETATM    5  N   UNL     1     -10.739  11.273  63.158  1.00  0.00    -0.207 NA 
HETATM    6  C   UNL     1     -11.099  12.422  63.765  1.00  0.00    -0.445 A  
HETATM    7  N   UNL     1     -10.619  12.934  64.918  1.00  0.00    -0.309 NA 
HETATM    8  F   UNL     1     -12.035  13.154  63.141  1.00  0.00    -0.582 F  
HETATM    9  C   UNL     1      -9.717  12.115  65.487  1.00  0.00    -0.181 A  
HETATM   10  C   UNL     1      -9.286  10.898  64.992  1.00  0.00    -0.226 A  
HETATM   11  N   UNL     1      -8.404  10.303  65.861  1.00  0.00    -0.140 NA 
HETATM   12  C   UNL     1      -8.294  11.152  66.863  1.00  0.00    -0.147 A  
HETATM   13  N   UNL     1      -8.986  12.315  66.639  1.00  0.00    -0.205 NA 
ENDROOT
BRANCH  13  14
HETATM   14  C1* UNL     1      -9.033  13.493  67.489  1.00  0.00    -0.210 C  
HETATM   15  O4* UNL     1      -9.953  13.259  68.585  1.00  0.00    -0.210 OA 
HETATM   16  C4* UNL     1     -11.238  13.813  68.233  1.00  0.00    -0.273 C  
HETATM   17  H2* UNL     1      -9.590  15.908  65.186  1.00  0.00     0.000 HD 
HETATM   18  C3* UNL     1     -10.946  15.011  67.342  1.00  0.00    -0.315 C  
HETATM   19  C2* UNL     1      -9.483  14.854  66.925  1.00  0.00    -0.237 C  
HETATM   20  O3* UNL     1     -11.089  16.239  68.063  1.00  0.00    -0.340 OA 
HETATM   21  H3* UNL     1     -10.906  16.987  67.506  1.00  0.00     0.000 HD 
HETATM   22  O2* UNL     1      -9.313  15.068  65.533  1.00  0.00    -0.177 OA 
BRANCH  16  23
HETATM   23  C5* UNL     1     -12.102  12.768  67.509  1.00  0.00    -0.150 C  
HETATM   24  O5* UNL     1     -11.741  11.457  67.926  1.00  0.00    -0.510 OA 
HETATM   25  H5* UNL     1     -12.275  10.811  67.479  1.00  0.00     0.000 HD 
ENDBRANCH  16  23
ENDBRANCH  13  14
TORSDOF 2
ENDMDL
MODEL      157
REMARK 921   NORMALIZED FREE ENERGY PREDICTED BY IDOCK:   -4.04 KCAL/MOL
REMARK 922        TOTAL FREE ENERGY PREDICTED BY IDOCK:   -3.94 KCAL/MOL
REMARK 923 INTER-LIGAND FREE ENERGY PREDICTED BY IDOCK:   -4.65 KCAL/MOL
REMARK 924 INTRA-LIGAND FREE ENERGY PREDICTED BY IDOCK:    0.71 KCAL/MOL
REMARK 927      BINDING AFFINITY PREDICTED BY RF-SCORE:    0.00 PKD
ROOT
HETATM    1  N   UNL     1      -6.125  13.018  70.093  1.00  0.00    -0.290 NA 
HETATM    2  C   UNL     1      -7.009  13.480  69.133  1.00  0.00    -0.055 A  
HETATM    3  H2  UNL     1      -5.432  12.418  69.645  1.00  0.00     0.000 HD 
HETATM    4  H1  UNL     1      -5.643  13.699  70.680  1.00  0.00     0.000 HD 
HETATM    5  N   UNL     1      -7.646  12.579  68.356  1.00  0.00    -0.124 NA 
HETATM    6  C   UNL     1      -8.466  13.033  67.387  1.00  0.00    -0.200 A  
HETATM    7  N   UNL     1      -8.732  14.316  67.062  1.00  0.00    -0.221 NA 
HETATM    8  F   UNL     1      -9.079  12.099  66.644  1.00  0.00    -0.187 F  
HETATM    9  C   UNL     1      -8.104  15.176  67.883  1.00  0.00    -0.137 A  
HETATM   10  C   UNL     1      -7.268  14.846  68.934  1.00  0.00    -0.128 A  
HETATM   11  N   UNL     1      -6.849  15.975  69.595  1.00  0.00    -0.188 NA 
HETATM   12  C   UNL     1      -7.414  16.974  68.949  1.00  0.00    -0.237 A  
HETATM   13  N   UNL     1      -8.100  16.555  67.839  1.00  0.00    -0.161 NA 
ENDROOT
BRANCH  13  14
HETATM   14  C1* UNL     1      -8.783  17.381  66.857  1.00  0.00    -0.246 C  
HETATM   15  O4* UNL     1      -8.022  18.597  66.641  1.00  0.00    -0.247 OA 
HETATM   16  C4* UNL     1      -8.571  19.638  67.478  1.00  0.00    -0.311 C  
HETATM   17  H2* UNL     1     -11.908  17.447  68.154  1.00  0.00     0.000 HD 
HETATM   18  C3* UNL     1     -10.056  19.334  67.601  1.00  0.00    -0.387 C  
HETATM   19  C2* UNL     1     -10.214  17.893  67.115  1.00  0.00    -0.353 C  
HETATM   20  O3* UNL     1     -10.831  20.190  66.757  1.00  0.00    -0.273 OA 
HETATM   21  H3* UNL     1     -11.760  20.001  66.834  1.00  0.00     0.000 HD 
HETATM   22  O2* UNL     1     -11.025  17.132  67.995  1.00  0.00    -0.362 OA 
BRANCH  16  23
HETATM   23  C5* UNL     1      -7.881  19.653  68.851  1.00  0.00    -0.264 C  
HETATM   24  O5* UNL     1      -6.691  20.428  68.795  1.00  0.00    -0.276 OA 
HETATM   25  H5* UNL     1      -6.264  20.438  69.644  1.00  0.00     0.000 HD 
ENDBRANCH  16  23
ENDBRANCH  13  14
TORSDOF 2
ENDMDL
MODEL      158
REMARK 921   NORMALIZED FREE ENERGY PREDICTED BY IDOCK:   -4.03 KCAL/MOL
REMARK 922        TOTAL FREE ENERGY PREDICTED BY IDOCK:   -3.93 KCAL/MOL
REMARK 923 INTER-LIGAND FREE ENERGY PREDICTED BY IDOCK:   -4.52 KCAL/MOL
REMARK 924 INTRA-LIGAND FREE ENERGY PREDICTED BY IDOCK:    0.59 KCAL/MOL
REMARK 927      BINDING AFFINITY PREDICTED BY RF-SCORE:    0.00 PKD
ROOT
HETATM    1  N   UNL     1     -11.588  13.102  68.744  1.00  0.00    -0.286 NA 
HETATM    2  C   UNL     1     -11.640  11.977  69.551  1.00  0.00    -0.321 A  
HETATM    3  H2  UNL     1     -11.529  13.931  69.335  1.00  0.00     0.000 HD 
HETATM    4  H1  UNL     1     -10.864  13.154  68.027  1.00  0.00     0.000 HD 
HETATM    5  N   UNL     1     -12.597  11.908  70.499  1.00  0.00    -0.184 NA 
HETATM    6  C   UNL     1     -12.612  10.837  71.318  1.00  0.00    -0.426 A  
HETATM    7  N   UNL     1     -11.757   9.793  71.331  1.00  0.00    -0.390 NA 
HETATM    8  F   UNL     1     -13.586  10.812  72.242  1.00  0.00    -0.486 F  
HETATM    9  C   UNL     1     -10.844   9.887  70.349  1.00  0.00    -0.319 A  
HETATM   10  C   UNL     1     -10.737  10.909  69.422  1.00  0.00    -0.225 A  
HETATM   11  N   UNL     1      -9.726  10.651  68.529  1.00  0.00    -0.167 NA 
HETATM   12  C   UNL     1      -9.221   9.497  68.913  1.00  0.00    -0.145 A  
HETATM   13  N   UNL     1      -9.791   9.040  70.074  1.00  0.00    -0.176 NA 
ENDROOT
BRANCH  13  14
HETATM   14  C1* UNL     1      -9.436   7.845  70.822  1.00  0.00    -0.158 C  
HETATM   15  O4* UNL     1      -8.077   7.460  70.494  1.00  0.00    -0.102 OA 
HETATM   16  C4* UNL     1      -8.121   6.453  69.460  1.00  0.00    -0.118 C  
HETATM   17  H2* UNL     1     -12.072   5.848  70.105  1.00  0.00     0.000 HD 
HETATM   18  C3* UNL     1      -9.409   5.677  69.688  1.00  0.00    -0.138 C  
HETATM   19  C2* UNL     1     -10.234   6.538  70.645  1.00  0.00    -0.187 C  
HETATM   20  O3* UNL     1      -9.150   4.416  70.314  1.00  0.00    -0.087 OA 
HETATM   21  H3* UNL     1      -9.954   3.931  70.457  1.00  0.00     0.000 HD 
HETATM   22  O2* UNL     1     -11.580   6.654  70.213  1.00  0.00    -0.370 OA 
BRANCH  16  23
HETATM   23  C5* UNL     1      -8.092   7.101  68.067  1.00  0.00    -0.120 C  
HETATM   24  O5* UNL     1      -9.033   6.468  67.210  1.00  0.00    -0.115 OA 
HETATM   25  H5* UNL     1      -9.016   6.869  66.349  1.00  0.00     0.000 HD 
ENDBRANCH  16  23
ENDBRANCH  13  14
TORSDOF 2
ENDMDL
MODEL      159
REMARK 921   NORMALIZED FREE ENERGY PREDICTED BY IDOCK:   -4.00 KCAL/MOL
REMARK 922        TOTAL FREE ENERGY PREDICTED BY IDOCK:   -3.89 KCAL/MOL
REMARK 923 INTER-LIGAND FREE ENERGY PREDICTED BY IDOCK:   -3.69 KCAL/MOL
REMARK 924 INTRA-LIGAND FREE ENERGY PREDICTED BY IDOCK:   -0.21 KCAL/MOL
REMARK 927      BINDING AFFINITY PREDICTED BY RF-SCORE:    0.00 PKD
ROOT
HETATM    1  N   UNL     1     -11.621   6.259  70.766  1.00  0.00    -0.329 NA 
HETATM    2  C   UNL     1     -10.534   7.096  70.958  1.00  0.00    -0.215 A  
HETATM    3  H2  UNL     1     -12.438   6.668  71.222  1.00  0.00     0.000 HD 
HETATM    4  H1  UNL     1     -11.871   5.996  69.813  1.00  0.00     0.000 HD 
HETATM    5  N   UNL     1     -10.204   7.446  72.218  1.00  0.00    -0.193 NA 
HETATM    6  C   UNL     1      -9.179   8.302  72.399  1.00  0.00    -0.256 A  
HETATM    7  N   UNL     1      -8.420   8.896  71.454  1.00  0.00    -0.272 NA 
HETATM    8  F   UNL     1      -8.886   8.616  73.671  1.00  0.00    -0.248 F  
HETATM    9  C   UNL     1      -8.761   8.492  70.218  1.00  0.00    -0.142 A  
HETATM   10  C   UNL     1      -9.764   7.595  69.894  1.00  0.00    -0.175 A  
HETATM   11  N   UNL     1      -9.797   7.369  68.540  1.00  0.00    -0.155 NA 
HETATM   12  C   UNL     1      -8.835   8.124  68.048  1.00  0.00    -0.131 A  
HETATM   13  N   UNL     1      -8.245   8.905  69.008  1.00  0.00    -0.115 NA 
ENDROOT
BRANCH  13  14
HETATM   14  C1* UNL     1      -7.206   9.904  68.817  1.00  0.00    -0.076 C  
HETATM   15  O4* UNL     1      -7.781  11.228  68.950  1.00  0.00    -0.133 OA 
HETATM   16  C4* UNL     1      -8.102  11.724  67.632  1.00  0.00    -0.144 C  
HETATM   17  H2* UNL     1      -5.840   8.842  65.909  1.00  0.00     0.000 HD 
HETATM   18  C3* UNL     1      -7.071  11.114  66.695  1.00  0.00    -0.141 C  
HETATM   19  C2* UNL     1      -6.421   9.982  67.493  1.00  0.00    -0.067 C  
HETATM   20  O3* UNL     1      -6.061  12.066  66.345  1.00  0.00    -0.487 OA 
HETATM   21  H3* UNL     1      -5.417  11.685  65.759  1.00  0.00     0.000 HD 
HETATM   22  O2* UNL     1      -6.324   8.793  66.725  1.00  0.00    -0.058 OA 
BRANCH  16  23
HETATM   23  C5* UNL     1      -9.532  11.328  67.234  1.00  0.00    -0.173 C  
HETATM   24  O5* UNL     1     -10.369  11.288  68.382  1.00  0.00    -0.178 OA 
HETATM   25  H5* UNL     1     -11.253  11.044  68.136  1.00  0.00     0.000 HD 
ENDBRANCH  16  23
ENDBRANCH  13  14
TORSDOF 2
ENDMDL
MODEL      160
REMARK 921   NORMALIZED FREE ENERGY PREDICTED BY IDOCK:   -3.97 KCAL/MOL
REMARK 922        TOTAL FREE ENERGY PREDICTED BY IDOCK:   -3.86 KCAL/MOL
REMARK 923 INTER-LIGAND FREE ENERGY PREDICTED BY IDOCK:   -4.61 KCAL/MOL
REMARK 924 INTRA-LIGAND FREE ENERGY PREDICTED BY IDOCK:    0.75 KCAL/MOL
REMARK 927      BINDING AFFINITY PREDICTED BY RF-SCORE:    0.00 PKD
ROOT
HETATM    1  N   UNL     1      -8.739   4.746  65.970  1.00  0.00    -0.116 NA 
HETATM    2  C   UNL     1      -9.310   5.515  66.971  1.00  0.00    -0.118 A  
HETATM    3  H2  UNL     1      -9.389   4.004  65.711  1.00  0.00     0.000 HD 
HETATM    4  H1  UNL     1      -8.414   5.213  65.123  1.00  0.00     0.000 HD 
HETATM    5  N   UNL     1      -9.739   4.899  68.091  1.00  0.00    -0.147 NA 
HETATM    6  C   UNL     1     -10.343   5.641  69.041  1.00  0.00    -0.243 A  
HETATM    7  N   UNL     1     -10.603   6.966  69.015  1.00  0.00    -0.207 NA 
HETATM    8  F   UNL     1     -10.749   4.984  70.138  1.00  0.00    -0.335 F  
HETATM    9  C   UNL     1     -10.127   7.543  67.898  1.00  0.00    -0.182 A  
HETATM   10  C   UNL     1      -9.460   6.908  66.865  1.00  0.00    -0.158 A  
HETATM   11  N   UNL     1      -9.065   7.813  65.911  1.00  0.00    -0.122 NA 
HETATM   12  C   UNL     1      -9.494   8.978  66.353  1.00  0.00    -0.226 A  
HETATM   13  N   UNL     1     -10.236   8.859  67.500  1.00  0.00    -0.230 NA 
ENDROOT
BRANCH  13  14
HETATM   14  C1* UNL     1     -10.921   9.917  68.223  1.00  0.00    -0.196 C  
HETATM   15  O4* UNL     1     -11.570  10.803  67.276  1.00  0.00    -0.439 OA 
HETATM   16  C4* UNL     1     -10.700  11.927  67.027  1.00  0.00    -0.240 C  
HETATM   17  H2* UNL     1      -8.440  10.998  70.255  1.00  0.00     0.000 HD 
HETATM   18  C3* UNL     1      -9.927  12.151  68.318  1.00  0.00    -0.212 C  
HETATM   19  C2* UNL     1     -10.140  10.880  69.139  1.00  0.00    -0.177 C  
HETATM   20  O3* UNL     1     -10.453  13.263  69.049  1.00  0.00    -0.405 OA 
HETATM   21  H3* UNL     1      -9.970  13.403  69.856  1.00  0.00     0.000 HD 
HETATM   22  O2* UNL     1      -8.922  10.405  69.690  1.00  0.00    -0.153 OA 
BRANCH  16  23
HETATM   23  C5* UNL     1      -9.758  11.636  65.848  1.00  0.00    -0.235 C  
HETATM   24  O5* UNL     1      -9.823  12.689  64.894  1.00  0.00    -0.465 OA 
HETATM   25  H5* UNL     1      -9.241  12.509  64.166  1.00  0.00     0.000 HD 
ENDBRANCH  16  23
ENDBRANCH  13  14
TORSDOF 2
ENDMDL
MODEL      161
REMARK 921   NORMALIZED FREE ENERGY PREDICTED BY IDOCK:   -3.94 KCAL/MOL
REMARK 922        TOTAL FREE ENERGY PREDICTED BY IDOCK:   -3.82 KCAL/MOL
REMARK 923 INTER-LIGAND FREE ENERGY PREDICTED BY IDOCK:   -4.50 KCAL/MOL
REMARK 924 INTRA-LIGAND FREE ENERGY PREDICTED BY IDOCK:    0.68 KCAL/MOL
REMARK 927      BINDING AFFINITY PREDICTED BY RF-SCORE:    0.00 PKD
ROOT
HETATM    1  N   UNL     1      -5.608  13.421  71.508  1.00  0.00    -0.381 NA 
HETATM    2  C   UNL     1      -6.159  13.352  70.239  1.00  0.00    -0.099 A  
HETATM    3  H2  UNL     1      -4.650  13.073  71.472  1.00  0.00     0.000 HD 
HETATM    4  H1  UNL     1      -5.617  14.317  71.995  1.00  0.00     0.000 HD 
HETATM    5  N   UNL     1      -6.147  12.167  69.594  1.00  0.00    -0.117 NA 
HETATM    6  C   UNL     1      -6.636  12.114  68.339  1.00  0.00    -0.059 A  
HETATM    7  N   UNL     1      -7.139  13.128  67.604  1.00  0.00    -0.147 NA 
HETATM    8  F   UNL     1      -6.606  10.912  67.741  1.00  0.00    -0.061 F  
HETATM    9  C   UNL     1      -7.163  14.279  68.297  1.00  0.00    -0.117 A  
HETATM   10  C   UNL     1      -6.728  14.465  69.597  1.00  0.00    -0.137 A  
HETATM   11  N   UNL     1      -6.957  15.755  70.008  1.00  0.00     0.001 NA 
HETATM   12  C   UNL     1      -7.512  16.346  68.970  1.00  0.00    -0.227 A  
HETATM   13  N   UNL     1      -7.565  15.528  67.871  1.00  0.00    -0.125 NA 
ENDROOT
BRANCH  13  14
HETATM   14  C1* UNL     1      -8.043  15.865  66.541  1.00  0.00    -0.235 C  
HETATM   15  O4* UNL     1      -7.859  17.285  66.309  1.00  0.00    -0.282 OA 
HETATM   16  C4* UNL     1      -9.095  17.965  66.616  1.00  0.00    -0.267 C  
HETATM   17  H2* UNL     1     -11.121  14.460  66.604  1.00  0.00     0.000 HD 
HETATM   18  C3* UNL     1     -10.206  16.980  66.284  1.00  0.00    -0.329 C  
HETATM   19  C2* UNL     1      -9.514  15.624  66.147  1.00  0.00    -0.341 C  
HETATM   20  O3* UNL     1     -10.830  17.304  65.038  1.00  0.00    -0.686 OA 
HETATM   21  H3* UNL     1     -11.525  16.689  64.830  1.00  0.00     0.000 HD 
HETATM   22  O2* UNL     1     -10.214  14.608  66.848  1.00  0.00    -0.257 OA 
BRANCH  16  23
HETATM   23  C5* UNL     1      -9.135  18.384  68.093  1.00  0.00    -0.309 C  
HETATM   24  O5* UNL     1      -8.617  19.700  68.246  1.00  0.00    -0.326 OA 
HETATM   25  H5* UNL     1      -8.642  19.959  69.159  1.00  0.00     0.000 HD 
ENDBRANCH  16  23
ENDBRANCH  13  14
TORSDOF 2
ENDMDL
MODEL      162
REMARK 921   NORMALIZED FREE ENERGY PREDICTED BY IDOCK:   -3.93 KCAL/MOL
REMARK 922        TOTAL FREE ENERGY PREDICTED BY IDOCK:   -3.81 KCAL/MOL
REMARK 923 INTER-LIGAND FREE ENERGY PREDICTED BY IDOCK:   -4.52 KCAL/MOL
REMARK 924 INTRA-LIGAND FREE ENERGY PREDICTED BY IDOCK:    0.71 KCAL/MOL
REMARK 927      BINDING AFFINITY PREDICTED BY RF-SCORE:    0.00 PKD
ROOT
HETATM    1  N   UNL     1      -7.925  16.845  68.118  1.00  0.00    -0.189 NA 
HETATM    2  C   UNL     1      -8.955  15.969  68.421  1.00  0.00    -0.188 A  
HETATM    3  H2  UNL     1      -7.721  17.414  68.939  1.00  0.00     0.000 HD 
HETATM    4  H1  UNL     1      -7.052  16.463  67.754  1.00  0.00     0.000 HD 
HETATM    5  N   UNL     1     -10.109  16.474  68.903  1.00  0.00    -0.251 NA 
HETATM    6  C   UNL     1     -11.090  15.616  69.248  1.00  0.00    -0.293 A  
HETATM    7  N   UNL     1     -11.068  14.268  69.193  1.00  0.00    -0.256 NA 
HETATM    8  F   UNL     1     -12.221  16.167  69.718  1.00  0.00    -0.289 F  
HETATM    9  C   UNL     1      -9.914  13.812  68.675  1.00  0.00    -0.174 A  
HETATM   10  C   UNL     1      -8.845  14.580  68.250  1.00  0.00    -0.179 A  
HETATM   11  N   UNL     1      -7.855  13.786  67.722  1.00  0.00    -0.155 NA 
HETATM   12  C   UNL     1      -8.313  12.556  67.835  1.00  0.00    -0.167 A  
HETATM   13  N   UNL     1      -9.510  12.505  68.501  1.00  0.00    -0.150 NA 
ENDROOT
BRANCH  13  14
HETATM   14  C1* UNL     1     -10.267  11.319  68.868  1.00  0.00    -0.180 C  
HETATM   15  O4* UNL     1      -9.351  10.268  69.265  1.00  0.00    -0.193 OA 
HETATM   16  C4* UNL     1      -9.110   9.414  68.127  1.00  0.00    -0.127 C  
HETATM   17  H2* UNL     1     -12.277  10.996  66.164  1.00  0.00     0.000 HD 
HETATM   18  C3* UNL     1     -10.391   9.438  67.308  1.00  0.00    -0.260 C  
HETATM   19  C2* UNL     1     -11.190  10.626  67.846  1.00  0.00    -0.308 C  
HETATM   20  O3* UNL     1     -11.155   8.245  67.506  1.00  0.00    -0.471 OA 
HETATM   21  H3* UNL     1     -11.956   8.260  66.994  1.00  0.00     0.000 HD 
HETATM   22  O2* UNL     1     -11.708  11.424  66.794  1.00  0.00    -0.474 OA 
BRANCH  16  23
HETATM   23  C5* UNL     1      -7.909   9.918  67.312  1.00  0.00    -0.102 C  
HETATM   24  O5* UNL     1      -8.218   9.911  65.924  1.00  0.00    -0.119 OA 
HETATM   25  H5* UNL     1      -7.476  10.223  65.420  1.00  0.00     0.000 HD 
ENDBRANCH  16  23
ENDBRANCH  13  14
TORSDOF 2
ENDMDL
MODEL      163
REMARK 921   NORMALIZED FREE ENERGY PREDICTED BY IDOCK:   -3.86 KCAL/MOL
REMARK 922        TOTAL FREE ENERGY PREDICTED BY IDOCK:   -3.73 KCAL/MOL
REMARK 923 INTER-LIGAND FREE ENERGY PREDICTED BY IDOCK:   -5.28 KCAL/MOL
REMARK 924 INTRA-LIGAND FREE ENERGY PREDICTED BY IDOCK:    1.55 KCAL/MOL
REMARK 927      BINDING AFFINITY PREDICTED BY RF-SCORE:    0.00 PKD
ROOT
HETATM    1  N   UNL     1      -7.215  19.526  68.314  1.00  0.00    -0.292 NA 
HETATM    2  C   UNL     1      -7.716  18.238  68.401  1.00  0.00    -0.299 A  
HETATM    3  H2  UNL     1      -6.212  19.480  68.131  1.00  0.00     0.000 HD 
HETATM    4  H1  UNL     1      -7.643  20.171  67.650  1.00  0.00     0.000 HD 
HETATM    5  N   UNL     1      -7.149  17.384  69.278  1.00  0.00    -0.197 NA 
HETATM    6  C   UNL     1      -7.603  16.115  69.324  1.00  0.00    -0.218 A  
HETATM    7  N   UNL     1      -8.572  15.556  68.570  1.00  0.00    -0.168 NA 
HETATM    8  F   UNL     1      -7.010  15.305  70.215  1.00  0.00    -0.138 F  
HETATM    9  C   UNL     1      -9.131  16.451  67.736  1.00  0.00    -0.199 A  
HETATM   10  C   UNL     1      -8.787  17.785  67.614  1.00  0.00    -0.248 A  
HETATM   11  N   UNL     1      -9.604  18.417  66.709  1.00  0.00    -0.295 NA 
HETATM   12  C   UNL     1     -10.424  17.479  66.282  1.00  0.00    -0.283 A  
HETATM   13  N   UNL     1     -10.115  16.245  66.792  1.00  0.00    -0.269 NA 
ENDROOT
BRANCH  13  14
HETATM   14  C1* UNL     1     -10.756  14.976  66.487  1.00  0.00    -0.312 C  
HETATM   15  O4* UNL     1     -12.075  14.947  67.087  1.00  0.00    -0.237 OA 
HETATM   16  C4* UNL     1     -11.986  14.271  68.360  1.00  0.00    -0.309 C  
HETATM   17  H2* UNL     1      -8.331  12.808  67.419  1.00  0.00     0.000 HD 
HETATM   18  C3* UNL     1     -10.877  13.242  68.208  1.00  0.00    -0.256 C  
HETATM   19  C2* UNL     1     -10.124  13.645  66.940  1.00  0.00    -0.260 C  
HETATM   20  O3* UNL     1     -11.411  11.927  68.025  1.00  0.00    -0.275 OA 
HETATM   21  H3* UNL     1     -10.718  11.284  67.931  1.00  0.00     0.000 HD 
HETATM   22  O2* UNL     1      -8.720  13.629  67.140  1.00  0.00    -0.210 OA 
BRANCH  16  23
HETATM   23  C5* UNL     1     -11.681  15.269  69.487  1.00  0.00    -0.339 C  
HETATM   24  O5* UNL     1     -10.626  14.780  70.305  1.00  0.00    -0.473 OA 
HETATM   25  H5* UNL     1     -10.437  15.397  71.002  1.00  0.00     0.000 HD 
ENDBRANCH  16  23
ENDBRANCH  13  14
TORSDOF 2
ENDMDL
MODEL      164
REMARK 921   NORMALIZED FREE ENERGY PREDICTED BY IDOCK:   -3.84 KCAL/MOL
REMARK 922        TOTAL FREE ENERGY PREDICTED BY IDOCK:   -3.72 KCAL/MOL
REMARK 923 INTER-LIGAND FREE ENERGY PREDICTED BY IDOCK:   -5.63 KCAL/MOL
REMARK 924 INTRA-LIGAND FREE ENERGY PREDICTED BY IDOCK:    1.92 KCAL/MOL
REMARK 927      BINDING AFFINITY PREDICTED BY RF-SCORE:    0.00 PKD
ROOT
HETATM    1  N   UNL     1     -10.233  17.760  65.969  1.00  0.00    -0.530 NA 
HETATM    2  C   UNL     1     -10.395  16.385  66.032  1.00  0.00    -0.352 A  
HETATM    3  H2  UNL     1     -10.843  18.132  65.241  1.00  0.00     0.000 HD 
HETATM    4  H1  UNL     1     -10.362  18.305  66.821  1.00  0.00     0.000 HD 
HETATM    5  N   UNL     1     -10.224  15.664  64.905  1.00  0.00    -0.400 NA 
HETATM    6  C   UNL     1     -10.434  14.333  64.958  1.00  0.00    -0.435 A  
HETATM    7  N   UNL     1     -10.825  13.598  66.020  1.00  0.00    -0.275 NA 
HETATM    8  F   UNL     1     -10.247  13.658  63.812  1.00  0.00    -0.084 F  
HETATM    9  C   UNL     1     -10.949  14.352  67.126  1.00  0.00    -0.303 A  
HETATM   10  C   UNL     1     -10.731  15.715  67.220  1.00  0.00    -0.305 A  
HETATM   11  N   UNL     1     -10.892  16.146  68.514  1.00  0.00    -0.296 NA 
HETATM   12  C   UNL     1     -11.214  15.064  69.192  1.00  0.00    -0.281 A  
HETATM   13  N   UNL     1     -11.366  13.967  68.383  1.00  0.00    -0.274 NA 
ENDROOT
BRANCH  13  14
HETATM   14  C1* UNL     1     -11.783  12.631  68.775  1.00  0.00    -0.323 C  
HETATM   15  O4* UNL     1     -10.777  12.048  69.640  1.00  0.00     0.074 OA 
HETATM   16  C4* UNL     1      -9.899  11.230  68.838  1.00  0.00    -0.139 C  
HETATM   17  H2* UNL     1     -12.522  11.294  65.755  1.00  0.00     0.000 HD 
HETATM   18  C3* UNL     1     -10.755  10.686  67.705  1.00  0.00    -0.267 C  
HETATM   19  C2* UNL     1     -12.024  11.539  67.714  1.00  0.00    -0.025 C  
HETATM   20  O3* UNL     1     -11.118   9.321  67.939  1.00  0.00    -0.506 OA 
HETATM   21  H3* UNL     1     -11.653   8.981  67.231  1.00  0.00     0.000 HD 
HETATM   22  O2* UNL     1     -12.373  11.968  66.408  1.00  0.00    -0.403 OA 
BRANCH  16  23
HETATM   23  C5* UNL     1      -8.718  12.057  68.306  1.00  0.00    -0.178 C  
HETATM   24  O5* UNL     1      -7.628  12.000  69.218  1.00  0.00    -0.332 OA 
HETATM   25  H5* UNL     1      -6.898  12.511  68.890  1.00  0.00     0.000 HD 
ENDBRANCH  16  23
ENDBRANCH  13  14
TORSDOF 2
ENDMDL
MODEL      165
REMARK 921   NORMALIZED FREE ENERGY PREDICTED BY IDOCK:   -3.79 KCAL/MOL
REMARK 922        TOTAL FREE ENERGY PREDICTED BY IDOCK:   -3.66 KCAL/MOL
REMARK 923 INTER-LIGAND FREE ENERGY PREDICTED BY IDOCK:   -4.27 KCAL/MOL
REMARK 924 INTRA-LIGAND FREE ENERGY PREDICTED BY IDOCK:    0.61 KCAL/MOL
REMARK 927      BINDING AFFINITY PREDICTED BY RF-SCORE:    0.00 PKD
ROOT
HETATM    1  N   UNL     1     -12.991   7.562  70.941  1.00  0.00    -0.585 NA 
HETATM    2  C   UNL     1     -11.997   6.602  71.038  1.00  0.00    -0.359 A  
HETATM    3  H2  UNL     1     -12.800   8.306  71.612  1.00  0.00     0.000 HD 
HETATM    4  H1  UNL     1     -13.177   7.978  70.028  1.00  0.00     0.000 HD 
HETATM    5  N   UNL     1     -11.750   6.051  72.245  1.00  0.00    -0.314 NA 
HETATM    6  C   UNL     1     -10.747   5.156  72.348  1.00  0.00    -0.216 A  
HETATM    7  N   UNL     1      -9.911   4.733  71.376  1.00  0.00    -0.189 NA 
HETATM    8  F   UNL     1     -10.542   4.633  73.568  1.00  0.00    -0.193 F  
HETATM    9  C   UNL     1     -10.217   5.281  70.187  1.00  0.00    -0.280 A  
HETATM   10  C   UNL     1     -11.237   6.181  69.935  1.00  0.00    -0.414 A  
HETATM   11  N   UNL     1     -11.297   6.486  68.597  1.00  0.00    -0.212 NA 
HETATM   12  C   UNL     1     -10.323   5.790  68.048  1.00  0.00    -0.206 A  
HETATM   13  N   UNL     1      -9.569   5.124  68.979  1.00  0.00    -0.134 NA 
ENDROOT
BRANCH  13  14
HETATM   14  C1* UNL     1      -8.380   4.322  68.744  1.00  0.00    -0.083 C  
HETATM   15  O4* UNL     1      -7.736   4.764  67.523  1.00  0.00    -0.088 OA 
HETATM   16  C4* UNL     1      -8.174   3.918  66.439  1.00  0.00    -0.104 C  
HETATM   17  H2* UNL     1      -9.655   1.203  69.051  1.00  0.00     0.000 HD 
HETATM   18  C3* UNL     1      -8.434   2.552  67.056  1.00  0.00    -0.101 C  
HETATM   19  C2* UNL     1      -8.482   2.794  68.565  1.00  0.00    -0.069 C  
HETATM   20  O3* UNL     1      -7.366   1.643  66.771  1.00  0.00    -0.053 OA 
HETATM   21  H3* UNL     1      -7.529   0.790  67.156  1.00  0.00     0.000 HD 
HETATM   22  O2* UNL     1      -9.593   2.144  69.162  1.00  0.00    -0.103 OA 
BRANCH  16  23
HETATM   23  C5* UNL     1      -9.437   4.489  65.778  1.00  0.00    -0.172 C  
HETATM   24  O5* UNL     1     -10.215   3.441  65.214  1.00  0.00    -0.393 OA 
HETATM   25  H5* UNL     1     -10.997   3.794  64.806  1.00  0.00     0.000 HD 
ENDBRANCH  16  23
ENDBRANCH  13  14
TORSDOF 2
ENDMDL
MODEL      166
REMARK 921   NORMALIZED FREE ENERGY PREDICTED BY IDOCK:   -3.78 KCAL/MOL
REMARK 922        TOTAL FREE ENERGY PREDICTED BY IDOCK:   -3.65 KCAL/MOL
REMARK 923 INTER-LIGAND FREE ENERGY PREDICTED BY IDOCK:   -6.54 KCAL/MOL
REMARK 924 INTRA-LIGAND FREE ENERGY PREDICTED BY IDOCK:    2.90 KCAL/MOL
REMARK 927      BINDING AFFINITY PREDICTED BY RF-SCORE:    0.00 PKD
ROOT
HETATM    1  N   UNL     1     -10.037   8.824  68.568  1.00  0.00    -0.184 NA 
HETATM    2  C   UNL     1     -10.235   9.838  67.645  1.00  0.00    -0.213 A  
HETATM    3  H2  UNL     1      -9.039   8.617  68.624  1.00  0.00     0.000 HD 
HETATM    4  H1  UNL     1     -10.402   8.947  69.513  1.00  0.00     0.000 HD 
HETATM    5  N   UNL     1      -9.750   9.675  66.396  1.00  0.00    -0.206 NA 
HETATM    6  C   UNL     1      -9.897  10.685  65.515  1.00  0.00    -0.258 A  
HETATM    7  N   UNL     1     -10.469  11.889  65.724  1.00  0.00    -0.247 NA 
HETATM    8  F   UNL     1      -9.403  10.474  64.285  1.00  0.00    -0.203 F  
HETATM    9  C   UNL     1     -10.966  11.993  66.969  1.00  0.00    -0.274 A  
HETATM   10  C   UNL     1     -10.916  11.025  67.957  1.00  0.00    -0.258 A  
HETATM   11  N   UNL     1     -11.576  11.447  69.085  1.00  0.00    -0.283 NA 
HETATM   12  C   UNL     1     -12.011  12.655  68.791  1.00  0.00    -0.237 A  
HETATM   13  N   UNL     1     -11.580  13.078  67.559  1.00  0.00    -0.334 NA 
ENDROOT
BRANCH  13  14
HETATM   14  C1* UNL     1     -11.805  14.374  66.942  1.00  0.00    -0.410 C  
HETATM   15  O4* UNL     1     -12.946  14.291  66.052  1.00  0.00    -0.303 OA 
HETATM   16  C4* UNL     1     -12.468  14.053  64.711  1.00  0.00    -0.365 C  
HETATM   17  H2* UNL     1      -8.700  15.068  65.788  1.00  0.00     0.000 HD 
HETATM   18  C3* UNL     1     -11.114  14.741  64.623  1.00  0.00    -0.325 C  
HETATM   19  C2* UNL     1     -10.717  15.032  66.070  1.00  0.00    -0.326 C  
HETATM   20  O3* UNL     1     -11.209  15.981  63.915  1.00  0.00    -1.055 OA 
HETATM   21  H3* UNL     1     -10.362  16.410  63.860  1.00  0.00     0.000 HD 
HETATM   22  O2* UNL     1      -9.371  14.662  66.325  1.00  0.00    -0.286 OA 
BRANCH  16  23
HETATM   23  C5* UNL     1     -12.356  12.547  64.431  1.00  0.00    -0.455 C  
HETATM   24  O5* UNL     1     -13.644  11.945  64.452  1.00  0.00    -0.321 OA 
HETATM   25  H5* UNL     1     -13.575  11.014  64.279  1.00  0.00     0.000 HD 
ENDBRANCH  16  23
ENDBRANCH  13  14
TORSDOF 2
ENDMDL
MODEL      167
REMARK 921   NORMALIZED FREE ENERGY PREDICTED BY IDOCK:   -3.77 KCAL/MOL
REMARK 922        TOTAL FREE ENERGY PREDICTED BY IDOCK:   -3.63 KCAL/MOL
REMARK 923 INTER-LIGAND FREE ENERGY PREDICTED BY IDOCK:   -3.38 KCAL/MOL
REMARK 924 INTRA-LIGAND FREE ENERGY PREDICTED BY IDOCK:   -0.25 KCAL/MOL
REMARK 927      BINDING AFFINITY PREDICTED BY RF-SCORE:    0.00 PKD
ROOT
HETATM    1  N   UNL     1      -7.001   7.378  64.358  1.00  0.00    -0.057 NA 
HETATM    2  C   UNL     1      -7.790   6.756  65.311  1.00  0.00    -0.121 A  
HETATM    3  H2  UNL     1      -7.586   7.646  63.567  1.00  0.00     0.000 HD 
HETATM    4  H1  UNL     1      -6.438   8.181  64.640  1.00  0.00     0.000 HD 
HETATM    5  N   UNL     1      -8.534   5.694  64.938  1.00  0.00    -0.142 NA 
HETATM    6  C   UNL     1      -9.341   5.123  65.854  1.00  0.00    -0.159 A  
HETATM    7  N   UNL     1      -9.527   5.494  67.139  1.00  0.00    -0.118 NA 
HETATM    8  F   UNL     1     -10.059   4.068  65.437  1.00  0.00    -0.180 F  
HETATM    9  C   UNL     1      -8.741   6.531  67.475  1.00  0.00    -0.114 A  
HETATM   10  C   UNL     1      -7.846   7.185  66.647  1.00  0.00    -0.109 A  
HETATM   11  N   UNL     1      -7.168   8.160  67.337  1.00  0.00    -0.086 NA 
HETATM   12  C   UNL     1      -7.651   8.105  68.562  1.00  0.00    -0.104 A  
HETATM   13  N   UNL     1      -8.681   7.208  68.675  1.00  0.00    -0.127 NA 
ENDROOT
BRANCH  13  14
HETATM   14  C1* UNL     1      -9.492   6.937  69.851  1.00  0.00    -0.156 C  
HETATM   15  O4* UNL     1     -10.847   7.396  69.616  1.00  0.00    -0.239 OA 
HETATM   16  C4* UNL     1     -10.989   8.719  70.174  1.00  0.00    -0.223 C  
HETATM   17  H2* UNL     1      -7.555   8.289  72.274  1.00  0.00     0.000 HD 
HETATM   18  C3* UNL     1     -10.055   8.768  71.374  1.00  0.00    -0.284 C  
HETATM   19  C2* UNL     1      -9.133   7.558  71.216  1.00  0.00    -0.141 C  
HETATM   20  O3* UNL     1     -10.780   8.634  72.600  1.00  0.00    -0.241 OA 
HETATM   21  H3* UNL     1     -10.197   8.665  73.350  1.00  0.00     0.000 HD 
HETATM   22  O2* UNL     1      -7.775   7.906  71.433  1.00  0.00    -0.077 OA 
BRANCH  16  23
HETATM   23  C5* UNL     1     -10.627   9.791  69.134  1.00  0.00    -0.218 C  
HETATM   24  O5* UNL     1     -10.920   9.323  67.823  1.00  0.00    -0.483 OA 
HETATM   25  H5* UNL     1     -10.697   9.985  67.180  1.00  0.00     0.000 HD 
ENDBRANCH  16  23
ENDBRANCH  13  14
TORSDOF 2
ENDMDL
MODEL      168
REMARK 921   NORMALIZED FREE ENERGY PREDICTED BY IDOCK:   -3.76 KCAL/MOL
REMARK 922        TOTAL FREE ENERGY PREDICTED BY IDOCK:   -3.63 KCAL/MOL
REMARK 923 INTER-LIGAND FREE ENERGY PREDICTED BY IDOCK:   -5.13 KCAL/MOL
REMARK 924 INTRA-LIGAND FREE ENERGY PREDICTED BY IDOCK:    1.50 KCAL/MOL
REMARK 927      BINDING AFFINITY PREDICTED BY RF-SCORE:    0.00 PKD
ROOT
HETATM    1  N   UNL     1     -11.616  11.973  67.135  1.00  0.00    -0.493 NA 
HETATM    2  C   UNL     1     -11.273  10.786  67.763  1.00  0.00    -0.316 A  
HETATM    3  H2  UNL     1     -12.151  11.760  66.294  1.00  0.00     0.000 HD 
HETATM    4  H1  UNL     1     -12.113  12.683  67.674  1.00  0.00     0.000 HD 
HETATM    5  N   UNL     1     -10.616   9.848  67.051  1.00  0.00    -0.227 NA 
HETATM    6  C   UNL     1     -10.332   8.673  67.648  1.00  0.00    -0.254 A  
HETATM    7  N   UNL     1     -10.642   8.285  68.903  1.00  0.00    -0.184 NA 
HETATM    8  F   UNL     1      -9.673   7.773  66.900  1.00  0.00    -0.196 F  
HETATM    9  C   UNL     1     -11.264   9.263  69.584  1.00  0.00    -0.041 A  
HETATM   10  C   UNL     1     -11.584  10.522  69.107  1.00  0.00    -0.224 A  
HETATM   11  N   UNL     1     -12.162  11.284  70.092  1.00  0.00    -0.328 NA 
HETATM   12  C   UNL     1     -12.201  10.497  71.148  1.00  0.00    -0.391 A  
HETATM   13  N   UNL     1     -11.767   9.227  70.868  1.00  0.00    -0.288 NA 
ENDROOT
BRANCH  13  14
HETATM   14  C1* UNL     1     -11.740   8.084  71.766  1.00  0.00    -0.291 C  
HETATM   15  O4* UNL     1     -10.734   8.300  72.787  1.00  0.00    -0.343 OA 
HETATM   16  C4* UNL     1      -9.514   7.646  72.378  1.00  0.00    -0.165 C  
HETATM   17  H2* UNL     1     -11.498   5.544  69.543  1.00  0.00     0.000 HD 
HETATM   18  C3* UNL     1      -9.943   6.435  71.563  1.00  0.00    -0.180 C  
HETATM   19  C2* UNL     1     -11.418   6.673  71.236  1.00  0.00    -0.311 C  
HETATM   20  O3* UNL     1      -9.832   5.231  72.328  1.00  0.00    -0.162 OA 
HETATM   21  H3* UNL     1     -10.100   4.474  71.820  1.00  0.00     0.000 HD 
HETATM   22  O2* UNL     1     -11.696   6.415  69.869  1.00  0.00    -0.426 OA 
BRANCH  16  23
HETATM   23  C5* UNL     1      -8.636   8.599  71.552  1.00  0.00    -0.195 C  
HETATM   24  O5* UNL     1      -8.168   7.946  70.379  1.00  0.00    -0.115 OA 
HETATM   25  H5* UNL     1      -7.625   8.534  69.869  1.00  0.00     0.000 HD 
ENDBRANCH  16  23
ENDBRANCH  13  14
TORSDOF 2
ENDMDL
MODEL      169
REMARK 921   NORMALIZED FREE ENERGY PREDICTED BY IDOCK:   -3.76 KCAL/MOL
REMARK 922        TOTAL FREE ENERGY PREDICTED BY IDOCK:   -3.62 KCAL/MOL
REMARK 923 INTER-LIGAND FREE ENERGY PREDICTED BY IDOCK:   -3.63 KCAL/MOL
REMARK 924 INTRA-LIGAND FREE ENERGY PREDICTED BY IDOCK:    0.01 KCAL/MOL
REMARK 927      BINDING AFFINITY PREDICTED BY RF-SCORE:    0.00 PKD
ROOT
HETATM    1  N   UNL     1     -13.717   7.275  72.034  1.00  0.00    -0.555 NA 
HETATM    2  C   UNL     1     -12.352   7.483  71.914  1.00  0.00    -0.310 A  
HETATM    3  H2  UNL     1     -14.151   7.392  71.118  1.00  0.00     0.000 HD 
HETATM    4  H1  UNL     1     -14.042   6.400  72.446  1.00  0.00     0.000 HD 
HETATM    5  N   UNL     1     -11.923   8.640  71.369  1.00  0.00    -0.294 NA 
HETATM    6  C   UNL     1     -10.596   8.818  71.205  1.00  0.00    -0.241 A  
HETATM    7  N   UNL     1      -9.602   7.956  71.506  1.00  0.00    -0.148 NA 
HETATM    8  F   UNL     1     -10.218   9.986  70.662  1.00  0.00    -0.330 F  
HETATM    9  C   UNL     1     -10.074   6.834  72.078  1.00  0.00    -0.182 A  
HETATM   10  C   UNL     1     -11.401   6.540  72.336  1.00  0.00    -0.279 A  
HETATM   11  N   UNL     1     -11.515   5.333  72.982  1.00  0.00    -0.309 NA 
HETATM   12  C   UNL     1     -10.278   4.898  73.105  1.00  0.00    -0.169 A  
HETATM   13  N   UNL     1      -9.373   5.717  72.481  1.00  0.00    -0.142 NA 
ENDROOT
BRANCH  13  14
HETATM   14  C1* UNL     1      -7.940   5.514  72.352  1.00  0.00    -0.103 C  
HETATM   15  O4* UNL     1      -7.532   5.818  70.994  1.00  0.00    -0.085 OA 
HETATM   16  C4* UNL     1      -7.486   4.587  70.241  1.00  0.00    -0.050 C  
HETATM   17  H2* UNL     1      -7.627   2.404  73.648  1.00  0.00     0.000 HD 
HETATM   18  C3* UNL     1      -7.103   3.503  71.237  1.00  0.00    -0.033 C  
HETATM   19  C2* UNL     1      -7.313   4.131  72.615  1.00  0.00    -0.072 C  
HETATM   20  O3* UNL     1      -5.725   3.140  71.103  1.00  0.00    -0.012 OA 
HETATM   21  H3* UNL     1      -5.486   2.463  71.725  1.00  0.00     0.000 HD 
HETATM   22  O2* UNL     1      -8.014   3.256  73.485  1.00  0.00    -0.070 OA 
BRANCH  16  23
HETATM   23  C5* UNL     1      -8.846   4.297  69.587  1.00  0.00    -0.086 C  
HETATM   24  O5* UNL     1      -9.454   3.164  70.195  1.00  0.00    -0.162 OA 
HETATM   25  H5* UNL     1     -10.294   2.986  69.791  1.00  0.00     0.000 HD 
ENDBRANCH  16  23
ENDBRANCH  13  14
TORSDOF 2
ENDMDL
MODEL      170
REMARK 921   NORMALIZED FREE ENERGY PREDICTED BY IDOCK:   -3.74 KCAL/MOL
REMARK 922        TOTAL FREE ENERGY PREDICTED BY IDOCK:   -3.61 KCAL/MOL
REMARK 923 INTER-LIGAND FREE ENERGY PREDICTED BY IDOCK:   -5.15 KCAL/MOL
REMARK 924 INTRA-LIGAND FREE ENERGY PREDICTED BY IDOCK:    1.55 KCAL/MOL
REMARK 927      BINDING AFFINITY PREDICTED BY RF-SCORE:    0.00 PKD
ROOT
HETATM    1  N   UNL     1      -6.977  10.056  68.687  1.00  0.00    -0.068 NA 
HETATM    2  C   UNL     1      -8.271   9.762  69.086  1.00  0.00    -0.130 A  
HETATM    3  H2  UNL     1      -6.926  11.042  68.431  1.00  0.00     0.000 HD 
HETATM    4  H1  UNL     1      -6.210   9.840  69.324  1.00  0.00     0.000 HD 
HETATM    5  N   UNL     1      -9.285  10.049  68.245  1.00  0.00    -0.128 NA 
HETATM    6  C   UNL     1     -10.547   9.811  68.656  1.00  0.00    -0.221 A  
HETATM    7  N   UNL     1     -10.950   9.323  69.848  1.00  0.00    -0.230 NA 
HETATM    8  F   UNL     1     -11.522  10.109  67.782  1.00  0.00    -0.361 F  
HETATM    9  C   UNL     1      -9.906   9.020  70.639  1.00  0.00    -0.230 A  
HETATM   10  C   UNL     1      -8.568   9.179  70.329  1.00  0.00    -0.198 A  
HETATM   11  N   UNL     1      -7.773   8.711  71.347  1.00  0.00    -0.115 NA 
HETATM   12  C   UNL     1      -8.616   8.283  72.264  1.00  0.00    -0.194 A  
HETATM   13  N   UNL     1      -9.922   8.542  71.933  1.00  0.00    -0.265 NA 
ENDROOT
BRANCH  13  14
HETATM   14  C1* UNL     1     -11.106   8.277  72.733  1.00  0.00    -0.249 C  
HETATM   15  O4* UNL     1     -11.263   6.845  72.898  1.00  0.00    -0.267 OA 
HETATM   16  C4* UNL     1     -12.183   6.365  71.894  1.00  0.00    -0.279 C  
HETATM   17  H2* UNL     1     -13.404  10.140  71.091  1.00  0.00     0.000 HD 
HETATM   18  C3* UNL     1     -13.154   7.507  71.637  1.00  0.00    -0.358 C  
HETATM   19  C2* UNL     1     -12.497   8.740  72.260  1.00  0.00    -0.386 C  
HETATM   20  O3* UNL     1     -14.407   7.278  72.288  1.00  0.00    -0.602 OA 
HETATM   21  H3* UNL     1     -15.014   7.991  72.128  1.00  0.00     0.000 HD 
HETATM   22  O2* UNL     1     -12.546   9.854  71.383  1.00  0.00    -0.337 OA 
BRANCH  16  23
HETATM   23  C5* UNL     1     -11.432   5.963  70.615  1.00  0.00    -0.034 C  
HETATM   24  O5* UNL     1     -12.093   6.488  69.471  1.00  0.00    -0.499 OA 
HETATM   25  H5* UNL     1     -11.630   6.240  68.680  1.00  0.00     0.000 HD 
ENDBRANCH  16  23
ENDBRANCH  13  14
TORSDOF 2
ENDMDL
MODEL      171
REMARK 921   NORMALIZED FREE ENERGY PREDICTED BY IDOCK:   -3.73 KCAL/MOL
REMARK 922        TOTAL FREE ENERGY PREDICTED BY IDOCK:   -3.59 KCAL/MOL
REMARK 923 INTER-LIGAND FREE ENERGY PREDICTED BY IDOCK:   -3.62 KCAL/MOL
REMARK 924 INTRA-LIGAND FREE ENERGY PREDICTED BY IDOCK:    0.02 KCAL/MOL
REMARK 927      BINDING AFFINITY PREDICTED BY RF-SCORE:    0.00 PKD
ROOT
HETATM    1  N   UNL     1      -8.493   8.352  65.545  1.00  0.00    -0.160 NA 
HETATM    2  C   UNL     1      -8.057   8.218  66.854  1.00  0.00    -0.103 A  
HETATM    3  H2  UNL     1      -8.391   7.457  65.068  1.00  0.00     0.000 HD 
HETATM    4  H1  UNL     1      -9.434   8.710  65.380  1.00  0.00     0.000 HD 
HETATM    5  N   UNL     1      -6.813   7.744  67.072  1.00  0.00    -0.067 NA 
HETATM    6  C   UNL     1      -6.410   7.564  68.346  1.00  0.00    -0.044 A  
HETATM    7  N   UNL     1      -7.115   7.783  69.476  1.00  0.00    -0.062 NA 
HETATM    8  F   UNL     1      -5.163   7.095  68.512  1.00  0.00    -0.014 F  
HETATM    9  C   UNL     1      -8.333   8.287  69.211  1.00  0.00    -0.122 A  
HETATM   10  C   UNL     1      -8.857   8.553  67.958  1.00  0.00    -0.142 A  
HETATM   11  N   UNL     1     -10.105   9.117  68.063  1.00  0.00    -0.185 NA 
HETATM   12  C   UNL     1     -10.339   9.182  69.357  1.00  0.00    -0.216 A  
HETATM   13  N   UNL     1      -9.343   8.597  70.097  1.00  0.00    -0.160 NA 
ENDROOT
BRANCH  13  14
HETATM   14  C1* UNL     1      -9.300   8.422  71.539  1.00  0.00    -0.200 C  
HETATM   15  O4* UNL     1      -8.745   7.120  71.849  1.00  0.00    -0.120 OA 
HETATM   16  C4* UNL     1      -9.833   6.193  72.056  1.00  0.00    -0.155 C  
HETATM   17  H2* UNL     1     -12.477   9.244  72.367  1.00  0.00     0.000 HD 
HETATM   18  C3* UNL     1     -10.975   7.015  72.634  1.00  0.00    -0.278 C  
HETATM   19  C2* UNL     1     -10.592   8.473  72.378  1.00  0.00    -0.298 C  
HETATM   20  O3* UNL     1     -11.096   6.814  74.046  1.00  0.00    -0.358 OA 
HETATM   21  H3* UNL     1     -11.810   7.327  74.407  1.00  0.00     0.000 HD 
HETATM   22  O2* UNL     1     -11.681   9.213  71.849  1.00  0.00    -0.357 OA 
BRANCH  16  23
HETATM   23  C5* UNL     1     -10.234   5.520  70.735  1.00  0.00    -0.235 C  
HETATM   24  O5* UNL     1     -11.488   6.020  70.288  1.00  0.00    -0.339 OA 
HETATM   25  H5* UNL     1     -11.735   5.604  69.471  1.00  0.00     0.000 HD 
ENDBRANCH  16  23
ENDBRANCH  13  14
TORSDOF 2
ENDMDL
MODEL      172
REMARK 921   NORMALIZED FREE ENERGY PREDICTED BY IDOCK:   -3.71 KCAL/MOL
REMARK 922        TOTAL FREE ENERGY PREDICTED BY IDOCK:   -3.57 KCAL/MOL
REMARK 923 INTER-LIGAND FREE ENERGY PREDICTED BY IDOCK:   -3.51 KCAL/MOL
REMARK 924 INTRA-LIGAND FREE ENERGY PREDICTED BY IDOCK:   -0.06 KCAL/MOL
REMARK 927      BINDING AFFINITY PREDICTED BY RF-SCORE:    0.00 PKD
ROOT
HETATM    1  N   UNL     1      -5.560  14.003  70.923  1.00  0.00    -0.168 NA 
HETATM    2  C   UNL     1      -6.241  13.622  69.778  1.00  0.00    -0.120 A  
HETATM    3  H2  UNL     1      -6.048  14.789  71.353  1.00  0.00     0.000 HD 
HETATM    4  H1  UNL     1      -5.375  13.297  71.637  1.00  0.00     0.000 HD 
HETATM    5  N   UNL     1      -6.486  14.555  68.835  1.00  0.00    -0.088 NA 
HETATM    6  C   UNL     1      -7.195  14.194  67.746  1.00  0.00    -0.176 A  
HETATM    7  N   UNL     1      -7.729  12.987  67.469  1.00  0.00    -0.160 NA 
HETATM    8  F   UNL     1      -7.409  15.156  66.834  1.00  0.00    -0.218 F  
HETATM    9  C   UNL     1      -7.430  12.082  68.418  1.00  0.00    -0.110 A  
HETATM   10  C   UNL     1      -6.685  12.308  69.562  1.00  0.00    -0.000 A  
HETATM   11  N   UNL     1      -6.528  11.146  70.277  1.00  0.00    -0.246 NA 
HETATM   12  C   UNL     1      -7.175  10.232  69.584  1.00  0.00    -0.140 A  
HETATM   13  N   UNL     1      -7.830  10.765  68.503  1.00  0.00    -0.114 NA 
ENDROOT
BRANCH  13  14
HETATM   14  C1* UNL     1      -8.694  10.071  67.563  1.00  0.00    -0.125 C  
HETATM   15  O4* UNL     1     -10.013  10.671  67.590  1.00  0.00    -0.164 OA 
HETATM   16  C4* UNL     1     -10.849   9.905  68.484  1.00  0.00    -0.217 C  
HETATM   17  H2* UNL     1      -8.184   6.858  68.494  1.00  0.00     0.000 HD 
HETATM   18  C3* UNL     1     -10.347   8.472  68.399  1.00  0.00    -0.202 C  
HETATM   19  C2* UNL     1      -8.980   8.564  67.719  1.00  0.00    -0.136 C  
HETATM   20  O3* UNL     1     -11.209   7.668  67.587  1.00  0.00    -0.480 OA 
HETATM   21  H3* UNL     1     -10.895   6.773  67.534  1.00  0.00     0.000 HD 
HETATM   22  O2* UNL     1      -8.007   7.787  68.398  1.00  0.00    -0.118 OA 
BRANCH  16  23
HETATM   23  C5* UNL     1     -10.757  10.451  69.917  1.00  0.00    -0.279 C  
HETATM   24  O5* UNL     1     -10.293   9.439  70.801  1.00  0.00    -0.254 OA 
HETATM   25  H5* UNL     1     -10.235   9.777  71.687  1.00  0.00     0.000 HD 
ENDBRANCH  16  23
ENDBRANCH  13  14
TORSDOF 2
ENDMDL
MODEL      173
REMARK 921   NORMALIZED FREE ENERGY PREDICTED BY IDOCK:   -3.67 KCAL/MOL
REMARK 922        TOTAL FREE ENERGY PREDICTED BY IDOCK:   -3.53 KCAL/MOL
REMARK 923 INTER-LIGAND FREE ENERGY PREDICTED BY IDOCK:   -5.22 KCAL/MOL
REMARK 924 INTRA-LIGAND FREE ENERGY PREDICTED BY IDOCK:    1.69 KCAL/MOL
REMARK 927      BINDING AFFINITY PREDICTED BY RF-SCORE:    0.00 PKD
ROOT
HETATM    1  N   UNL     1      -7.083  16.974  69.357  1.00  0.00    -0.184 NA 
HETATM    2  C   UNL     1      -8.184  16.464  68.688  1.00  0.00    -0.223 A  
HETATM    3  H2  UNL     1      -7.346  17.178  70.321  1.00  0.00     0.000 HD 
HETATM    4  H1  UNL     1      -6.219  16.431  69.357  1.00  0.00     0.000 HD 
HETATM    5  N   UNL     1      -9.326  17.181  68.688  1.00  0.00    -0.266 NA 
HETATM    6  C   UNL     1     -10.411  16.659  68.082  1.00  0.00    -0.321 A  
HETATM    7  N   UNL     1     -10.520  15.462  67.467  1.00  0.00    -0.269 NA 
HETATM    8  F   UNL     1     -11.523  17.411  68.105  1.00  0.00    -0.153 F  
HETATM    9  C   UNL     1      -9.350  14.799  67.462  1.00  0.00    -0.194 A  
HETATM   10  C   UNL     1      -8.158  15.233  68.013  1.00  0.00    -0.137 A  
HETATM   11  N   UNL     1      -7.152  14.329  67.771  1.00  0.00    -0.162 NA 
HETATM   12  C   UNL     1      -7.728  13.357  67.093  1.00  0.00     0.019 A  
HETATM   13  N   UNL     1      -9.081  13.540  66.968  1.00  0.00    -0.237 NA 
ENDROOT
BRANCH  13  14
HETATM   14  C1* UNL     1     -10.041  12.641  66.349  1.00  0.00    -0.253 C  
HETATM   15  O4* UNL     1      -9.956  12.766  64.907  1.00  0.00    -0.231 OA 
HETATM   16  C4* UNL     1     -10.970  13.693  64.465  1.00  0.00    -0.396 C  
HETATM   17  H2* UNL     1     -12.854  13.461  68.041  1.00  0.00     0.000 HD 
HETATM   18  C3* UNL     1     -12.127  13.542  65.442  1.00  0.00    -0.415 C  
HETATM   19  C2* UNL     1     -11.549  12.779  66.634  1.00  0.00    -0.370 C  
HETATM   20  O3* UNL     1     -13.187  12.768  64.872  1.00  0.00    -0.808 OA 
HETATM   21  H3* UNL     1     -13.910  12.674  65.482  1.00  0.00     0.000 HD 
HETATM   22  O2* UNL     1     -11.924  13.376  67.865  1.00  0.00    -0.351 OA 
BRANCH  16  23
HETATM   23  C5* UNL     1     -10.426  15.130  64.452  1.00  0.00     0.489 C  
HETATM   24  O5* UNL     1     -11.494  16.060  64.317  1.00  0.00    -0.754 OA 
HETATM   25  H5* UNL     1     -11.158  16.948  64.309  1.00  0.00     0.000 HD 
ENDBRANCH  16  23
ENDBRANCH  13  14
TORSDOF 2
ENDMDL
MODEL      174
REMARK 921   NORMALIZED FREE ENERGY PREDICTED BY IDOCK:   -3.67 KCAL/MOL
REMARK 922        TOTAL FREE ENERGY PREDICTED BY IDOCK:   -3.52 KCAL/MOL
REMARK 923 INTER-LIGAND FREE ENERGY PREDICTED BY IDOCK:   -3.51 KCAL/MOL
REMARK 924 INTRA-LIGAND FREE ENERGY PREDICTED BY IDOCK:   -0.01 KCAL/MOL
REMARK 927      BINDING AFFINITY PREDICTED BY RF-SCORE:    0.00 PKD
ROOT
HETATM    1  N   UNL     1     -11.458   4.514  65.280  1.00  0.00    -1.068 NA 
HETATM    2  C   UNL     1     -10.226   4.430  65.910  1.00  0.00    -0.227 A  
HETATM    3  H2  UNL     1     -11.813   3.572  65.121  1.00  0.00     0.000 HD 
HETATM    4  H1  UNL     1     -12.190   5.076  65.716  1.00  0.00     0.000 HD 
HETATM    5  N   UNL     1      -9.258   3.688  65.334  1.00  0.00    -0.147 NA 
HETATM    6  C   UNL     1      -8.079   3.564  65.974  1.00  0.00    -0.093 A  
HETATM    7  N   UNL     1      -7.726   4.086  67.168  1.00  0.00    -0.084 NA 
HETATM    8  F   UNL     1      -7.146   2.819  65.359  1.00  0.00    -0.051 F  
HETATM    9  C   UNL     1      -8.707   4.845  67.686  1.00  0.00    -0.103 A  
HETATM   10  C   UNL     1      -9.947   5.084  67.120  1.00  0.00    -0.195 A  
HETATM   11  N   UNL     1     -10.676   5.952  67.895  1.00  0.00    -0.263 NA 
HETATM   12  C   UNL     1      -9.896   6.228  68.920  1.00  0.00    -0.134 A  
HETATM   13  N   UNL     1      -8.732   5.502  68.899  1.00  0.00    -0.102 NA 
ENDROOT
BRANCH  13  14
HETATM   14  C1* UNL     1      -7.677   5.494  69.898  1.00  0.00    -0.082 C  
HETATM   15  O4* UNL     1      -7.751   4.266  70.665  1.00  0.00    -0.051 OA 
HETATM   16  C4* UNL     1      -8.501   4.522  71.872  1.00  0.00    -0.112 C  
HETATM   17  H2* UNL     1      -8.153   8.520  71.337  1.00  0.00     0.000 HD 
HETATM   18  C3* UNL     1      -8.226   5.974  72.234  1.00  0.00    -0.110 C  
HETATM   19  C2* UNL     1      -7.607   6.591  70.979  1.00  0.00    -0.089 C  
HETATM   20  O3* UNL     1      -7.282   6.070  73.305  1.00  0.00    -0.084 OA 
HETATM   21  H3* UNL     1      -7.110   6.978  73.532  1.00  0.00     0.000 HD 
HETATM   22  O2* UNL     1      -8.197   7.844  70.671  1.00  0.00    -0.110 OA 
BRANCH  16  23
HETATM   23  C5* UNL     1      -9.999   4.270  71.646  1.00  0.00    -0.180 C  
HETATM   24  O5* UNL     1     -10.757   5.395  72.075  1.00  0.00    -0.224 OA 
HETATM   25  H5* UNL     1     -11.684   5.239  71.935  1.00  0.00     0.000 HD 
ENDBRANCH  16  23
ENDBRANCH  13  14
TORSDOF 2
ENDMDL
MODEL      175
REMARK 921   NORMALIZED FREE ENERGY PREDICTED BY IDOCK:   -3.64 KCAL/MOL
REMARK 922        TOTAL FREE ENERGY PREDICTED BY IDOCK:   -3.49 KCAL/MOL
REMARK 923 INTER-LIGAND FREE ENERGY PREDICTED BY IDOCK:   -5.36 KCAL/MOL
REMARK 924 INTRA-LIGAND FREE ENERGY PREDICTED BY IDOCK:    1.88 KCAL/MOL
REMARK 927      BINDING AFFINITY PREDICTED BY RF-SCORE:    0.00 PKD
ROOT
HETATM    1  N   UNL     1     -12.726  12.319  62.886  1.00  0.00    -0.550 NA 
HETATM    2  C   UNL     1     -11.760  12.049  63.842  1.00  0.00    -0.446 A  
HETATM    3  H2  UNL     1     -13.072  11.438  62.507  1.00  0.00     0.000 HD 
HETATM    4  H1  UNL     1     -13.520  12.903  63.147  1.00  0.00     0.000 HD 
HETATM    5  N   UNL     1     -10.710  11.276  63.496  1.00  0.00    -0.375 NA 
HETATM    6  C   UNL     1      -9.800  10.971  64.443  1.00  0.00    -0.298 A  
HETATM    7  N   UNL     1      -9.806  11.330  65.743  1.00  0.00    -0.221 NA 
HETATM    8  F   UNL     1      -8.771  10.203  64.049  1.00  0.00    -0.157 F  
HETATM    9  C   UNL     1     -10.850  12.126  66.033  1.00  0.00    -0.282 A  
HETATM   10  C   UNL     1     -11.832  12.545  65.154  1.00  0.00    -0.405 A  
HETATM   11  N   UNL     1     -12.711  13.398  65.776  1.00  0.00    -0.396 NA 
HETATM   12  C   UNL     1     -12.274  13.488  67.015  1.00  0.00    -0.303 A  
HETATM   13  N   UNL     1     -11.211  12.656  67.255  1.00  0.00    -0.282 NA 
ENDROOT
BRANCH  13  14
HETATM   14  C1* UNL     1     -10.523  12.441  68.517  1.00  0.00    -0.228 C  
HETATM   15  O4* UNL     1      -9.806  13.646  68.885  1.00  0.00    -0.118 OA 
HETATM   16  C4* UNL     1      -8.437  13.519  68.445  1.00  0.00    -0.143 C  
HETATM   17  H2* UNL     1      -8.907   9.540  67.867  1.00  0.00     0.000 HD 
HETATM   18  C3* UNL     1      -8.110  12.036  68.522  1.00  0.00    -0.123 C  
HETATM   19  C2* UNL     1      -9.461  11.333  68.658  1.00  0.00    -0.175 C  
HETATM   20  O3* UNL     1      -7.321  11.739  69.678  1.00  0.00    -0.345 OA 
HETATM   21  H3* UNL     1      -7.116  10.812  69.726  1.00  0.00     0.000 HD 
HETATM   22  O2* UNL     1      -9.562  10.223  67.780  1.00  0.00    -0.150 OA 
BRANCH  16  23
HETATM   23  C5* UNL     1      -8.271  14.060  67.016  1.00  0.00    -0.053 C  
HETATM   24  O5* UNL     1      -6.972  14.613  66.847  1.00  0.00    -0.311 OA 
HETATM   25  H5* UNL     1      -6.869  14.948  65.964  1.00  0.00     0.000 HD 
ENDBRANCH  16  23
ENDBRANCH  13  14
TORSDOF 2
ENDMDL
MODEL      176
REMARK 921   NORMALIZED FREE ENERGY PREDICTED BY IDOCK:   -3.63 KCAL/MOL
REMARK 922        TOTAL FREE ENERGY PREDICTED BY IDOCK:   -3.48 KCAL/MOL
REMARK 923 INTER-LIGAND FREE ENERGY PREDICTED BY IDOCK:   -3.47 KCAL/MOL
REMARK 924 INTRA-LIGAND FREE ENERGY PREDICTED BY IDOCK:   -0.00 KCAL/MOL
REMARK 927      BINDING AFFINITY PREDICTED BY RF-SCORE:    0.00 PKD
ROOT
HETATM    1  N   UNL     1     -11.969  12.302  67.414  1.00  0.00    -0.544 NA 
HETATM    2  C   UNL     1     -11.509  11.099  67.925  1.00  0.00    -0.284 A  
HETATM    3  H2  UNL     1     -11.652  13.060  68.018  1.00  0.00     0.000 HD 
HETATM    4  H1  UNL     1     -11.750  12.535  66.446  1.00  0.00     0.000 HD 
HETATM    5  N   UNL     1     -11.799  10.790  69.206  1.00  0.00    -0.302 NA 
HETATM    6  C   UNL     1     -11.306   9.644  69.716  1.00  0.00    -0.120 A  
HETATM    7  N   UNL     1     -10.517   8.737  69.103  1.00  0.00    -0.224 NA 
HETATM    8  F   UNL     1     -11.625   9.378  70.993  1.00  0.00    -0.300 F  
HETATM    9  C   UNL     1     -10.284   9.068  67.821  1.00  0.00    -0.230 A  
HETATM   10  C   UNL     1     -10.755  10.190  67.164  1.00  0.00    -0.221 A  
HETATM   11  N   UNL     1     -10.372  10.180  65.845  1.00  0.00    -0.198 NA 
HETATM   12  C   UNL     1      -9.670   9.073  65.707  1.00  0.00    -0.184 A  
HETATM   13  N   UNL     1      -9.496   8.414  66.897  1.00  0.00    -0.171 NA 
ENDROOT
BRANCH  13  14
HETATM   14  C1* UNL     1      -8.722   7.207  67.133  1.00  0.00    -0.121 C  
HETATM   15  O4* UNL     1      -7.917   7.378  68.327  1.00  0.00    -0.119 OA 
HETATM   16  C4* UNL     1      -6.596   7.807  67.934  1.00  0.00    -0.056 C  
HETATM   17  H2* UNL     1      -7.312   6.759  64.090  1.00  0.00     0.000 HD 
HETATM   18  C3* UNL     1      -6.340   7.174  66.574  1.00  0.00    -0.047 C  
HETATM   19  C2* UNL     1      -7.710   6.702  66.086  1.00  0.00    -0.095 C  
HETATM   20  O3* UNL     1      -5.477   6.038  66.686  1.00  0.00    -0.009 OA 
HETATM   21  H3* UNL     1      -5.317   5.643  65.837  1.00  0.00     0.000 HD 
HETATM   22  O2* UNL     1      -7.936   7.070  64.735  1.00  0.00    -0.121 OA 
BRANCH  16  23
HETATM   23  C5* UNL     1      -6.517   9.340  67.867  1.00  0.00    -0.059 C  
HETATM   24  O5* UNL     1      -6.429   9.770  66.514  1.00  0.00    -0.068 OA 
HETATM   25  H5* UNL     1      -6.381  10.717  66.473  1.00  0.00     0.000 HD 
ENDBRANCH  16  23
ENDBRANCH  13  14
TORSDOF 2
ENDMDL
MODEL      177
REMARK 921   NORMALIZED FREE ENERGY PREDICTED BY IDOCK:   -3.61 KCAL/MOL
REMARK 922        TOTAL FREE ENERGY PREDICTED BY IDOCK:   -3.45 KCAL/MOL
REMARK 923 INTER-LIGAND FREE ENERGY PREDICTED BY IDOCK:   -5.31 KCAL/MOL
REMARK 924 INTRA-LIGAND FREE ENERGY PREDICTED BY IDOCK:    1.86 KCAL/MOL
REMARK 927      BINDING AFFINITY PREDICTED BY RF-SCORE:    0.00 PKD
ROOT
HETATM    1  N   UNL     1      -8.129  21.294  67.276  1.00  0.00    -0.589 NA 
HETATM    2  C   UNL     1      -8.194  19.950  66.946  1.00  0.00    -0.318 A  
HETATM    3  H2  UNL     1      -8.080  21.843  66.418  1.00  0.00     0.000 HD 
HETATM    4  H1  UNL     1      -8.855  21.682  67.878  1.00  0.00     0.000 HD 
HETATM    5  N   UNL     1      -7.235  19.435  66.149  1.00  0.00    -0.253 NA 
HETATM    6  C   UNL     1      -7.329  18.140  65.786  1.00  0.00    -0.135 A  
HETATM    7  N   UNL     1      -8.299  17.259  66.107  1.00  0.00    -0.484 NA 
HETATM    8  F   UNL     1      -6.348  17.674  64.996  1.00  0.00     0.009 F  
HETATM    9  C   UNL     1      -9.213  17.805  66.928  1.00  0.00    -0.258 A  
HETATM   10  C   UNL     1      -9.217  19.104  67.405  1.00  0.00    -0.298 A  
HETATM   11  N   UNL     1     -10.267  19.302  68.268  1.00  0.00    -0.412 NA 
HETATM   12  C   UNL     1     -10.895  18.145  68.307  1.00  0.00    -0.020 A  
HETATM   13  N   UNL     1     -10.362  17.233  67.433  1.00  0.00    -0.330 NA 
ENDROOT
BRANCH  13  14
HETATM   14  C1* UNL     1     -10.840  15.888  67.159  1.00  0.00    -0.267 C  
HETATM   15  O4* UNL     1     -10.482  15.017  68.261  1.00  0.00    -0.231 OA 
HETATM   16  C4* UNL     1      -9.250  14.339  67.931  1.00  0.00    -0.194 C  
HETATM   17  H2* UNL     1      -9.611  15.408  64.043  1.00  0.00     0.000 HD 
HETATM   18  C3* UNL     1      -9.258  14.174  66.418  1.00  0.00    -0.183 C  
HETATM   19  C2* UNL     1     -10.353  15.117  65.917  1.00  0.00    -0.327 C  
HETATM   20  O3* UNL     1      -9.600  12.835  66.046  1.00  0.00    -0.331 OA 
HETATM   21  H3* UNL     1      -9.604  12.732  65.101  1.00  0.00     0.000 HD 
HETATM   22  O2* UNL     1      -9.911  15.884  64.808  1.00  0.00    -0.228 OA 
BRANCH  16  23
HETATM   23  C5* UNL     1      -8.036  15.154  68.403  1.00  0.00    -0.139 C  
HETATM   24  O5* UNL     1      -7.535  14.626  69.625  1.00  0.00    -0.324 OA 
HETATM   25  H5* UNL     1      -6.785  15.130  69.917  1.00  0.00     0.000 HD 
ENDBRANCH  16  23
ENDBRANCH  13  14
TORSDOF 2
ENDMDL
MODEL      178
REMARK 921   NORMALIZED FREE ENERGY PREDICTED BY IDOCK:   -3.58 KCAL/MOL
REMARK 922        TOTAL FREE ENERGY PREDICTED BY IDOCK:   -3.43 KCAL/MOL
REMARK 923 INTER-LIGAND FREE ENERGY PREDICTED BY IDOCK:   -3.49 KCAL/MOL
REMARK 924 INTRA-LIGAND FREE ENERGY PREDICTED BY IDOCK:    0.06 KCAL/MOL
REMARK 927      BINDING AFFINITY PREDICTED BY RF-SCORE:    0.00 PKD
ROOT
HETATM    1  N   UNL     1      -7.153  11.821  67.460  1.00  0.00    -0.103 NA 
HETATM    2  C   UNL     1      -8.295  11.039  67.515  1.00  0.00    -0.118 A  
HETATM    3  H2  UNL     1      -7.384  12.715  67.026  1.00  0.00     0.000 HD 
HETATM    4  H1  UNL     1      -6.640  11.995  68.324  1.00  0.00     0.000 HD 
HETATM    5  N   UNL     1      -8.974  10.810  66.372  1.00  0.00    -0.162 NA 
HETATM    6  C   UNL     1     -10.114  10.093  66.436  1.00  0.00    -0.236 A  
HETATM    7  N   UNL     1     -10.702   9.569  67.532  1.00  0.00    -0.281 NA 
HETATM    8  F   UNL     1     -10.751   9.887  65.272  1.00  0.00    -0.141 F  
HETATM    9  C   UNL     1      -9.974   9.793  68.640  1.00  0.00    -0.167 A  
HETATM   10  C   UNL     1      -8.774  10.478  68.710  1.00  0.00    -0.154 A  
HETATM   11  N   UNL     1      -8.280  10.464  69.991  1.00  0.00     0.053 NA 
HETATM   12  C   UNL     1      -9.170   9.789  70.689  1.00  0.00     0.066 A  
HETATM   13  N   UNL     1     -10.269   9.449  69.943  1.00  0.00    -0.207 NA 
ENDROOT
BRANCH  13  14
HETATM   14  C1* UNL     1     -11.470   8.769  70.397  1.00  0.00    -0.144 C  
HETATM   15  O4* UNL     1     -12.625   9.600  70.124  1.00  0.00     0.156 OA 
HETATM   16  C4* UNL     1     -12.944  10.352  71.314  1.00  0.00    -0.419 C  
HETATM   17  H2* UNL     1     -10.573   7.958  73.558  1.00  0.00     0.000 HD 
HETATM   18  C3* UNL     1     -12.535   9.472  72.485  1.00  0.00     0.022 C  
HETATM   19  C2* UNL     1     -11.645   8.386  71.880  1.00  0.00    -0.329 C  
HETATM   20  O3* UNL     1     -13.675   8.848  73.086  1.00  0.00    -1.009 OA 
HETATM   21  H3* UNL     1     -13.419   8.298  73.818  1.00  0.00     0.000 HD 
HETATM   22  O2* UNL     1     -10.465   8.194  72.644  1.00  0.00    -0.301 OA 
BRANCH  16  23
HETATM   23  C5* UNL     1     -12.195  11.694  71.328  1.00  0.00    -0.044 C  
HETATM   24  O5* UNL     1     -12.803  12.606  70.422  1.00  0.00     0.031 OA 
HETATM   25  H5* UNL     1     -12.340  13.435  70.431  1.00  0.00     0.000 HD 
ENDBRANCH  16  23
ENDBRANCH  13  14
TORSDOF 2
ENDMDL
MODEL      179
REMARK 921   NORMALIZED FREE ENERGY PREDICTED BY IDOCK:   -3.56 KCAL/MOL
REMARK 922        TOTAL FREE ENERGY PREDICTED BY IDOCK:   -3.40 KCAL/MOL
REMARK 923 INTER-LIGAND FREE ENERGY PREDICTED BY IDOCK:   -4.14 KCAL/MOL
REMARK 924 INTRA-LIGAND FREE ENERGY PREDICTED BY IDOCK:    0.74 KCAL/MOL
REMARK 927      BINDING AFFINITY PREDICTED BY RF-SCORE:    0.00 PKD
ROOT
HETATM    1  N   UNL     1      -8.581   8.390  73.212  1.00  0.00    -0.356 NA 
HETATM    2  C   UNL     1      -8.873   7.898  71.951  1.00  0.00    -0.129 A  
HETATM    3  H2  UNL     1      -8.016   7.704  73.713  1.00  0.00     0.000 HD 
HETATM    4  H1  UNL     1      -8.134   9.304  73.286  1.00  0.00     0.000 HD 
HETATM    5  N   UNL     1      -9.464   6.689  71.853  1.00  0.00    -0.151 NA 
HETATM    6  C   UNL     1      -9.699   6.188  70.623  1.00  0.00    -0.174 A  
HETATM    7  N   UNL     1      -9.397   6.744  69.431  1.00  0.00    -0.149 NA 
HETATM    8  F   UNL     1     -10.292   4.984  70.577  1.00  0.00    -0.297 F  
HETATM    9  C   UNL     1      -8.843   7.960  69.578  1.00  0.00    -0.142 A  
HETATM   10  C   UNL     1      -8.580   8.604  70.773  1.00  0.00    -0.171 A  
HETATM   11  N   UNL     1      -8.065   9.858  70.548  1.00  0.00    -0.206 NA 
HETATM   12  C   UNL     1      -8.008   9.968  69.236  1.00  0.00    -0.130 A  
HETATM   13  N   UNL     1      -8.368   8.808  68.599  1.00  0.00    -0.127 NA 
ENDROOT
BRANCH  13  14
HETATM   14  C1* UNL     1      -8.355   8.545  67.170  1.00  0.00    -0.111 C  
HETATM   15  O4* UNL     1      -7.578   9.569  66.500  1.00  0.00    -0.093 OA 
HETATM   16  C4* UNL     1      -8.480  10.587  66.015  1.00  0.00    -0.156 C  
HETATM   17  H2* UNL     1     -11.662   8.148  66.575  1.00  0.00     0.000 HD 
HETATM   18  C3* UNL     1      -9.781   9.869  65.687  1.00  0.00    -0.279 C  
HETATM   19  C2* UNL     1      -9.668   8.503  66.364  1.00  0.00    -0.258 C  
HETATM   20  O3* UNL     1      -9.922   9.671  64.277  1.00  0.00    -0.389 OA 
HETATM   21  H3* UNL     1     -10.735   9.224  64.072  1.00  0.00     0.000 HD 
HETATM   22  O2* UNL     1     -10.853   8.174  67.072  1.00  0.00    -0.265 OA 
BRANCH  16  23
HETATM   23  C5* UNL     1      -8.689  11.679  67.074  1.00  0.00    -0.173 C  
HETATM   24  O5* UNL     1      -7.812  12.772  66.834  1.00  0.00    -0.383 OA 
HETATM   25  H5* UNL     1      -7.941  13.448  67.489  1.00  0.00     0.000 HD 
ENDBRANCH  16  23
ENDBRANCH  13  14
TORSDOF 2
ENDMDL
MODEL      180
REMARK 921   NORMALIZED FREE ENERGY PREDICTED BY IDOCK:   -3.54 KCAL/MOL
REMARK 922        TOTAL FREE ENERGY PREDICTED BY IDOCK:   -3.38 KCAL/MOL
REMARK 923 INTER-LIGAND FREE ENERGY PREDICTED BY IDOCK:   -3.45 KCAL/MOL
REMARK 924 INTRA-LIGAND FREE ENERGY PREDICTED BY IDOCK:    0.07 KCAL/MOL
REMARK 927      BINDING AFFINITY PREDICTED BY RF-SCORE:    0.00 PKD
ROOT
HETATM    1  N   UNL     1     -13.623   6.975  71.119  1.00  0.00    -0.428 NA 
HETATM    2  C   UNL     1     -12.272   7.067  71.412  1.00  0.00    -0.366 A  
HETATM    3  H2  UNL     1     -14.078   7.852  71.374  1.00  0.00     0.000 HD 
HETATM    4  H1  UNL     1     -13.899   6.721  70.171  1.00  0.00     0.000 HD 
HETATM    5  N   UNL     1     -11.906   7.403  72.666  1.00  0.00    -0.191 NA 
HETATM    6  C   UNL     1     -10.593   7.545  72.935  1.00  0.00    -0.337 A  
HETATM    7  N   UNL     1      -9.554   7.409  72.084  1.00  0.00    -0.145 NA 
HETATM    8  F   UNL     1     -10.279   7.876  74.198  1.00  0.00    -0.035 F  
HETATM    9  C   UNL     1      -9.964   7.041  70.858  1.00  0.00    -0.193 A  
HETATM   10  C   UNL     1     -11.270   6.827  70.457  1.00  0.00    -0.320 A  
HETATM   11  N   UNL     1     -11.317   6.403  69.152  1.00  0.00    -0.354 NA 
HETATM   12  C   UNL     1     -10.058   6.370  68.763  1.00  0.00    -0.158 A  
HETATM   13  N   UNL     1      -9.204   6.847  69.723  1.00  0.00    -0.147 NA 
ENDROOT
BRANCH  13  14
HETATM   14  C1* UNL     1      -7.765   7.023  69.616  1.00  0.00    -0.110 C  
HETATM   15  O4* UNL     1      -7.434   8.419  69.827  1.00  0.00    -0.069 OA 
HETATM   16  C4* UNL     1      -7.321   9.064  68.540  1.00  0.00    -0.077 C  
HETATM   17  H2* UNL     1      -7.160   5.478  66.667  1.00  0.00     0.000 HD 
HETATM   18  C3* UNL     1      -6.816   7.996  67.581  1.00  0.00    -0.070 C  
HETATM   19  C2* UNL     1      -7.022   6.669  68.313  1.00  0.00    -0.077 C  
HETATM   20  O3* UNL     1      -5.420   8.160  67.312  1.00  0.00    -0.035 OA 
HETATM   21  H3* UNL     1      -5.105   7.493  66.713  1.00  0.00     0.000 HD 
HETATM   22  O2* UNL     1      -7.618   5.696  67.470  1.00  0.00    -0.087 OA 
BRANCH  16  23
HETATM   23  C5* UNL     1      -8.678   9.629  68.093  1.00  0.00    -0.119 C  
HETATM   24  O5* UNL     1      -8.687  11.045  68.220  1.00  0.00    -0.131 OA 
HETATM   25  H5* UNL     1      -9.526  11.394  67.943  1.00  0.00     0.000 HD 
ENDBRANCH  16  23
ENDBRANCH  13  14
TORSDOF 2
ENDMDL
MODEL      181
REMARK 921   NORMALIZED FREE ENERGY PREDICTED BY IDOCK:   -3.54 KCAL/MOL
REMARK 922        TOTAL FREE ENERGY PREDICTED BY IDOCK:   -3.38 KCAL/MOL
REMARK 923 INTER-LIGAND FREE ENERGY PREDICTED BY IDOCK:   -3.50 KCAL/MOL
REMARK 924 INTRA-LIGAND FREE ENERGY PREDICTED BY IDOCK:    0.12 KCAL/MOL
REMARK 927      BINDING AFFINITY PREDICTED BY RF-SCORE:    0.00 PKD
ROOT
HETATM    1  N   UNL     1     -13.260  13.436  70.703  1.00  0.00     0.122 NA 
HETATM    2  C   UNL     1     -12.514  13.827  69.603  1.00  0.00    -0.125 A  
HETATM    3  H2  UNL     1     -12.905  12.542  71.044  1.00  0.00     0.000 HD 
HETATM    4  H1  UNL     1     -13.342  14.081  71.490  1.00  0.00     0.000 HD 
HETATM    5  N   UNL     1     -12.404  12.974  68.564  1.00  0.00     0.037 NA 
HETATM    6  C   UNL     1     -11.635  13.334  67.517  1.00  0.00    -0.346 A  
HETATM    7  N   UNL     1     -10.917  14.467  67.369  1.00  0.00    -0.295 NA 
HETATM    8  F   UNL     1     -11.560  12.455  66.505  1.00  0.00    -0.354 F  
HETATM    9  C   UNL     1     -11.084  15.300  68.411  1.00  0.00    -0.287 A  
HETATM   10  C   UNL     1     -11.868  15.072  69.528  1.00  0.00    -0.330 A  
HETATM   11  N   UNL     1     -11.853  16.160  70.365  1.00  0.00    -0.246 NA 
HETATM   12  C   UNL     1     -11.063  17.032  69.771  1.00  0.00     0.320 A  
HETATM   13  N   UNL     1     -10.486  16.523  68.636  1.00  0.00    -0.284 NA 
ENDROOT
BRANCH  13  14
HETATM   14  C1* UNL     1      -9.513  17.171  67.772  1.00  0.00    -0.253 C  
HETATM   15  O4* UNL     1      -8.381  16.287  67.576  1.00  0.00    -0.154 OA 
HETATM   16  C4* UNL     1      -7.351  16.642  68.524  1.00  0.00    -0.201 C  
HETATM   17  H2* UNL     1      -9.187  20.159  69.326  1.00  0.00     0.000 HD 
HETATM   18  C3* UNL     1      -7.490  18.140  68.750  1.00  0.00    -0.274 C  
HETATM   19  C2* UNL     1      -8.861  18.506  68.182  1.00  0.00    -0.306 C  
HETATM   20  O3* UNL     1      -6.488  18.866  68.033  1.00  0.00    -0.216 OA 
HETATM   21  H3* UNL     1      -6.574  19.802  68.174  1.00  0.00     0.000 HD 
HETATM   22  O2* UNL     1      -9.589  19.336  69.074  1.00  0.00    -0.399 OA 
BRANCH  16  23
HETATM   23  C5* UNL     1      -7.521  15.855  69.833  1.00  0.00     0.241 C  
HETATM   24  O5* UNL     1      -6.507  14.864  69.947  1.00  0.00    -0.150 OA 
HETATM   25  H5* UNL     1      -6.612  14.378  70.756  1.00  0.00     0.000 HD 
ENDBRANCH  16  23
ENDBRANCH  13  14
TORSDOF 2
ENDMDL
MODEL      182
REMARK 921   NORMALIZED FREE ENERGY PREDICTED BY IDOCK:   -3.54 KCAL/MOL
REMARK 922        TOTAL FREE ENERGY PREDICTED BY IDOCK:   -3.38 KCAL/MOL
REMARK 923 INTER-LIGAND FREE ENERGY PREDICTED BY IDOCK:   -3.29 KCAL/MOL
REMARK 924 INTRA-LIGAND FREE ENERGY PREDICTED BY IDOCK:   -0.09 KCAL/MOL
REMARK 927      BINDING AFFINITY PREDICTED BY RF-SCORE:    0.00 PKD
ROOT
HETATM    1  N   UNL     1     -13.049   7.384  71.034  1.00  0.00    -0.600 NA 
HETATM    2  C   UNL     1     -11.892   6.745  70.617  1.00  0.00    -0.387 A  
HETATM    3  H2  UNL     1     -13.856   6.881  70.666  1.00  0.00     0.000 HD 
HETATM    4  H1  UNL     1     -13.184   7.543  72.032  1.00  0.00     0.000 HD 
HETATM    5  N   UNL     1     -11.713   6.533  69.297  1.00  0.00    -0.128 NA 
HETATM    6  C   UNL     1     -10.613   5.864  68.898  1.00  0.00    -0.288 A  
HETATM    7  N   UNL     1      -9.638   5.340  69.670  1.00  0.00    -0.150 NA 
HETATM    8  F   UNL     1     -10.477   5.682  67.575  1.00  0.00    -0.189 F  
HETATM    9  C   UNL     1      -9.840   5.605  70.972  1.00  0.00    -0.178 A  
HETATM   10  C   UNL     1     -10.902   6.308  71.512  1.00  0.00    -0.254 A  
HETATM   11  N   UNL     1     -10.758   6.440  72.872  1.00  0.00    -0.237 NA 
HETATM   12  C   UNL     1      -9.632   5.818  73.154  1.00  0.00    -0.147 A  
HETATM   13  N   UNL     1      -9.087   5.203  72.056  1.00  0.00    -0.136 NA 
ENDROOT
BRANCH  13  14
HETATM   14  C1* UNL     1      -7.895   4.373  72.009  1.00  0.00    -0.090 C  
HETATM   15  O4* UNL     1      -8.279   2.993  71.782  1.00  0.00    -0.057 OA 
HETATM   16  C4* UNL     1      -8.350   2.320  73.058  1.00  0.00    -0.062 C  
HETATM   17  H2* UNL     1      -6.342   5.341  74.855  1.00  0.00     0.000 HD 
HETATM   18  C3* UNL     1      -7.310   2.992  73.942  1.00  0.00    -0.047 C  
HETATM   19  C2* UNL     1      -6.945   4.288  73.219  1.00  0.00    -0.063 C  
HETATM   20  O3* UNL     1      -6.134   2.186  74.061  1.00  0.00    -0.004 OA 
HETATM   21  H3* UNL     1      -5.484   2.605  74.614  1.00  0.00     0.000 HD 
HETATM   22  O2* UNL     1      -6.928   5.394  74.109  1.00  0.00    -0.076 OA 
BRANCH  16  23
HETATM   23  C5* UNL     1      -9.760   2.436  73.657  1.00  0.00    -0.090 C  
HETATM   24  O5* UNL     1     -10.700   2.770  72.643  1.00  0.00    -0.107 OA 
HETATM   25  H5* UNL     1     -11.572   2.841  73.013  1.00  0.00     0.000 HD 
ENDBRANCH  16  23
ENDBRANCH  13  14
TORSDOF 2
ENDMDL
MODEL      183
REMARK 921   NORMALIZED FREE ENERGY PREDICTED BY IDOCK:   -3.53 KCAL/MOL
REMARK 922        TOTAL FREE ENERGY PREDICTED BY IDOCK:   -3.37 KCAL/MOL
REMARK 923 INTER-LIGAND FREE ENERGY PREDICTED BY IDOCK:   -3.40 KCAL/MOL
REMARK 924 INTRA-LIGAND FREE ENERGY PREDICTED BY IDOCK:    0.03 KCAL/MOL
REMARK 927      BINDING AFFINITY PREDICTED BY RF-SCORE:    0.00 PKD
ROOT
HETATM    1  N   UNL     1      -5.200   8.359  69.659  1.00  0.00    -0.029 NA 
HETATM    2  C   UNL     1      -6.492   8.796  69.901  1.00  0.00    -0.038 A  
HETATM    3  H2  UNL     1      -5.232   7.389  69.346  1.00  0.00     0.000 HD 
HETATM    4  H1  UNL     1      -4.617   8.896  69.017  1.00  0.00     0.000 HD 
HETATM    5  N   UNL     1      -7.264   8.085  70.750  1.00  0.00    -0.052 NA 
HETATM    6  C   UNL     1      -8.538   8.482  70.943  1.00  0.00    -0.158 A  
HETATM    7  N   UNL     1      -9.177   9.521  70.367  1.00  0.00    -0.257 NA 
HETATM    8  F   UNL     1      -9.264   7.745  71.800  1.00  0.00    -0.142 F  
HETATM    9  C   UNL     1      -8.361  10.219  69.558  1.00  0.00    -0.151 A  
HETATM   10  C   UNL     1      -7.030   9.944  69.299  1.00  0.00    -0.059 A  
HETATM   11  N   UNL     1      -6.489  10.898  68.472  1.00  0.00    -0.053 NA 
HETATM   12  C   UNL     1      -7.478  11.732  68.225  1.00  0.00    -0.103 A  
HETATM   13  N   UNL     1      -8.663  11.311  68.772  1.00  0.00    -0.139 NA 
ENDROOT
BRANCH  13  14
HETATM   14  C1* UNL     1      -9.968  11.939  68.644  1.00  0.00    -0.154 C  
HETATM   15  O4* UNL     1     -10.985  10.913  68.527  1.00  0.00    -0.195 OA 
HETATM   16  C4* UNL     1     -11.266  10.701  67.127  1.00  0.00    -0.100 C  
HETATM   17  H2* UNL     1      -9.364  14.136  66.142  1.00  0.00     0.000 HD 
HETATM   18  C3* UNL     1     -11.044  12.044  66.449  1.00  0.00    -0.318 C  
HETATM   19  C2* UNL     1     -10.274  12.886  67.467  1.00  0.00    -0.213 C  
HETATM   20  O3* UNL     1     -12.288  12.692  66.165  1.00  0.00    -0.570 OA 
HETATM   21  H3* UNL     1     -12.149  13.532  65.741  1.00  0.00     0.000 HD 
HETATM   22  O2* UNL     1      -9.175  13.552  66.867  1.00  0.00    -0.237 OA 
BRANCH  16  23
HETATM   23  C5* UNL     1     -10.347   9.616  66.545  1.00  0.00    -0.194 C  
HETATM   24  O5* UNL     1     -10.314   8.484  67.406  1.00  0.00    -0.243 OA 
HETATM   25  H5* UNL     1      -9.747   7.813  67.047  1.00  0.00     0.000 HD 
ENDBRANCH  16  23
ENDBRANCH  13  14
TORSDOF 2
ENDMDL
MODEL      184
REMARK 921   NORMALIZED FREE ENERGY PREDICTED BY IDOCK:   -3.51 KCAL/MOL
REMARK 922        TOTAL FREE ENERGY PREDICTED BY IDOCK:   -3.34 KCAL/MOL
REMARK 923 INTER-LIGAND FREE ENERGY PREDICTED BY IDOCK:   -5.02 KCAL/MOL
REMARK 924 INTRA-LIGAND FREE ENERGY PREDICTED BY IDOCK:    1.68 KCAL/MOL
REMARK 927      BINDING AFFINITY PREDICTED BY RF-SCORE:    0.00 PKD
ROOT
HETATM    1  N   UNL     1      -8.671   6.684  68.538  1.00  0.00    -0.124 NA 
HETATM    2  C   UNL     1      -9.265   7.934  68.602  1.00  0.00    -0.142 A  
HETATM    3  H2  UNL     1      -9.292   6.000  68.969  1.00  0.00     0.000 HD 
HETATM    4  H1  UNL     1      -8.373   6.332  67.627  1.00  0.00     0.000 HD 
HETATM    5  N   UNL     1      -9.660   8.398  69.805  1.00  0.00    -0.170 NA 
HETATM    6  C   UNL     1     -10.285   9.591  69.858  1.00  0.00    -0.231 A  
HETATM    7  N   UNL     1     -10.599  10.408  68.830  1.00  0.00    -0.202 NA 
HETATM    8  F   UNL     1     -10.655  10.013  71.078  1.00  0.00    -0.371 F  
HETATM    9  C   UNL     1     -10.156   9.922  67.658  1.00  0.00    -0.197 A  
HETATM   10  C   UNL     1      -9.472   8.734  67.466  1.00  0.00    -0.141 A  
HETATM   11  N   UNL     1      -9.122   8.581  66.147  1.00  0.00    -0.183 NA 
HETATM   12  C   UNL     1      -9.594   9.654  65.546  1.00  0.00    -0.283 A  
HETATM   13  N   UNL     1     -10.321  10.449  66.394  1.00  0.00    -0.232 NA 
ENDROOT
BRANCH  13  14
HETATM   14  C1* UNL     1     -11.042  11.667  66.063  1.00  0.00    -0.270 C  
HETATM   15  O4* UNL     1     -10.107  12.663  65.580  1.00  0.00    -0.271 OA 
HETATM   16  C4* UNL     1      -9.739  13.521  66.682  1.00  0.00    -0.280 C  
HETATM   17  H2* UNL     1     -12.827  12.131  68.900  1.00  0.00     0.000 HD 
HETATM   18  C3* UNL     1     -10.956  13.574  67.593  1.00  0.00    -0.263 C  
HETATM   19  C2* UNL     1     -11.851  12.421  67.137  1.00  0.00    -0.291 C  
HETATM   20  O3* UNL     1     -11.672  14.802  67.430  1.00  0.00    -0.373 OA 
HETATM   21  H3* UNL     1     -12.432  14.835  67.999  1.00  0.00     0.000 HD 
HETATM   22  O2* UNL     1     -12.329  11.666  68.238  1.00  0.00    -0.420 OA 
BRANCH  16  23
HETATM   23  C5* UNL     1      -8.508  12.967  67.415  1.00  0.00    -0.200 C  
HETATM   24  O5* UNL     1      -8.812  12.741  68.786  1.00  0.00    -0.381 OA 
HETATM   25  H5* UNL     1      -8.051  12.398  69.240  1.00  0.00     0.000 HD 
ENDBRANCH  16  23
ENDBRANCH  13  14
TORSDOF 2
ENDMDL
MODEL      185
REMARK 921   NORMALIZED FREE ENERGY PREDICTED BY IDOCK:   -3.50 KCAL/MOL
REMARK 922        TOTAL FREE ENERGY PREDICTED BY IDOCK:   -3.33 KCAL/MOL
REMARK 923 INTER-LIGAND FREE ENERGY PREDICTED BY IDOCK:   -3.33 KCAL/MOL
REMARK 924 INTRA-LIGAND FREE ENERGY PREDICTED BY IDOCK:   -0.01 KCAL/MOL
REMARK 927      BINDING AFFINITY PREDICTED BY RF-SCORE:    0.00 PKD
ROOT
HETATM    1  N   UNL     1      -5.985   8.736  66.487  1.00  0.00    -0.052 NA 
HETATM    2  C   UNL     1      -6.451   9.354  67.637  1.00  0.00    -0.062 A  
HETATM    3  H2  UNL     1      -4.976   8.608  66.566  1.00  0.00     0.000 HD 
HETATM    4  H1  UNL     1      -6.410   7.854  66.203  1.00  0.00     0.000 HD 
HETATM    5  N   UNL     1      -5.888  10.521  68.014  1.00  0.00    -0.040 NA 
HETATM    6  C   UNL     1      -6.306  11.093  69.161  1.00  0.00    -0.064 A  
HETATM    7  N   UNL     1      -7.233  10.631  70.027  1.00  0.00    -0.142 NA 
HETATM    8  F   UNL     1      -5.720  12.254  69.492  1.00  0.00    -0.066 F  
HETATM    9  C   UNL     1      -7.790   9.486  69.593  1.00  0.00    -0.116 A  
HETATM   10  C   UNL     1      -7.481   8.815  68.424  1.00  0.00    -0.091 A  
HETATM   11  N   UNL     1      -8.286   7.712  68.269  1.00  0.00    -0.124 NA 
HETATM   12  C   UNL     1      -9.064   7.710  69.332  1.00  0.00    -0.142 A  
HETATM   13  N   UNL     1      -8.735   8.702  70.220  1.00  0.00    -0.139 NA 
ENDROOT
BRANCH  13  14
HETATM   14  C1* UNL     1      -9.327   8.953  71.523  1.00  0.00    -0.265 C  
HETATM   15  O4* UNL     1      -8.379   8.593  72.559  1.00  0.00    -0.364 OA 
HETATM   16  C4* UNL     1      -8.670   7.251  73.003  1.00  0.00    -0.129 C  
HETATM   17  H2* UNL     1     -12.287   7.348  71.188  1.00  0.00     0.000 HD 
HETATM   18  C3* UNL     1     -10.173   7.076  72.846  1.00  0.00    -0.215 C  
HETATM   19  C2* UNL     1     -10.621   8.234  71.953  1.00  0.00    -0.282 C  
HETATM   20  O3* UNL     1     -10.842   7.183  74.106  1.00  0.00    -0.532 OA 
HETATM   21  H3* UNL     1     -11.781   7.073  74.008  1.00  0.00     0.000 HD 
HETATM   22  O2* UNL     1     -11.490   7.791  70.923  1.00  0.00    -0.277 OA 
BRANCH  16  23
HETATM   23  C5* UNL     1      -7.891   6.221  72.170  1.00  0.00    -0.104 C  
HETATM   24  O5* UNL     1      -8.566   4.969  72.179  1.00  0.00    -0.122 OA 
HETATM   25  H5* UNL     1      -8.085   4.333  71.664  1.00  0.00     0.000 HD 
ENDBRANCH  16  23
ENDBRANCH  13  14
TORSDOF 2
ENDMDL
MODEL      186
REMARK 921   NORMALIZED FREE ENERGY PREDICTED BY IDOCK:   -3.44 KCAL/MOL
REMARK 922        TOTAL FREE ENERGY PREDICTED BY IDOCK:   -3.27 KCAL/MOL
REMARK 923 INTER-LIGAND FREE ENERGY PREDICTED BY IDOCK:   -3.35 KCAL/MOL
REMARK 924 INTRA-LIGAND FREE ENERGY PREDICTED BY IDOCK:    0.08 KCAL/MOL
REMARK 927      BINDING AFFINITY PREDICTED BY RF-SCORE:    0.00 PKD
ROOT
HETATM    1  N   UNL     1      -7.113  10.824  65.136  1.00  0.00    -0.359 NA 
HETATM    2  C   UNL     1      -8.231  10.281  65.748  1.00  0.00    -0.147 A  
HETATM    3  H2  UNL     1      -6.743  11.571  65.725  1.00  0.00     0.000 HD 
HETATM    4  H1  UNL     1      -6.350  10.199  64.875  1.00  0.00     0.000 HD 
HETATM    5  N   UNL     1      -9.240  11.107  66.094  1.00  0.00    -0.192 NA 
HETATM    6  C   UNL     1     -10.304  10.585  66.737  1.00  0.00    -0.245 A  
HETATM    7  N   UNL     1     -10.497   9.303  67.113  1.00  0.00    -0.259 NA 
HETATM    8  F   UNL     1     -11.284  11.446  67.057  1.00  0.00    -0.302 F  
HETATM    9  C   UNL     1      -9.485   8.513  66.717  1.00  0.00    -0.194 A  
HETATM   10  C   UNL     1      -8.356   8.910  66.022  1.00  0.00    -0.124 A  
HETATM   11  N   UNL     1      -7.559   7.830  65.731  1.00  0.00    -0.081 NA 
HETATM   12  C   UNL     1      -8.188   6.796  66.250  1.00  0.00    -0.120 A  
HETATM   13  N   UNL     1      -9.308   7.165  66.950  1.00  0.00    -0.148 NA 
ENDROOT
BRANCH  13  14
HETATM   14  C1* UNL     1     -10.200   6.303  67.708  1.00  0.00    -0.170 C  
HETATM   15  O4* UNL     1     -10.361   6.836  69.046  1.00  0.00    -0.176 OA 
HETATM   16  C4* UNL     1      -9.431   6.165  69.923  1.00  0.00    -0.152 C  
HETATM   17  H2* UNL     1      -8.777   3.283  67.156  1.00  0.00     0.000 HD 
HETATM   18  C3* UNL     1      -9.269   4.760  69.363  1.00  0.00    -0.114 C  
HETATM   19  C2* UNL     1      -9.849   4.822  67.949  1.00  0.00    -0.134 C  
HETATM   20  O3* UNL     1     -10.019   3.809  70.124  1.00  0.00    -0.128 OA 
HETATM   21  H3* UNL     1      -9.918   2.931  69.774  1.00  0.00     0.000 HD 
HETATM   22  O2* UNL     1      -8.993   4.197  67.007  1.00  0.00    -0.115 OA 
BRANCH  16  23
HETATM   23  C5* UNL     1      -8.090   6.912  69.970  1.00  0.00    -0.125 C  
HETATM   24  O5* UNL     1      -7.144   6.178  70.738  1.00  0.00    -0.065 OA 
HETATM   25  H5* UNL     1      -6.314   6.640  70.767  1.00  0.00     0.000 HD 
ENDBRANCH  16  23
ENDBRANCH  13  14
TORSDOF 2
ENDMDL
MODEL      187
REMARK 921   NORMALIZED FREE ENERGY PREDICTED BY IDOCK:   -3.43 KCAL/MOL
REMARK 922        TOTAL FREE ENERGY PREDICTED BY IDOCK:   -3.26 KCAL/MOL
REMARK 923 INTER-LIGAND FREE ENERGY PREDICTED BY IDOCK:   -5.13 KCAL/MOL
REMARK 924 INTRA-LIGAND FREE ENERGY PREDICTED BY IDOCK:    1.87 KCAL/MOL
REMARK 927      BINDING AFFINITY PREDICTED BY RF-SCORE:    0.00 PKD
ROOT
HETATM    1  N   UNL     1      -8.821   9.571  71.025  1.00  0.00    -0.343 NA 
HETATM    2  C   UNL     1      -9.693  10.209  70.158  1.00  0.00    -0.016 A  
HETATM    3  H2  UNL     1      -9.040   8.575  71.043  1.00  0.00     0.000 HD 
HETATM    4  H1  UNL     1      -7.818   9.687  70.880  1.00  0.00     0.000 HD 
HETATM    5  N   UNL     1     -11.020  10.055  70.350  1.00  0.00    -0.301 NA 
HETATM    6  C   UNL     1     -11.866  10.632  69.474  1.00  0.00    -0.273 A  
HETATM    7  N   UNL     1     -11.555  11.356  68.378  1.00  0.00    -0.356 NA 
HETATM    8  F   UNL     1     -13.175  10.454  69.709  1.00  0.00    -0.154 F  
HETATM    9  C   UNL     1     -10.226  11.512  68.246  1.00  0.00    -0.196 A  
HETATM   10  C   UNL     1      -9.253  11.005  69.089  1.00  0.00    -0.005 A  
HETATM   11  N   UNL     1      -8.003  11.409  68.687  1.00  0.00    -0.141 NA 
HETATM   12  C   UNL     1      -8.214  12.140  67.611  1.00  0.00    -0.163 A  
HETATM   13  N   UNL     1      -9.533  12.149  67.238  1.00  0.00    -0.181 NA 
ENDROOT
BRANCH  13  14
HETATM   14  C1* UNL     1     -10.117  12.786  66.070  1.00  0.00    -0.268 C  
HETATM   15  O4* UNL     1     -10.210  14.215  66.298  1.00  0.00    -0.279 OA 
HETATM   16  C4* UNL     1     -11.539  14.519  66.774  1.00  0.00    -0.376 C  
HETATM   17  H2* UNL     1     -12.873  10.875  65.621  1.00  0.00     0.000 HD 
HETATM   18  C3* UNL     1     -12.458  13.495  66.126  1.00  0.00    -0.365 C  
HETATM   19  C2* UNL     1     -11.531  12.406  65.587  1.00  0.00    -0.367 C  
HETATM   20  O3* UNL     1     -13.179  14.067  65.030  1.00  0.00    -0.720 OA 
HETATM   21  H3* UNL     1     -13.754  13.427  64.626  1.00  0.00     0.000 HD 
HETATM   22  O2* UNL     1     -12.002  11.109  65.919  1.00  0.00     0.291 OA 
BRANCH  16  23
HETATM   23  C5* UNL     1     -11.599  14.442  68.308  1.00  0.00    -0.328 C  
HETATM   24  O5* UNL     1     -12.356  15.528  68.826  1.00  0.00    -0.587 OA 
HETATM   25  H5* UNL     1     -12.394  15.481  69.773  1.00  0.00     0.000 HD 
ENDBRANCH  16  23
ENDBRANCH  13  14
TORSDOF 2
ENDMDL
MODEL      188
REMARK 921   NORMALIZED FREE ENERGY PREDICTED BY IDOCK:   -3.42 KCAL/MOL
REMARK 922        TOTAL FREE ENERGY PREDICTED BY IDOCK:   -3.24 KCAL/MOL
REMARK 923 INTER-LIGAND FREE ENERGY PREDICTED BY IDOCK:   -3.46 KCAL/MOL
REMARK 924 INTRA-LIGAND FREE ENERGY PREDICTED BY IDOCK:    0.22 KCAL/MOL
REMARK 927      BINDING AFFINITY PREDICTED BY RF-SCORE:    0.00 PKD
ROOT
HETATM    1  N   UNL     1      -9.740   4.317  73.280  1.00  0.00    -0.124 NA 
HETATM    2  C   UNL     1      -9.009   5.102  72.403  1.00  0.00    -0.131 A  
HETATM    3  H2  UNL     1     -10.045   4.893  74.065  1.00  0.00     0.000 HD 
HETATM    4  H1  UNL     1     -10.540   3.799  72.918  1.00  0.00     0.000 HD 
HETATM    5  N   UNL     1      -7.950   5.787  72.882  1.00  0.00    -0.107 NA 
HETATM    6  C   UNL     1      -7.272   6.592  72.038  1.00  0.00    -0.081 A  
HETATM    7  N   UNL     1      -7.530   6.829  70.735  1.00  0.00    -0.082 NA 
HETATM    8  F   UNL     1      -6.225   7.250  72.560  1.00  0.00    -0.049 F  
HETATM    9  C   UNL     1      -8.569   6.099  70.294  1.00  0.00    -0.140 A  
HETATM   10  C   UNL     1      -9.326   5.213  71.040  1.00  0.00    -0.151 A  
HETATM   11  N   UNL     1     -10.270   4.598  70.254  1.00  0.00    -0.204 NA 
HETATM   12  C   UNL     1     -10.095   5.110  69.053  1.00  0.00    -0.187 A  
HETATM   13  N   UNL     1      -9.148   6.102  69.042  1.00  0.00    -0.124 NA 
ENDROOT
BRANCH  13  14
HETATM   14  C1* UNL     1      -8.750   6.930  67.917  1.00  0.00    -0.121 C  
HETATM   15  O4* UNL     1      -8.538   8.290  68.372  1.00  0.00    -0.131 OA 
HETATM   16  C4* UNL     1      -9.744   9.048  68.135  1.00  0.00    -0.152 C  
HETATM   17  H2* UNL     1     -11.171   6.161  65.681  1.00  0.00     0.000 HD 
HETATM   18  C3* UNL     1     -10.380   8.441  66.894  1.00  0.00    -0.307 C  
HETATM   19  C2* UNL     1      -9.675   7.099  66.695  1.00  0.00    -0.170 C  
HETATM   20  O3* UNL     1     -10.147   9.257  65.741  1.00  0.00    -0.388 OA 
HETATM   21  H3* UNL     1     -10.545   8.878  64.966  1.00  0.00     0.000 HD 
HETATM   22  O2* UNL     1     -10.601   6.057  66.434  1.00  0.00    -0.176 OA 
BRANCH  16  23
HETATM   23  C5* UNL     1     -10.684   8.969  69.348  1.00  0.00    -0.191 C  
HETATM   24  O5* UNL     1     -11.636  10.025  69.303  1.00  0.00    -0.443 OA 
HETATM   25  H5* UNL     1     -12.217   9.976  70.052  1.00  0.00     0.000 HD 
ENDBRANCH  16  23
ENDBRANCH  13  14
TORSDOF 2
ENDMDL
MODEL      189
REMARK 921   NORMALIZED FREE ENERGY PREDICTED BY IDOCK:   -3.36 KCAL/MOL
REMARK 922        TOTAL FREE ENERGY PREDICTED BY IDOCK:   -3.17 KCAL/MOL
REMARK 923 INTER-LIGAND FREE ENERGY PREDICTED BY IDOCK:   -2.93 KCAL/MOL
REMARK 924 INTRA-LIGAND FREE ENERGY PREDICTED BY IDOCK:   -0.24 KCAL/MOL
REMARK 927      BINDING AFFINITY PREDICTED BY RF-SCORE:    0.00 PKD
ROOT
HETATM    1  N   UNL     1      -8.297   7.950  62.792  1.00  0.00    -0.376 NA 
HETATM    2  C   UNL     1      -7.733   7.498  63.974  1.00  0.00    -0.125 A  
HETATM    3  H2  UNL     1      -8.569   7.146  62.226  1.00  0.00     0.000 HD 
HETATM    4  H1  UNL     1      -9.082   8.599  62.844  1.00  0.00     0.000 HD 
HETATM    5  N   UNL     1      -6.695   6.639  63.906  1.00  0.00    -0.043 NA 
HETATM    6  C   UNL     1      -6.183   6.159  65.057  1.00  0.00    -0.030 A  
HETATM    7  N   UNL     1      -6.594   6.416  66.316  1.00  0.00    -0.047 NA 
HETATM    8  F   UNL     1      -5.149   5.311  64.937  1.00  0.00    -0.008 F  
HETATM    9  C   UNL     1      -7.605   7.302  66.337  1.00  0.00    -0.092 A  
HETATM   10  C   UNL     1      -8.199   7.896  65.238  1.00  0.00    -0.145 A  
HETATM   11  N   UNL     1      -9.161   8.794  65.631  1.00  0.00    -0.206 NA 
HETATM   12  C   UNL     1      -9.158   8.738  66.947  1.00  0.00    -0.139 A  
HETATM   13  N   UNL     1      -8.309   7.774  67.425  1.00  0.00    -0.122 NA 
ENDROOT
BRANCH  13  14
HETATM   14  C1* UNL     1      -8.104   7.385  68.811  1.00  0.00    -0.128 C  
HETATM   15  O4* UNL     1      -8.615   6.044  69.015  1.00  0.00    -0.118 OA 
HETATM   16  C4* UNL     1      -9.957   6.138  69.538  1.00  0.00    -0.166 C  
HETATM   17  H2* UNL     1      -9.428  10.055  70.414  1.00  0.00     0.000 HD 
HETATM   18  C3* UNL     1      -9.994   7.415  70.364  1.00  0.00    -0.188 C  
HETATM   19  C2* UNL     1      -8.742   8.193  69.958  1.00  0.00    -0.131 C  
HETATM   20  O3* UNL     1      -9.923   7.128  71.764  1.00  0.00    -0.176 OA 
HETATM   21  H3* UNL     1      -9.947   7.926  72.280  1.00  0.00     0.000 HD 
HETATM   22  O2* UNL     1      -9.035   9.558  69.706  1.00  0.00    -0.167 OA 
BRANCH  16  23
HETATM   23  C5* UNL     1     -10.985   6.173  68.397  1.00  0.00    -0.305 C  
HETATM   24  O5* UNL     1     -10.467   5.518  67.246  1.00  0.00    -0.221 OA 
HETATM   25  H5* UNL     1     -11.102   5.540  66.541  1.00  0.00     0.000 HD 
ENDBRANCH  16  23
ENDBRANCH  13  14
TORSDOF 2
ENDMDL
MODEL      190
REMARK 921   NORMALIZED FREE ENERGY PREDICTED BY IDOCK:   -3.36 KCAL/MOL
REMARK 922        TOTAL FREE ENERGY PREDICTED BY IDOCK:   -3.17 KCAL/MOL
REMARK 923 INTER-LIGAND FREE ENERGY PREDICTED BY IDOCK:   -3.92 KCAL/MOL
REMARK 924 INTRA-LIGAND FREE ENERGY PREDICTED BY IDOCK:    0.75 KCAL/MOL
REMARK 927      BINDING AFFINITY PREDICTED BY RF-SCORE:    0.00 PKD
ROOT
HETATM    1  N   UNL     1     -11.868  15.091  69.893  1.00  0.00    -0.303 NA 
HETATM    2  C   UNL     1     -10.888  14.408  69.192  1.00  0.00    -0.257 A  
HETATM    3  H2  UNL     1     -12.202  15.868  69.323  1.00  0.00     0.000 HD 
HETATM    4  H1  UNL     1     -12.671  14.568  70.243  1.00  0.00     0.000 HD 
HETATM    5  N   UNL     1      -9.827  15.100  68.729  1.00  0.00    -0.215 NA 
HETATM    6  C   UNL     1      -8.900  14.444  68.002  1.00  0.00    -0.178 A  
HETATM    7  N   UNL     1      -8.899  13.142  67.644  1.00  0.00    -0.179 NA 
HETATM    8  F   UNL     1      -7.861  15.174  67.567  1.00  0.00    -0.133 F  
HETATM    9  C   UNL     1      -9.955  12.486  68.156  1.00  0.00    -0.224 A  
HETATM   10  C   UNL     1     -10.955  13.027  68.944  1.00  0.00    -0.230 A  
HETATM   11  N   UNL     1     -11.843  12.057  69.338  1.00  0.00    -0.323 NA 
HETATM   12  C   UNL     1     -11.395  10.946  68.790  1.00  0.00    -0.292 A  
HETATM   13  N   UNL     1     -10.313  11.166  67.977  1.00  0.00    -0.179 NA 
ENDROOT
BRANCH  13  14
HETATM   14  C1* UNL     1      -9.608  10.192  67.161  1.00  0.00    -0.169 C  
HETATM   15  O4* UNL     1     -10.346   8.944  67.158  1.00  0.00    -0.249 OA 
HETATM   16  C4* UNL     1      -9.787   8.078  68.169  1.00  0.00    -0.170 C  
HETATM   17  H2* UNL     1      -6.494  10.414  68.467  1.00  0.00     0.000 HD 
HETATM   18  C3* UNL     1      -8.308   8.426  68.246  1.00  0.00    -0.131 C  
HETATM   19  C2* UNL     1      -8.171   9.761  67.513  1.00  0.00    -0.114 C  
HETATM   20  O3* UNL     1      -7.511   7.448  67.571  1.00  0.00    -0.095 OA 
HETATM   21  H3* UNL     1      -6.587   7.666  67.619  1.00  0.00     0.000 HD 
HETATM   22  O2* UNL     1      -7.381  10.680  68.250  1.00  0.00    -0.084 OA 
BRANCH  16  23
HETATM   23  C5* UNL     1     -10.488   8.293  69.519  1.00  0.00    -0.227 C  
HETATM   24  O5* UNL     1      -9.541   8.250  70.579  1.00  0.00    -0.165 OA 
HETATM   25  H5* UNL     1      -9.974   8.383  71.413  1.00  0.00     0.000 HD 
ENDBRANCH  16  23
ENDBRANCH  13  14
TORSDOF 2
ENDMDL
MODEL      191
REMARK 921   NORMALIZED FREE ENERGY PREDICTED BY IDOCK:   -3.20 KCAL/MOL
REMARK 922        TOTAL FREE ENERGY PREDICTED BY IDOCK:   -3.00 KCAL/MOL
REMARK 923 INTER-LIGAND FREE ENERGY PREDICTED BY IDOCK:   -3.68 KCAL/MOL
REMARK 924 INTRA-LIGAND FREE ENERGY PREDICTED BY IDOCK:    0.68 KCAL/MOL
REMARK 927      BINDING AFFINITY PREDICTED BY RF-SCORE:    0.00 PKD
ROOT
HETATM    1  N   UNL     1      -7.004   7.269  69.743  1.00  0.00    -0.056 NA 
HETATM    2  C   UNL     1      -7.227   8.063  68.630  1.00  0.00    -0.081 A  
HETATM    3  H2  UNL     1      -6.010   7.287  69.970  1.00  0.00     0.000 HD 
HETATM    4  H1  UNL     1      -7.542   7.456  70.589  1.00  0.00     0.000 HD 
HETATM    5  N   UNL     1      -6.516   7.816  67.510  1.00  0.00    -0.054 NA 
HETATM    6  C   UNL     1      -6.695   8.624  66.445  1.00  0.00    -0.070 A  
HETATM    7  N   UNL     1      -7.506   9.699  66.349  1.00  0.00    -0.094 NA 
HETATM    8  F   UNL     1      -5.969   8.335  65.353  1.00  0.00    -0.043 F  
HETATM    9  C   UNL     1      -8.218   9.885  67.474  1.00  0.00    -0.114 A  
HETATM   10  C   UNL     1      -8.158   9.114  68.621  1.00  0.00    -0.102 A  
HETATM   11  N   UNL     1      -9.066   9.556  69.553  1.00  0.00    -0.172 NA 
HETATM   12  C   UNL     1      -9.660  10.585  68.984  1.00  0.00    -0.202 A  
HETATM   13  N   UNL     1      -9.112  10.894  67.765  1.00  0.00    -0.147 NA 
ENDROOT
BRANCH  13  14
HETATM   14  C1* UNL     1      -9.464  12.003  66.894  1.00  0.00    -0.203 C  
HETATM   15  O4* UNL     1      -9.970  13.101  67.694  1.00  0.00    -0.211 OA 
HETATM   16  C4* UNL     1     -11.411  13.031  67.714  1.00  0.00    -0.316 C  
HETATM   17  H2* UNL     1     -11.406  10.421  64.619  1.00  0.00     0.000 HD 
HETATM   18  C3* UNL     1     -11.818  12.429  66.377  1.00  0.00    -0.354 C  
HETATM   19  C2* UNL     1     -10.534  11.835  65.797  1.00  0.00    -0.260 C  
HETATM   20  O3* UNL     1     -12.301  13.436  65.482  1.00  0.00    -0.428 OA 
HETATM   21  H3* UNL     1     -12.556  13.060  64.647  1.00  0.00     0.000 HD 
HETATM   22  O2* UNL     1     -10.747  10.525  65.295  1.00  0.00    -0.146 OA 
BRANCH  16  23
HETATM   23  C5* UNL     1     -11.899  12.173  68.891  1.00  0.00    -0.304 C  
HETATM   24  O5* UNL     1     -12.157  12.992  70.024  1.00  0.00    -0.326 OA 
HETATM   25  H5* UNL     1     -12.459  12.462  70.752  1.00  0.00     0.000 HD 
ENDBRANCH  16  23
ENDBRANCH  13  14
TORSDOF 2
ENDMDL
MODEL      192
REMARK 921   NORMALIZED FREE ENERGY PREDICTED BY IDOCK:   -3.18 KCAL/MOL
REMARK 922        TOTAL FREE ENERGY PREDICTED BY IDOCK:   -2.97 KCAL/MOL
REMARK 923 INTER-LIGAND FREE ENERGY PREDICTED BY IDOCK:   -3.58 KCAL/MOL
REMARK 924 INTRA-LIGAND FREE ENERGY PREDICTED BY IDOCK:    0.61 KCAL/MOL
REMARK 927      BINDING AFFINITY PREDICTED BY RF-SCORE:    0.00 PKD
ROOT
HETATM    1  N   UNL     1     -12.587  16.334  69.397  1.00  0.00    -0.292 NA 
HETATM    2  C   UNL     1     -11.556  16.045  68.518  1.00  0.00    -0.316 A  
HETATM    3  H2  UNL     1     -13.094  17.151  69.056  1.00  0.00     0.000 HD 
HETATM    4  H1  UNL     1     -13.257  15.598  69.620  1.00  0.00     0.000 HD 
HETATM    5  N   UNL     1     -10.670  17.019  68.222  1.00  0.00    -0.373 NA 
HETATM    6  C   UNL     1      -9.699  16.752  67.326  1.00  0.00    -0.250 A  
HETATM    7  N   UNL     1      -9.494  15.606  66.644  1.00  0.00    -0.242 NA 
HETATM    8  F   UNL     1      -8.840  17.751  67.068  1.00  0.00    -0.230 F  
HETATM    9  C   UNL     1     -10.377  14.655  66.996  1.00  0.00    -0.263 A  
HETATM   10  C   UNL     1     -11.396  14.783  67.923  1.00  0.00    -0.316 A  
HETATM   11  N   UNL     1     -12.068  13.595  68.076  1.00  0.00    -0.334 NA 
HETATM   12  C   UNL     1     -11.472  12.762  67.247  1.00  0.00    -0.337 A  
HETATM   13  N   UNL     1     -10.509  13.379  66.491  1.00  0.00    -0.279 NA 
ENDROOT
BRANCH  13  14
HETATM   14  C1* UNL     1      -9.705  12.790  65.432  1.00  0.00    -0.046 C  
HETATM   15  O4* UNL     1     -10.427  11.680  64.842  1.00  0.00    -0.262 OA 
HETATM   16  C4* UNL     1      -9.984  10.457  65.468  1.00  0.00    -0.282 C  
HETATM   17  H2* UNL     1      -6.768  12.340  67.051  1.00  0.00     0.000 HD 
HETATM   18  C3* UNL     1      -8.527  10.685  65.842  1.00  0.00    -0.167 C  
HETATM   19  C2* UNL     1      -8.316  12.196  65.736  1.00  0.00     0.745 C  
HETATM   20  O3* UNL     1      -7.648  10.033  64.921  1.00  0.00    -0.131 OA 
HETATM   21  H3* UNL     1      -6.737  10.175  65.155  1.00  0.00     0.000 HD 
HETATM   22  O2* UNL     1      -7.625  12.706  66.864  1.00  0.00    -0.040 OA 
BRANCH  16  23
HETATM   23  C5* UNL     1     -10.840  10.136  66.702  1.00  0.00    -0.014 C  
HETATM   24  O5* UNL     1     -10.011   9.744  67.789  1.00  0.00    -0.155 OA 
HETATM   25  H5* UNL     1     -10.540   9.546  68.552  1.00  0.00     0.000 HD 
ENDBRANCH  16  23
ENDBRANCH  13  14
TORSDOF 2
ENDMDL
MODEL      193
REMARK 921   NORMALIZED FREE ENERGY PREDICTED BY IDOCK:   -3.13 KCAL/MOL
REMARK 922        TOTAL FREE ENERGY PREDICTED BY IDOCK:   -2.92 KCAL/MOL
REMARK 923 INTER-LIGAND FREE ENERGY PREDICTED BY IDOCK:   -4.69 KCAL/MOL
REMARK 924 INTRA-LIGAND FREE ENERGY PREDICTED BY IDOCK:    1.77 KCAL/MOL
REMARK 927      BINDING AFFINITY PREDICTED BY RF-SCORE:    0.00 PKD
ROOT
HETATM    1  N   UNL     1     -13.017  14.821  70.695  1.00  0.00    -0.489 NA 
HETATM    2  C   UNL     1     -12.317  14.142  69.710  1.00  0.00    -0.299 A  
HETATM    3  H2  UNL     1     -13.834  15.263  70.274  1.00  0.00     0.000 HD 
HETATM    4  H1  UNL     1     -13.309  14.307  71.526  1.00  0.00     0.000 HD 
HETATM    5  N   UNL     1     -11.931  14.821  68.610  1.00  0.00    -0.291 NA 
HETATM    6  C   UNL     1     -11.297  14.146  67.630  1.00  0.00    -0.319 A  
HETATM    7  N   UNL     1     -11.000  12.831  67.590  1.00  0.00    -0.237 NA 
HETATM    8  F   UNL     1     -10.929  14.866  66.558  1.00  0.00    -0.303 F  
HETATM    9  C   UNL     1     -11.371  12.203  68.719  1.00  0.00    -0.288 A  
HETATM   10  C   UNL     1     -11.995  12.779  69.812  1.00  0.00    -0.292 A  
HETATM   11  N   UNL     1     -12.174  11.855  70.812  1.00  0.00    -0.363 NA 
HETATM   12  C   UNL     1     -11.676  10.735  70.331  1.00  0.00    -0.351 A  
HETATM   13  N   UNL     1     -11.272  10.862  69.027  1.00  0.00    -0.242 NA 
ENDROOT
BRANCH  13  14
HETATM   14  C1* UNL     1     -10.743   9.822  68.160  1.00  0.00    -0.233 C  
HETATM   15  O4* UNL     1      -9.390   9.498  68.568  1.00  0.00    -0.137 OA 
HETATM   16  C4* UNL     1      -8.470  10.251  67.749  1.00  0.00    -0.114 C  
HETATM   17  H2* UNL     1     -11.415  11.140  65.116  1.00  0.00     0.000 HD 
HETATM   18  C3* UNL     1      -9.152  10.414  66.398  1.00  0.00    -0.157 C  
HETATM   19  C2* UNL     1     -10.617  10.051  66.641  1.00  0.00    -0.125 C  
HETATM   20  O3* UNL     1      -8.609   9.509  65.432  1.00  0.00    -0.138 OA 
HETATM   21  H3* UNL     1      -9.035   9.612  64.588  1.00  0.00     0.000 HD 
HETATM   22  O2* UNL     1     -11.493  10.999  66.053  1.00  0.00    -0.027 OA 
BRANCH  16  23
HETATM   23  C5* UNL     1      -8.156  11.611  68.391  1.00  0.00    -0.153 C  
HETATM   24  O5* UNL     1      -7.422  12.425  67.486  1.00  0.00    -0.128 OA 
HETATM   25  H5* UNL     1      -7.228  13.266  67.882  1.00  0.00     0.000 HD 
ENDBRANCH  16  23
ENDBRANCH  13  14
TORSDOF 2
ENDMDL
MODEL      194
REMARK 921   NORMALIZED FREE ENERGY PREDICTED BY IDOCK:   -3.12 KCAL/MOL
REMARK 922        TOTAL FREE ENERGY PREDICTED BY IDOCK:   -2.91 KCAL/MOL
REMARK 923 INTER-LIGAND FREE ENERGY PREDICTED BY IDOCK:   -4.66 KCAL/MOL
REMARK 924 INTRA-LIGAND FREE ENERGY PREDICTED BY IDOCK:    1.74 KCAL/MOL
REMARK 927      BINDING AFFINITY PREDICTED BY RF-SCORE:    0.00 PKD
ROOT
HETATM    1  N   UNL     1      -9.094   6.908  65.517  1.00  0.00    -0.368 NA 
HETATM    2  C   UNL     1      -9.379   6.769  66.866  1.00  0.00    -0.150 A  
HETATM    3  H2  UNL     1      -9.600   6.193  64.996  1.00  0.00     0.000 HD 
HETATM    4  H1  UNL     1      -9.253   7.815  65.077  1.00  0.00     0.000 HD 
HETATM    5  N   UNL     1      -9.169   5.571  67.448  1.00  0.00    -0.110 NA 
HETATM    6  C   UNL     1      -9.497   5.422  68.747  1.00  0.00    -0.130 A  
HETATM    7  N   UNL     1     -10.046   6.339  69.572  1.00  0.00    -0.169 NA 
HETATM    8  F   UNL     1      -9.265   4.213  69.283  1.00  0.00    -0.142 F  
HETATM    9  C   UNL     1     -10.205   7.525  68.960  1.00  0.00    -0.205 A  
HETATM   10  C   UNL     1      -9.879   7.823  67.649  1.00  0.00    -0.163 A  
HETATM   11  N   UNL     1     -10.121   9.147  67.375  1.00  0.00    -0.212 NA 
HETATM   12  C   UNL     1     -10.596   9.642  68.500  1.00  0.00    -0.220 A  
HETATM   13  N   UNL     1     -10.767   8.680  69.462  1.00  0.00    -0.214 NA 
ENDROOT
BRANCH  13  14
HETATM   14  C1* UNL     1     -11.332   8.850  70.790  1.00  0.00    -0.278 C  
HETATM   15  O4* UNL     1     -10.383   9.553  71.630  1.00  0.00    -0.232 OA 
HETATM   16  C4* UNL     1      -9.629   8.581  72.386  1.00  0.00    -0.286 C  
HETATM   17  H2* UNL     1     -12.298   5.679  71.471  1.00  0.00     0.000 HD 
HETATM   18  C3* UNL     1     -10.572   7.410  72.616  1.00  0.00    -0.275 C  
HETATM   19  C2* UNL     1     -11.728   7.626  71.640  1.00  0.00    -0.281 C  
HETATM   20  O3* UNL     1     -11.090   7.418  73.950  1.00  0.00    -0.488 OA 
HETATM   21  H3* UNL     1     -11.679   6.685  74.094  1.00  0.00     0.000 HD 
HETATM   22  O2* UNL     1     -12.054   6.433  70.946  1.00  0.00    -0.300 OA 
BRANCH  16  23
HETATM   23  C5* UNL     1      -8.370   8.151  71.617  1.00  0.00    -0.131 C  
HETATM   24  O5* UNL     1      -7.627   9.293  71.209  1.00  0.00    -0.306 OA 
HETATM   25  H5* UNL     1      -6.849   9.027  70.734  1.00  0.00     0.000 HD 
ENDBRANCH  16  23
ENDBRANCH  13  14
TORSDOF 2
ENDMDL
MODEL      195
REMARK 921   NORMALIZED FREE ENERGY PREDICTED BY IDOCK:   -3.03 KCAL/MOL
REMARK 922        TOTAL FREE ENERGY PREDICTED BY IDOCK:   -2.81 KCAL/MOL
REMARK 923 INTER-LIGAND FREE ENERGY PREDICTED BY IDOCK:   -2.88 KCAL/MOL
REMARK 924 INTRA-LIGAND FREE ENERGY PREDICTED BY IDOCK:    0.07 KCAL/MOL
REMARK 927      BINDING AFFINITY PREDICTED BY RF-SCORE:    0.00 PKD
ROOT
HETATM    1  N   UNL     1      -9.714   4.736  72.879  1.00  0.00    -0.137 NA 
HETATM    2  C   UNL     1      -9.264   5.602  71.895  1.00  0.00    -0.145 A  
HETATM    3  H2  UNL     1     -10.649   5.022  73.169  1.00  0.00     0.000 HD 
HETATM    4  H1  UNL     1      -9.719   3.735  72.682  1.00  0.00     0.000 HD 
HETATM    5  N   UNL     1      -9.258   6.926  72.156  1.00  0.00    -0.136 NA 
HETATM    6  C   UNL     1      -8.871   7.770  71.178  1.00  0.00    -0.137 A  
HETATM    7  N   UNL     1      -8.491   7.461  69.921  1.00  0.00    -0.137 NA 
HETATM    8  F   UNL     1      -8.877   9.076  71.487  1.00  0.00    -0.247 F  
HETATM    9  C   UNL     1      -8.479   6.132  69.718  1.00  0.00    -0.128 A  
HETATM   10  C   UNL     1      -8.817   5.158  70.640  1.00  0.00    -0.128 A  
HETATM   11  N   UNL     1      -8.634   3.903  70.112  1.00  0.00    -0.063 NA 
HETATM   12  C   UNL     1      -8.201   4.113  68.886  1.00  0.00    -0.071 A  
HETATM   13  N   UNL     1      -8.189   5.444  68.558  1.00  0.00    -0.094 NA 
ENDROOT
BRANCH  13  14
HETATM   14  C1* UNL     1      -7.842   6.036  67.277  1.00  0.00    -0.102 C  
HETATM   15  O4* UNL     1      -8.864   6.991  66.896  1.00  0.00    -0.118 OA 
HETATM   16  C4* UNL     1      -9.802   6.334  66.016  1.00  0.00     0.181 C  
HETATM   17  H2* UNL     1      -7.235   3.256  65.445  1.00  0.00     0.000 HD 
HETATM   18  C3* UNL     1      -8.998   5.292  65.252  1.00  0.00    -0.125 C  
HETATM   19  C2* UNL     1      -7.683   5.158  66.020  1.00  0.00    -0.091 C  
HETATM   20  O3* UNL     1      -8.709   5.734  63.922  1.00  0.00    -0.347 OA 
HETATM   21  H3* UNL     1      -8.208   5.083  63.445  1.00  0.00     0.000 HD 
HETATM   22  O2* UNL     1      -7.333   3.797  66.220  1.00  0.00    -0.073 OA 
BRANCH  16  23
HETATM   23  C5* UNL     1     -10.943   5.691  66.818  1.00  0.00    -0.093 C  
HETATM   24  O5* UNL     1     -11.658   6.685  67.542  1.00  0.00    -0.693 OA 
HETATM   25  H5* UNL     1     -12.363   6.287  68.038  1.00  0.00     0.000 HD 
ENDBRANCH  16  23
ENDBRANCH  13  14
TORSDOF 2
ENDMDL
MODEL      196
REMARK 921   NORMALIZED FREE ENERGY PREDICTED BY IDOCK:   -3.01 KCAL/MOL
REMARK 922        TOTAL FREE ENERGY PREDICTED BY IDOCK:   -2.79 KCAL/MOL
REMARK 923 INTER-LIGAND FREE ENERGY PREDICTED BY IDOCK:   -2.89 KCAL/MOL
REMARK 924 INTRA-LIGAND FREE ENERGY PREDICTED BY IDOCK:    0.11 KCAL/MOL
REMARK 927      BINDING AFFINITY PREDICTED BY RF-SCORE:    0.00 PKD
ROOT
HETATM    1  N   UNL     1      -5.637   9.090  66.500  1.00  0.00    -0.048 NA 
HETATM    2  C   UNL     1      -6.774   9.361  67.244  1.00  0.00    -0.075 A  
HETATM    3  H2  UNL     1      -4.897   9.734  66.779  1.00  0.00     0.000 HD 
HETATM    4  H1  UNL     1      -5.269   8.139  66.503  1.00  0.00     0.000 HD 
HETATM    5  N   UNL     1      -7.261  10.619  67.240  1.00  0.00    -0.088 NA 
HETATM    6  C   UNL     1      -8.335  10.893  68.008  1.00  0.00    -0.122 A  
HETATM    7  N   UNL     1      -9.004  10.053  68.825  1.00  0.00    -0.138 NA 
HETATM    8  F   UNL     1      -8.786  12.157  67.967  1.00  0.00    -0.149 F  
HETATM    9  C   UNL     1      -8.506   8.806  68.770  1.00  0.00    -0.129 A  
HETATM   10  C   UNL     1      -7.436   8.382  68.002  1.00  0.00    -0.097 A  
HETATM   11  N   UNL     1      -7.238   7.031  68.147  1.00  0.00    -0.088 NA 
HETATM   12  C   UNL     1      -8.167   6.642  68.997  1.00  0.00    -0.117 A  
HETATM   13  N   UNL     1      -8.896   7.695  69.488  1.00  0.00    -0.139 NA 
ENDROOT
BRANCH  13  14
HETATM   14  C1* UNL     1      -9.947   7.649  70.490  1.00  0.00    -0.184 C  
HETATM   15  O4* UNL     1      -9.374   7.894  71.799  1.00  0.00    -0.139 OA 
HETATM   16  C4* UNL     1      -9.109   6.624  72.431  1.00  0.00    -0.135 C  
HETATM   17  H2* UNL     1     -11.424   4.703  69.721  1.00  0.00     0.000 HD 
HETATM   18  C3* UNL     1     -10.174   5.670  71.911  1.00  0.00    -0.195 C  
HETATM   19  C2* UNL     1     -10.785   6.372  70.698  1.00  0.00    -0.257 C  
HETATM   20  O3* UNL     1     -11.202   5.460  72.884  1.00  0.00    -0.280 OA 
HETATM   21  H3* UNL     1     -11.867   4.864  72.559  1.00  0.00     0.000 HD 
HETATM   22  O2* UNL     1     -10.907   5.491  69.593  1.00  0.00    -0.328 OA 
BRANCH  16  23
HETATM   23  C5* UNL     1      -7.695   6.130  72.091  1.00  0.00    -0.101 C  
HETATM   24  O5* UNL     1      -7.679   4.712  71.989  1.00  0.00    -0.086 OA 
HETATM   25  H5* UNL     1      -6.805   4.407  71.778  1.00  0.00     0.000 HD 
ENDBRANCH  16  23
ENDBRANCH  13  14
TORSDOF 2
ENDMDL
MODEL      197
REMARK 921   NORMALIZED FREE ENERGY PREDICTED BY IDOCK:   -2.98 KCAL/MOL
REMARK 922        TOTAL FREE ENERGY PREDICTED BY IDOCK:   -2.76 KCAL/MOL
REMARK 923 INTER-LIGAND FREE ENERGY PREDICTED BY IDOCK:   -2.52 KCAL/MOL
REMARK 924 INTRA-LIGAND FREE ENERGY PREDICTED BY IDOCK:   -0.24 KCAL/MOL
REMARK 927      BINDING AFFINITY PREDICTED BY RF-SCORE:    0.00 PKD
ROOT
HETATM    1  N   UNL     1      -6.739   5.693  74.390  1.00  0.00    -0.079 NA 
HETATM    2  C   UNL     1      -7.443   5.170  73.317  1.00  0.00    -0.092 A  
HETATM    3  H2  UNL     1      -5.778   5.353  74.353  1.00  0.00     0.000 HD 
HETATM    4  H1  UNL     1      -6.727   6.705  74.517  1.00  0.00     0.000 HD 
HETATM    5  N   UNL     1      -7.458   3.831  73.149  1.00  0.00    -0.066 NA 
HETATM    6  C   UNL     1      -8.098   3.328  72.075  1.00  0.00    -0.063 A  
HETATM    7  N   UNL     1      -8.736   4.006  71.098  1.00  0.00    -0.084 NA 
HETATM    8  F   UNL     1      -8.089   1.991  71.952  1.00  0.00    -0.045 F  
HETATM    9  C   UNL     1      -8.725   5.331  71.326  1.00  0.00    -0.129 A  
HETATM   10  C   UNL     1      -8.138   5.975  72.400  1.00  0.00    -0.109 A  
HETATM   11  N   UNL     1      -8.371   7.327  72.345  1.00  0.00    -0.107 NA 
HETATM   12  C   UNL     1      -9.080   7.503  71.248  1.00  0.00    -0.141 A  
HETATM   13  N   UNL     1      -9.233   6.341  70.536  1.00  0.00    -0.157 NA 
ENDROOT
BRANCH  13  14
HETATM   14  C1* UNL     1      -9.891   6.173  69.250  1.00  0.00    -0.149 C  
HETATM   15  O4* UNL     1      -8.927   5.700  68.276  1.00  0.00    -0.115 OA 
HETATM   16  C4* UNL     1      -8.416   6.835  67.545  1.00  0.00    -0.121 C  
HETATM   17  H2* UNL     1     -11.415   9.177  68.927  1.00  0.00     0.000 HD 
HETATM   18  C3* UNL     1      -9.552   7.845  67.496  1.00  0.00    -0.152 C  
HETATM   19  C2* UNL     1     -10.559   7.370  68.544  1.00  0.00    -0.153 C  
HETATM   20  O3* UNL     1     -10.190   7.845  66.215  1.00  0.00    -0.479 OA 
HETATM   21  H3* UNL     1     -10.900   8.476  66.184  1.00  0.00     0.000 HD 
HETATM   22  O2* UNL     1     -11.003   8.440  69.363  1.00  0.00    -0.146 OA 
BRANCH  16  23
HETATM   23  C5* UNL     1      -7.174   7.415  68.239  1.00  0.00    -0.090 C  
HETATM   24  O5* UNL     1      -6.451   6.383  68.898  1.00  0.00    -0.039 OA 
HETATM   25  H5* UNL     1      -5.683   6.742  69.326  1.00  0.00     0.000 HD 
ENDBRANCH  16  23
ENDBRANCH  13  14
TORSDOF 2
ENDMDL
MODEL      198
REMARK 921   NORMALIZED FREE ENERGY PREDICTED BY IDOCK:   -2.98 KCAL/MOL
REMARK 922        TOTAL FREE ENERGY PREDICTED BY IDOCK:   -2.75 KCAL/MOL
REMARK 923 INTER-LIGAND FREE ENERGY PREDICTED BY IDOCK:   -2.86 KCAL/MOL
REMARK 924 INTRA-LIGAND FREE ENERGY PREDICTED BY IDOCK:    0.11 KCAL/MOL
REMARK 927      BINDING AFFINITY PREDICTED BY RF-SCORE:    0.00 PKD
ROOT
HETATM    1  N   UNL     1      -7.791   6.052  74.431  1.00  0.00    -0.099 NA 
HETATM    2  C   UNL     1      -8.925   5.853  73.661  1.00  0.00    -0.127 A  
HETATM    3  H2  UNL     1      -7.352   5.150  74.614  1.00  0.00     0.000 HD 
HETATM    4  H1  UNL     1      -7.081   6.702  74.092  1.00  0.00     0.000 HD 
HETATM    5  N   UNL     1      -9.863   4.992  74.108  1.00  0.00    -0.160 NA 
HETATM    6  C   UNL     1     -10.942   4.760  73.333  1.00  0.00    -0.323 A  
HETATM    7  N   UNL     1     -11.212   5.275  72.116  1.00  0.00    -0.132 NA 
HETATM    8  F   UNL     1     -11.849   3.900  73.823  1.00  0.00    -0.203 F  
HETATM    9  C   UNL     1     -10.270   6.151  71.727  1.00  0.00    -0.202 A  
HETATM   10  C   UNL     1      -9.137   6.508  72.437  1.00  0.00    -0.133 A  
HETATM   11  N   UNL     1      -8.426   7.473  71.767  1.00  0.00    -0.106 NA 
HETATM   12  C   UNL     1      -9.111   7.692  70.663  1.00  0.00    -0.158 A  
HETATM   13  N   UNL     1     -10.181   6.843  70.537  1.00  0.00    -0.191 NA 
ENDROOT
BRANCH  13  14
HETATM   14  C1* UNL     1     -11.108   6.750  69.422  1.00  0.00    -0.261 C  
HETATM   15  O4* UNL     1     -11.391   5.355  69.148  1.00  0.00     0.389 OA 
HETATM   16  C4* UNL     1     -10.518   4.908  68.089  1.00  0.00     0.124 C  
HETATM   17  H2* UNL     1      -9.563   8.729  67.153  1.00  0.00     0.000 HD 
HETATM   18  C3* UNL     1     -10.273   6.124  67.209  1.00  0.00    -0.191 C  
HETATM   19  C2* UNL     1     -10.738   7.321  68.039  1.00  0.00    -0.146 C  
HETATM   20  O3* UNL     1     -11.057   6.065  66.013  1.00  0.00    -0.484 OA 
HETATM   21  H3* UNL     1     -10.904   6.825  65.463  1.00  0.00     0.000 HD 
HETATM   22  O2* UNL     1      -9.791   8.377  68.006  1.00  0.00    -0.158 OA 
BRANCH  16  23
HETATM   23  C5* UNL     1      -9.206   4.352  68.662  1.00  0.00    -0.135 C  
HETATM   24  O5* UNL     1      -9.474   3.280  69.556  1.00  0.00    -0.164 OA 
HETATM   25  H5* UNL     1      -8.663   2.936  69.911  1.00  0.00     0.000 HD 
ENDBRANCH  16  23
ENDBRANCH  13  14
TORSDOF 2
ENDMDL
MODEL      199
REMARK 921   NORMALIZED FREE ENERGY PREDICTED BY IDOCK:   -2.96 KCAL/MOL
REMARK 922        TOTAL FREE ENERGY PREDICTED BY IDOCK:   -2.73 KCAL/MOL
REMARK 923 INTER-LIGAND FREE ENERGY PREDICTED BY IDOCK:   -3.08 KCAL/MOL
REMARK 924 INTRA-LIGAND FREE ENERGY PREDICTED BY IDOCK:    0.35 KCAL/MOL
REMARK 927      BINDING AFFINITY PREDICTED BY RF-SCORE:    0.00 PKD
ROOT
HETATM    1  N   UNL     1      -8.460  11.229  69.124  1.00  0.00    -0.378 NA 
HETATM    2  C   UNL     1      -8.810   9.961  69.558  1.00  0.00    -0.197 A  
HETATM    3  H2  UNL     1      -7.494  11.417  69.392  1.00  0.00     0.000 HD 
HETATM    4  H1  UNL     1      -8.579  11.455  68.136  1.00  0.00     0.000 HD 
HETATM    5  N   UNL     1      -8.652   9.662  70.864  1.00  0.00    -0.177 NA 
HETATM    6  C   UNL     1      -8.943   8.411  71.275  1.00  0.00    -0.178 A  
HETATM    7  N   UNL     1      -9.369   7.372  70.527  1.00  0.00    -0.158 NA 
HETATM    8  F   UNL     1      -8.774   8.163  72.584  1.00  0.00    -0.187 F  
HETATM    9  C   UNL     1      -9.545   7.726  69.242  1.00  0.00    -0.159 A  
HETATM   10  C   UNL     1      -9.320   8.977  68.696  1.00  0.00    -0.136 A  
HETATM   11  N   UNL     1      -9.660   8.996  67.365  1.00  0.00    -0.147 NA 
HETATM   12  C   UNL     1     -10.075   7.773  67.105  1.00  0.00    -0.258 A  
HETATM   13  N   UNL     1      -9.927   6.933  68.180  1.00  0.00    -0.150 NA 
ENDROOT
BRANCH  13  14
HETATM   14  C1* UNL     1     -10.212   5.509  68.233  1.00  0.00    -0.178 C  
HETATM   15  O4* UNL     1      -9.312   4.875  69.177  1.00  0.00    -0.111 OA 
HETATM   16  C4* UNL     1      -8.189   4.333  68.449  1.00  0.00    -0.084 C  
HETATM   17  H2* UNL     1     -10.166   4.735  64.939  1.00  0.00     0.000 HD 
HETATM   18  C3* UNL     1      -8.729   3.939  67.083  1.00  0.00    -0.111 C  
HETATM   19  C2* UNL     1     -10.087   4.632  66.972  1.00  0.00    -0.167 C  
HETATM   20  O3* UNL     1      -8.927   2.525  66.992  1.00  0.00    -0.133 OA 
HETATM   21  H3* UNL     1      -9.263   2.279  66.138  1.00  0.00     0.000 HD 
HETATM   22  O2* UNL     1     -10.243   5.276  65.717  1.00  0.00    -0.094 OA 
BRANCH  16  23
HETATM   23  C5* UNL     1      -7.063   5.372  68.334  1.00  0.00    -0.062 C  
HETATM   24  O5* UNL     1      -5.912   4.930  69.044  1.00  0.00    -0.019 OA 
HETATM   25  H5* UNL     1      -5.216   5.572  68.973  1.00  0.00     0.000 HD 
ENDBRANCH  16  23
ENDBRANCH  13  14
TORSDOF 2
ENDMDL
MODEL      200
REMARK 921   NORMALIZED FREE ENERGY PREDICTED BY IDOCK:   -2.96 KCAL/MOL
REMARK 922        TOTAL FREE ENERGY PREDICTED BY IDOCK:   -2.73 KCAL/MOL
REMARK 923 INTER-LIGAND FREE ENERGY PREDICTED BY IDOCK:   -3.34 KCAL/MOL
REMARK 924 INTRA-LIGAND FREE ENERGY PREDICTED BY IDOCK:    0.61 KCAL/MOL
REMARK 927      BINDING AFFINITY PREDICTED BY RF-SCORE:    0.00 PKD
ROOT
HETATM    1  N   UNL     1      -7.530   4.905  68.676  1.00  0.00    -0.069 NA 
HETATM    2  C   UNL     1      -7.823   5.718  67.593  1.00  0.00    -0.098 A  
HETATM    3  H2  UNL     1      -6.795   4.250  68.409  1.00  0.00     0.000 HD 
HETATM    4  H1  UNL     1      -7.277   5.345  69.561  1.00  0.00     0.000 HD 
HETATM    5  N   UNL     1      -8.157   5.136  66.423  1.00  0.00    -0.108 NA 
HETATM    6  C   UNL     1      -8.390   5.928  65.357  1.00  0.00    -0.149 A  
HETATM    7  N   UNL     1      -8.314   7.274  65.293  1.00  0.00    -0.132 NA 
HETATM    8  F   UNL     1      -8.724   5.303  64.216  1.00  0.00    -0.141 F  
HETATM    9  C   UNL     1      -8.013   7.811  66.488  1.00  0.00    -0.106 A  
HETATM   10  C   UNL     1      -7.785   7.120  67.665  1.00  0.00    -0.112 A  
HETATM   11  N   UNL     1      -7.562   7.990  68.705  1.00  0.00    -0.098 NA 
HETATM   12  C   UNL     1      -7.643   9.189  68.165  1.00  0.00    -0.084 A  
HETATM   13  N   UNL     1      -7.810   9.138  66.805  1.00  0.00    -0.100 NA 
ENDROOT
BRANCH  13  14
HETATM   14  C1* UNL     1      -7.867  10.257  65.879  1.00  0.00    -0.139 C  
HETATM   15  O4* UNL     1      -7.178  11.394  66.457  1.00  0.00    -0.128 OA 
HETATM   16  C4* UNL     1      -8.151  12.245  67.099  1.00  0.00    -0.173 C  
HETATM   17  H2* UNL     1     -11.182  10.344  65.204  1.00  0.00     0.000 HD 
HETATM   18  C3* UNL     1      -9.435  12.089  66.298  1.00  0.00    -0.229 C  
HETATM   19  C2* UNL     1      -9.221  10.844  65.435  1.00  0.00    -0.207 C  
HETATM   20  O3* UNL     1      -9.647  13.212  65.437  1.00  0.00    -0.487 OA 
HETATM   21  H3* UNL     1     -10.449  13.115  64.937  1.00  0.00     0.000 HD 
HETATM   22  O2* UNL     1     -10.347   9.982  65.478  1.00  0.00    -0.241 OA 
BRANCH  16  23
HETATM   23  C5* UNL     1      -8.348  11.835  68.567  1.00  0.00    -0.131 C  
HETATM   24  O5* UNL     1      -9.652  12.194  69.007  1.00  0.00    -0.409 OA 
HETATM   25  H5* UNL     1      -9.774  11.941  69.914  1.00  0.00     0.000 HD 
ENDBRANCH  16  23
ENDBRANCH  13  14
TORSDOF 2
ENDMDL
MODEL      201
REMARK 921   NORMALIZED FREE ENERGY PREDICTED BY IDOCK:   -2.94 KCAL/MOL
REMARK 922        TOTAL FREE ENERGY PREDICTED BY IDOCK:   -2.71 KCAL/MOL
REMARK 923 INTER-LIGAND FREE ENERGY PREDICTED BY IDOCK:   -2.76 KCAL/MOL
REMARK 924 INTRA-LIGAND FREE ENERGY PREDICTED BY IDOCK:    0.05 KCAL/MOL
REMARK 927      BINDING AFFINITY PREDICTED BY RF-SCORE:    0.00 PKD
ROOT
HETATM    1  N   UNL     1      -6.693  16.985  66.786  1.00  0.00    -0.210 NA 
HETATM    2  C   UNL     1      -6.916  15.949  67.678  1.00  0.00    -0.162 A  
HETATM    3  H2  UNL     1      -5.697  17.030  66.573  1.00  0.00     0.000 HD 
HETATM    4  H1  UNL     1      -7.220  16.996  65.912  1.00  0.00     0.000 HD 
HETATM    5  N   UNL     1      -6.219  15.934  68.834  1.00  0.00    -0.116 NA 
HETATM    6  C   UNL     1      -6.398  14.897  69.677  1.00  0.00    -0.142 A  
HETATM    7  N   UNL     1      -7.196  13.821  69.508  1.00  0.00     0.105 NA 
HETATM    8  F   UNL     1      -5.687  14.929  70.815  1.00  0.00    -0.133 F  
HETATM    9  C   UNL     1      -7.895  13.897  68.362  1.00  0.00    -0.138 A  
HETATM   10  C   UNL     1      -7.834  14.916  67.429  1.00  0.00    -0.199 A  
HETATM   11  N   UNL     1      -8.727  14.696  66.409  1.00  0.00    -0.084 NA 
HETATM   12  C   UNL     1      -9.313  13.556  66.713  1.00  0.00    -0.257 A  
HETATM   13  N   UNL     1      -8.773  12.975  67.831  1.00  0.00    -0.179 NA 
ENDROOT
BRANCH  13  14
HETATM   14  C1* UNL     1      -9.119  11.689  68.414  1.00  0.00    -0.180 C  
HETATM   15  O4* UNL     1      -7.914  11.036  68.886  1.00  0.00    -0.136 OA 
HETATM   16  C4* UNL     1      -7.453  10.127  67.863  1.00  0.00    -0.088 C  
HETATM   17  H2* UNL     1     -11.005  10.364  65.936  1.00  0.00     0.000 HD 
HETATM   18  C3* UNL     1      -8.702   9.639  67.145  1.00  0.00    -0.132 C  
HETATM   19  C2* UNL     1      -9.811  10.602  67.569  1.00  0.00    -0.168 C  
HETATM   20  O3* UNL     1      -9.057   8.317  67.563  1.00  0.00    -0.136 OA 
HETATM   21  H3* UNL     1      -9.837   8.013  67.113  1.00  0.00     0.000 HD 
HETATM   22  O2* UNL     1     -10.578  11.035  66.457  1.00  0.00    -0.249 OA 
BRANCH  16  23
HETATM   23  C5* UNL     1      -6.487  10.835  66.901  1.00  0.00    -0.090 C  
HETATM   24  O5* UNL     1      -5.838  11.915  67.560  1.00  0.00    -0.071 OA 
HETATM   25  H5* UNL     1      -5.241  12.352  66.965  1.00  0.00     0.000 HD 
ENDBRANCH  16  23
ENDBRANCH  13  14
TORSDOF 2
ENDMDL
MODEL      202
REMARK 921   NORMALIZED FREE ENERGY PREDICTED BY IDOCK:   -2.93 KCAL/MOL
REMARK 922        TOTAL FREE ENERGY PREDICTED BY IDOCK:   -2.70 KCAL/MOL
REMARK 923 INTER-LIGAND FREE ENERGY PREDICTED BY IDOCK:   -3.60 KCAL/MOL
REMARK 924 INTRA-LIGAND FREE ENERGY PREDICTED BY IDOCK:    0.90 KCAL/MOL
REMARK 927      BINDING AFFINITY PREDICTED BY RF-SCORE:    0.00 PKD
ROOT
HETATM    1  N   UNL     1     -11.259   5.594  69.745  1.00  0.00    -0.130 NA 
HETATM    2  C   UNL     1     -10.619   6.821  69.814  1.00  0.00    -0.228 A  
HETATM    3  H2  UNL     1     -12.154   5.659  70.230  1.00  0.00     0.000 HD 
HETATM    4  H1  UNL     1     -11.409   5.174  68.827  1.00  0.00     0.000 HD 
HETATM    5  N   UNL     1     -10.421   7.377  71.027  1.00  0.00    -0.214 NA 
HETATM    6  C   UNL     1      -9.847   8.595  71.088  1.00  0.00    -0.222 A  
HETATM    7  N   UNL     1      -9.444   9.373  70.061  1.00  0.00    -0.211 NA 
HETATM    8  F   UNL     1      -9.667   9.105  72.317  1.00  0.00    -0.340 F  
HETATM    9  C   UNL     1      -9.629   8.765  68.877  1.00  0.00    -0.158 A  
HETATM   10  C   UNL     1     -10.171   7.508  68.674  1.00  0.00    -0.197 A  
HETATM   11  N   UNL     1     -10.155   7.181  67.340  1.00  0.00    -0.182 NA 
HETATM   12  C   UNL     1      -9.620   8.225  66.742  1.00  0.00    -0.224 A  
HETATM   13  N   UNL     1      -9.380   9.257  67.612  1.00  0.00    -0.128 NA 
ENDROOT
BRANCH  13  14
HETATM   14  C1* UNL     1      -8.866  10.579  67.295  1.00  0.00    -0.136 C  
HETATM   15  O4* UNL     1      -8.793  10.734  65.855  1.00  0.00    -0.168 OA 
HETATM   16  C4* UNL     1      -7.451  10.421  65.426  1.00  0.00    -0.127 C  
HETATM   17  H2* UNL     1      -6.092  10.657  69.232  1.00  0.00     0.000 HD 
HETATM   18  C3* UNL     1      -6.540  10.828  66.575  1.00  0.00    -0.119 C  
HETATM   19  C2* UNL     1      -7.468  11.018  67.775  1.00  0.00    -0.094 C  
HETATM   20  O3* UNL     1      -5.885  12.070  66.301  1.00  0.00    -0.488 OA 
HETATM   21  H3* UNL     1      -5.316  12.324  67.019  1.00  0.00     0.000 HD 
HETATM   22  O2* UNL     1      -6.954  10.386  68.936  1.00  0.00    -0.060 OA 
BRANCH  16  23
HETATM   23  C5* UNL     1      -7.317   8.926  65.101  1.00  0.00    -0.092 C  
HETATM   24  O5* UNL     1      -6.585   8.747  63.895  1.00  0.00    -0.085 OA 
HETATM   25  H5* UNL     1      -6.502   7.823  63.695  1.00  0.00     0.000 HD 
ENDBRANCH  16  23
ENDBRANCH  13  14
TORSDOF 2
ENDMDL
MODEL      203
REMARK 921   NORMALIZED FREE ENERGY PREDICTED BY IDOCK:   -2.91 KCAL/MOL
REMARK 922        TOTAL FREE ENERGY PREDICTED BY IDOCK:   -2.68 KCAL/MOL
REMARK 923 INTER-LIGAND FREE ENERGY PREDICTED BY IDOCK:   -4.18 KCAL/MOL
REMARK 924 INTRA-LIGAND FREE ENERGY PREDICTED BY IDOCK:    1.50 KCAL/MOL
REMARK 927      BINDING AFFINITY PREDICTED BY RF-SCORE:    0.00 PKD
ROOT
HETATM    1  N   UNL     1      -6.611   7.002  66.541  1.00  0.00    -0.050 NA 
HETATM    2  C   UNL     1      -7.585   7.320  67.475  1.00  0.00    -0.109 A  
HETATM    3  H2  UNL     1      -6.202   7.865  66.183  1.00  0.00     0.000 HD 
HETATM    4  H1  UNL     1      -5.861   6.369  66.818  1.00  0.00     0.000 HD 
HETATM    5  N   UNL     1      -8.578   8.158  67.110  1.00  0.00    -0.123 NA 
HETATM    6  C   UNL     1      -9.494   8.507  68.035  1.00  0.00    -0.140 A  
HETATM    7  N   UNL     1      -9.546   8.134  69.331  1.00  0.00    -0.166 NA 
HETATM    8  F   UNL     1     -10.464   9.339  67.623  1.00  0.00    -0.253 F  
HETATM    9  C   UNL     1      -8.559   7.275  69.639  1.00  0.00    -0.137 A  
HETATM   10  C   UNL     1      -7.579   6.807  68.782  1.00  0.00    -0.105 A  
HETATM   11  N   UNL     1      -6.771   5.897  69.417  1.00  0.00    -0.057 NA 
HETATM   12  C   UNL     1      -7.246   5.820  70.643  1.00  0.00    -0.082 A  
HETATM   13  N   UNL     1      -8.265   6.712  70.863  1.00  0.00    -0.122 NA 
ENDROOT
BRANCH  13  14
HETATM   14  C1* UNL     1      -8.973   6.954  72.109  1.00  0.00    -0.132 C  
HETATM   15  O4* UNL     1      -9.904   5.870  72.351  1.00  0.00    -0.163 OA 
HETATM   16  C4* UNL     1     -11.205   6.264  71.866  1.00  0.00    -0.283 C  
HETATM   17  H2* UNL     1     -10.033  10.131  71.622  1.00  0.00     0.000 HD 
HETATM   18  C3* UNL     1     -11.278   7.773  72.046  1.00  0.00    -0.278 C  
HETATM   19  C2* UNL     1      -9.836   8.218  72.292  1.00  0.00    -0.294 C  
HETATM   20  O3* UNL     1     -12.067   8.121  73.188  1.00  0.00    -0.626 OA 
HETATM   21  H3* UNL     1     -12.112   9.064  73.300  1.00  0.00     0.000 HD 
HETATM   22  O2* UNL     1      -9.500   9.352  71.508  1.00  0.00    -0.259 OA 
BRANCH  16  23
HETATM   23  C5* UNL     1     -11.383   5.861  70.394  1.00  0.00    -0.149 C  
HETATM   24  O5* UNL     1     -12.157   6.836  69.707  1.00  0.00    -0.648 OA 
HETATM   25  H5* UNL     1     -12.267   6.588  68.797  1.00  0.00     0.000 HD 
ENDBRANCH  16  23
ENDBRANCH  13  14
TORSDOF 2
ENDMDL
MODEL      204
REMARK 921   NORMALIZED FREE ENERGY PREDICTED BY IDOCK:   -2.88 KCAL/MOL
REMARK 922        TOTAL FREE ENERGY PREDICTED BY IDOCK:   -2.64 KCAL/MOL
REMARK 923 INTER-LIGAND FREE ENERGY PREDICTED BY IDOCK:   -2.62 KCAL/MOL
REMARK 924 INTRA-LIGAND FREE ENERGY PREDICTED BY IDOCK:   -0.02 KCAL/MOL
REMARK 927      BINDING AFFINITY PREDICTED BY RF-SCORE:    0.00 PKD
ROOT
HETATM    1  N   UNL     1     -10.552  10.109  69.422  1.00  0.00    -0.221 NA 
HETATM    2  C   UNL     1      -9.616   9.087  69.404  1.00  0.00    -0.160 A  
HETATM    3  H2  UNL     1     -11.392   9.797  68.934  1.00  0.00     0.000 HD 
HETATM    4  H1  UNL     1     -10.820  10.507  70.322  1.00  0.00     0.000 HD 
HETATM    5  N   UNL     1      -9.262   8.559  68.214  1.00  0.00    -0.138 NA 
HETATM    6  C   UNL     1      -8.392   7.530  68.203  1.00  0.00    -0.125 A  
HETATM    7  N   UNL     1      -7.818   6.919  69.261  1.00  0.00    -0.112 NA 
HETATM    8  F   UNL     1      -8.067   7.042  66.995  1.00  0.00    -0.109 F  
HETATM    9  C   UNL     1      -8.173   7.500  70.421  1.00  0.00    -0.123 A  
HETATM   10  C   UNL     1      -9.025   8.580  70.572  1.00  0.00    -0.155 A  
HETATM   11  N   UNL     1      -9.115   8.947  71.893  1.00  0.00    -0.378 NA 
HETATM   12  C   UNL     1      -8.338   8.097  72.533  1.00  0.00    -0.172 A  
HETATM   13  N   UNL     1      -7.825   7.133  71.704  1.00  0.00    -0.096 NA 
ENDROOT
BRANCH  13  14
HETATM   14  C1* UNL     1      -6.993   6.001  72.075  1.00  0.00    -0.078 C  
HETATM   15  O4* UNL     1      -7.640   4.772  71.659  1.00  0.00    -0.084 OA 
HETATM   16  C4* UNL     1      -8.373   4.236  72.782  1.00  0.00    -0.101 C  
HETATM   17  H2* UNL     1      -6.413   6.689  75.337  1.00  0.00     0.000 HD 
HETATM   18  C3* UNL     1      -7.596   4.648  74.023  1.00  0.00    -0.086 C  
HETATM   19  C2* UNL     1      -6.632   5.737  73.550  1.00  0.00    -0.074 C  
HETATM   20  O3* UNL     1      -6.832   3.555  74.542  1.00  0.00    -0.043 OA 
HETATM   21  H3* UNL     1      -6.347   3.812  75.317  1.00  0.00     0.000 HD 
HETATM   22  O2* UNL     1      -6.636   6.852  74.428  1.00  0.00    -0.082 OA 
BRANCH  16  23
HETATM   23  C5* UNL     1      -9.808   4.783  72.807  1.00  0.00    -0.144 C  
HETATM   24  O5* UNL     1     -10.428   4.598  71.540  1.00  0.00    -0.145 OA 
HETATM   25  H5* UNL     1     -11.315   4.936  71.556  1.00  0.00     0.000 HD 
ENDBRANCH  16  23
ENDBRANCH  13  14
TORSDOF 2
ENDMDL
MODEL      205
REMARK 921   NORMALIZED FREE ENERGY PREDICTED BY IDOCK:   -2.87 KCAL/MOL
REMARK 922        TOTAL FREE ENERGY PREDICTED BY IDOCK:   -2.63 KCAL/MOL
REMARK 923 INTER-LIGAND FREE ENERGY PREDICTED BY IDOCK:   -2.63 KCAL/MOL
REMARK 924 INTRA-LIGAND FREE ENERGY PREDICTED BY IDOCK:   -0.00 KCAL/MOL
REMARK 927      BINDING AFFINITY PREDICTED BY RF-SCORE:    0.00 PKD
ROOT
HETATM    1  N   UNL     1      -6.859   5.396  65.250  1.00  0.00    -0.051 NA 
HETATM    2  C   UNL     1      -7.839   5.556  66.216  1.00  0.00    -0.100 A  
HETATM    3  H2  UNL     1      -6.990   6.102  64.526  1.00  0.00     0.000 HD 
HETATM    4  H1  UNL     1      -5.881   5.399  65.543  1.00  0.00     0.000 HD 
HETATM    5  N   UNL     1      -9.131   5.553  65.829  1.00  0.00    -0.158 NA 
HETATM    6  C   UNL     1     -10.080   5.762  66.764  1.00  0.00    -0.196 A  
HETATM    7  N   UNL     1      -9.907   6.001  68.081  1.00  0.00    -0.126 NA 
HETATM    8  F   UNL     1     -11.351   5.746  66.331  1.00  0.00    -0.249 F  
HETATM    9  C   UNL     1      -8.609   5.960  68.426  1.00  0.00    -0.113 A  
HETATM   10  C   UNL     1      -7.541   5.721  67.579  1.00  0.00    -0.093 A  
HETATM   11  N   UNL     1      -6.360   5.693  68.280  1.00  0.00    -0.039 NA 
HETATM   12  C   UNL     1      -6.705   5.920  69.531  1.00  0.00    -0.059 A  
HETATM   13  N   UNL     1      -8.042   6.194  69.661  1.00  0.00    -0.110 NA 
ENDROOT
BRANCH  13  14
HETATM   14  C1* UNL     1      -8.755   6.558  70.874  1.00  0.00    -0.136 C  
HETATM   15  O4* UNL     1      -9.405   7.840  70.683  1.00  0.00    -0.161 OA 
HETATM   16  C4* UNL     1      -8.549   8.874  71.215  1.00  0.00    -0.198 C  
HETATM   17  H2* UNL     1      -6.323   6.126  73.187  1.00  0.00     0.000 HD 
HETATM   18  C3* UNL     1      -7.799   8.237  72.376  1.00  0.00    -0.127 C  
HETATM   19  C2* UNL     1      -8.004   6.731  72.209  1.00  0.00    -0.095 C  
HETATM   20  O3* UNL     1      -8.354   8.638  73.633  1.00  0.00    -0.380 OA 
HETATM   21  H3* UNL     1      -7.885   8.241  74.358  1.00  0.00     0.000 HD 
HETATM   22  O2* UNL     1      -6.786   6.020  72.364  1.00  0.00    -0.065 OA 
BRANCH  16  23
HETATM   23  C5* UNL     1      -7.585   9.393  70.137  1.00  0.00    -0.130 C  
HETATM   24  O5* UNL     1      -6.245   9.052  70.470  1.00  0.00    -0.038 OA 
HETATM   25  H5* UNL     1      -5.649   9.372  69.803  1.00  0.00     0.000 HD 
ENDBRANCH  16  23
ENDBRANCH  13  14
TORSDOF 2
ENDMDL
MODEL      206
REMARK 921   NORMALIZED FREE ENERGY PREDICTED BY IDOCK:   -2.83 KCAL/MOL
REMARK 922        TOTAL FREE ENERGY PREDICTED BY IDOCK:   -2.58 KCAL/MOL
REMARK 923 INTER-LIGAND FREE ENERGY PREDICTED BY IDOCK:   -2.66 KCAL/MOL
REMARK 924 INTRA-LIGAND FREE ENERGY PREDICTED BY IDOCK:    0.08 KCAL/MOL
REMARK 927      BINDING AFFINITY PREDICTED BY RF-SCORE:    0.00 PKD
ROOT
HETATM    1  N   UNL     1      -7.747   8.763  72.600  1.00  0.00    -0.368 NA 
HETATM    2  C   UNL     1      -8.365   8.832  71.362  1.00  0.00    -0.168 A  
HETATM    3  H2  UNL     1      -7.693   7.786  72.889  1.00  0.00     0.000 HD 
HETATM    4  H1  UNL     1      -6.828   9.193  72.711  1.00  0.00     0.000 HD 
HETATM    5  N   UNL     1      -9.579   8.264  71.215  1.00  0.00    -0.161 NA 
HETATM    6  C   UNL     1     -10.155   8.286  69.996  1.00  0.00    -0.196 A  
HETATM    7  N   UNL     1      -9.655   8.803  68.854  1.00  0.00    -0.156 NA 
HETATM    8  F   UNL     1     -11.365   7.712  69.902  1.00  0.00    -0.238 F  
HETATM    9  C   UNL     1      -8.461   9.388  69.056  1.00  0.00    -0.129 A  
HETATM   10  C   UNL     1      -7.778   9.468  70.256  1.00  0.00    -0.161 A  
HETATM   11  N   UNL     1      -6.617  10.187  70.108  1.00  0.00    -0.112 NA 
HETATM   12  C   UNL     1      -6.591  10.529  68.836  1.00  0.00    -0.054 A  
HETATM   13  N   UNL     1      -7.631   9.982  68.128  1.00  0.00    -0.084 NA 
ENDROOT
BRANCH  13  14
HETATM   14  C1* UNL     1      -7.879  10.086  66.700  1.00  0.00    -0.111 C  
HETATM   15  O4* UNL     1      -8.110   8.763  66.155  1.00  0.00    -0.103 OA 
HETATM   16  C4* UNL     1      -6.867   8.265  65.614  1.00  0.00    -0.066 C  
HETATM   17  H2* UNL     1      -5.235  11.967  65.738  1.00  0.00     0.000 HD 
HETATM   18  C3* UNL     1      -6.107   9.487  65.122  1.00  0.00    -0.072 C  
HETATM   19  C2* UNL     1      -6.816  10.684  65.757  1.00  0.00    -0.098 C  
HETATM   20  O3* UNL     1      -6.188   9.608  63.699  1.00  0.00    -0.097 OA 
HETATM   21  H3* UNL     1      -5.712  10.372  63.391  1.00  0.00     0.000 HD 
HETATM   22  O2* UNL     1      -5.890  11.599  66.320  1.00  0.00    -0.187 OA 
BRANCH  16  23
HETATM   23  C5* UNL     1      -6.075   7.500  66.685  1.00  0.00    -0.044 C  
HETATM   24  O5* UNL     1      -6.780   6.328  67.076  1.00  0.00    -0.056 OA 
HETATM   25  H5* UNL     1      -6.290   5.855  67.738  1.00  0.00     0.000 HD 
ENDBRANCH  16  23
ENDBRANCH  13  14
TORSDOF 2
ENDMDL
MODEL      207
REMARK 921   NORMALIZED FREE ENERGY PREDICTED BY IDOCK:   -2.79 KCAL/MOL
REMARK 922        TOTAL FREE ENERGY PREDICTED BY IDOCK:   -2.54 KCAL/MOL
REMARK 923 INTER-LIGAND FREE ENERGY PREDICTED BY IDOCK:   -4.39 KCAL/MOL
REMARK 924 INTRA-LIGAND FREE ENERGY PREDICTED BY IDOCK:    1.85 KCAL/MOL
REMARK 927      BINDING AFFINITY PREDICTED BY RF-SCORE:    0.00 PKD
ROOT
HETATM    1  N   UNL     1     -12.288  12.825  63.823  1.00  0.00    -0.635 NA 
HETATM    2  C   UNL     1     -11.183  12.049  64.134  1.00  0.00    -0.373 A  
HETATM    3  H2  UNL     1     -12.857  12.331  63.135  1.00  0.00     0.000 HD 
HETATM    4  H1  UNL     1     -12.889  13.142  64.584  1.00  0.00     0.000 HD 
HETATM    5  N   UNL     1     -10.388  11.629  63.128  1.00  0.00    -0.366 NA 
HETATM    6  C   UNL     1      -9.344  10.830  63.427  1.00  0.00    -0.286 A  
HETATM    7  N   UNL     1      -8.983  10.359  64.640  1.00  0.00    -0.195 NA 
HETATM    8  F   UNL     1      -8.580  10.441  62.394  1.00  0.00    -0.149 F  
HETATM    9  C   UNL     1      -9.781  10.831  65.613  1.00  0.00    -0.237 A  
HETATM   10  C   UNL     1     -10.860  11.682  65.451  1.00  0.00    -0.280 A  
HETATM   11  N   UNL     1     -11.411  12.006  66.666  1.00  0.00    -0.422 NA 
HETATM   12  C   UNL     1     -10.685  11.355  67.551  1.00  0.00    -0.222 A  
HETATM   13  N   UNL     1      -9.750  10.544  66.962  1.00  0.00    -0.173 NA 
ENDROOT
BRANCH  13  14
HETATM   14  C1* UNL     1      -8.829   9.633  67.621  1.00  0.00    -0.125 C  
HETATM   15  O4* UNL     1      -7.790  10.396  68.284  1.00  0.00    -0.101 OA 
HETATM   16  C4* UNL     1      -6.643  10.468  67.409  1.00  0.00    -0.067 C  
HETATM   17  H2* UNL     1      -8.128   7.504  65.086  1.00  0.00     0.000 HD 
HETATM   18  C3* UNL     1      -6.650   9.176  66.606  1.00  0.00    -0.068 C  
HETATM   19  C2* UNL     1      -8.044   8.582  66.811  1.00  0.00    -0.098 C  
HETATM   20  O3* UNL     1      -5.679   8.251  67.105  1.00  0.00    -0.037 OA 
HETATM   21  H3* UNL     1      -5.683   7.444  66.603  1.00  0.00     0.000 HD 
HETATM   22  O2* UNL     1      -8.612   8.151  65.585  1.00  0.00    -0.151 OA 
BRANCH  16  23
HETATM   23  C5* UNL     1      -6.731  11.701  66.497  1.00  0.00     0.039 C  
HETATM   24  O5* UNL     1      -5.860  12.723  66.966  1.00  0.00    -0.441 OA 
HETATM   25  H5* UNL     1      -5.913  13.485  66.402  1.00  0.00     0.000 HD 
ENDBRANCH  16  23
ENDBRANCH  13  14
TORSDOF 2
ENDMDL
MODEL      208
REMARK 921   NORMALIZED FREE ENERGY PREDICTED BY IDOCK:   -2.77 KCAL/MOL
REMARK 922        TOTAL FREE ENERGY PREDICTED BY IDOCK:   -2.52 KCAL/MOL
REMARK 923 INTER-LIGAND FREE ENERGY PREDICTED BY IDOCK:   -3.24 KCAL/MOL
REMARK 924 INTRA-LIGAND FREE ENERGY PREDICTED BY IDOCK:    0.72 KCAL/MOL
REMARK 927      BINDING AFFINITY PREDICTED BY RF-SCORE:    0.00 PKD
ROOT
HETATM    1  N   UNL     1     -11.603   6.456  69.408  1.00  0.00    -0.618 NA 
HETATM    2  C   UNL     1     -10.761   6.443  68.308  1.00  0.00    -0.285 A  
HETATM    3  H2  UNL     1     -11.530   5.561  69.891  1.00  0.00     0.000 HD 
HETATM    4  H1  UNL     1     -11.502   7.209  70.089  1.00  0.00     0.000 HD 
HETATM    5  N   UNL     1     -10.894   5.447  67.408  1.00  0.00    -0.072 NA 
HETATM    6  C   UNL     1     -10.039   5.407  66.366  1.00  0.00    -0.204 A  
HETATM    7  N   UNL     1      -9.019   6.249  66.099  1.00  0.00    -0.156 NA 
HETATM    8  F   UNL     1     -10.214   4.400  65.495  1.00  0.00    -0.203 F  
HETATM    9  C   UNL     1      -8.947   7.243  67.002  1.00  0.00    -0.130 A  
HETATM   10  C   UNL     1      -9.778   7.423  68.093  1.00  0.00    -0.151 A  
HETATM   11  N   UNL     1      -9.454   8.575  68.767  1.00  0.00    -0.143 NA 
HETATM   12  C   UNL     1      -8.437   9.081  68.101  1.00  0.00    -0.129 A  
HETATM   13  N   UNL     1      -8.020   8.261  67.084  1.00  0.00    -0.104 NA 
ENDROOT
BRANCH  13  14
HETATM   14  C1* UNL     1      -6.889   8.462  66.194  1.00  0.00    -0.065 C  
HETATM   15  O4* UNL     1      -5.843   9.175  66.899  1.00  0.00    -0.047 OA 
HETATM   16  C4* UNL     1      -5.963  10.583  66.600  1.00  0.00    -0.071 C  
HETATM   17  H2* UNL     1      -8.441   9.793  63.498  1.00  0.00     0.000 HD 
HETATM   18  C3* UNL     1      -6.523  10.662  65.188  1.00  0.00     0.019 C  
HETATM   19  C2* UNL     1      -7.048   9.259  64.884  1.00  0.00    -0.101 C  
HETATM   20  O3* UNL     1      -5.497  10.982  64.243  1.00  0.00    -0.435 OA 
HETATM   21  H3* UNL     1      -5.847  11.032  63.360  1.00  0.00     0.000 HD 
HETATM   22  O2* UNL     1      -8.343   9.302  64.305  1.00  0.00    -0.156 OA 
BRANCH  16  23
HETATM   23  C5* UNL     1      -6.886  11.278  67.613  1.00  0.00    -0.077 C  
HETATM   24  O5* UNL     1      -6.571  12.662  67.697  1.00  0.00    -0.111 OA 
HETATM   25  H5* UNL     1      -7.141  13.092  68.323  1.00  0.00     0.000 HD 
ENDBRANCH  16  23
ENDBRANCH  13  14
TORSDOF 2
ENDMDL
MODEL      209
REMARK 921   NORMALIZED FREE ENERGY PREDICTED BY IDOCK:   -2.77 KCAL/MOL
REMARK 922        TOTAL FREE ENERGY PREDICTED BY IDOCK:   -2.52 KCAL/MOL
REMARK 923 INTER-LIGAND FREE ENERGY PREDICTED BY IDOCK:   -3.36 KCAL/MOL
REMARK 924 INTRA-LIGAND FREE ENERGY PREDICTED BY IDOCK:    0.85 KCAL/MOL
REMARK 927      BINDING AFFINITY PREDICTED BY RF-SCORE:    0.00 PKD
ROOT
HETATM    1  N   UNL     1     -10.075   3.888  73.274  1.00  0.00    -0.134 NA 
HETATM    2  C   UNL     1      -9.853   5.185  72.839  1.00  0.00    -0.156 A  
HETATM    3  H2  UNL     1     -10.754   3.905  74.035  1.00  0.00     0.000 HD 
HETATM    4  H1  UNL     1     -10.362   3.188  72.590  1.00  0.00     0.000 HD 
HETATM    5  N   UNL     1      -9.475   6.111  73.744  1.00  0.00    -0.140 NA 
HETATM    6  C   UNL     1      -9.312   7.384  73.329  1.00  0.00    -0.200 A  
HETATM    7  N   UNL     1      -9.500   7.880  72.088  1.00  0.00    -0.162 NA 
HETATM    8  F   UNL     1      -8.930   8.268  74.265  1.00  0.00    -0.254 F  
HETATM    9  C   UNL     1      -9.842   6.917  71.215  1.00  0.00    -0.175 A  
HETATM   10  C   UNL     1     -10.008   5.573  71.499  1.00  0.00    -0.177 A  
HETATM   11  N   UNL     1     -10.300   4.867  70.357  1.00  0.00    -0.223 NA 
HETATM   12  C   UNL     1     -10.321   5.770  69.398  1.00  0.00    -0.262 A  
HETATM   13  N   UNL     1     -10.154   7.044  69.878  1.00  0.00    -0.190 NA 
ENDROOT
BRANCH  13  14
HETATM   14  C1* UNL     1     -10.193   8.285  69.122  1.00  0.00    -0.218 C  
HETATM   15  O4* UNL     1     -10.855   8.054  67.853  1.00  0.00    -0.118 OA 
HETATM   16  C4* UNL     1      -9.849   7.806  66.848  1.00  0.00    -0.235 C  
HETATM   17  H2* UNL     1      -6.946   9.223  69.289  1.00  0.00     0.000 HD 
HETATM   18  C3* UNL     1      -8.632   8.617  67.268  1.00  0.00    -0.125 C  
HETATM   19  C2* UNL     1      -8.891   9.006  68.724  1.00  0.00    -0.137 C  
HETATM   20  O3* UNL     1      -8.510   9.811  66.489  1.00  0.00    -0.123 OA 
HETATM   21  H3* UNL     1      -7.750  10.317  66.751  1.00  0.00     0.000 HD 
HETATM   22  O2* UNL     1      -7.749   8.778  69.535  1.00  0.00    -0.084 OA 
BRANCH  16  23
HETATM   23  C5* UNL     1      -9.525   6.307  66.758  1.00  0.00    -0.144 C  
HETATM   24  O5* UNL     1      -8.224   6.052  67.271  1.00  0.00    -0.106 OA 
HETATM   25  H5* UNL     1      -8.024   5.126  67.216  1.00  0.00     0.000 HD 
ENDBRANCH  16  23
ENDBRANCH  13  14
TORSDOF 2
ENDMDL
MODEL      210
REMARK 921   NORMALIZED FREE ENERGY PREDICTED BY IDOCK:   -2.75 KCAL/MOL
REMARK 922        TOTAL FREE ENERGY PREDICTED BY IDOCK:   -2.50 KCAL/MOL
REMARK 923 INTER-LIGAND FREE ENERGY PREDICTED BY IDOCK:   -3.97 KCAL/MOL
REMARK 924 INTRA-LIGAND FREE ENERGY PREDICTED BY IDOCK:    1.48 KCAL/MOL
REMARK 927      BINDING AFFINITY PREDICTED BY RF-SCORE:    0.00 PKD
ROOT
HETATM    1  N   UNL     1      -8.824   9.841  64.329  1.00  0.00    -0.212 NA 
HETATM    2  C   UNL     1      -9.174   9.545  65.637  1.00  0.00    -0.223 A  
HETATM    3  H2  UNL     1      -8.718  10.851  64.235  1.00  0.00     0.000 HD 
HETATM    4  H1  UNL     1      -8.004   9.383  63.929  1.00  0.00     0.000 HD 
HETATM    5  N   UNL     1     -10.257  10.151  66.166  1.00  0.00    -0.235 NA 
HETATM    6  C   UNL     1     -10.565   9.902  67.455  1.00  0.00    -0.277 A  
HETATM    7  N   UNL     1      -9.902   9.114  68.327  1.00  0.00    -0.156 NA 
HETATM    8  F   UNL     1     -11.653  10.525  67.935  1.00  0.00    -0.381 F  
HETATM    9  C   UNL     1      -8.852   8.506  67.747  1.00  0.00    -0.137 A  
HETATM   10  C   UNL     1      -8.448   8.643  66.431  1.00  0.00    -0.112 A  
HETATM   11  N   UNL     1      -7.373   7.830  66.165  1.00  0.00    -0.077 NA 
HETATM   12  C   UNL     1      -7.124   7.216  67.303  1.00  0.00    -0.084 A  
HETATM   13  N   UNL     1      -7.922   7.666  68.323  1.00  0.00    -0.121 NA 
ENDROOT
BRANCH  13  14
HETATM   14  C1* UNL     1      -7.878   7.269  69.721  1.00  0.00    -0.117 C  
HETATM   15  O4* UNL     1      -8.364   5.909  69.850  1.00  0.00    -0.117 OA 
HETATM   16  C4* UNL     1      -9.764   5.952  70.202  1.00  0.00    -0.168 C  
HETATM   17  H2* UNL     1      -9.484   9.874  71.165  1.00  0.00     0.000 HD 
HETATM   18  C3* UNL     1      -9.948   7.217  71.026  1.00  0.00    -0.187 C  
HETATM   19  C2* UNL     1      -8.682   8.041  70.785  1.00  0.00    -0.138 C  
HETATM   20  O3* UNL     1     -10.042   6.917  72.421  1.00  0.00    -0.169 OA 
HETATM   21  H3* UNL     1     -10.157   7.708  72.936  1.00  0.00     0.000 HD 
HETATM   22  O2* UNL     1      -8.989   9.398  70.508  1.00  0.00    -0.235 OA 
BRANCH  16  23
HETATM   23  C5* UNL     1     -10.642   5.965  68.941  1.00  0.00    -0.288 C  
HETATM   24  O5* UNL     1     -11.717   6.883  69.101  1.00  0.00    -0.539 OA 
HETATM   25  H5* UNL     1     -12.260   6.892  68.322  1.00  0.00     0.000 HD 
ENDBRANCH  16  23
ENDBRANCH  13  14
TORSDOF 2
ENDMDL
MODEL      211
REMARK 921   NORMALIZED FREE ENERGY PREDICTED BY IDOCK:   -2.75 KCAL/MOL
REMARK 922        TOTAL FREE ENERGY PREDICTED BY IDOCK:   -2.50 KCAL/MOL
REMARK 923 INTER-LIGAND FREE ENERGY PREDICTED BY IDOCK:   -4.34 KCAL/MOL
REMARK 924 INTRA-LIGAND FREE ENERGY PREDICTED BY IDOCK:    1.85 KCAL/MOL
REMARK 927      BINDING AFFINITY PREDICTED BY RF-SCORE:    0.00 PKD
ROOT
HETATM    1  N   UNL     1     -10.438   5.628  69.984  1.00  0.00    -0.272 NA 
HETATM    2  C   UNL     1     -10.387   6.957  69.596  1.00  0.00    -0.206 A  
HETATM    3  H2  UNL     1     -11.378   5.417  70.320  1.00  0.00     0.000 HD 
HETATM    4  H1  UNL     1     -10.158   4.914  69.312  1.00  0.00     0.000 HD 
HETATM    5  N   UNL     1     -10.758   7.902  70.484  1.00  0.00    -0.228 NA 
HETATM    6  C   UNL     1     -10.758   9.191  70.087  1.00  0.00    -0.233 A  
HETATM    7  N   UNL     1     -10.444   9.681  68.870  1.00  0.00    -0.209 NA 
HETATM    8  F   UNL     1     -11.130  10.094  71.008  1.00  0.00    -0.382 F  
HETATM    9  C   UNL     1     -10.048   8.709  68.030  1.00  0.00    -0.196 A  
HETATM   10  C   UNL     1      -9.967   7.358  68.317  1.00  0.00    -0.163 A  
HETATM   11  N   UNL     1      -9.468   6.662  67.244  1.00  0.00    -0.130 NA 
HETATM   12  C   UNL     1      -9.259   7.574  66.317  1.00  0.00    -0.146 A  
HETATM   13  N   UNL     1      -9.692   8.817  66.702  1.00  0.00    -0.219 NA 
ENDROOT
BRANCH  13  14
HETATM   14  C1* UNL     1      -9.687  10.037  65.913  1.00  0.00    -0.247 C  
HETATM   15  O4* UNL     1      -8.323  10.506  65.762  1.00  0.00    -0.155 OA 
HETATM   16  C4* UNL     1      -8.062  11.498  66.777  1.00  0.00    -0.158 C  
HETATM   17  H2* UNL     1     -12.018  11.857  67.557  1.00  0.00     0.000 HD 
HETATM   18  C3* UNL     1      -9.391  12.194  67.032  1.00  0.00    -0.201 C  
HETATM   19  C2* UNL     1     -10.446  11.290  66.394  1.00  0.00    -0.257 C  
HETATM   20  O3* UNL     1      -9.437  13.473  66.393  1.00  0.00    -0.307 OA 
HETATM   21  H3* UNL     1     -10.267  13.908  66.552  1.00  0.00     0.000 HD 
HETATM   22  O2* UNL     1     -11.550  11.085  67.261  1.00  0.00    -0.496 OA 
BRANCH  16  23
HETATM   23  C5* UNL     1      -7.514  10.842  68.053  1.00  0.00    -0.090 C  
HETATM   24  O5* UNL     1      -6.208  11.328  68.336  1.00  0.00    -0.046 OA 
HETATM   25  H5* UNL     1      -5.870  10.923  69.125  1.00  0.00     0.000 HD 
ENDBRANCH  16  23
ENDBRANCH  13  14
TORSDOF 2
ENDMDL
MODEL      212
REMARK 921   NORMALIZED FREE ENERGY PREDICTED BY IDOCK:   -2.74 KCAL/MOL
REMARK 922        TOTAL FREE ENERGY PREDICTED BY IDOCK:   -2.49 KCAL/MOL
REMARK 923 INTER-LIGAND FREE ENERGY PREDICTED BY IDOCK:   -3.19 KCAL/MOL
REMARK 924 INTRA-LIGAND FREE ENERGY PREDICTED BY IDOCK:    0.70 KCAL/MOL
REMARK 927      BINDING AFFINITY PREDICTED BY RF-SCORE:    0.00 PKD
ROOT
HETATM    1  N   UNL     1     -12.512  14.360  67.780  1.00  0.00    -0.526 NA 
HETATM    2  C   UNL     1     -11.134  14.231  67.830  1.00  0.00    -0.278 A  
HETATM    3  H2  UNL     1     -12.775  14.756  66.878  1.00  0.00     0.000 HD 
HETATM    4  H1  UNL     1     -13.085  13.535  67.960  1.00  0.00     0.000 HD 
HETATM    5  N   UNL     1     -10.376  15.321  67.592  1.00  0.00    -0.247 NA 
HETATM    6  C   UNL     1      -9.035  15.181  67.589  1.00  0.00    -0.180 A  
HETATM    7  N   UNL     1      -8.320  14.053  67.780  1.00  0.00    -0.162 NA 
HETATM    8  F   UNL     1      -8.324  16.295  67.351  1.00  0.00    -0.161 F  
HETATM    9  C   UNL     1      -9.114  13.002  68.047  1.00  0.00    -0.210 A  
HETATM   10  C   UNL     1     -10.496  13.013  68.117  1.00  0.00    -0.245 A  
HETATM   11  N   UNL     1     -10.976  11.775  68.470  1.00  0.00    -0.212 NA 
HETATM   12  C   UNL     1      -9.903  11.023  68.603  1.00  0.00    -0.193 A  
HETATM   13  N   UNL     1      -8.754  11.687  68.256  1.00  0.00    -0.159 NA 
ENDROOT
BRANCH  13  14
HETATM   14  C1* UNL     1      -7.404  11.152  68.212  1.00  0.00    -0.090 C  
HETATM   15  O4* UNL     1      -7.455   9.746  67.863  1.00  0.00    -0.085 OA 
HETATM   16  C4* UNL     1      -7.418   8.968  69.079  1.00  0.00    -0.074 C  
HETATM   17  H2* UNL     1      -6.217  12.198  71.204  1.00  0.00     0.000 HD 
HETATM   18  C3* UNL     1      -6.591   9.777  70.066  1.00  0.00    -0.081 C  
HETATM   19  C2* UNL     1      -6.504  11.180  69.464  1.00  0.00    -0.117 C  
HETATM   20  O3* UNL     1      -5.267   9.248  70.189  1.00  0.00    -0.028 OA 
HETATM   21  H3* UNL     1      -4.750   9.754  70.806  1.00  0.00     0.000 HD 
HETATM   22  O2* UNL     1      -6.772  12.181  70.432  1.00  0.00     0.148 OA 
BRANCH  16  23
HETATM   23  C5* UNL     1      -8.838   8.714  69.607  1.00  0.00    -0.137 C  
HETATM   24  O5* UNL     1      -9.415   7.595  68.946  1.00  0.00    -0.149 OA 
HETATM   25  H5* UNL     1     -10.293   7.437  69.272  1.00  0.00     0.000 HD 
ENDBRANCH  16  23
ENDBRANCH  13  14
TORSDOF 2
ENDMDL
MODEL      213
REMARK 921   NORMALIZED FREE ENERGY PREDICTED BY IDOCK:   -2.71 KCAL/MOL
REMARK 922        TOTAL FREE ENERGY PREDICTED BY IDOCK:   -2.46 KCAL/MOL
REMARK 923 INTER-LIGAND FREE ENERGY PREDICTED BY IDOCK:   -3.13 KCAL/MOL
REMARK 924 INTRA-LIGAND FREE ENERGY PREDICTED BY IDOCK:    0.67 KCAL/MOL
REMARK 927      BINDING AFFINITY PREDICTED BY RF-SCORE:    0.00 PKD
ROOT
HETATM    1  N   UNL     1      -8.291  11.224  69.158  1.00  0.00    -0.376 NA 
HETATM    2  C   UNL     1      -8.088   9.939  69.634  1.00  0.00    -0.165 A  
HETATM    3  H2  UNL     1      -7.450  11.776  69.327  1.00  0.00     0.000 HD 
HETATM    4  H1  UNL     1      -8.576  11.344  68.186  1.00  0.00     0.000 HD 
HETATM    5  N   UNL     1      -7.711   9.780  70.919  1.00  0.00    -0.266 NA 
HETATM    6  C   UNL     1      -7.463   8.532  71.365  1.00  0.00    -0.102 A  
HETATM    7  N   UNL     1      -7.526   7.377  70.669  1.00  0.00    -0.077 NA 
HETATM    8  F   UNL     1      -7.095   8.424  72.651  1.00  0.00    -0.097 F  
HETATM    9  C   UNL     1      -7.939   7.580  69.406  1.00  0.00    -0.123 A  
HETATM   10  C   UNL     1      -8.259   8.798  68.833  1.00  0.00    -0.118 A  
HETATM   11  N   UNL     1      -8.699   8.627  67.543  1.00  0.00    -0.134 NA 
HETATM   12  C   UNL     1      -8.637   7.328  67.334  1.00  0.00    -0.121 A  
HETATM   13  N   UNL     1      -8.084   6.656  68.393  1.00  0.00    -0.114 NA 
ENDROOT
BRANCH  13  14
HETATM   14  C1* UNL     1      -7.796   5.234  68.484  1.00  0.00    -0.083 C  
HETATM   15  O4* UNL     1      -7.596   4.698  67.152  1.00  0.00    -0.084 OA 
HETATM   16  C4* UNL     1      -8.840   4.127  66.693  1.00  0.00    -0.119 C  
HETATM   17  H2* UNL     1     -10.351   4.201  70.448  1.00  0.00     0.000 HD 
HETATM   18  C3* UNL     1      -9.546   3.613  67.938  1.00  0.00    -0.122 C  
HETATM   19  C2* UNL     1      -8.814   4.263  69.113  1.00  0.00    -0.091 C  
HETATM   20  O3* UNL     1      -9.426   2.192  68.052  1.00  0.00    -0.245 OA 
HETATM   21  H3* UNL     1      -9.868   1.871  68.830  1.00  0.00     0.000 HD 
HETATM   22  O2* UNL     1      -9.724   4.800  70.060  1.00  0.00    -0.170 OA 
BRANCH  16  23
HETATM   23  C5* UNL     1      -9.684   5.179  65.958  1.00  0.00    -0.165 C  
HETATM   24  O5* UNL     1      -9.419   5.135  64.561  1.00  0.00    -0.357 OA 
HETATM   25  H5* UNL     1      -9.941   5.785  64.107  1.00  0.00     0.000 HD 
ENDBRANCH  16  23
ENDBRANCH  13  14
TORSDOF 2
ENDMDL
MODEL      214
REMARK 921   NORMALIZED FREE ENERGY PREDICTED BY IDOCK:   -2.70 KCAL/MOL
REMARK 922        TOTAL FREE ENERGY PREDICTED BY IDOCK:   -2.44 KCAL/MOL
REMARK 923 INTER-LIGAND FREE ENERGY PREDICTED BY IDOCK:   -4.37 KCAL/MOL
REMARK 924 INTRA-LIGAND FREE ENERGY PREDICTED BY IDOCK:    1.93 KCAL/MOL
REMARK 927      BINDING AFFINITY PREDICTED BY RF-SCORE:    0.00 PKD
ROOT
HETATM    1  N   UNL     1     -13.296   8.377  72.520  1.00  0.00    -0.600 NA 
HETATM    2  C   UNL     1     -12.501   9.025  71.589  1.00  0.00    -0.351 A  
HETATM    3  H2  UNL     1     -14.275   8.489  72.255  1.00  0.00     0.000 HD 
HETATM    4  H1  UNL     1     -13.116   7.391  72.711  1.00  0.00     0.000 HD 
HETATM    5  N   UNL     1     -12.739  10.329  71.336  1.00  0.00    -0.403 NA 
HETATM    6  C   UNL     1     -11.999  10.944  70.392  1.00  0.00    -0.362 A  
HETATM    7  N   UNL     1     -11.028  10.409  69.623  1.00  0.00    -0.258 NA 
HETATM    8  F   UNL     1     -12.271  12.242  70.178  1.00  0.00    -0.357 F  
HETATM    9  C   UNL     1     -10.802   9.121  69.934  1.00  0.00    -0.228 A  
HETATM   10  C   UNL     1     -11.460   8.382  70.900  1.00  0.00    -0.267 A  
HETATM   11  N   UNL     1     -10.932   7.117  70.989  1.00  0.00    -0.247 NA 
HETATM   12  C   UNL     1      -9.976   7.086  70.084  1.00  0.00    -0.182 A  
HETATM   13  N   UNL     1      -9.922   8.238  69.343  1.00  0.00    -0.184 NA 
ENDROOT
BRANCH  13  14
HETATM   14  C1* UNL     1      -9.046   8.526  68.219  1.00  0.00    -0.138 C  
HETATM   15  O4* UNL     1      -7.670   8.536  68.674  1.00  0.00    -0.099 OA 
HETATM   16  C4* UNL     1      -7.287   9.900  68.954  1.00  0.00    -0.078 C  
HETATM   17  H2* UNL     1     -10.524  11.300  66.966  1.00  0.00     0.000 HD 
HETATM   18  C3* UNL     1      -8.082  10.763  67.985  1.00  0.00    -0.114 C  
HETATM   19  C2* UNL     1      -9.177   9.848  67.437  1.00  0.00    -0.134 C  
HETATM   20  O3* UNL     1      -7.265  11.205  66.896  1.00  0.00    -0.122 OA 
HETATM   21  H3* UNL     1      -7.762  11.744  66.291  1.00  0.00     0.000 HD 
HETATM   22  O2* UNL     1     -10.444  10.486  67.449  1.00  0.00    -0.213 OA 
BRANCH  16  23
HETATM   23  C5* UNL     1      -7.594  10.262  70.415  1.00  0.00     0.255 C  
HETATM   24  O5* UNL     1      -6.663   9.631  71.285  1.00  0.00    -0.293 OA 
HETATM   25  H5* UNL     1      -6.851   9.855  72.188  1.00  0.00     0.000 HD 
ENDBRANCH  16  23
ENDBRANCH  13  14
TORSDOF 2
ENDMDL
MODEL      215
REMARK 921   NORMALIZED FREE ENERGY PREDICTED BY IDOCK:   -2.68 KCAL/MOL
REMARK 922        TOTAL FREE ENERGY PREDICTED BY IDOCK:   -2.42 KCAL/MOL
REMARK 923 INTER-LIGAND FREE ENERGY PREDICTED BY IDOCK:   -2.75 KCAL/MOL
REMARK 924 INTRA-LIGAND FREE ENERGY PREDICTED BY IDOCK:    0.33 KCAL/MOL
REMARK 927      BINDING AFFINITY PREDICTED BY RF-SCORE:    0.00 PKD
ROOT
HETATM    1  N   UNL     1     -10.033  10.609  63.752  1.00  0.00    -0.373 NA 
HETATM    2  C   UNL     1      -9.928  10.544  65.132  1.00  0.00    -0.309 A  
HETATM    3  H2  UNL     1      -9.472  11.391  63.414  1.00  0.00     0.000 HD 
HETATM    4  H1  UNL     1      -9.804   9.777  63.207  1.00  0.00     0.000 HD 
HETATM    5  N   UNL     1     -10.229  11.644  65.853  1.00  0.00    -0.229 NA 
HETATM    6  C   UNL     1     -10.076  11.596  67.191  1.00  0.00    -0.204 A  
HETATM    7  N   UNL     1      -9.628  10.563  67.936  1.00  0.00    -0.149 NA 
HETATM    8  F   UNL     1     -10.392  12.713  67.865  1.00  0.00    -0.200 F  
HETATM    9  C   UNL     1      -9.374   9.480  67.181  1.00  0.00    -0.143 A  
HETATM   10  C   UNL     1      -9.521   9.383  65.809  1.00  0.00    -0.259 A  
HETATM   11  N   UNL     1      -9.228   8.112  65.377  1.00  0.00     0.097 NA 
HETATM   12  C   UNL     1      -8.898   7.452  66.468  1.00  0.00    -0.148 A  
HETATM   13  N   UNL     1      -8.867   8.260  67.576  1.00  0.00    -0.135 NA 
ENDROOT
BRANCH  13  14
HETATM   14  C1* UNL     1      -8.479   7.891  68.927  1.00  0.00    -0.128 C  
HETATM   15  O4* UNL     1      -7.040   8.005  69.061  1.00  0.00    -0.063 OA 
HETATM   16  C4* UNL     1      -6.453   6.704  68.844  1.00  0.00    -0.039 C  
HETATM   17  H2* UNL     1     -10.064   4.919  69.248  1.00  0.00     0.000 HD 
HETATM   18  C3* UNL     1      -7.479   5.696  69.338  1.00  0.00    -0.075 C  
HETATM   19  C2* UNL     1      -8.782   6.484  69.479  1.00  0.00    -0.134 C  
HETATM   20  O3* UNL     1      -7.118   5.176  70.621  1.00  0.00    -0.053 OA 
HETATM   21  H3* UNL     1      -7.759   4.545  70.930  1.00  0.00     0.000 HD 
HETATM   22  O2* UNL     1      -9.877   5.786  68.908  1.00  0.00    -0.132 OA 
BRANCH  16  23
HETATM   23  C5* UNL     1      -6.127   6.495  67.357  1.00  0.00    -0.028 C  
HETATM   24  O5* UNL     1      -5.916   7.748  66.718  1.00  0.00    -0.044 OA 
HETATM   25  H5* UNL     1      -5.715   7.620  65.799  1.00  0.00     0.000 HD 
ENDBRANCH  16  23
ENDBRANCH  13  14
TORSDOF 2
ENDMDL
MODEL      216
REMARK 921   NORMALIZED FREE ENERGY PREDICTED BY IDOCK:   -2.64 KCAL/MOL
REMARK 922        TOTAL FREE ENERGY PREDICTED BY IDOCK:   -2.38 KCAL/MOL
REMARK 923 INTER-LIGAND FREE ENERGY PREDICTED BY IDOCK:   -3.94 KCAL/MOL
REMARK 924 INTRA-LIGAND FREE ENERGY PREDICTED BY IDOCK:    1.57 KCAL/MOL
REMARK 927      BINDING AFFINITY PREDICTED BY RF-SCORE:    0.00 PKD
ROOT
HETATM    1  N   UNL     1     -12.392   8.127  72.926  1.00  0.00    -0.647 NA 
HETATM    2  C   UNL     1     -11.716   7.825  71.755  1.00  0.00    -0.284 A  
HETATM    3  H2  UNL     1     -13.333   8.445  72.692  1.00  0.00     0.000 HD 
HETATM    4  H1  UNL     1     -12.454   7.412  73.651  1.00  0.00     0.000 HD 
HETATM    5  N   UNL     1     -11.635   8.770  70.796  1.00  0.00    -0.275 NA 
HETATM    6  C   UNL     1     -11.023   8.456  69.636  1.00  0.00    -0.087 A  
HETATM    7  N   UNL     1     -10.476   7.274  69.283  1.00  0.00    -0.212 NA 
HETATM    8  F   UNL     1     -10.964   9.431  68.715  1.00  0.00    -0.238 F  
HETATM    9  C   UNL     1     -10.549   6.376  70.280  1.00  0.00    -0.237 A  
HETATM   10  C   UNL     1     -11.115   6.576  71.527  1.00  0.00    -0.265 A  
HETATM   11  N   UNL     1     -10.961   5.463  72.316  1.00  0.00    -0.233 NA 
HETATM   12  C   UNL     1     -10.320   4.597  71.558  1.00  0.00    -0.104 A  
HETATM   13  N   UNL     1     -10.139   5.059  70.279  1.00  0.00    -0.256 NA 
ENDROOT
BRANCH  13  14
HETATM   14  C1* UNL     1      -9.540   4.350  69.161  1.00  0.00    -0.181 C  
HETATM   15  O4* UNL     1      -8.098   4.347  69.311  1.00  0.00    -0.068 OA 
HETATM   16  C4* UNL     1      -7.553   5.440  68.541  1.00  0.00    -0.083 C  
HETATM   17  H2* UNL     1     -11.052   5.893  66.557  1.00  0.00     0.000 HD 
HETATM   18  C3* UNL     1      -8.487   5.620  67.354  1.00  0.00    -0.106 C  
HETATM   19  C2* UNL     1      -9.751   4.839  67.714  1.00  0.00    -0.156 C  
HETATM   20  O3* UNL     1      -7.925   5.059  66.163  1.00  0.00    -0.105 OA 
HETATM   21  H3* UNL     1      -8.509   5.172  65.421  1.00  0.00     0.000 HD 
HETATM   22  O2* UNL     1     -10.923   5.592  67.449  1.00  0.00    -0.199 OA 
BRANCH  16  23
HETATM   23  C5* UNL     1      -7.468   6.717  69.391  1.00  0.00    -0.094 C  
HETATM   24  O5* UNL     1      -7.810   7.853  68.608  1.00  0.00    -0.114 OA 
HETATM   25  H5* UNL     1      -7.758   8.643  69.134  1.00  0.00     0.000 HD 
ENDBRANCH  16  23
ENDBRANCH  13  14
TORSDOF 2
ENDMDL
MODEL      217
REMARK 921   NORMALIZED FREE ENERGY PREDICTED BY IDOCK:   -2.60 KCAL/MOL
REMARK 922        TOTAL FREE ENERGY PREDICTED BY IDOCK:   -2.33 KCAL/MOL
REMARK 923 INTER-LIGAND FREE ENERGY PREDICTED BY IDOCK:   -2.92 KCAL/MOL
REMARK 924 INTRA-LIGAND FREE ENERGY PREDICTED BY IDOCK:    0.59 KCAL/MOL
REMARK 927      BINDING AFFINITY PREDICTED BY RF-SCORE:    0.00 PKD
ROOT
HETATM    1  N   UNL     1      -7.121   5.885  65.756  1.00  0.00    -0.068 NA 
HETATM    2  C   UNL     1      -7.882   6.563  66.694  1.00  0.00    -0.104 A  
HETATM    3  H2  UNL     1      -7.143   6.401  64.876  1.00  0.00     0.000 HD 
HETATM    4  H1  UNL     1      -6.152   5.660  65.984  1.00  0.00     0.000 HD 
HETATM    5  N   UNL     1      -9.162   6.860  66.392  1.00  0.00    -0.163 NA 
HETATM    6  C   UNL     1      -9.884   7.567  67.285  1.00  0.00    -0.179 A  
HETATM    7  N   UNL     1      -9.480   8.051  68.478  1.00  0.00    -0.142 NA 
HETATM    8  F   UNL     1     -11.154   7.834  66.941  1.00  0.00    -0.390 F  
HETATM    9  C   UNL     1      -8.212   7.702  68.751  1.00  0.00    -0.128 A  
HETATM   10  C   UNL     1      -7.374   6.953  67.944  1.00  0.00    -0.097 A  
HETATM   11  N   UNL     1      -6.167   6.737  68.563  1.00  0.00    -0.029 NA 
HETATM   12  C   UNL     1      -6.267   7.352  69.723  1.00  0.00    -0.031 A  
HETATM   13  N   UNL     1      -7.445   8.043  69.846  1.00  0.00    -0.077 NA 
ENDROOT
BRANCH  13  14
HETATM   14  C1* UNL     1      -7.863   8.888  70.953  1.00  0.00    -0.133 C  
HETATM   15  O4* UNL     1      -6.697   9.294  71.713  1.00  0.00    -0.285 OA 
HETATM   16  C4* UNL     1      -6.542   8.395  72.832  1.00  0.00    -0.092 C  
HETATM   17  H2* UNL     1     -10.299   6.977  72.319  1.00  0.00     0.000 HD 
HETATM   18  C3* UNL     1      -7.948   7.959  73.215  1.00  0.00    -0.161 C  
HETATM   19  C2* UNL     1      -8.829   8.357  72.030  1.00  0.00    -0.211 C  
HETATM   20  O3* UNL     1      -8.406   8.651  74.380  1.00  0.00    -0.385 OA 
HETATM   21  H3* UNL     1      -9.285   8.378  74.619  1.00  0.00     0.000 HD 
HETATM   22  O2* UNL     1      -9.703   7.305  71.654  1.00  0.00    -0.156 OA 
BRANCH  16  23
HETATM   23  C5* UNL     1      -5.662   7.195  72.449  1.00  0.00    -0.037 C  
HETATM   24  O5* UNL     1      -6.267   5.983  72.882  1.00  0.00    -0.054 OA 
HETATM   25  H5* UNL     1      -5.724   5.242  72.645  1.00  0.00     0.000 HD 
ENDBRANCH  16  23
ENDBRANCH  13  14
TORSDOF 2
ENDMDL
MODEL      218
REMARK 921   NORMALIZED FREE ENERGY PREDICTED BY IDOCK:   -2.57 KCAL/MOL
REMARK 922        TOTAL FREE ENERGY PREDICTED BY IDOCK:   -2.30 KCAL/MOL
REMARK 923 INTER-LIGAND FREE ENERGY PREDICTED BY IDOCK:   -3.89 KCAL/MOL
REMARK 924 INTRA-LIGAND FREE ENERGY PREDICTED BY IDOCK:    1.59 KCAL/MOL
REMARK 927      BINDING AFFINITY PREDICTED BY RF-SCORE:    0.00 PKD
ROOT
HETATM    1  N   UNL     1     -13.589  13.915  70.508  1.00  0.00     0.058 NA 
HETATM    2  C   UNL     1     -12.352  13.945  69.886  1.00  0.00    -0.300 A  
HETATM    3  H2  UNL     1     -13.580  13.195  71.230  1.00  0.00     0.000 HD 
HETATM    4  H1  UNL     1     -13.954  14.780  70.908  1.00  0.00     0.000 HD 
HETATM    5  N   UNL     1     -11.869  12.802  69.358  1.00  0.00    -0.307 NA 
HETATM    6  C   UNL     1     -10.642  12.821  68.800  1.00  0.00    -0.189 A  
HETATM    7  N   UNL     1      -9.790  13.864  68.710  1.00  0.00    -0.167 NA 
HETATM    8  F   UNL     1     -10.207  11.660  68.285  1.00  0.00    -0.174 F  
HETATM    9  C   UNL     1     -10.326  14.988  69.217  1.00  0.00    -0.246 A  
HETATM   10  C   UNL     1     -11.582  15.115  69.784  1.00  0.00    -0.311 A  
HETATM   11  N   UNL     1     -11.824  16.419  70.142  1.00  0.00     0.060 NA 
HETATM   12  C   UNL     1     -10.729  17.070  69.807  1.00  0.00     0.036 A  
HETATM   13  N   UNL     1      -9.748  16.234  69.339  1.00  0.00    -0.227 NA 
ENDROOT
BRANCH  13  14
HETATM   14  C1* UNL     1      -8.395  16.592  68.947  1.00  0.00    -0.241 C  
HETATM   15  O4* UNL     1      -8.415  17.155  67.612  1.00  0.00    -0.197 OA 
HETATM   16  C4* UNL     1      -8.107  16.109  66.666  1.00  0.00    -0.288 C  
HETATM   17  H2* UNL     1      -6.759  13.710  69.635  1.00  0.00     0.000 HD 
HETATM   18  C3* UNL     1      -7.171  15.154  67.391  1.00  0.00    -0.199 C  
HETATM   19  C2* UNL     1      -7.288  15.522  68.870  1.00  0.00    -0.150 C  
HETATM   20  O3* UNL     1      -5.815  15.344  66.977  1.00  0.00    -0.232 OA 
HETATM   21  H3* UNL     1      -5.230  14.747  67.429  1.00  0.00     0.000 HD 
HETATM   22  O2* UNL     1      -7.442  14.370  69.683  1.00  0.00    -0.038 OA 
BRANCH  16  23
HETATM   23  C5* UNL     1      -9.389  15.400  66.202  1.00  0.00    -0.332 C  
HETATM   24  O5* UNL     1      -9.089  14.084  65.753  1.00  0.00    -0.445 OA 
HETATM   25  H5* UNL     1      -9.881  13.646  65.467  1.00  0.00     0.000 HD 
ENDBRANCH  16  23
ENDBRANCH  13  14
TORSDOF 2
ENDMDL
MODEL      219
REMARK 921   NORMALIZED FREE ENERGY PREDICTED BY IDOCK:   -2.53 KCAL/MOL
REMARK 922        TOTAL FREE ENERGY PREDICTED BY IDOCK:   -2.25 KCAL/MOL
REMARK 923 INTER-LIGAND FREE ENERGY PREDICTED BY IDOCK:   -2.24 KCAL/MOL
REMARK 924 INTRA-LIGAND FREE ENERGY PREDICTED BY IDOCK:   -0.01 KCAL/MOL
REMARK 927      BINDING AFFINITY PREDICTED BY RF-SCORE:    0.00 PKD
ROOT
HETATM    1  N   UNL     1      -5.905   4.994  73.588  1.00  0.00    -0.025 NA 
HETATM    2  C   UNL     1      -6.383   4.941  72.288  1.00  0.00    -0.034 A  
HETATM    3  H2  UNL     1      -4.886   5.005  73.566  1.00  0.00     0.000 HD 
HETATM    4  H1  UNL     1      -6.232   5.746  74.196  1.00  0.00     0.000 HD 
HETATM    5  N   UNL     1      -5.951   3.948  71.484  1.00  0.00    -0.013 NA 
HETATM    6  C   UNL     1      -6.375   3.928  70.205  1.00  0.00    -0.028 A  
HETATM    7  N   UNL     1      -7.190   4.811  69.590  1.00  0.00    -0.054 NA 
HETATM    8  F   UNL     1      -5.921   2.918  69.445  1.00  0.00    -0.021 F  
HETATM    9  C   UNL     1      -7.623   5.761  70.437  1.00  0.00    -0.090 A  
HETATM   10  C   UNL     1      -7.295   5.877  71.776  1.00  0.00    -0.093 A  
HETATM   11  N   UNL     1      -7.964   6.930  72.351  1.00  0.00    -0.096 NA 
HETATM   12  C   UNL     1      -8.678   7.451  71.373  1.00  0.00    -0.125 A  
HETATM   13  N   UNL     1      -8.429   6.847  70.168  1.00  0.00    -0.138 NA 
ENDROOT
BRANCH  13  14
HETATM   14  C1* UNL     1      -8.978   7.204  68.871  1.00  0.00    -0.129 C  
HETATM   15  O4* UNL     1      -7.938   7.803  68.057  1.00  0.00    -0.118 OA 
HETATM   16  C4* UNL     1      -8.032   9.239  68.174  1.00  0.00    -0.099 C  
HETATM   17  H2* UNL     1     -11.724   8.945  69.809  1.00  0.00     0.000 HD 
HETATM   18  C3* UNL     1      -9.507   9.544  68.388  1.00  0.00    -0.137 C  
HETATM   19  C2* UNL     1     -10.145   8.205  68.757  1.00  0.00    -0.199 C  
HETATM   20  O3* UNL     1     -10.116  10.027  67.187  1.00  0.00    -0.191 OA 
HETATM   21  H3* UNL     1     -11.037  10.218  67.321  1.00  0.00     0.000 HD 
HETATM   22  O2* UNL     1     -11.004   8.328  69.879  1.00  0.00    -0.239 OA 
BRANCH  16  23
HETATM   23  C5* UNL     1      -7.174   9.748  69.342  1.00  0.00    -0.076 C  
HETATM   24  O5* UNL     1      -7.700  10.971  69.843  1.00  0.00    -0.337 OA 
HETATM   25  H5* UNL     1      -7.170  11.285  70.565  1.00  0.00     0.000 HD 
ENDBRANCH  16  23
ENDBRANCH  13  14
TORSDOF 2
ENDMDL
MODEL      220
REMARK 921   NORMALIZED FREE ENERGY PREDICTED BY IDOCK:   -2.50 KCAL/MOL
REMARK 922        TOTAL FREE ENERGY PREDICTED BY IDOCK:   -2.22 KCAL/MOL
REMARK 923 INTER-LIGAND FREE ENERGY PREDICTED BY IDOCK:   -2.29 KCAL/MOL
REMARK 924 INTRA-LIGAND FREE ENERGY PREDICTED BY IDOCK:    0.07 KCAL/MOL
REMARK 927      BINDING AFFINITY PREDICTED BY RF-SCORE:    0.00 PKD
ROOT
HETATM    1  N   UNL     1      -7.696   6.181  74.417  1.00  0.00    -0.096 NA 
HETATM    2  C   UNL     1      -8.371   6.613  73.287  1.00  0.00    -0.119 A  
HETATM    3  H2  UNL     1      -7.469   5.192  74.310  1.00  0.00     0.000 HD 
HETATM    4  H1  UNL     1      -6.856   6.684  74.705  1.00  0.00     0.000 HD 
HETATM    5  N   UNL     1      -9.480   5.947  72.906  1.00  0.00    -0.151 NA 
HETATM    6  C   UNL     1     -10.106   6.336  71.777  1.00  0.00    -0.186 A  
HETATM    7  N   UNL     1      -9.749   7.327  70.933  1.00  0.00    -0.171 NA 
HETATM    8  F   UNL     1     -11.207   5.645  71.441  1.00  0.00    -0.322 F  
HETATM    9  C   UNL     1      -8.660   7.983  71.370  1.00  0.00    -0.132 A  
HETATM   10  C   UNL     1      -7.947   7.713  72.524  1.00  0.00    -0.108 A  
HETATM   11  N   UNL     1      -6.928   8.619  72.690  1.00  0.00    -0.281 NA 
HETATM   12  C   UNL     1      -7.016   9.421  71.649  1.00  0.00     0.267 A  
HETATM   13  N   UNL     1      -7.982   9.019  70.762  1.00  0.00    -0.134 NA 
ENDROOT
BRANCH  13  14
HETATM   14  C1* UNL     1      -8.307   9.617  69.478  1.00  0.00    -0.152 C  
HETATM   15  O4* UNL     1      -8.776   8.587  68.573  1.00  0.00    -0.137 OA 
HETATM   16  C4* UNL     1      -7.666   8.145  67.764  1.00  0.00    -0.110 C  
HETATM   17  H2* UNL     1      -5.475  11.366  68.865  1.00  0.00     0.000 HD 
HETATM   18  C3* UNL     1      -6.761   9.356  67.600  1.00  0.00    -0.068 C  
HETATM   19  C2* UNL     1      -7.231  10.355  68.658  1.00  0.00    -0.082 C  
HETATM   20  O3* UNL     1      -6.918   9.949  66.307  1.00  0.00    -0.093 OA 
HETATM   21  H3* UNL     1      -6.352  10.706  66.205  1.00  0.00     0.000 HD 
HETATM   22  O2* UNL     1      -6.138  10.911  69.372  1.00  0.00    -0.047 OA 
BRANCH  16  23
HETATM   23  C5* UNL     1      -6.931   6.977  68.439  1.00  0.00    -0.076 C  
HETATM   24  O5* UNL     1      -7.859   5.979  68.845  1.00  0.00    -0.093 OA 
HETATM   25  H5* UNL     1      -7.405   5.257  69.262  1.00  0.00     0.000 HD 
ENDBRANCH  16  23
ENDBRANCH  13  14
TORSDOF 2
ENDMDL
MODEL      221
REMARK 921   NORMALIZED FREE ENERGY PREDICTED BY IDOCK:   -2.47 KCAL/MOL
REMARK 922        TOTAL FREE ENERGY PREDICTED BY IDOCK:   -2.18 KCAL/MOL
REMARK 923 INTER-LIGAND FREE ENERGY PREDICTED BY IDOCK:   -3.70 KCAL/MOL
REMARK 924 INTRA-LIGAND FREE ENERGY PREDICTED BY IDOCK:    1.52 KCAL/MOL
REMARK 927      BINDING AFFINITY PREDICTED BY RF-SCORE:    0.00 PKD
ROOT
HETATM    1  N   UNL     1     -13.061   7.211  72.260  1.00  0.00    -0.510 NA 
HETATM    2  C   UNL     1     -12.070   6.627  71.487  1.00  0.00    -0.355 A  
HETATM    3  H2  UNL     1     -13.971   6.882  71.935  1.00  0.00     0.000 HD 
HETATM    4  H1  UNL     1     -13.013   7.105  73.274  1.00  0.00     0.000 HD 
HETATM    5  N   UNL     1     -12.134   6.766  70.147  1.00  0.00    -0.207 NA 
HETATM    6  C   UNL     1     -11.198   6.153  69.394  1.00  0.00    -0.396 A  
HETATM    7  N   UNL     1     -10.178   5.375  69.813  1.00  0.00    -0.254 NA 
HETATM    8  F   UNL     1     -11.301   6.324  68.066  1.00  0.00    -0.387 F  
HETATM    9  C   UNL     1     -10.135   5.294  71.154  1.00  0.00    -0.217 A  
HETATM   10  C   UNL     1     -11.006   5.898  72.042  1.00  0.00    -0.266 A  
HETATM   11  N   UNL     1     -10.628   5.650  73.339  1.00  0.00    -0.240 NA 
HETATM   12  C   UNL     1      -9.551   4.898  73.240  1.00  0.00    -0.129 A  
HETATM   13  N   UNL     1      -9.268   4.564  71.941  1.00  0.00    -0.133 NA 
ENDROOT
BRANCH  13  14
HETATM   14  C1* UNL     1      -8.204   3.696  71.464  1.00  0.00    -0.068 C  
HETATM   15  O4* UNL     1      -6.935   4.388  71.573  1.00  0.00    -0.036 OA 
HETATM   16  C4* UNL     1      -6.627   4.989  70.297  1.00  0.00    -0.035 C  
HETATM   17  H2* UNL     1      -9.461   2.750  68.468  1.00  0.00     0.000 HD 
HETATM   18  C3* UNL     1      -7.241   4.076  69.247  1.00  0.00    -0.050 C  
HETATM   19  C2* UNL     1      -8.205   3.171  70.015  1.00  0.00    -0.044 C  
HETATM   20  O3* UNL     1      -6.244   3.260  68.624  1.00  0.00    -0.027 OA 
HETATM   21  H3* UNL     1      -6.628   2.689  67.967  1.00  0.00     0.000 HD 
HETATM   22  O2* UNL     1      -9.461   3.074  69.361  1.00  0.00    -0.161 OA 
BRANCH  16  23
HETATM   23  C5* UNL     1      -7.201   6.412  70.213  1.00  0.00    -0.080 C  
HETATM   24  O5* UNL     1      -7.800   6.627  68.941  1.00  0.00    -0.107 OA 
HETATM   25  H5* UNL     1      -8.155   7.506  68.889  1.00  0.00     0.000 HD 
ENDBRANCH  16  23
ENDBRANCH  13  14
TORSDOF 2
ENDMDL
MODEL      222
REMARK 921   NORMALIZED FREE ENERGY PREDICTED BY IDOCK:   -2.34 KCAL/MOL
REMARK 922        TOTAL FREE ENERGY PREDICTED BY IDOCK:   -2.04 KCAL/MOL
REMARK 923 INTER-LIGAND FREE ENERGY PREDICTED BY IDOCK:   -3.88 KCAL/MOL
REMARK 924 INTRA-LIGAND FREE ENERGY PREDICTED BY IDOCK:    1.84 KCAL/MOL
REMARK 927      BINDING AFFINITY PREDICTED BY RF-SCORE:    0.00 PKD
ROOT
HETATM    1  N   UNL     1     -11.730   6.642  69.930  1.00  0.00    -0.635 NA 
HETATM    2  C   UNL     1     -10.920   6.915  68.840  1.00  0.00    -0.168 A  
HETATM    3  H2  UNL     1     -11.492   5.722  70.298  1.00  0.00     0.000 HD 
HETATM    4  H1  UNL     1     -11.752   7.311  70.700  1.00  0.00     0.000 HD 
HETATM    5  N   UNL     1     -10.891   6.031  67.822  1.00  0.00    -0.298 NA 
HETATM    6  C   UNL     1     -10.063   6.271  66.786  1.00  0.00    -0.180 A  
HETATM    7  N   UNL     1      -9.211   7.307  66.631  1.00  0.00    -0.152 NA 
HETATM    8  F   UNL     1     -10.073   5.365  65.796  1.00  0.00    -0.162 F  
HETATM    9  C   UNL     1      -9.300   8.179  67.651  1.00  0.00    -0.140 A  
HETATM   10  C   UNL     1     -10.129   8.072  68.753  1.00  0.00    -0.195 A  
HETATM   11  N   UNL     1     -10.001   9.172  69.566  1.00  0.00    -0.182 NA 
HETATM   12  C   UNL     1      -9.101   9.928  68.973  1.00  0.00    -0.164 A  
HETATM   13  N   UNL     1      -8.565   9.327  67.863  1.00  0.00    -0.121 NA 
ENDROOT
BRANCH  13  14
HETATM   14  C1* UNL     1      -7.504   9.834  67.009  1.00  0.00    -0.091 C  
HETATM   15  O4* UNL     1      -8.009  10.941  66.221  1.00  0.00    -0.155 OA 
HETATM   16  C4* UNL     1      -8.418  10.438  64.931  1.00  0.00    -0.175 C  
HETATM   17  H2* UNL     1      -6.436   6.966  65.565  1.00  0.00     0.000 HD 
HETATM   18  C3* UNL     1      -7.497   9.266  64.629  1.00  0.00    -0.102 C  
HETATM   19  C2* UNL     1      -6.832   8.923  65.963  1.00  0.00    -0.076 C  
HETATM   20  O3* UNL     1      -6.481   9.634  63.691  1.00  0.00    -0.100 OA 
HETATM   21  H3* UNL     1      -5.905   8.901  63.502  1.00  0.00     0.000 HD 
HETATM   22  O2* UNL     1      -6.850   7.527  66.211  1.00  0.00    -0.058 OA 
BRANCH  16  23
HETATM   23  C5* UNL     1      -9.892  10.006  64.957  1.00  0.00    -0.304 C  
HETATM   24  O5* UNL     1     -10.527  10.351  63.732  1.00  0.00    -0.422 OA 
HETATM   25  H5* UNL     1     -11.438  10.084  63.747  1.00  0.00     0.000 HD 
ENDBRANCH  16  23
ENDBRANCH  13  14
TORSDOF 2
ENDMDL
MODEL      223
REMARK 921   NORMALIZED FREE ENERGY PREDICTED BY IDOCK:   -2.23 KCAL/MOL
REMARK 922        TOTAL FREE ENERGY PREDICTED BY IDOCK:   -1.92 KCAL/MOL
REMARK 923 INTER-LIGAND FREE ENERGY PREDICTED BY IDOCK:   -2.51 KCAL/MOL
REMARK 924 INTRA-LIGAND FREE ENERGY PREDICTED BY IDOCK:    0.59 KCAL/MOL
REMARK 927      BINDING AFFINITY PREDICTED BY RF-SCORE:    0.00 PKD
ROOT
HETATM    1  N   UNL     1      -6.451  11.661  69.355  1.00  0.00    -0.102 NA 
HETATM    2  C   UNL     1      -6.515  10.451  70.028  1.00  0.00    -0.126 A  
HETATM    3  H2  UNL     1      -5.478  11.966  69.314  1.00  0.00     0.000 HD 
HETATM    4  H1  UNL     1      -6.856  11.721  68.421  1.00  0.00     0.000 HD 
HETATM    5  N   UNL     1      -5.978  10.372  71.263  1.00  0.00    -0.324 NA 
HETATM    6  C   UNL     1      -5.994   9.180  71.893  1.00  0.00    -0.054 A  
HETATM    7  N   UNL     1      -6.476   8.007  71.433  1.00  0.00    -0.038 NA 
HETATM    8  F   UNL     1      -5.452   9.152  73.121  1.00  0.00    -0.092 F  
HETATM    9  C   UNL     1      -7.031   8.142  70.216  1.00  0.00    -0.040 A  
HETATM   10  C   UNL     1      -7.114   9.307  69.476  1.00  0.00    -0.060 A  
HETATM   11  N   UNL     1      -7.798   9.092  68.304  1.00  0.00    -0.101 NA 
HETATM   12  C   UNL     1      -8.116   7.814  68.328  1.00  0.00    -0.124 A  
HETATM   13  N   UNL     1      -7.586   7.166  69.414  1.00  0.00    -0.096 NA 
ENDROOT
BRANCH  13  14
HETATM   14  C1* UNL     1      -7.671   5.749  69.725  1.00  0.00    -0.084 C  
HETATM   15  O4* UNL     1      -7.999   5.011  68.521  1.00  0.00    -0.085 OA 
HETATM   16  C4* UNL     1      -9.426   4.798  68.486  1.00  0.00    -0.145 C  
HETATM   17  H2* UNL     1      -9.754   5.815  72.391  1.00  0.00     0.000 HD 
HETATM   18  C3* UNL     1      -9.867   4.691  69.938  1.00  0.00    -0.226 C  
HETATM   19  C2* UNL     1      -8.691   5.228  70.756  1.00  0.00    -0.131 C  
HETATM   20  O3* UNL     1     -10.099   3.329  70.310  1.00  0.00     0.163 OA 
HETATM   21  H3* UNL     1     -10.375   3.262  71.217  1.00  0.00     0.000 HD 
HETATM   22  O2* UNL     1      -9.124   6.136  71.756  1.00  0.00    -0.145 OA 
BRANCH  16  23
HETATM   23  C5* UNL     1     -10.133   5.956  67.765  1.00  0.00    -0.159 C  
HETATM   24  O5* UNL     1     -11.289   6.356  68.491  1.00  0.00    -0.540 OA 
HETATM   25  H5* UNL     1     -11.725   7.072  68.046  1.00  0.00     0.000 HD 
ENDBRANCH  16  23
ENDBRANCH  13  14
TORSDOF 2
ENDMDL
MODEL      224
REMARK 921   NORMALIZED FREE ENERGY PREDICTED BY IDOCK:   -2.13 KCAL/MOL
REMARK 922        TOTAL FREE ENERGY PREDICTED BY IDOCK:   -1.80 KCAL/MOL
REMARK 923 INTER-LIGAND FREE ENERGY PREDICTED BY IDOCK:   -2.67 KCAL/MOL
REMARK 924 INTRA-LIGAND FREE ENERGY PREDICTED BY IDOCK:    0.88 KCAL/MOL
REMARK 927      BINDING AFFINITY PREDICTED BY RF-SCORE:    0.00 PKD
ROOT
HETATM    1  N   UNL     1      -5.150  11.831  73.064  1.00  0.00    -0.226 NA 
HETATM    2  C   UNL     1      -5.657  11.681  71.783  1.00  0.00     0.566 A  
HETATM    3  H2  UNL     1      -4.326  11.238  73.165  1.00  0.00     0.000 HD 
HETATM    4  H1  UNL     1      -4.924  12.771  73.391  1.00  0.00     0.000 HD 
HETATM    5  N   UNL     1      -5.955  10.439  71.350  1.00  0.00    -0.315 NA 
HETATM    6  C   UNL     1      -6.398  10.290  70.086  1.00  0.00    -0.117 A  
HETATM    7  N   UNL     1      -6.574  11.248  69.152  1.00  0.00    -0.079 NA 
HETATM    8  F   UNL     1      -6.685   9.035  69.702  1.00  0.00    -0.043 F  
HETATM    9  C   UNL     1      -6.299  12.471  69.638  1.00  0.00    -0.100 A  
HETATM   10  C   UNL     1      -5.872  12.768  70.920  1.00  0.00     0.026 A  
HETATM   11  N   UNL     1      -5.744  14.125  71.088  1.00  0.00    -0.208 NA 
HETATM   12  C   UNL     1      -6.079  14.643  69.924  1.00  0.00    -0.141 A  
HETATM   13  N   UNL     1      -6.322  13.681  68.977  1.00  0.00    -0.096 NA 
ENDROOT
BRANCH  13  14
HETATM   14  C1* UNL     1      -6.644  13.884  67.574  1.00  0.00    -0.086 C  
HETATM   15  O4* UNL     1      -6.484  15.286  67.243  1.00  0.00    -0.303 OA 
HETATM   16  C4* UNL     1      -7.773  15.931  67.337  1.00  0.00    -0.175 C  
HETATM   17  H2* UNL     1      -9.652  12.346  67.391  1.00  0.00     0.000 HD 
HETATM   18  C3* UNL     1      -8.798  14.871  66.962  1.00  0.00    -0.232 C  
HETATM   19  C2* UNL     1      -8.045  13.542  67.029  1.00  0.00     0.004 C  
HETATM   20  O3* UNL     1      -9.274  15.061  65.626  1.00  0.00    -0.462 OA 
HETATM   21  H3* UNL     1      -9.914  14.399  65.392  1.00  0.00     0.000 HD 
HETATM   22  O2* UNL     1      -8.789  12.556  67.728  1.00  0.00    -0.160 OA 
BRANCH  16  23
HETATM   23  C5* UNL     1      -8.010  16.469  68.756  1.00  0.00    -0.236 C  
HETATM   24  O5* UNL     1      -8.154  17.883  68.729  1.00  0.00    -0.292 OA 
HETATM   25  H5* UNL     1      -8.301  18.216  69.606  1.00  0.00     0.000 HD 
ENDBRANCH  16  23
ENDBRANCH  13  14
TORSDOF 2
ENDMDL
MODEL      225
REMARK 921   NORMALIZED FREE ENERGY PREDICTED BY IDOCK:   -2.10 KCAL/MOL
REMARK 922        TOTAL FREE ENERGY PREDICTED BY IDOCK:   -1.77 KCAL/MOL
REMARK 923 INTER-LIGAND FREE ENERGY PREDICTED BY IDOCK:   -3.77 KCAL/MOL
REMARK 924 INTRA-LIGAND FREE ENERGY PREDICTED BY IDOCK:    2.00 KCAL/MOL
REMARK 927      BINDING AFFINITY PREDICTED BY RF-SCORE:    0.00 PKD
ROOT
HETATM    1  N   UNL     1     -12.877  13.143  69.941  1.00  0.00     0.312 NA 
HETATM    2  C   UNL     1     -12.029  13.823  69.081  1.00  0.00    -0.361 A  
HETATM    3  H2  UNL     1     -12.407  12.301  70.272  1.00  0.00     0.000 HD 
HETATM    4  H1  UNL     1     -13.263  13.645  70.741  1.00  0.00     0.000 HD 
HETATM    5  N   UNL     1     -11.519  13.160  68.022  1.00  0.00    -0.290 NA 
HETATM    6  C   UNL     1     -10.653  13.807  67.217  1.00  0.00    -0.275 A  
HETATM    7  N   UNL     1     -10.194  15.070  67.340  1.00  0.00    -0.234 NA 
HETATM    8  F   UNL     1     -10.176  13.107  66.176  1.00  0.00    -0.264 F  
HETATM    9  C   UNL     1     -10.755  15.702  68.386  1.00  0.00    -0.271 A  
HETATM   10  C   UNL     1     -11.680  15.170  69.267  1.00  0.00    -0.329 A  
HETATM   11  N   UNL     1     -12.083  16.115  70.179  1.00  0.00    -0.116 NA 
HETATM   12  C   UNL     1     -11.405  17.200  69.863  1.00  0.00     0.950 A  
HETATM   13  N   UNL     1     -10.508  16.977  68.850  1.00  0.00    -0.336 NA 
ENDROOT
BRANCH  13  14
HETATM   14  C1* UNL     1      -9.550  17.919  68.295  1.00  0.00    -0.312 C  
HETATM   15  O4* UNL     1     -10.215  18.760  67.319  1.00  0.00    -0.347 OA 
HETATM   16  C4* UNL     1      -9.995  18.201  66.005  1.00  0.00    -0.215 C  
HETATM   17  H2* UNL     1      -7.041  15.823  67.422  1.00  0.00     0.000 HD 
HETATM   18  C3* UNL     1      -8.632  17.528  66.061  1.00  0.00    -0.045 C  
HETATM   19  C2* UNL     1      -8.297  17.421  67.549  1.00  0.00    -0.206 C  
HETATM   20  O3* UNL     1      -7.633  18.330  65.423  1.00  0.00    -0.434 OA 
HETATM   21  H3* UNL     1      -6.781  17.909  65.457  1.00  0.00     0.000 HD 
HETATM   22  O2* UNL     1      -7.814  16.129  67.882  1.00  0.00    -0.137 OA 
BRANCH  16  23
HETATM   23  C5* UNL     1     -11.105  17.201  65.647  1.00  0.00     0.262 C  
HETATM   24  O5* UNL     1     -11.293  17.159  64.238  1.00  0.00    -1.126 OA 
HETATM   25  H5* UNL     1     -11.978  16.540  64.016  1.00  0.00     0.000 HD 
ENDBRANCH  16  23
ENDBRANCH  13  14
TORSDOF 2
ENDMDL
MODEL      226
REMARK 921   NORMALIZED FREE ENERGY PREDICTED BY IDOCK:   -1.86 KCAL/MOL
REMARK 922        TOTAL FREE ENERGY PREDICTED BY IDOCK:   -1.50 KCAL/MOL
REMARK 923 INTER-LIGAND FREE ENERGY PREDICTED BY IDOCK:   -3.35 KCAL/MOL
REMARK 924 INTRA-LIGAND FREE ENERGY PREDICTED BY IDOCK:    1.85 KCAL/MOL
REMARK 927      BINDING AFFINITY PREDICTED BY RF-SCORE:    0.00 PKD
ROOT
HETATM    1  N   UNL     1     -13.249   8.193  72.413  1.00  0.00    -0.557 NA 
HETATM    2  C   UNL     1     -12.051   7.878  71.793  1.00  0.00    -0.303 A  
HETATM    3  H2  UNL     1     -13.962   8.342  71.699  1.00  0.00     0.000 HD 
HETATM    4  H1  UNL     1     -13.615   7.553  73.118  1.00  0.00     0.000 HD 
HETATM    5  N   UNL     1     -11.567   8.723  70.859  1.00  0.00    -0.282 NA 
HETATM    6  C   UNL     1     -10.429   8.388  70.219  1.00  0.00    -0.218 A  
HETATM    7  N   UNL     1      -9.688   7.271  70.378  1.00  0.00    -0.173 NA 
HETATM    8  F   UNL     1      -9.985   9.263  69.302  1.00  0.00    -0.163 F  
HETATM    9  C   UNL     1     -10.188   6.477  71.340  1.00  0.00    -0.197 A  
HETATM   10  C   UNL     1     -11.323   6.716  72.095  1.00  0.00    -0.274 A  
HETATM   11  N   UNL     1     -11.505   5.724  73.027  1.00  0.00    -0.212 NA 
HETATM   12  C   UNL     1     -10.504   4.890  72.834  1.00  0.00    -0.204 A  
HETATM   13  N   UNL     1      -9.734   5.242  71.755  1.00  0.00    -0.154 NA 
ENDROOT
BRANCH  13  14
HETATM   14  C1* UNL     1      -8.597   4.521  71.207  1.00  0.00    -0.111 C  
HETATM   15  O4* UNL     1      -7.456   4.684  72.087  1.00  0.00    -0.077 OA 
HETATM   16  C4* UNL     1      -6.643   5.769  71.591  1.00  0.00    -0.054 C  
HETATM   17  H2* UNL     1      -8.576   5.697  68.034  1.00  0.00     0.000 HD 
HETATM   18  C3* UNL     1      -6.813   5.760  70.079  1.00  0.00    -0.060 C  
HETATM   19  C2* UNL     1      -8.033   4.876  69.817  1.00  0.00    -0.070 C  
HETATM   20  O3* UNL     1      -5.677   5.176  69.434  1.00  0.00    -0.014 OA 
HETATM   21  H3* UNL     1      -5.784   5.170  68.489  1.00  0.00     0.000 HD 
HETATM   22  O2* UNL     1      -8.924   5.478  68.891  1.00  0.00    -0.113 OA 
BRANCH  16  23
HETATM   23  C5* UNL     1      -7.089   7.107  72.201  1.00  0.00    -0.068 C  
HETATM   24  O5* UNL     1      -5.993   7.742  72.848  1.00  0.00    -0.047 OA 
HETATM   25  H5* UNL     1      -6.269   8.569  73.225  1.00  0.00     0.000 HD 
ENDBRANCH  16  23
ENDBRANCH  13  14
TORSDOF 2
ENDMDL
MODEL      227
REMARK 921   NORMALIZED FREE ENERGY PREDICTED BY IDOCK:   -1.68 KCAL/MOL
REMARK 922        TOTAL FREE ENERGY PREDICTED BY IDOCK:   -1.30 KCAL/MOL
REMARK 923 INTER-LIGAND FREE ENERGY PREDICTED BY IDOCK:   -3.15 KCAL/MOL
REMARK 924 INTRA-LIGAND FREE ENERGY PREDICTED BY IDOCK:    1.85 KCAL/MOL
REMARK 927      BINDING AFFINITY PREDICTED BY RF-SCORE:    0.00 PKD
ROOT
HETATM    1  N   UNL     1      -6.241   8.739  68.918  1.00  0.00    -0.044 NA 
HETATM    2  C   UNL     1      -7.416   8.167  69.376  1.00  0.00    -0.091 A  
HETATM    3  H2  UNL     1      -6.470   9.503  68.282  1.00  0.00     0.000 HD 
HETATM    4  H1  UNL     1      -5.562   9.071  69.604  1.00  0.00     0.000 HD 
HETATM    5  N   UNL     1      -8.314   7.728  68.469  1.00  0.00    -0.128 NA 
HETATM    6  C   UNL     1      -9.480   7.220  68.915  1.00  0.00    -0.143 A  
HETATM    7  N   UNL     1      -9.896   7.102  70.194  1.00  0.00    -0.179 NA 
HETATM    8  F   UNL     1     -10.339   6.793  67.976  1.00  0.00    -0.155 F  
HETATM    9  C   UNL     1      -8.957   7.519  71.061  1.00  0.00    -0.147 A  
HETATM   10  C   UNL     1      -7.711   8.026  70.741  1.00  0.00    -0.082 A  
HETATM   11  N   UNL     1      -6.989   8.296  71.878  1.00  0.00    -0.079 NA 
HETATM   12  C   UNL     1      -7.788   7.967  72.872  1.00  0.00    -0.142 A  
HETATM   13  N   UNL     1      -9.032   7.590  72.437  1.00  0.00    -0.130 NA 
ENDROOT
BRANCH  13  14
HETATM   14  C1* UNL     1     -10.182   7.232  73.251  1.00  0.00    -0.319 C  
HETATM   15  O4* UNL     1      -9.967   5.924  73.839  1.00  0.00    -0.176 OA 
HETATM   16  C4* UNL     1     -10.607   4.934  73.006  1.00  0.00    -0.223 C  
HETATM   17  H2* UNL     1     -12.701   7.803  71.064  1.00  0.00     0.000 HD 
HETATM   18  C3* UNL     1     -11.815   5.625  72.390  1.00  0.00    -0.119 C  
HETATM   19  C2* UNL     1     -11.586   7.118  72.624  1.00  0.00    -0.188 C  
HETATM   20  O3* UNL     1     -13.024   5.237  73.049  1.00  0.00    -0.249 OA 
HETATM   21  H3* UNL     1     -13.779   5.668  72.665  1.00  0.00     0.000 HD 
HETATM   22  O2* UNL     1     -11.836   7.874  71.450  1.00  0.00    -0.286 OA 
BRANCH  16  23
HETATM   23  C5* UNL     1      -9.640   4.421  71.928  1.00  0.00    -0.151 C  
HETATM   24  O5* UNL     1      -9.458   3.016  72.058  1.00  0.00    -0.113 OA 
HETATM   25  H5* UNL     1      -8.861   2.699  71.392  1.00  0.00     0.000 HD 
ENDBRANCH  16  23
ENDBRANCH  13  14
TORSDOF 2
ENDMDL
MODEL      228
REMARK 921   NORMALIZED FREE ENERGY PREDICTED BY IDOCK:   -1.60 KCAL/MOL
REMARK 922        TOTAL FREE ENERGY PREDICTED BY IDOCK:   -1.21 KCAL/MOL
REMARK 923 INTER-LIGAND FREE ENERGY PREDICTED BY IDOCK:   -3.21 KCAL/MOL
REMARK 924 INTRA-LIGAND FREE ENERGY PREDICTED BY IDOCK:    2.00 KCAL/MOL
REMARK 927      BINDING AFFINITY PREDICTED BY RF-SCORE:    0.00 PKD
ROOT
HETATM    1  N   UNL     1      -9.775   3.838  72.991  1.00  0.00    -0.123 NA 
HETATM    2  C   UNL     1      -9.040   4.682  72.174  1.00  0.00    -0.127 A  
HETATM    3  H2  UNL     1      -9.530   4.023  73.964  1.00  0.00     0.000 HD 
HETATM    4  H1  UNL     1     -10.791   3.836  72.900  1.00  0.00     0.000 HD 
HETATM    5  N   UNL     1      -7.696   4.685  72.294  1.00  0.00    -0.087 NA 
HETATM    6  C   UNL     1      -6.987   5.545  71.536  1.00  0.00    -0.067 A  
HETATM    7  N   UNL     1      -7.456   6.451  70.653  1.00  0.00    -0.085 NA 
HETATM    8  F   UNL     1      -5.653   5.508  71.688  1.00  0.00    -0.014 F  
HETATM    9  C   UNL     1      -8.794   6.387  70.541  1.00  0.00    -0.144 A  
HETATM   10  C   UNL     1      -9.636   5.533  71.229  1.00  0.00    -0.155 A  
HETATM   11  N   UNL     1     -10.938   5.701  70.824  1.00  0.00    -0.233 NA 
HETATM   12  C   UNL     1     -10.888   6.650  69.912  1.00  0.00    -0.278 A  
HETATM   13  N   UNL     1      -9.629   7.176  69.776  1.00  0.00    -0.156 NA 
ENDROOT
BRANCH  13  14
HETATM   14  C1* UNL     1      -9.219   8.277  68.921  1.00  0.00    -0.147 C  
HETATM   15  O4* UNL     1     -10.173   8.428  67.841  1.00  0.00    -0.196 OA 
HETATM   16  C4* UNL     1      -9.675   7.721  66.685  1.00  0.00    -0.222 C  
HETATM   17  H2* UNL     1      -5.989   7.452  68.338  1.00  0.00     0.000 HD 
HETATM   18  C3* UNL     1      -8.158   7.803  66.768  1.00  0.00    -0.115 C  
HETATM   19  C2* UNL     1      -7.858   8.250  68.199  1.00  0.00    -0.118 C  
HETATM   20  O3* UNL     1      -7.643   8.784  65.863  1.00  0.00    -0.087 OA 
HETATM   21  H3* UNL     1      -6.695   8.835  65.914  1.00  0.00     0.000 HD 
HETATM   22  O2* UNL     1      -6.828   7.469  68.783  1.00  0.00    -0.061 OA 
BRANCH  16  23
HETATM   23  C5* UNL     1     -10.163   6.264  66.685  1.00  0.00    -0.164 C  
HETATM   24  O5* UNL     1     -11.579   6.220  66.808  1.00  0.00    -0.629 OA 
HETATM   25  H5* UNL     1     -11.881   5.319  66.807  1.00  0.00     0.000 HD 
ENDBRANCH  16  23
ENDBRANCH  13  14
TORSDOF 2
ENDMDL
MODEL      229
REMARK 921   NORMALIZED FREE ENERGY PREDICTED BY IDOCK:   -1.46 KCAL/MOL
REMARK 922        TOTAL FREE ENERGY PREDICTED BY IDOCK:   -1.06 KCAL/MOL
REMARK 923 INTER-LIGAND FREE ENERGY PREDICTED BY IDOCK:   -2.67 KCAL/MOL
REMARK 924 INTRA-LIGAND FREE ENERGY PREDICTED BY IDOCK:    1.61 KCAL/MOL
REMARK 927      BINDING AFFINITY PREDICTED BY RF-SCORE:    0.00 PKD
ROOT
HETATM    1  N   UNL     1     -10.688   5.438  71.564  1.00  0.00    -0.223 NA 
HETATM    2  C   UNL     1     -10.323   5.589  70.236  1.00  0.00    -0.279 A  
HETATM    3  H2  UNL     1     -11.570   4.929  71.610  1.00  0.00     0.000 HD 
HETATM    4  H1  UNL     1     -10.022   5.007  72.206  1.00  0.00     0.000 HD 
HETATM    5  N   UNL     1     -11.204   6.160  69.388  1.00  0.00    -0.415 NA 
HETATM    6  C   UNL     1     -10.869   6.257  68.086  1.00  0.00    -0.320 A  
HETATM    7  N   UNL     1      -9.737   5.829  67.488  1.00  0.00    -0.114 NA 
HETATM    8  F   UNL     1     -11.776   6.836  67.282  1.00  0.00    -0.245 F  
HETATM    9  C   UNL     1      -8.877   5.301  68.376  1.00  0.00    -0.101 A  
HETATM   10  C   UNL     1      -9.078   5.172  69.739  1.00  0.00    -0.116 A  
HETATM   11  N   UNL     1      -7.967   4.643  70.347  1.00  0.00    -0.063 NA 
HETATM   12  C   UNL     1      -7.108   4.443  69.368  1.00  0.00    -0.050 A  
HETATM   13  N   UNL     1      -7.646   4.726  68.139  1.00  0.00    -0.080 NA 
ENDROOT
BRANCH  13  14
HETATM   14  C1* UNL     1      -7.017   4.556  66.839  1.00  0.00    -0.063 C  
HETATM   15  O4* UNL     1      -6.064   5.627  66.623  1.00  0.00    -0.027 OA 
HETATM   16  C4* UNL     1      -6.708   6.668  65.858  1.00  0.00    -0.048 C  
HETATM   17  H2* UNL     1      -9.741   4.175  64.868  1.00  0.00     0.000 HD 
HETATM   18  C3* UNL     1      -7.720   5.964  64.966  1.00  0.00    -0.095 C  
HETATM   19  C2* UNL     1      -7.860   4.558  65.549  1.00  0.00    -0.094 C  
HETATM   20  O3* UNL     1      -7.241   5.858  63.622  1.00  0.00    -0.052 OA 
HETATM   21  H3* UNL     1      -7.874   5.419  63.065  1.00  0.00     0.000 HD 
HETATM   22  O2* UNL     1      -9.221   4.174  65.664  1.00  0.00    -0.132 OA 
BRANCH  16  23
HETATM   23  C5* UNL     1      -7.385   7.687  66.786  1.00  0.00    -0.089 C  
HETATM   24  O5* UNL     1      -6.664   7.797  68.006  1.00  0.00    -0.060 OA 
HETATM   25  H5* UNL     1      -7.082   8.428  68.580  1.00  0.00     0.000 HD 
ENDBRANCH  16  23
ENDBRANCH  13  14
TORSDOF 2
ENDMDL
MODEL      230
REMARK 921   NORMALIZED FREE ENERGY PREDICTED BY IDOCK:   -1.33 KCAL/MOL
REMARK 922        TOTAL FREE ENERGY PREDICTED BY IDOCK:   -0.91 KCAL/MOL
REMARK 923 INTER-LIGAND FREE ENERGY PREDICTED BY IDOCK:   -2.60 KCAL/MOL
REMARK 924 INTRA-LIGAND FREE ENERGY PREDICTED BY IDOCK:    1.69 KCAL/MOL
REMARK 927      BINDING AFFINITY PREDICTED BY RF-SCORE:    0.00 PKD
ROOT
HETATM    1  N   UNL     1      -7.618   4.524  69.302  1.00  0.00    -0.055 NA 
HETATM    2  C   UNL     1      -7.811   5.362  68.216  1.00  0.00    -0.088 A  
HETATM    3  H2  UNL     1      -7.214   3.646  68.975  1.00  0.00     0.000 HD 
HETATM    4  H1  UNL     1      -7.071   4.867  70.091  1.00  0.00     0.000 HD 
HETATM    5  N   UNL     1      -8.534   4.908  67.172  1.00  0.00    -0.106 NA 
HETATM    6  C   UNL     1      -8.676   5.705  66.094  1.00  0.00    -0.136 A  
HETATM    7  N   UNL     1      -8.157   6.937  65.902  1.00  0.00    -0.112 NA 
HETATM    8  F   UNL     1      -9.407   5.211  65.083  1.00  0.00    -0.160 F  
HETATM    9  C   UNL     1      -7.475   7.361  66.980  1.00  0.00    -0.098 A  
HETATM   10  C   UNL     1      -7.284   6.663  68.158  1.00  0.00    -0.088 A  
HETATM   11  N   UNL     1      -6.589   7.423  69.067  1.00  0.00    -0.043 NA 
HETATM   12  C   UNL     1      -6.354   8.560  68.447  1.00  0.00    -0.055 A  
HETATM   13  N   UNL     1      -6.777   8.539  67.142  1.00  0.00    -0.062 NA 
ENDROOT
BRANCH  13  14
HETATM   14  C1* UNL     1      -6.618   9.585  66.145  1.00  0.00    -0.070 C  
HETATM   15  O4* UNL     1      -7.311  10.779  66.588  1.00  0.00    -0.120 OA 
HETATM   16  C4* UNL     1      -8.623  10.800  65.987  1.00  0.00    -0.178 C  
HETATM   17  H2* UNL     1      -7.546   7.928  63.345  1.00  0.00     0.000 HD 
HETATM   18  C3* UNL     1      -8.476  10.107  64.641  1.00  0.00    -0.173 C  
HETATM   19  C2* UNL     1      -7.130   9.385  64.705  1.00  0.00    -0.102 C  
HETATM   20  O3* UNL     1      -8.436  11.056  63.571  1.00  0.00    -0.371 OA 
HETATM   21  H3* UNL     1      -8.344  10.623  62.730  1.00  0.00     0.000 HD 
HETATM   22  O2* UNL     1      -7.231   8.051  64.233  1.00  0.00    -0.078 OA 
BRANCH  16  23
HETATM   23  C5* UNL     1      -9.644  10.082  66.883  1.00  0.00    -0.175 C  
HETATM   24  O5* UNL     1     -10.260   9.016  66.171  1.00  0.00    -0.326 OA 
HETATM   25  H5* UNL     1     -10.891   8.572  66.725  1.00  0.00     0.000 HD 
ENDBRANCH  16  23
ENDBRANCH  13  14
TORSDOF 2
ENDMDL
MODEL      231
REMARK 921   NORMALIZED FREE ENERGY PREDICTED BY IDOCK:   -0.94 KCAL/MOL
REMARK 922        TOTAL FREE ENERGY PREDICTED BY IDOCK:   -0.48 KCAL/MOL
REMARK 923 INTER-LIGAND FREE ENERGY PREDICTED BY IDOCK:   -2.05 KCAL/MOL
REMARK 924 INTRA-LIGAND FREE ENERGY PREDICTED BY IDOCK:    1.57 KCAL/MOL
REMARK 927      BINDING AFFINITY PREDICTED BY RF-SCORE:    0.00 PKD
ROOT
HETATM    1  N   UNL     1     -10.522   5.882  70.009  1.00  0.00    -0.240 NA 
HETATM    2  C   UNL     1      -9.975   6.581  68.946  1.00  0.00    -0.151 A  
HETATM    3  H2  UNL     1     -11.313   5.333  69.672  1.00  0.00     0.000 HD 
HETATM    4  H1  UNL     1      -9.912   5.280  70.562  1.00  0.00     0.000 HD 
HETATM    5  N   UNL     1     -10.782   7.378  68.215  1.00  0.00    -0.146 NA 
HETATM    6  C   UNL     1     -10.259   8.016  67.149  1.00  0.00    -0.292 A  
HETATM    7  N   UNL     1      -8.994   7.950  66.684  1.00  0.00    -0.143 NA 
HETATM    8  F   UNL     1     -11.101   8.800  66.456  1.00  0.00    -0.045 F  
HETATM    9  C   UNL     1      -8.219   7.175  67.462  1.00  0.00    -0.117 A  
HETATM   10  C   UNL     1      -8.617   6.494  68.599  1.00  0.00    -0.124 A  
HETATM   11  N   UNL     1      -7.552   5.848  69.177  1.00  0.00    -0.088 NA 
HETATM   12  C   UNL     1      -6.526   6.124  68.398  1.00  0.00    -0.053 A  
HETATM   13  N   UNL     1      -6.894   6.837  67.286  1.00  0.00    -0.070 NA 
ENDROOT
BRANCH  13  14
HETATM   14  C1* UNL     1      -6.044   7.252  66.182  1.00  0.00    -0.037 C  
HETATM   15  O4* UNL     1      -5.149   8.300  66.632  1.00  0.00    -0.027 OA 
HETATM   16  C4* UNL     1      -5.729   9.578  66.292  1.00  0.00    -0.053 C  
HETATM   17  H2* UNL     1      -8.362   7.805  63.780  1.00  0.00     0.000 HD 
HETATM   18  C3* UNL     1      -6.523   9.349  65.015  1.00  0.00    -0.076 C  
HETATM   19  C2* UNL     1      -6.656   7.830  64.891  1.00  0.00    -0.047 C  
HETATM   20  O3* UNL     1      -5.818   9.841  63.871  1.00  0.00    -0.094 OA 
HETATM   21  H3* UNL     1      -6.314   9.699  63.073  1.00  0.00     0.000 HD 
HETATM   22  O2* UNL     1      -7.986   7.448  64.576  1.00  0.00    -0.134 OA 
BRANCH  16  23
HETATM   23  C5* UNL     1      -6.625  10.089  67.430  1.00  0.00    -0.069 C  
HETATM   24  O5* UNL     1      -6.158   9.601  68.681  1.00  0.00    -0.043 OA 
HETATM   25  H5* UNL     1      -6.712   9.918  69.385  1.00  0.00     0.000 HD 
ENDBRANCH  16  23
ENDBRANCH  13  14
TORSDOF 2
ENDMDL
MODEL      232
REMARK 921   NORMALIZED FREE ENERGY PREDICTED BY IDOCK:   -0.47 KCAL/MOL
REMARK 922        TOTAL FREE ENERGY PREDICTED BY IDOCK:    0.05 KCAL/MOL
REMARK 923 INTER-LIGAND FREE ENERGY PREDICTED BY IDOCK:   -1.95 KCAL/MOL
REMARK 924 INTRA-LIGAND FREE ENERGY PREDICTED BY IDOCK:    2.01 KCAL/MOL
REMARK 927      BINDING AFFINITY PREDICTED BY RF-SCORE:    0.00 PKD
ROOT
HETATM    1  N   UNL     1      -6.051   8.723  68.911  1.00  0.00    -0.044 NA 
HETATM    2  C   UNL     1      -6.961   7.773  69.348  1.00  0.00    -0.063 A  
HETATM    3  H2  UNL     1      -6.559   9.548  68.596  1.00  0.00     0.000 HD 
HETATM    4  H1  UNL     1      -5.308   9.013  69.547  1.00  0.00     0.000 HD 
HETATM    5  N   UNL     1      -7.943   7.389  68.507  1.00  0.00    -0.122 NA 
HETATM    6  C   UNL     1      -8.859   6.505  68.952  1.00  0.00    -0.126 A  
HETATM    7  N   UNL     1      -8.941   5.945  70.177  1.00  0.00    -0.140 NA 
HETATM    8  F   UNL     1      -9.814   6.150  68.078  1.00  0.00    -0.120 F  
HETATM    9  C   UNL     1      -7.924   6.329  70.967  1.00  0.00    -0.116 A  
HETATM   10  C   UNL     1      -6.902   7.198  70.627  1.00  0.00    -0.053 A  
HETATM   11  N   UNL     1      -6.003   7.319  71.658  1.00  0.00    -0.037 NA 
HETATM   12  C   UNL     1      -6.476   6.544  72.612  1.00  0.00    -0.059 A  
HETATM   13  N   UNL     1      -7.693   6.002  72.288  1.00  0.00    -0.100 NA 
ENDROOT
BRANCH  13  14
HETATM   14  C1* UNL     1      -8.537   5.162  73.121  1.00  0.00    -0.110 C  
HETATM   15  O4* UNL     1      -7.824   3.945  73.454  1.00  0.00    -0.080 OA 
HETATM   16  C4* UNL     1      -8.211   2.915  72.519  1.00  0.00    -0.067 C  
HETATM   17  H2* UNL     1     -11.380   5.111  71.286  1.00  0.00     0.000 HD 
HETATM   18  C3* UNL     1      -9.651   3.219  72.136  1.00  0.00    -0.139 C  
HETATM   19  C2* UNL     1      -9.898   4.653  72.605  1.00  0.00    -0.150 C  
HETATM   20  O3* UNL     1     -10.563   2.351  72.818  1.00  0.00    -0.156 OA 
HETATM   21  H3* UNL     1     -11.463   2.541  72.578  1.00  0.00     0.000 HD 
HETATM   22  O2* UNL     1     -10.541   5.425  71.604  1.00  0.00    -0.227 OA 
BRANCH  16  23
HETATM   23  C5* UNL     1      -7.287   2.918  71.292  1.00  0.00    -0.033 C  
HETATM   24  O5* UNL     1      -6.040   2.314  71.612  1.00  0.00    -0.013 OA 
HETATM   25  H5* UNL     1      -5.469   2.315  70.853  1.00  0.00     0.000 HD 
ENDBRANCH  16  23
ENDBRANCH  13  14
TORSDOF 2
ENDMDL
MODEL      233
REMARK 921   NORMALIZED FREE ENERGY PREDICTED BY IDOCK:    2.41 KCAL/MOL
REMARK 922        TOTAL FREE ENERGY PREDICTED BY IDOCK:    3.27 KCAL/MOL
REMARK 923 INTER-LIGAND FREE ENERGY PREDICTED BY IDOCK:    2.58 KCAL/MOL
REMARK 924 INTRA-LIGAND FREE ENERGY PREDICTED BY IDOCK:    0.69 KCAL/MOL
REMARK 927      BINDING AFFINITY PREDICTED BY RF-SCORE:    0.00 PKD
ROOT
HETATM    1  N   UNL     1      -5.923  19.402  64.495  1.00  0.00    -0.286 NA 
HETATM    2  C   UNL     1      -6.312  18.425  65.397  1.00  0.00    -0.238 A  
HETATM    3  H2  UNL     1      -5.995  19.027  63.549  1.00  0.00     0.000 HD 
HETATM    4  H1  UNL     1      -6.389  20.309  64.529  1.00  0.00     0.000 HD 
HETATM    5  N   UNL     1      -5.696  17.226  65.352  1.00  0.00     0.314 NA 
HETATM    6  C   UNL     1      -6.113  16.259  66.195  1.00  0.00     1.689 A  
HETATM    7  N   UNL     1      -7.112  16.324  67.100  1.00  0.00    -0.190 NA 
HETATM    8  F   UNL     1      -5.467  15.085  66.116  1.00  0.00     2.525 F  
HETATM    9  C   UNL     1      -7.673  17.546  67.133  1.00  0.00    -0.205 A  
HETATM   10  C   UNL     1      -7.320  18.633  66.352  1.00  0.00    -0.245 A  
HETATM   11  N   UNL     1      -8.062  19.737  66.693  1.00  0.00    -0.300 NA 
HETATM   12  C   UNL     1      -8.859  19.325  67.657  1.00  0.00    -0.299 A  
HETATM   13  N   UNL     1      -8.739  17.979  67.892  1.00  0.00    -0.252 NA 
ENDROOT
BRANCH  13  14
HETATM   14  C1* UNL     1      -9.507  17.174  68.828  1.00  0.00    -0.263 C  
HETATM   15  O4* UNL     1      -9.351  15.772  68.495  1.00  0.00    -0.188 OA 
HETATM   16  C4* UNL     1     -10.466  15.367  67.673  1.00  0.00    -0.272 C  
HETATM   17  H2* UNL     1     -12.515  18.715  68.662  1.00  0.00     0.000 HD 
HETATM   18  C3* UNL     1     -11.645  16.217  68.122  1.00  0.00    -0.133 C  
HETATM   19  C2* UNL     1     -11.034  17.348  68.949  1.00  0.00     0.143 C  
HETATM   20  O3* UNL     1     -12.535  15.468  68.956  1.00  0.00    -0.607 OA 
HETATM   21  H3* UNL     1     -13.272  15.999  69.236  1.00  0.00     0.000 HD 
HETATM   22  O2* UNL     1     -11.574  18.609  68.587  1.00  0.00     1.774 OA 
BRANCH  16  23
HETATM   23  C5* UNL     1     -10.151  15.580  66.184  1.00  0.00    -0.309 C  
HETATM   24  O5* UNL     1     -11.233  16.242  65.542  1.00  0.00    -0.079 OA 
HETATM   25  H5* UNL     1     -11.039  16.374  64.622  1.00  0.00     0.000 HD 
ENDBRANCH  16  23
ENDBRANCH  13  14
TORSDOF 2
ENDMDL
MODEL      234
REMARK 921   NORMALIZED FREE ENERGY PREDICTED BY IDOCK:    5.90 KCAL/MOL
REMARK 922        TOTAL FREE ENERGY PREDICTED BY IDOCK:    7.17 KCAL/MOL
REMARK 923 INTER-LIGAND FREE ENERGY PREDICTED BY IDOCK:    5.81 KCAL/MOL
REMARK 924 INTRA-LIGAND FREE ENERGY PREDICTED BY IDOCK:    1.36 KCAL/MOL
REMARK 927      BINDING AFFINITY PREDICTED BY RF-SCORE:    0.00 PKD
ROOT
HETATM    1  N   UNL     1      -6.609  16.912  66.666  1.00  0.00    -0.219 NA 
HETATM    2  C   UNL     1      -7.053  15.909  67.512  1.00  0.00    -0.179 A  
HETATM    3  H2  UNL     1      -5.731  17.285  67.027  1.00  0.00     0.000 HD 
HETATM    4  H1  UNL     1      -6.495  16.697  65.675  1.00  0.00     0.000 HD 
HETATM    5  N   UNL     1      -7.203  16.192  68.823  1.00  0.00    -0.158 NA 
HETATM    6  C   UNL     1      -7.583  15.201  69.654  1.00  0.00    -0.163 A  
HETATM    7  N   UNL     1      -7.827  13.910  69.345  1.00  0.00     0.259 NA 
HETATM    8  F   UNL     1      -7.723  15.533  70.947  1.00  0.00     0.861 F  
HETATM    9  C   UNL     1      -7.700  13.683  68.026  1.00  0.00    -0.143 A  
HETATM   10  C   UNL     1      -7.351  14.613  67.062  1.00  0.00     0.260 A  
HETATM   11  N   UNL     1      -7.374  14.048  65.811  1.00  0.00     4.486 NA 
HETATM   12  C   UNL     1      -7.721  12.793  66.012  1.00  0.00     1.956 A  
HETATM   13  N   UNL     1      -7.828  12.490  67.345  1.00  0.00    -0.168 NA 
ENDROOT
BRANCH  13  14
HETATM   14  C1* UNL     1      -8.120  11.195  67.936  1.00  0.00    -0.119 C  
HETATM   15  O4* UNL     1      -7.987  11.283  69.377  1.00  0.00     0.010 OA 
HETATM   16  C4* UNL     1      -6.665  10.834  69.745  1.00  0.00    -0.139 C  
HETATM   17  H2* UNL     1      -6.116   9.193  66.085  1.00  0.00     0.000 HD 
HETATM   18  C3* UNL     1      -6.281   9.782  68.715  1.00  0.00    -0.042 C  
HETATM   19  C2* UNL     1      -7.281   9.955  67.572  1.00  0.00    -0.089 C  
HETATM   20  O3* UNL     1      -6.417   8.461  69.248  1.00  0.00    -0.038 OA 
HETATM   21  H3* UNL     1      -6.176   7.804  68.605  1.00  0.00     0.000 HD 
HETATM   22  O2* UNL     1      -6.634   9.958  66.309  1.00  0.00    -0.073 OA 
BRANCH  16  23
HETATM   23  C5* UNL     1      -5.673  12.007  69.752  1.00  0.00    -0.110 C  
HETATM   24  O5* UNL     1      -5.840  12.786  70.930  1.00  0.00    -0.387 OA 
HETATM   25  H5* UNL     1      -5.226  13.510  70.935  1.00  0.00     0.000 HD 
ENDBRANCH  16  23
ENDBRANCH  13  14
TORSDOF 2
ENDMDL
MODEL      235
REMARK 921   NORMALIZED FREE ENERGY PREDICTED BY IDOCK:   19.63 KCAL/MOL
REMARK 922        TOTAL FREE ENERGY PREDICTED BY IDOCK:   22.50 KCAL/MOL
REMARK 923 INTER-LIGAND FREE ENERGY PREDICTED BY IDOCK:   14.66 KCAL/MOL
REMARK 924 INTRA-LIGAND FREE ENERGY PREDICTED BY IDOCK:    7.84 KCAL/MOL
REMARK 927      BINDING AFFINITY PREDICTED BY RF-SCORE:    0.00 PKD
ROOT
HETATM    1  N   UNL     1      -7.353  19.111  63.744  1.00  0.00     3.445 NA 
HETATM    2  C   UNL     1      -7.631  18.706  65.040  1.00  0.00     1.578 A  
HETATM    3  H2  UNL     1      -8.218  19.105  63.203  1.00  0.00     0.000 HD 
HETATM    4  H1  UNL     1      -6.881  20.004  63.604  1.00  0.00     0.000 HD 
HETATM    5  N   UNL     1      -8.256  17.525  65.225  1.00  0.00     0.892 NA 
HETATM    6  C   UNL     1      -8.573  17.158  66.483  1.00  0.00    -0.271 A  
HETATM    7  N   UNL     1      -8.357  17.845  67.625  1.00  0.00    -0.231 NA 
HETATM    8  F   UNL     1      -9.190  15.974  66.617  1.00  0.00    -0.208 F  
HETATM    9  C   UNL     1      -7.702  18.997  67.395  1.00  0.00    -0.234 A  
HETATM   10  C   UNL     1      -7.289  19.475  66.164  1.00  0.00    -0.281 A  
HETATM   11  N   UNL     1      -6.597  20.652  66.307  1.00  0.00    -0.238 NA 
HETATM   12  C   UNL     1      -6.599  20.891  67.602  1.00  0.00    -0.354 A  
HETATM   13  N   UNL     1      -7.346  19.975  68.299  1.00  0.00    -0.286 NA 
ENDROOT
BRANCH  13  14
HETATM   14  C1* UNL     1      -7.628  19.967  69.725  1.00  0.00     0.302 C  
HETATM   15  O4* UNL     1      -7.506  18.613  70.230  1.00  0.00     1.029 OA 
HETATM   16  C4* UNL     1      -8.818  18.012  70.257  1.00  0.00     3.016 C  
HETATM   17  H2* UNL     1     -10.574  21.630  69.792  1.00  0.00     0.000 HD 
HETATM   18  C3* UNL     1      -9.793  19.150  70.520  1.00  0.00     1.616 C  
HETATM   19  C2* UNL     1      -8.997  20.429  70.260  1.00  0.00     1.630 C  
HETATM   20  O3* UNL     1     -10.231  19.152  71.883  1.00  0.00     1.618 OA 
HETATM   21  H3* UNL     1     -10.840  19.862  72.047  1.00  0.00     0.000 HD 
HETATM   22  O2* UNL     1      -9.729  21.345  69.462  1.00  0.00     2.101 OA 
BRANCH  16  23
HETATM   23  C5* UNL     1      -9.121  17.306  68.926  1.00  0.00    -0.172 C  
HETATM   24  O5* UNL     1     -10.439  16.773  68.941  1.00  0.00    -0.290 OA 
HETATM   25  H5* UNL     1     -10.626  16.336  68.118  1.00  0.00     0.000 HD 
ENDBRANCH  16  23
ENDBRANCH  13  14
TORSDOF 2
ENDMDL
MODEL      236
REMARK 921   NORMALIZED FREE ENERGY PREDICTED BY IDOCK:   35.51 KCAL/MOL
REMARK 922        TOTAL FREE ENERGY PREDICTED BY IDOCK:   40.24 KCAL/MOL
REMARK 923 INTER-LIGAND FREE ENERGY PREDICTED BY IDOCK:   35.37 KCAL/MOL
REMARK 924 INTRA-LIGAND FREE ENERGY PREDICTED BY IDOCK:    4.87 KCAL/MOL
REMARK 927      BINDING AFFINITY PREDICTED BY RF-SCORE:    0.00 PKD
ROOT
HETATM    1  N   UNL     1      -5.848  13.252  67.062  1.00  0.00    -0.329 NA 
HETATM    2  C   UNL     1      -6.542  14.299  66.478  1.00  0.00     2.974 A  
HETATM    3  H2  UNL     1      -4.865  13.510  67.142  1.00  0.00     0.000 HD 
HETATM    4  H1  UNL     1      -6.171  12.894  67.961  1.00  0.00     0.000 HD 
HETATM    5  N   UNL     1      -6.115  14.772  65.290  1.00  0.00    11.457 NA 
HETATM    6  C   UNL     1      -6.759  15.826  64.749  1.00  0.00    12.188 A  
HETATM    7  N   UNL     1      -7.802  16.511  65.264  1.00  0.00     1.817 NA 
HETATM    8  F   UNL     1      -6.299  16.258  63.564  1.00  0.00    10.765 F  
HETATM    9  C   UNL     1      -8.215  15.983  66.430  1.00  0.00    -0.274 A  
HETATM   10  C   UNL     1      -7.669  14.888  67.075  1.00  0.00    -0.043 A  
HETATM   11  N   UNL     1      -8.378  14.590  68.213  1.00  0.00    -0.144 NA 
HETATM   12  C   UNL     1      -9.332  15.497  68.263  1.00  0.00    -0.192 A  
HETATM   13  N   UNL     1      -9.217  16.430  67.265  1.00  0.00    -0.213 NA 
ENDROOT
BRANCH  13  14
HETATM   14  C1* UNL     1     -10.045  17.606  67.055  1.00  0.00    -0.330 C  
HETATM   15  O4* UNL     1      -9.550  18.344  65.910  1.00  0.00    -0.499 OA 
HETATM   16  C4* UNL     1      -8.678  19.394  66.381  1.00  0.00    -0.355 C  
HETATM   17  H2* UNL     1     -10.042  18.939  70.166  1.00  0.00     0.000 HD 
HETATM   18  C3* UNL     1      -9.216  19.803  67.744  1.00  0.00    -0.338 C  
HETATM   19  C2* UNL     1     -10.175  18.684  68.150  1.00  0.00    -0.382 C  
HETATM   20  O3* UNL     1      -9.949  21.029  67.664  1.00  0.00    -0.272 OA 
HETATM   21  H3* UNL     1     -10.285  21.285  68.516  1.00  0.00     0.000 HD 
HETATM   22  O2* UNL     1      -9.961  18.275  69.491  1.00  0.00    -0.054 OA 
BRANCH  16  23
HETATM   23  C5* UNL     1      -7.227  18.896  66.473  1.00  0.00    -0.229 C  
HETATM   24  O5* UNL     1      -7.147  17.767  67.334  1.00  0.00    -0.180 OA 
HETATM   25  H5* UNL     1      -6.251  17.459  67.391  1.00  0.00     0.000 HD 
ENDBRANCH  16  23
ENDBRANCH  13  14
TORSDOF 2
ENDMDL
