MODEL        1
REMARK 921   NORMALIZED FREE ENERGY PREDICTED BY IDOCK:   -7.80 KCAL/MOL
REMARK 922        TOTAL FREE ENERGY PREDICTED BY IDOCK:   -8.02 KCAL/MOL
REMARK 923 INTER-LIGAND FREE ENERGY PREDICTED BY IDOCK:   -8.71 KCAL/MOL
REMARK 924 INTRA-LIGAND FREE ENERGY PREDICTED BY IDOCK:    0.69 KCAL/MOL
REMARK 927      BINDING AFFINITY PREDICTED BY RF-SCORE:    0.00 PKD
ROOT
HETATM    1  C   UNL     1     -11.181  13.042  67.599  1.00  0.00    -0.315 C  
HETATM    2  C   UNL     1     -10.118  13.645  68.317  1.00  0.00    -0.240 C  
HETATM    3  C   UNL     1      -9.657  12.769  67.202  1.00  0.00    -0.219 C  
HETATM    4  C   UNL     1     -11.074  12.013  65.902  1.00  0.00    -0.324 C  
HETATM    5  O   UNL     1     -12.463  12.550  65.902  1.00  0.00    -0.596 OA 
HETATM    6  C   UNL     1      -8.486   8.914  69.557  1.00  0.00    -0.128 C  
HETATM    7  C   UNL     1     -10.250  13.081  65.887  1.00  0.00    -0.298 C  
HETATM    8  C   UNL     1      -9.047  11.582  65.605  1.00  0.00    -0.136 C  
HETATM    9  C   UNL     1     -10.273  14.439  65.197  1.00  0.00    -0.420 C  
HETATM   10  C   UNL     1     -10.022   9.175  69.297  1.00  0.00    -0.187 C  
HETATM   11  C   UNL     1     -10.645   7.774  69.047  1.00  0.00    -0.179 C  
HETATM   12  H   UNL     1     -13.115  12.202  65.304  1.00  0.00     0.000 HD 
HETATM   13  C   UNL     1      -9.476  10.198  66.696  1.00  0.00    -0.170 C  
HETATM   14  C   UNL     1     -10.726   6.910  70.372  1.00  0.00    -0.278 C  
HETATM   15  O   UNL     1     -11.741   7.248  72.566  1.00  0.00    -0.270 OA 
HETATM   16  O   UNL     1     -10.383   9.366  65.945  1.00  0.00    -0.239 OA 
HETATM   17  C   UNL     1     -10.072  10.425  68.288  1.00  0.00    -0.153 C  
HETATM   18  H   UNL     1     -10.608   8.641  66.516  1.00  0.00     0.000 HD 
HETATM   19  C   UNL     1     -11.412  11.388  68.286  1.00  0.00    -0.369 C  
HETATM   20  F   UNL     1      -9.144  11.192  69.013  1.00  0.00    -0.174 F  
HETATM   21  C   UNL     1     -12.015  11.543  69.691  1.00  0.00    -0.407 C  
HETATM   22  C   UNL     1     -12.129  10.205  70.396  1.00  0.00    -0.332 C  
HETATM   23  C   UNL     1     -10.744   9.625  70.584  1.00  0.00    -0.388 C  
HETATM   24  C   UNL     1     -10.437   9.059  71.768  1.00  0.00    -0.418 C  
HETATM   25  C   UNL     1     -11.072   7.698  71.645  1.00  0.00    -0.239 C  
ENDROOT
BRANCH   4  26
HETATM   26  C   UNL     1     -11.141  11.896  64.207  1.00  0.00    -0.356 C  
HETATM   27  O   UNL     1     -10.198  11.679  63.426  1.00  0.00    -0.370 OA 
BRANCH  26  28
HETATM   28  C   UNL     1     -12.482  12.159  63.521  1.00  0.00    -0.555 C  
HETATM   29  O   UNL     1     -12.516  13.499  63.004  1.00  0.00    -0.950 OA 
HETATM   30  H   UNL     1     -13.349  13.662  62.578  1.00  0.00     0.000 HD 
ENDBRANCH  26  28
ENDBRANCH   4  26
TORSDOF 2
ENDMDL
MODEL        2
REMARK 921   NORMALIZED FREE ENERGY PREDICTED BY IDOCK:   -7.78 KCAL/MOL
REMARK 922        TOTAL FREE ENERGY PREDICTED BY IDOCK:   -7.99 KCAL/MOL
REMARK 923 INTER-LIGAND FREE ENERGY PREDICTED BY IDOCK:   -8.57 KCAL/MOL
REMARK 924 INTRA-LIGAND FREE ENERGY PREDICTED BY IDOCK:    0.58 KCAL/MOL
REMARK 927      BINDING AFFINITY PREDICTED BY RF-SCORE:    0.00 PKD
ROOT
HETATM    1  C   UNL     1     -11.410  15.554  66.320  1.00  0.00    -0.004 C  
HETATM    2  C   UNL     1     -10.918  15.842  65.023  1.00  0.00    -0.431 C  
HETATM    3  C   UNL     1     -10.319  14.617  65.626  1.00  0.00    -0.370 C  
HETATM    4  C   UNL     1     -11.104  13.916  67.404  1.00  0.00    -0.298 C  
HETATM    5  O   UNL     1     -12.401  14.440  67.916  1.00  0.00    -0.615 OA 
HETATM    6  C   UNL     1      -6.214  16.289  67.085  1.00  0.00    -0.176 C  
HETATM    7  C   UNL     1     -11.298  13.621  66.101  1.00  0.00    -0.324 C  
HETATM    8  C   UNL     1      -9.540  12.883  66.472  1.00  0.00    -0.259 C  
HETATM    9  C   UNL     1     -12.446  13.018  65.301  1.00  0.00    -0.555 C  
HETATM   10  C   UNL     1      -7.490  16.620  67.955  1.00  0.00    -0.169 C  
HETATM   11  C   UNL     1      -7.006  16.588  69.431  1.00  0.00    -0.202 C  
HETATM   12  H   UNL     1     -12.762  14.118  68.733  1.00  0.00     0.000 HD 
HETATM   13  C   UNL     1      -8.563  14.025  67.488  1.00  0.00    -0.192 C  
HETATM   14  C   UNL     1      -6.091  17.830  69.789  1.00  0.00    -0.213 C  
HETATM   15  O   UNL     1      -6.385  20.250  69.674  1.00  0.00    -0.328 OA 
HETATM   16  O   UNL     1      -8.803  13.644  68.858  1.00  0.00    -0.374 OA 
HETATM   17  C   UNL     1      -8.670  15.729  67.326  1.00  0.00    -0.191 C  
HETATM   18  H   UNL     1      -8.291  14.242  69.390  1.00  0.00     0.000 HD 
HETATM   19  C   UNL     1     -10.228  16.242  67.500  1.00  0.00    -0.270 C  
HETATM   20  F   UNL     1      -8.378  16.077  65.997  1.00  0.00    -0.342 F  
HETATM   21  C   UNL     1     -10.343  17.773  67.441  1.00  0.00    -0.370 C  
HETATM   22  C   UNL     1      -9.296  18.442  68.312  1.00  0.00    -0.342 C  
HETATM   23  C   UNL     1      -7.920  18.093  67.787  1.00  0.00    -0.238 C  
HETATM   24  C   UNL     1      -6.992  19.067  67.712  1.00  0.00    -0.235 C  
HETATM   25  C   UNL     1      -6.509  19.158  69.137  1.00  0.00    -0.288 C  
ENDROOT
BRANCH   4  26
HETATM   26  C   UNL     1     -11.544  12.363  67.939  1.00  0.00    -0.356 C  
HETATM   27  O   UNL     1     -11.798  11.366  67.241  1.00  0.00    -0.594 OA 
BRANCH  26  28
HETATM   28  C   UNL     1     -11.736  12.149  69.441  1.00  0.00    -0.329 C  
HETATM   29  O   UNL     1     -11.352  13.332  70.160  1.00  0.00    -0.502 OA 
HETATM   30  H   UNL     1     -11.471  13.199  71.093  1.00  0.00     0.000 HD 
ENDBRANCH  26  28
ENDBRANCH   4  26
TORSDOF 2
ENDMDL
MODEL        3
REMARK 921   NORMALIZED FREE ENERGY PREDICTED BY IDOCK:   -7.52 KCAL/MOL
REMARK 922        TOTAL FREE ENERGY PREDICTED BY IDOCK:   -7.70 KCAL/MOL
REMARK 923 INTER-LIGAND FREE ENERGY PREDICTED BY IDOCK:   -8.50 KCAL/MOL
REMARK 924 INTRA-LIGAND FREE ENERGY PREDICTED BY IDOCK:    0.79 KCAL/MOL
REMARK 927      BINDING AFFINITY PREDICTED BY RF-SCORE:    0.00 PKD
ROOT
HETATM    1  C   UNL     1      -9.200  13.577  67.043  1.00  0.00    -0.248 C  
HETATM    2  C   UNL     1      -9.532  13.547  68.419  1.00  0.00    -0.185 C  
HETATM    3  C   UNL     1     -10.627  14.078  67.558  1.00  0.00    -0.260 C  
HETATM    4  C   UNL     1     -10.403  13.958  65.507  1.00  0.00    -0.333 C  
HETATM    5  O   UNL     1      -9.328  13.116  64.912  1.00  0.00    -0.211 OA 
HETATM    6  C   UNL     1     -10.106  18.667  68.225  1.00  0.00    -0.431 C  
HETATM    7  C   UNL     1     -11.014  13.196  66.439  1.00  0.00    -0.305 C  
HETATM    8  C   UNL     1     -12.155  14.765  66.322  1.00  0.00    -0.107 C  
HETATM    9  C   UNL     1     -11.405  11.727  66.530  1.00  0.00    -0.370 C  
HETATM   10  C   UNL     1      -9.094  17.950  67.248  1.00  0.00    -0.251 C  
HETATM   11  C   UNL     1      -8.816  18.974  66.113  1.00  0.00    -0.194 C  
HETATM   12  H   UNL     1      -9.225  13.061  63.969  1.00  0.00     0.000 HD 
HETATM   13  C   UNL     1     -11.160  16.279  66.226  1.00  0.00     0.137 C  
HETATM   14  C   UNL     1      -7.923  20.186  66.604  1.00  0.00    -0.335 C  
HETATM   15  O   UNL     1      -5.724  20.367  67.648  1.00  0.00    -0.179 OA 
HETATM   16  O   UNL     1     -10.974  16.544  64.821  1.00  0.00    -0.688 OA 
HETATM   17  C   UNL     1      -9.672  16.462  67.059  1.00  0.00    -0.248 C  
HETATM   18  H   UNL     1     -10.453  17.337  64.771  1.00  0.00     0.000 HD 
HETATM   19  C   UNL     1      -8.625  15.248  66.673  1.00  0.00    -0.305 C  
HETATM   20  F   UNL     1      -9.893  16.253  68.431  1.00  0.00    -0.213 F  
HETATM   21  C   UNL     1      -7.254  15.431  67.342  1.00  0.00    -0.242 C  
HETATM   22  C   UNL     1      -6.748  16.854  67.189  1.00  0.00    -0.221 C  
HETATM   23  C   UNL     1      -7.700  17.796  67.893  1.00  0.00    -0.225 C  
HETATM   24  C   UNL     1      -7.186  18.790  68.644  1.00  0.00    -0.330 C  
HETATM   25  C   UNL     1      -6.817  19.817  67.605  1.00  0.00    -0.241 C  
ENDROOT
BRANCH   4  26
HETATM   26  C   UNL     1     -11.448  13.470  64.258  1.00  0.00    -0.383 C  
HETATM   27  O   UNL     1     -12.540  13.976  63.943  1.00  0.00    -0.698 OA 
BRANCH  26  28
HETATM   28  C   UNL     1     -11.077  12.221  63.457  1.00  0.00    -0.464 C  
HETATM   29  O   UNL     1     -12.267  11.539  63.029  1.00  0.00    -0.968 OA 
HETATM   30  H   UNL     1     -12.037  10.763  62.532  1.00  0.00     0.000 HD 
ENDBRANCH  26  28
ENDBRANCH   4  26
TORSDOF 2
ENDMDL
MODEL        4
REMARK 921   NORMALIZED FREE ENERGY PREDICTED BY IDOCK:   -7.43 KCAL/MOL
REMARK 922        TOTAL FREE ENERGY PREDICTED BY IDOCK:   -7.61 KCAL/MOL
REMARK 923 INTER-LIGAND FREE ENERGY PREDICTED BY IDOCK:   -8.36 KCAL/MOL
REMARK 924 INTRA-LIGAND FREE ENERGY PREDICTED BY IDOCK:    0.76 KCAL/MOL
REMARK 927      BINDING AFFINITY PREDICTED BY RF-SCORE:    0.00 PKD
ROOT
HETATM    1  C   UNL     1      -9.606  13.550  67.463  1.00  0.00    -0.221 C  
HETATM    2  C   UNL     1     -10.293  13.691  68.694  1.00  0.00    -0.223 C  
HETATM    3  C   UNL     1     -11.111  14.084  67.512  1.00  0.00    -0.313 C  
HETATM    4  C   UNL     1     -10.352  13.707  65.627  1.00  0.00    -0.300 C  
HETATM    5  O   UNL     1      -9.170  12.819  65.452  1.00  0.00    -0.385 OA 
HETATM    6  C   UNL     1     -10.719  18.731  67.696  1.00  0.00    -0.449 C  
HETATM    7  C   UNL     1     -11.200  13.059  66.454  1.00  0.00    -0.332 C  
HETATM    8  C   UNL     1     -12.245  14.577  65.838  1.00  0.00    -0.270 C  
HETATM    9  C   UNL     1     -11.622  11.606  66.626  1.00  0.00    -0.194 C  
HETATM   10  C   UNL     1      -9.494  17.915  67.123  1.00  0.00    -0.263 C  
HETATM   11  C   UNL     1      -8.910  18.791  65.980  1.00  0.00    -0.003 C  
HETATM   12  H   UNL     1      -8.821  12.645  64.585  1.00  0.00     0.000 HD 
HETATM   13  C   UNL     1     -11.239  16.086  65.814  1.00  0.00     0.088 C  
HETATM   14  C   UNL     1      -8.162  20.074  66.531  1.00  0.00    -0.347 C  
HETATM   15  O   UNL     1      -6.317  20.431  68.088  1.00  0.00    -0.261 OA 
HETATM   16  O   UNL     1     -10.682  16.173  64.487  1.00  0.00    -0.828 OA 
HETATM   17  C   UNL     1     -10.023  16.404  66.981  1.00  0.00    -0.261 C  
HETATM   18  H   UNL     1     -10.156  16.963  64.475  1.00  0.00     0.000 HD 
HETATM   19  C   UNL     1      -8.929  15.172  67.046  1.00  0.00    -0.255 C  
HETATM   20  F   UNL     1     -10.604  16.368  68.261  1.00  0.00    -0.261 F  
HETATM   21  C   UNL     1      -7.782  15.468  68.026  1.00  0.00    -0.134 C  
HETATM   22  C   UNL     1      -7.233  16.868  67.831  1.00  0.00    -0.159 C  
HETATM   23  C   UNL     1      -8.324  17.874  68.129  1.00  0.00    -0.267 C  
HETATM   24  C   UNL     1      -8.014  18.966  68.856  1.00  0.00    -0.300 C  
HETATM   25  C   UNL     1      -7.367  19.859  67.828  1.00  0.00    -0.288 C  
ENDROOT
BRANCH   4  26
HETATM   26  C   UNL     1     -11.035  13.042  64.219  1.00  0.00    -0.399 C  
HETATM   27  O   UNL     1     -12.105  13.363  63.673  1.00  0.00    -0.527 OA 
BRANCH  26  28
HETATM   28  C   UNL     1     -10.321  11.858  63.565  1.00  0.00    -0.458 C  
HETATM   29  O   UNL     1     -11.271  11.035  62.868  1.00  0.00    -0.751 OA 
HETATM   30  H   UNL     1     -10.828  10.300  62.462  1.00  0.00     0.000 HD 
ENDBRANCH  26  28
ENDBRANCH   4  26
TORSDOF 2
ENDMDL
MODEL        5
REMARK 921   NORMALIZED FREE ENERGY PREDICTED BY IDOCK:   -7.30 KCAL/MOL
REMARK 922        TOTAL FREE ENERGY PREDICTED BY IDOCK:   -7.46 KCAL/MOL
REMARK 923 INTER-LIGAND FREE ENERGY PREDICTED BY IDOCK:   -8.12 KCAL/MOL
REMARK 924 INTRA-LIGAND FREE ENERGY PREDICTED BY IDOCK:    0.66 KCAL/MOL
REMARK 927      BINDING AFFINITY PREDICTED BY RF-SCORE:    0.00 PKD
ROOT
HETATM    1  C   UNL     1      -9.583  18.240  66.629  1.00  0.00    -0.315 C  
HETATM    2  C   UNL     1     -10.652  18.467  67.531  1.00  0.00    -0.447 C  
HETATM    3  C   UNL     1      -9.539  17.671  68.121  1.00  0.00    -0.297 C  
HETATM    4  C   UNL     1      -7.798  17.461  67.028  1.00  0.00    -0.210 C  
HETATM    5  O   UNL     1      -7.553  18.308  65.827  1.00  0.00    -0.509 OA 
HETATM    6  C   UNL     1     -11.294  13.359  67.803  1.00  0.00    -0.325 C  
HETATM    7  C   UNL     1      -8.206  18.295  68.008  1.00  0.00    -0.274 C  
HETATM    8  C   UNL     1      -7.945  16.607  68.933  1.00  0.00    -0.236 C  
HETATM    9  C   UNL     1      -7.818  19.701  68.444  1.00  0.00    -0.362 C  
HETATM   10  C   UNL     1     -10.711  14.010  66.488  1.00  0.00    -0.281 C  
HETATM   11  C   UNL     1     -10.037  12.846  65.711  1.00  0.00    -0.294 C  
HETATM   12  H   UNL     1      -6.753  18.211  65.324  1.00  0.00     0.000 HD 
HETATM   13  C   UNL     1      -8.592  15.226  67.951  1.00  0.00    -0.152 C  
HETATM   14  C   UNL     1     -11.098  11.850  65.085  1.00  0.00    -0.360 C  
HETATM   15  O   UNL     1     -12.985  12.111  63.560  1.00  0.00    -0.794 OA 
HETATM   16  O   UNL     1      -7.485  14.746  67.161  1.00  0.00    -0.250 OA 
HETATM   17  C   UNL     1      -9.993  15.365  66.972  1.00  0.00    -0.238 C  
HETATM   18  H   UNL     1      -7.824  14.023  66.646  1.00  0.00     0.000 HD 
HETATM   19  C   UNL     1      -9.844  16.608  65.899  1.00  0.00    -0.301 C  
HETATM   20  F   UNL     1     -11.068  15.780  67.776  1.00  0.00    -0.311 F  
HETATM   21  C   UNL     1     -11.052  16.706  64.953  1.00  0.00    -0.137 C  
HETATM   22  C   UNL     1     -11.423  15.348  64.388  1.00  0.00    -0.260 C  
HETATM   23  C   UNL     1     -11.837  14.435  65.522  1.00  0.00    -0.357 C  
HETATM   24  C   UNL     1     -12.922  13.653  65.357  1.00  0.00    -0.331 C  
HETATM   25  C   UNL     1     -12.372  12.513  64.540  1.00  0.00    -0.467 C  
ENDROOT
BRANCH   4  26
HETATM   26  C   UNL     1      -6.154  17.601  67.436  1.00  0.00    -0.147 C  
HETATM   27  O   UNL     1      -5.637  17.443  68.556  1.00  0.00    -0.149 OA 
BRANCH  26  28
HETATM   28  C   UNL     1      -5.178  18.046  66.346  1.00  0.00    -0.159 C  
HETATM   29  O   UNL     1      -5.150  19.481  66.266  1.00  0.00    -0.158 OA 
HETATM   30  H   UNL     1      -4.544  19.758  65.590  1.00  0.00     0.000 HD 
ENDBRANCH  26  28
ENDBRANCH   4  26
TORSDOF 2
ENDMDL
MODEL        6
REMARK 921   NORMALIZED FREE ENERGY PREDICTED BY IDOCK:   -7.11 KCAL/MOL
REMARK 922        TOTAL FREE ENERGY PREDICTED BY IDOCK:   -7.25 KCAL/MOL
REMARK 923 INTER-LIGAND FREE ENERGY PREDICTED BY IDOCK:   -7.93 KCAL/MOL
REMARK 924 INTRA-LIGAND FREE ENERGY PREDICTED BY IDOCK:    0.68 KCAL/MOL
REMARK 927      BINDING AFFINITY PREDICTED BY RF-SCORE:    0.00 PKD
ROOT
HETATM    1  C   UNL     1     -10.208   7.763  70.152  1.00  0.00    -0.205 C  
HETATM    2  C   UNL     1      -8.943   8.229  70.587  1.00  0.00    -0.161 C  
HETATM    3  C   UNL     1     -10.070   9.118  70.987  1.00  0.00    -0.373 C  
HETATM    4  C   UNL     1     -12.001   8.462  70.651  1.00  0.00    -0.026 C  
HETATM    5  O   UNL     1     -12.264   7.041  70.290  1.00  0.00    -0.610 OA 
HETATM    6  C   UNL     1      -9.715  12.473  67.764  1.00  0.00    -0.202 C  
HETATM    7  C   UNL     1     -11.164   8.440  71.710  1.00  0.00    -0.360 C  
HETATM    8  C   UNL     1     -11.671  10.311  71.576  1.00  0.00    -0.202 C  
HETATM    9  C   UNL     1     -11.032   7.565  72.949  1.00  0.00    -0.434 C  
HETATM   10  C   UNL     1     -10.374  11.106  67.327  1.00  0.00    -0.243 C  
HETATM   11  C   UNL     1     -11.505  11.489  66.333  1.00  0.00    -0.150 C  
HETATM   12  H   UNL     1     -13.151   6.739  70.135  1.00  0.00     0.000 HD 
HETATM   13  C   UNL     1     -11.677  10.855  69.846  1.00  0.00    -0.339 C  
HETATM   14  C   UNL     1     -10.937  11.985  64.941  1.00  0.00    -0.356 C  
HETATM   15  O   UNL     1      -9.449  11.015  63.267  1.00  0.00    -0.261 OA 
HETATM   16  O   UNL     1     -13.023  10.653  69.370  1.00  0.00    -0.563 OA 
HETATM   17  C   UNL     1     -10.554  10.272  68.689  1.00  0.00    -0.208 C  
HETATM   18  H   UNL     1     -13.027  10.938  68.464  1.00  0.00     0.000 HD 
HETATM   19  C   UNL     1     -10.587   8.625  68.610  1.00  0.00    -0.165 C  
HETATM   20  F   UNL     1      -9.252  10.531  69.152  1.00  0.00    -0.161 F  
HETATM   21  C   UNL     1      -9.648   8.078  67.524  1.00  0.00    -0.191 C  
HETATM   22  C   UNL     1      -9.810   8.834  66.219  1.00  0.00    -0.342 C  
HETATM   23  C   UNL     1      -9.423  10.281  66.434  1.00  0.00    -0.218 C  
HETATM   24  C   UNL     1      -8.668  10.893  65.500  1.00  0.00    -0.178 C  
HETATM   25  C   UNL     1      -9.685  11.243  64.446  1.00  0.00    -0.254 C  
ENDROOT
BRANCH   4  26
HETATM   26  C   UNL     1     -13.402   8.456  71.612  1.00  0.00    -0.338 C  
HETATM   27  O   UNL     1     -13.729   9.287  72.479  1.00  0.00    -0.467 OA 
BRANCH  26  28
HETATM   28  C   UNL     1     -14.358   7.269  71.482  1.00  0.00    -0.396 C  
HETATM   29  O   UNL     1     -13.990   6.237  72.412  1.00  0.00    -0.526 OA 
HETATM   30  H   UNL     1     -14.584   5.500  72.331  1.00  0.00     0.000 HD 
ENDBRANCH  26  28
ENDBRANCH   4  26
TORSDOF 2
ENDMDL
MODEL        7
REMARK 921   NORMALIZED FREE ENERGY PREDICTED BY IDOCK:   -6.97 KCAL/MOL
REMARK 922        TOTAL FREE ENERGY PREDICTED BY IDOCK:   -7.09 KCAL/MOL
REMARK 923 INTER-LIGAND FREE ENERGY PREDICTED BY IDOCK:   -7.67 KCAL/MOL
REMARK 924 INTRA-LIGAND FREE ENERGY PREDICTED BY IDOCK:    0.58 KCAL/MOL
REMARK 927      BINDING AFFINITY PREDICTED BY RF-SCORE:    0.00 PKD
ROOT
HETATM    1  C   UNL     1     -11.256  14.618  68.683  1.00  0.00    -0.293 C  
HETATM    2  C   UNL     1     -10.172  14.932  69.538  1.00  0.00    -0.143 C  
HETATM    3  C   UNL     1      -9.756  14.643  68.137  1.00  0.00    -0.220 C  
HETATM    4  C   UNL     1     -11.229  14.413  66.706  1.00  0.00    -0.337 C  
HETATM    5  O   UNL     1     -12.635  14.804  67.000  1.00  0.00    -0.341 OA 
HETATM    6  C   UNL     1      -8.260  10.244  68.565  1.00  0.00    -0.111 C  
HETATM    7  C   UNL     1     -10.453  15.441  67.109  1.00  0.00    -0.290 C  
HETATM    8  C   UNL     1      -9.211  14.287  66.159  1.00  0.00    -0.120 C  
HETATM    9  C   UNL     1     -10.582  16.958  67.066  1.00  0.00    -0.230 C  
HETATM   10  C   UNL     1      -9.820  10.485  68.513  1.00  0.00    -0.175 C  
HETATM   11  C   UNL     1     -10.400   9.282  67.720  1.00  0.00    -0.292 C  
HETATM   12  H   UNL     1     -13.313  14.698  66.342  1.00  0.00     0.000 HD 
HETATM   13  C   UNL     1      -9.504  12.546  66.575  1.00  0.00    -0.240 C  
HETATM   14  C   UNL     1     -10.350   7.935  68.552  1.00  0.00    -0.229 C  
HETATM   15  O   UNL     1     -11.219   7.244  70.726  1.00  0.00    -0.259 OA 
HETATM   16  O   UNL     1     -10.427  12.050  65.584  1.00  0.00    -0.240 OA 
HETATM   17  C   UNL     1      -9.994  12.038  68.138  1.00  0.00    -0.203 C  
HETATM   18  H   UNL     1     -10.580  11.138  65.801  1.00  0.00     0.000 HD 
HETATM   19  C   UNL     1     -11.369  12.817  68.609  1.00  0.00    -0.333 C  
HETATM   20  F   UNL     1      -9.049  12.487  69.076  1.00  0.00     0.038 F  
HETATM   21  C   UNL     1     -11.877  12.323  69.972  1.00  0.00    -0.372 C  
HETATM   22  C   UNL     1     -11.884  10.807  70.044  1.00  0.00    -0.424 C  
HETATM   23  C   UNL     1     -10.466  10.298  69.903  1.00  0.00    -0.304 C  
HETATM   24  C   UNL     1     -10.052   9.307  70.717  1.00  0.00    -0.358 C  
HETATM   25  C   UNL     1     -10.637   8.086  70.055  1.00  0.00    -0.242 C  
ENDROOT
BRANCH   4  26
HETATM   26  C   UNL     1     -11.411  15.019  65.128  1.00  0.00    -0.339 C  
HETATM   27  O   UNL     1     -10.860  16.018  64.633  1.00  0.00    -0.608 OA 
BRANCH  26  28
HETATM   28  C   UNL     1     -12.419  14.332  64.206  1.00  0.00    -0.272 C  
HETATM   29  O   UNL     1     -12.940  13.152  64.839  1.00  0.00    -0.734 OA 
HETATM   30  H   UNL     1     -13.566  12.725  64.266  1.00  0.00     0.000 HD 
ENDBRANCH  26  28
ENDBRANCH   4  26
TORSDOF 2
ENDMDL
MODEL        8
REMARK 921   NORMALIZED FREE ENERGY PREDICTED BY IDOCK:   -6.88 KCAL/MOL
REMARK 922        TOTAL FREE ENERGY PREDICTED BY IDOCK:   -6.99 KCAL/MOL
REMARK 923 INTER-LIGAND FREE ENERGY PREDICTED BY IDOCK:   -7.73 KCAL/MOL
REMARK 924 INTRA-LIGAND FREE ENERGY PREDICTED BY IDOCK:    0.74 KCAL/MOL
REMARK 927      BINDING AFFINITY PREDICTED BY RF-SCORE:    0.00 PKD
ROOT
HETATM    1  C   UNL     1     -11.304  12.882  64.659  1.00  0.00    -0.361 C  
HETATM    2  C   UNL     1     -12.638  12.413  64.758  1.00  0.00    -0.419 C  
HETATM    3  C   UNL     1     -12.277  13.397  65.817  1.00  0.00    -0.507 C  
HETATM    4  C   UNL     1     -10.457  14.366  65.675  1.00  0.00    -0.334 C  
HETATM    5  O   UNL     1      -9.663  14.302  64.416  1.00  0.00    -0.483 OA 
HETATM    6  C   UNL     1     -11.464  10.537  69.414  1.00  0.00    -0.329 C  
HETATM    7  C   UNL     1     -11.722  14.669  65.315  1.00  0.00    -0.346 C  
HETATM    8  C   UNL     1     -11.759  14.813  67.253  1.00  0.00    -0.366 C  
HETATM    9  C   UNL     1     -12.345  15.586  64.270  1.00  0.00    -0.009 C  
HETATM   10  C   UNL     1     -10.343  10.660  68.309  1.00  0.00    -0.201 C  
HETATM   11  C   UNL     1      -8.994  10.578  69.074  1.00  0.00    -0.183 C  
HETATM   12  H   UNL     1      -8.827  14.747  64.351  1.00  0.00     0.000 HD 
HETATM   13  C   UNL     1     -10.842  13.448  68.018  1.00  0.00    -0.247 C  
HETATM   14  C   UNL     1      -8.699   9.119  69.614  1.00  0.00    -0.145 C  
HETATM   15  O   UNL     1      -8.528   6.919  68.570  1.00  0.00    -0.123 OA 
HETATM   16  O   UNL     1      -9.494  13.926  68.198  1.00  0.00    -0.195 OA 
HETATM   17  C   UNL     1     -10.819  11.865  67.358  1.00  0.00    -0.243 C  
HETATM   18  H   UNL     1      -9.013  13.211  68.599  1.00  0.00     0.000 HD 
HETATM   19  C   UNL     1     -10.308  11.885  65.790  1.00  0.00    -0.285 C  
HETATM   20  F   UNL     1     -12.141  11.403  67.244  1.00  0.00    -0.201 F  
HETATM   21  C   UNL     1     -10.200  10.471  65.197  1.00  0.00    -0.358 C  
HETATM   22  C   UNL     1      -9.483   9.528  66.144  1.00  0.00    -0.281 C  
HETATM   23  C   UNL     1     -10.287   9.400  67.419  1.00  0.00    -0.325 C  
HETATM   24  C   UNL     1     -10.443   8.177  67.964  1.00  0.00    -0.242 C  
HETATM   25  C   UNL     1      -9.132   7.978  68.681  1.00  0.00    -0.140 C  
ENDROOT
BRANCH   4  26
HETATM   26  C   UNL     1      -9.997  15.992  65.859  1.00  0.00    -0.352 C  
HETATM   27  O   UNL     1     -10.636  17.002  65.516  1.00  0.00    -0.542 OA 
BRANCH  26  28
HETATM   28  C   UNL     1      -8.612  16.287  66.435  1.00  0.00    -0.326 C  
HETATM   29  O   UNL     1      -7.811  15.093  66.426  1.00  0.00    -0.190 OA 
HETATM   30  H   UNL     1      -6.950  15.276  66.784  1.00  0.00     0.000 HD 
ENDBRANCH  26  28
ENDBRANCH   4  26
TORSDOF 2
ENDMDL
MODEL        9
REMARK 921   NORMALIZED FREE ENERGY PREDICTED BY IDOCK:   -6.88 KCAL/MOL
REMARK 922        TOTAL FREE ENERGY PREDICTED BY IDOCK:   -6.99 KCAL/MOL
REMARK 923 INTER-LIGAND FREE ENERGY PREDICTED BY IDOCK:   -7.82 KCAL/MOL
REMARK 924 INTRA-LIGAND FREE ENERGY PREDICTED BY IDOCK:    0.83 KCAL/MOL
REMARK 927      BINDING AFFINITY PREDICTED BY RF-SCORE:    0.00 PKD
ROOT
HETATM    1  C   UNL     1      -8.344   8.610  65.322  1.00  0.00    -0.177 C  
HETATM    2  C   UNL     1      -7.142   9.358  65.268  1.00  0.00    -0.092 C  
HETATM    3  C   UNL     1      -7.679   9.201  66.649  1.00  0.00    -0.097 C  
HETATM    4  C   UNL     1      -9.286   7.933  66.936  1.00  0.00    -0.155 C  
HETATM    5  O   UNL     1      -9.707   6.992  65.862  1.00  0.00    -0.393 OA 
HETATM    6  C   UNL     1      -9.724  13.352  67.257  1.00  0.00    -0.232 C  
HETATM    7  C   UNL     1      -7.947   7.807  67.053  1.00  0.00    -0.116 C  
HETATM    8  C   UNL     1      -8.427   8.921  68.571  1.00  0.00    -0.129 C  
HETATM    9  C   UNL     1      -6.974   6.637  66.988  1.00  0.00    -0.071 C  
HETATM   10  C   UNL     1     -10.482  12.285  66.374  1.00  0.00    -0.263 C  
HETATM   11  C   UNL     1     -11.991  12.480  66.690  1.00  0.00    -0.351 C  
HETATM   12  H   UNL     1     -10.446   6.409  65.994  1.00  0.00     0.000 HD 
HETATM   13  C   UNL     1      -9.649  10.173  68.091  1.00  0.00    -0.139 C  
HETATM   14  C   UNL     1     -12.565  13.819  66.069  1.00  0.00    -0.458 C  
HETATM   15  O   UNL     1     -12.660  14.746  63.814  1.00  0.00    -0.806 OA 
HETATM   16  O   UNL     1     -10.941   9.589  68.353  1.00  0.00    -0.414 OA 
HETATM   17  C   UNL     1      -9.647  10.923  66.549  1.00  0.00    -0.194 C  
HETATM   18  H   UNL     1     -11.581  10.244  68.102  1.00  0.00     0.000 HD 
HETATM   19  C   UNL     1      -9.705   9.798  65.344  1.00  0.00    -0.383 C  
HETATM   20  F   UNL     1      -8.397  11.530  66.343  1.00  0.00    -0.167 F  
HETATM   21  C   UNL     1      -9.786  10.444  63.952  1.00  0.00    -0.367 C  
HETATM   22  C   UNL     1     -10.825  11.549  63.914  1.00  0.00    -0.469 C  
HETATM   23  C   UNL     1     -10.417  12.645  64.874  1.00  0.00    -0.331 C  
HETATM   24  C   UNL     1     -10.538  13.928  64.478  1.00  0.00    -0.375 C  
HETATM   25  C   UNL     1     -12.007  14.188  64.686  1.00  0.00    -0.445 C  
ENDROOT
BRANCH   4  26
HETATM   26  C   UNL     1      -9.615   6.730  68.092  1.00  0.00    -0.122 C  
HETATM   27  O   UNL     1      -8.814   6.202  68.883  1.00  0.00    -0.122 OA 
BRANCH  26  28
HETATM   28  C   UNL     1     -11.029   6.149  68.141  1.00  0.00    -0.307 C  
HETATM   29  O   UNL     1     -11.706   6.601  69.324  1.00  0.00    -0.645 OA 
HETATM   30  H   UNL     1     -12.584   6.240  69.355  1.00  0.00     0.000 HD 
ENDBRANCH  26  28
ENDBRANCH   4  26
TORSDOF 2
ENDMDL
MODEL       10
REMARK 921   NORMALIZED FREE ENERGY PREDICTED BY IDOCK:   -6.75 KCAL/MOL
REMARK 922        TOTAL FREE ENERGY PREDICTED BY IDOCK:   -6.85 KCAL/MOL
REMARK 923 INTER-LIGAND FREE ENERGY PREDICTED BY IDOCK:   -7.49 KCAL/MOL
REMARK 924 INTRA-LIGAND FREE ENERGY PREDICTED BY IDOCK:    0.64 KCAL/MOL
REMARK 927      BINDING AFFINITY PREDICTED BY RF-SCORE:    0.00 PKD
ROOT
HETATM    1  C   UNL     1     -11.435  12.233  67.770  1.00  0.00    -0.392 C  
HETATM    2  C   UNL     1     -11.733  12.383  66.394  1.00  0.00    -0.453 C  
HETATM    3  C   UNL     1     -10.303  12.057  66.657  1.00  0.00    -0.237 C  
HETATM    4  C   UNL     1      -9.751  11.561  68.586  1.00  0.00    -0.165 C  
HETATM    5  O   UNL     1     -10.785  11.258  69.614  1.00  0.00    -0.427 OA 
HETATM    6  C   UNL     1      -8.362  16.282  66.254  1.00  0.00    -0.343 C  
HETATM    7  C   UNL     1     -10.086  10.855  67.485  1.00  0.00    -0.214 C  
HETATM    8  C   UNL     1      -8.324  11.549  67.053  1.00  0.00    -0.165 C  
HETATM    9  C   UNL     1     -10.659   9.465  67.241  1.00  0.00    -0.314 C  
HETATM   10  C   UNL     1      -9.135  15.956  67.592  1.00  0.00    -0.200 C  
HETATM   11  C   UNL     1      -8.330  16.660  68.719  1.00  0.00    -0.252 C  
HETATM   12  H   UNL     1     -10.531  11.030  70.500  1.00  0.00     0.000 HD 
HETATM   13  C   UNL     1      -8.166  13.278  67.577  1.00  0.00    -0.184 C  
HETATM   14  C   UNL     1      -8.492  18.235  68.676  1.00  0.00    -0.301 C  
HETATM   15  O   UNL     1     -10.403  19.752  68.746  1.00  0.00    -0.415 OA 
HETATM   16  O   UNL     1      -7.617  13.243  68.910  1.00  0.00    -0.259 OA 
HETATM   17  C   UNL     1      -9.474  14.387  67.511  1.00  0.00    -0.207 C  
HETATM   18  H   UNL     1      -7.535  14.148  69.184  1.00  0.00     0.000 HD 
HETATM   19  C   UNL     1     -10.776  13.814  68.345  1.00  0.00    -0.266 C  
HETATM   20  F   UNL     1      -9.953  14.443  66.192  1.00  0.00    -0.265 F  
HETATM   21  C   UNL     1     -11.936  14.823  68.372  1.00  0.00    -0.270 C  
HETATM   22  C   UNL     1     -11.450  16.216  68.724  1.00  0.00    -0.340 C  
HETATM   23  C   UNL     1     -10.490  16.691  67.654  1.00  0.00    -0.320 C  
HETATM   24  C   UNL     1     -10.596  17.959  67.210  1.00  0.00    -0.341 C  
HETATM   25  C   UNL     1      -9.893  18.736  68.292  1.00  0.00    -0.373 C  
ENDROOT
BRANCH   4  26
HETATM   26  C   UNL     1      -8.781  10.320  69.226  1.00  0.00    -0.174 C  
HETATM   27  O   UNL     1      -7.601  10.056  68.936  1.00  0.00    -0.078 OA 
BRANCH  26  28
HETATM   28  C   UNL     1      -9.421   9.347  70.217  1.00  0.00    -0.251 C  
HETATM   29  O   UNL     1      -8.919   9.592  71.541  1.00  0.00    -0.278 OA 
HETATM   30  H   UNL     1      -9.316   8.988  72.157  1.00  0.00     0.000 HD 
ENDBRANCH  26  28
ENDBRANCH   4  26
TORSDOF 2
ENDMDL
MODEL       11
REMARK 921   NORMALIZED FREE ENERGY PREDICTED BY IDOCK:   -6.74 KCAL/MOL
REMARK 922        TOTAL FREE ENERGY PREDICTED BY IDOCK:   -6.83 KCAL/MOL
REMARK 923 INTER-LIGAND FREE ENERGY PREDICTED BY IDOCK:   -7.75 KCAL/MOL
REMARK 924 INTRA-LIGAND FREE ENERGY PREDICTED BY IDOCK:    0.91 KCAL/MOL
REMARK 927      BINDING AFFINITY PREDICTED BY RF-SCORE:    0.00 PKD
ROOT
HETATM    1  C   UNL     1      -8.574   8.690  65.679  1.00  0.00    -0.191 C  
HETATM    2  C   UNL     1      -7.341   9.360  65.485  1.00  0.00    -0.088 C  
HETATM    3  C   UNL     1      -7.793   9.354  66.905  1.00  0.00    -0.105 C  
HETATM    4  C   UNL     1      -9.440   8.209  67.402  1.00  0.00    -0.155 C  
HETATM    5  O   UNL     1      -9.980   7.205  66.444  1.00  0.00    -0.404 OA 
HETATM    6  C   UNL     1      -9.576  13.651  67.263  1.00  0.00    -0.238 C  
HETATM    7  C   UNL     1      -8.105   8.017  67.448  1.00  0.00    -0.122 C  
HETATM    8  C   UNL     1      -8.426   9.283  68.886  1.00  0.00    -0.129 C  
HETATM    9  C   UNL     1      -7.201   6.792  67.428  1.00  0.00    -0.090 C  
HETATM   10  C   UNL     1     -10.445  12.558  66.527  1.00  0.00    -0.258 C  
HETATM   11  C   UNL     1     -11.918  12.865  66.916  1.00  0.00    -0.402 C  
HETATM   12  H   UNL     1     -10.737   6.678  66.673  1.00  0.00     0.000 HD 
HETATM   13  C   UNL     1      -9.611  10.557  68.372  1.00  0.00    -0.160 C  
HETATM   14  C   UNL     1     -12.462  14.176  66.214  1.00  0.00    -0.395 C  
HETATM   15  O   UNL     1     -12.658  14.910  63.895  1.00  0.00    -0.831 OA 
HETATM   16  O   UNL     1     -10.911  10.072  68.763  1.00  0.00    -0.236 OA 
HETATM   17  C   UNL     1      -9.672  11.170  66.772  1.00  0.00    -0.193 C  
HETATM   18  H   UNL     1     -11.532  10.739  68.494  1.00  0.00     0.000 HD 
HETATM   19  C   UNL     1      -9.867   9.951  65.678  1.00  0.00    -0.368 C  
HETATM   20  F   UNL     1      -8.408  11.685  66.436  1.00  0.00    -0.172 F  
HETATM   21  C   UNL     1     -10.006  10.478  64.241  1.00  0.00    -0.398 C  
HETATM   22  C   UNL     1     -10.987  11.634  64.168  1.00  0.00    -0.442 C  
HETATM   23  C   UNL     1     -10.460  12.783  65.000  1.00  0.00    -0.334 C  
HETATM   24  C   UNL     1     -10.541  14.032  64.498  1.00  0.00    -0.332 C  
HETATM   25  C   UNL     1     -11.978  14.393  64.772  1.00  0.00    -0.447 C  
ENDROOT
BRANCH   4  26
HETATM   26  C   UNL     1      -9.754   7.131  68.679  1.00  0.00    -0.141 C  
HETATM   27  O   UNL     1      -9.040   6.905  69.671  1.00  0.00    -0.143 OA 
BRANCH  26  28
HETATM   28  C   UNL     1     -11.011   6.264  68.594  1.00  0.00    -0.346 C  
HETATM   29  O   UNL     1     -11.856   6.509  69.730  1.00  0.00    -0.628 OA 
HETATM   30  H   UNL     1     -12.637   5.970  69.678  1.00  0.00     0.000 HD 
ENDBRANCH  26  28
ENDBRANCH   4  26
TORSDOF 2
ENDMDL
MODEL       12
REMARK 921   NORMALIZED FREE ENERGY PREDICTED BY IDOCK:   -6.62 KCAL/MOL
REMARK 922        TOTAL FREE ENERGY PREDICTED BY IDOCK:   -6.70 KCAL/MOL
REMARK 923 INTER-LIGAND FREE ENERGY PREDICTED BY IDOCK:   -7.54 KCAL/MOL
REMARK 924 INTRA-LIGAND FREE ENERGY PREDICTED BY IDOCK:    0.84 KCAL/MOL
REMARK 927      BINDING AFFINITY PREDICTED BY RF-SCORE:    0.00 PKD
ROOT
HETATM    1  C   UNL     1      -8.808  12.523  67.077  1.00  0.00    -0.212 C  
HETATM    2  C   UNL     1      -8.801  12.189  68.453  1.00  0.00    -0.143 C  
HETATM    3  C   UNL     1     -10.114  12.707  67.977  1.00  0.00    -0.229 C  
HETATM    4  C   UNL     1     -10.371  13.004  65.948  1.00  0.00    -0.288 C  
HETATM    5  O   UNL     1      -9.389  12.454  64.973  1.00  0.00    -0.436 OA 
HETATM    6  C   UNL     1      -9.908  17.117  69.486  1.00  0.00     0.125 C  
HETATM    7  C   UNL     1     -10.666  12.002  66.803  1.00  0.00    -0.280 C  
HETATM    8  C   UNL     1     -11.951  13.383  67.268  1.00  0.00    -0.393 C  
HETATM    9  C   UNL     1     -10.877  10.501  66.657  1.00  0.00    -0.166 C  
HETATM   10  C   UNL     1      -9.089  16.750  68.187  1.00  0.00    -0.227 C  
HETATM   11  C   UNL     1      -9.191  17.996  67.265  1.00  0.00    -0.255 C  
HETATM   12  H   UNL     1      -9.507  12.590  64.040  1.00  0.00     0.000 HD 
HETATM   13  C   UNL     1     -11.163  15.016  67.291  1.00  0.00    -0.338 C  
HETATM   14  C   UNL     1      -8.331  19.212  67.805  1.00  0.00    -0.325 C  
HETATM   15  O   UNL     1      -5.977  19.512  68.375  1.00  0.00    -0.219 OA 
HETATM   16  O   UNL     1     -11.341  15.563  65.969  1.00  0.00    -0.189 OA 
HETATM   17  C   UNL     1      -9.546  15.255  67.810  1.00  0.00    -0.206 C  
HETATM   18  H   UNL     1     -10.928  16.418  65.981  1.00  0.00     0.000 HD 
HETATM   19  C   UNL     1      -8.505  14.299  66.961  1.00  0.00    -0.190 C  
HETATM   20  F   UNL     1      -9.414  14.764  69.121  1.00  0.00    -0.196 F  
HETATM   21  C   UNL     1      -7.039  14.552  67.349  1.00  0.00    -0.138 C  
HETATM   22  C   UNL     1      -6.727  16.036  67.401  1.00  0.00    -0.224 C  
HETATM   23  C   UNL     1      -7.575  16.682  68.475  1.00  0.00    -0.212 C  
HETATM   24  C   UNL     1      -6.998  17.583  69.296  1.00  0.00    -0.172 C  
HETATM   25  C   UNL     1      -6.989  18.828  68.447  1.00  0.00    -0.257 C  
ENDROOT
BRANCH   4  26
HETATM   26  C   UNL     1     -11.628  12.611  64.873  1.00  0.00    -0.334 C  
HETATM   27  O   UNL     1     -12.849  12.596  65.110  1.00  0.00    -0.721 OA 
BRANCH  26  28
HETATM   28  C   UNL     1     -11.251  12.141  63.467  1.00  0.00    -0.458 C  
HETATM   29  O   UNL     1     -12.389  11.541  62.827  1.00  0.00    -0.860 OA 
HETATM   30  H   UNL     1     -12.155  11.249  61.954  1.00  0.00     0.000 HD 
ENDBRANCH  26  28
ENDBRANCH   4  26
TORSDOF 2
ENDMDL
MODEL       13
REMARK 921   NORMALIZED FREE ENERGY PREDICTED BY IDOCK:   -6.41 KCAL/MOL
REMARK 922        TOTAL FREE ENERGY PREDICTED BY IDOCK:   -6.47 KCAL/MOL
REMARK 923 INTER-LIGAND FREE ENERGY PREDICTED BY IDOCK:   -6.96 KCAL/MOL
REMARK 924 INTRA-LIGAND FREE ENERGY PREDICTED BY IDOCK:    0.49 KCAL/MOL
REMARK 927      BINDING AFFINITY PREDICTED BY RF-SCORE:    0.00 PKD
ROOT
HETATM    1  C   UNL     1     -12.034   7.502  72.151  1.00  0.00    -0.323 C  
HETATM    2  C   UNL     1     -12.832   6.861  71.172  1.00  0.00    -0.289 C  
HETATM    3  C   UNL     1     -11.391   6.487  71.100  1.00  0.00    -0.367 C  
HETATM    4  C   UNL     1     -10.134   7.135  72.606  1.00  0.00    -0.186 C  
HETATM    5  O   UNL     1     -10.693   7.707  73.863  1.00  0.00    -0.425 OA 
HETATM    6  C   UNL     1      -9.972   9.177  67.561  1.00  0.00    -0.258 C  
HETATM    7  C   UNL     1     -10.817   5.996  72.367  1.00  0.00    -0.288 C  
HETATM    8  C   UNL     1      -9.382   5.943  71.058  1.00  0.00    -0.178 C  
HETATM    9  C   UNL     1     -11.363   4.874  73.241  1.00  0.00    -0.408 C  
HETATM   10  C   UNL     1     -10.171   9.865  68.969  1.00  0.00    -0.213 C  
HETATM   11  C   UNL     1      -9.044  10.928  69.075  1.00  0.00    -0.110 C  
HETATM   12  H   UNL     1     -10.115   8.006  74.555  1.00  0.00     0.000 HD 
HETATM   13  C   UNL     1      -9.135   7.575  70.307  1.00  0.00    -0.154 C  
HETATM   14  C   UNL     1      -9.296  12.166  68.119  1.00  0.00    -0.204 C  
HETATM   15  O   UNL     1     -11.122  13.762  67.846  1.00  0.00    -0.252 OA 
HETATM   16  O   UNL     1      -8.128   8.232  71.103  1.00  0.00    -0.094 OA 
HETATM   17  C   UNL     1     -10.431   8.655  69.995  1.00  0.00    -0.223 C  
HETATM   18  H   UNL     1      -7.998   9.086  70.710  1.00  0.00     0.000 HD 
HETATM   19  C   UNL     1     -11.296   8.952  71.367  1.00  0.00    -0.380 C  
HETATM   20  F   UNL     1     -11.370   8.009  69.173  1.00  0.00     0.011 F  
HETATM   21  C   UNL     1     -12.415   9.980  71.135  1.00  0.00    -0.480 C  
HETATM   22  C   UNL     1     -11.908  11.185  70.364  1.00  0.00    -0.462 C  
HETATM   23  C   UNL     1     -11.444  10.738  68.995  1.00  0.00    -0.368 C  
HETATM   24  C   UNL     1     -11.777  11.486  67.925  1.00  0.00    -0.317 C  
HETATM   25  C   UNL     1     -10.764  12.600  67.988  1.00  0.00    -0.226 C  
ENDROOT
BRANCH   4  26
HETATM   26  C   UNL     1      -8.930   6.358  73.520  1.00  0.00    -0.124 C  
HETATM   27  O   UNL     1      -8.627   5.152  73.502  1.00  0.00    -0.112 OA 
BRANCH  26  28
HETATM   28  C   UNL     1      -8.162   7.187  74.551  1.00  0.00    -0.173 C  
HETATM   29  O   UNL     1      -7.907   8.503  74.033  1.00  0.00    -0.364 OA 
HETATM   30  H   UNL     1      -7.431   9.018  74.673  1.00  0.00     0.000 HD 
ENDBRANCH  26  28
ENDBRANCH   4  26
TORSDOF 2
ENDMDL
MODEL       14
REMARK 921   NORMALIZED FREE ENERGY PREDICTED BY IDOCK:   -6.36 KCAL/MOL
REMARK 922        TOTAL FREE ENERGY PREDICTED BY IDOCK:   -6.41 KCAL/MOL
REMARK 923 INTER-LIGAND FREE ENERGY PREDICTED BY IDOCK:   -7.22 KCAL/MOL
REMARK 924 INTRA-LIGAND FREE ENERGY PREDICTED BY IDOCK:    0.81 KCAL/MOL
REMARK 927      BINDING AFFINITY PREDICTED BY RF-SCORE:    0.00 PKD
ROOT
HETATM    1  C   UNL     1     -10.532  12.630  64.893  1.00  0.00    -0.331 C  
HETATM    2  C   UNL     1     -11.673  11.853  64.573  1.00  0.00    -0.326 C  
HETATM    3  C   UNL     1     -11.846  12.681  65.799  1.00  0.00    -0.497 C  
HETATM    4  C   UNL     1     -10.377  14.058  66.267  1.00  0.00    -0.293 C  
HETATM    5  O   UNL     1      -9.330  14.414  65.269  1.00  0.00    -0.409 OA 
HETATM    6  C   UNL     1     -11.129   9.479  69.117  1.00  0.00    -0.082 C  
HETATM    7  C   UNL     1     -11.560  14.118  65.619  1.00  0.00    -0.339 C  
HETATM    8  C   UNL     1     -12.077  13.890  67.478  1.00  0.00    -0.366 C  
HETATM    9  C   UNL     1     -12.153  15.040  64.562  1.00  0.00    -0.373 C  
HETATM   10  C   UNL     1      -9.862  10.062  68.376  1.00  0.00    -0.169 C  
HETATM   11  C   UNL     1      -8.754  10.158  69.461  1.00  0.00    -0.189 C  
HETATM   12  H   UNL     1      -8.655  15.047  65.484  1.00  0.00     0.000 HD 
HETATM   13  C   UNL     1     -11.022  12.660  68.294  1.00  0.00    -0.248 C  
HETATM   14  C   UNL     1      -8.203   8.734  69.883  1.00  0.00    -0.118 C  
HETATM   15  O   UNL     1      -7.205   6.867  68.670  1.00  0.00    -0.083 OA 
HETATM   16  O   UNL     1      -9.934  13.398  68.885  1.00  0.00    -0.416 OA 
HETATM   17  C   UNL     1     -10.418  11.276  67.482  1.00  0.00    -0.201 C  
HETATM   18  H   UNL     1      -9.382  12.755  69.313  1.00  0.00     0.000 HD 
HETATM   19  C   UNL     1      -9.588  11.703  66.123  1.00  0.00    -0.252 C  
HETATM   20  F   UNL     1     -11.502  10.547  66.964  1.00  0.00    -0.270 F  
HETATM   21  C   UNL     1      -8.966  10.488  65.418  1.00  0.00    -0.207 C  
HETATM   22  C   UNL     1      -8.254   9.580  66.404  1.00  0.00    -0.115 C  
HETATM   23  C   UNL     1      -9.263   9.035  67.392  1.00  0.00    -0.158 C  
HETATM   24  C   UNL     1      -9.199   7.731  67.725  1.00  0.00    -0.143 C  
HETATM   25  C   UNL     1      -8.084   7.715  68.739  1.00  0.00    -0.127 C  
ENDROOT
BRANCH   4  26
HETATM   26  C   UNL     1     -10.433  15.684  66.759  1.00  0.00    -0.297 C  
HETATM   27  O   UNL     1     -11.137  16.179  67.656  1.00  0.00    -0.301 OA 
BRANCH  26  28
HETATM   28  C   UNL     1      -9.595  16.699  65.980  1.00  0.00    -0.266 C  
HETATM   29  O   UNL     1     -10.445  17.713  65.420  1.00  0.00    -0.648 OA 
HETATM   30  H   UNL     1      -9.924  18.344  64.936  1.00  0.00     0.000 HD 
ENDBRANCH  26  28
ENDBRANCH   4  26
TORSDOF 2
ENDMDL
MODEL       15
REMARK 921   NORMALIZED FREE ENERGY PREDICTED BY IDOCK:   -6.30 KCAL/MOL
REMARK 922        TOTAL FREE ENERGY PREDICTED BY IDOCK:   -6.35 KCAL/MOL
REMARK 923 INTER-LIGAND FREE ENERGY PREDICTED BY IDOCK:   -6.95 KCAL/MOL
REMARK 924 INTRA-LIGAND FREE ENERGY PREDICTED BY IDOCK:    0.60 KCAL/MOL
REMARK 927      BINDING AFFINITY PREDICTED BY RF-SCORE:    0.00 PKD
ROOT
HETATM    1  C   UNL     1      -8.986  14.642  67.741  1.00  0.00    -0.181 C  
HETATM    2  C   UNL     1      -8.734  15.182  66.456  1.00  0.00    -0.280 C  
HETATM    3  C   UNL     1     -10.163  14.818  66.675  1.00  0.00    -0.271 C  
HETATM    4  C   UNL     1     -10.749  14.250  68.574  1.00  0.00    -0.255 C  
HETATM    5  O   UNL     1      -9.850  14.473  69.740  1.00  0.00    -0.408 OA 
HETATM    6  C   UNL     1     -10.365  10.727  64.440  1.00  0.00    -0.405 C  
HETATM    7  C   UNL     1     -10.773  15.409  67.882  1.00  0.00    -0.286 C  
HETATM    8  C   UNL     1     -12.159  14.348  67.030  1.00  0.00    -0.374 C  
HETATM    9  C   UNL     1     -10.789  16.883  68.266  1.00  0.00    -0.357 C  
HETATM   10  C   UNL     1      -9.698  10.746  65.871  1.00  0.00    -0.272 C  
HETATM   11  C   UNL     1     -10.106   9.404  66.538  1.00  0.00    -0.332 C  
HETATM   12  H   UNL     1     -10.119  14.212  70.613  1.00  0.00     0.000 HD 
HETATM   13  C   UNL     1     -11.614  12.632  66.810  1.00  0.00    -0.374 C  
HETATM   14  C   UNL     1      -9.358   8.164  65.896  1.00  0.00    -0.126 C  
HETATM   15  O   UNL     1      -7.012   7.577  65.564  1.00  0.00    -0.058 OA 
HETATM   16  O   UNL     1     -12.056  11.920  67.983  1.00  0.00    -0.541 OA 
HETATM   17  C   UNL     1      -9.989  12.217  66.451  1.00  0.00    -0.228 C  
HETATM   18  H   UNL     1     -11.771  11.022  67.869  1.00  0.00     0.000 HD 
HETATM   19  C   UNL     1      -8.957  12.844  67.574  1.00  0.00    -0.193 C  
HETATM   20  F   UNL     1      -9.602  12.880  65.274  1.00  0.00    -0.186 F  
HETATM   21  C   UNL     1      -7.501  12.420  67.323  1.00  0.00    -0.135 C  
HETATM   22  C   UNL     1      -7.397  10.932  67.046  1.00  0.00    -0.118 C  
HETATM   23  C   UNL     1      -8.163  10.610  65.781  1.00  0.00    -0.161 C  
HETATM   24  C   UNL     1      -7.608   9.768  64.887  1.00  0.00    -0.128 C  
HETATM   25  C   UNL     1      -7.896   8.421  65.496  1.00  0.00    -0.109 C  
ENDROOT
BRANCH   4  26
HETATM   26  C   UNL     1     -12.079  14.669  69.545  1.00  0.00    -0.295 C  
HETATM   27  O   UNL     1     -12.763  15.706  69.485  1.00  0.00    -0.038 OA 
BRANCH  26  28
HETATM   28  C   UNL     1     -12.462  13.725  70.686  1.00  0.00    -0.359 C  
HETATM   29  O   UNL     1     -11.697  12.512  70.599  1.00  0.00    -0.481 OA 
HETATM   30  H   UNL     1     -11.934  11.926  71.307  1.00  0.00     0.000 HD 
ENDBRANCH  26  28
ENDBRANCH   4  26
TORSDOF 2
ENDMDL
MODEL       16
REMARK 921   NORMALIZED FREE ENERGY PREDICTED BY IDOCK:   -6.28 KCAL/MOL
REMARK 922        TOTAL FREE ENERGY PREDICTED BY IDOCK:   -6.32 KCAL/MOL
REMARK 923 INTER-LIGAND FREE ENERGY PREDICTED BY IDOCK:   -6.85 KCAL/MOL
REMARK 924 INTRA-LIGAND FREE ENERGY PREDICTED BY IDOCK:    0.53 KCAL/MOL
REMARK 927      BINDING AFFINITY PREDICTED BY RF-SCORE:    0.00 PKD
ROOT
HETATM    1  C   UNL     1      -8.406  12.185  67.960  1.00  0.00    -0.167 C  
HETATM    2  C   UNL     1      -7.812  11.624  66.802  1.00  0.00    -0.130 C  
HETATM    3  C   UNL     1      -9.297  11.722  66.717  1.00  0.00    -0.199 C  
HETATM    4  C   UNL     1     -10.299  12.741  68.210  1.00  0.00    -0.243 C  
HETATM    5  O   UNL     1      -9.551  13.591  69.177  1.00  0.00    -0.383 OA 
HETATM    6  C   UNL     1     -10.511   7.324  67.697  1.00  0.00    -0.310 C  
HETATM    7  C   UNL     1      -9.844  13.067  66.982  1.00  0.00    -0.238 C  
HETATM    8  C   UNL     1     -11.366  11.919  66.607  1.00  0.00    -0.400 C  
HETATM    9  C   UNL     1      -9.430  14.368  66.306  1.00  0.00    -0.297 C  
HETATM   10  C   UNL     1     -10.084   8.251  68.902  1.00  0.00    -0.208 C  
HETATM   11  C   UNL     1     -10.999   7.839  70.088  1.00  0.00    -0.246 C  
HETATM   12  H   UNL     1     -10.011  14.060  69.864  1.00  0.00     0.000 HD 
HETATM   13  C   UNL     1     -11.388  10.492  67.726  1.00  0.00    -0.190 C  
HETATM   14  C   UNL     1     -10.616   6.419  70.676  1.00  0.00    -0.288 C  
HETATM   15  O   UNL     1      -8.570   5.451  71.590  1.00  0.00    -0.128 OA 
HETATM   16  O   UNL     1     -12.200  10.881  68.852  1.00  0.00    -0.709 OA 
HETATM   17  C   UNL     1      -9.955   9.725  68.274  1.00  0.00    -0.153 C  
HETATM   18  H   UNL     1     -12.212  10.134  69.438  1.00  0.00     0.000 HD 
HETATM   19  C   UNL     1      -8.945  10.809  68.998  1.00  0.00    -0.141 C  
HETATM   20  F   UNL     1      -9.210   9.307  67.158  1.00  0.00    -0.134 F  
HETATM   21  C   UNL     1      -7.688  10.135  69.572  1.00  0.00    -0.155 C  
HETATM   22  C   UNL     1      -8.040   8.887  70.360  1.00  0.00    -0.133 C  
HETATM   23  C   UNL     1      -8.682   7.880  69.431  1.00  0.00    -0.138 C  
HETATM   24  C   UNL     1      -8.313   6.587  69.526  1.00  0.00    -0.130 C  
HETATM   25  C   UNL     1      -9.110   6.114  70.714  1.00  0.00    -0.150 C  
ENDROOT
BRANCH   4  26
HETATM   26  C   UNL     1     -11.542  13.900  68.183  1.00  0.00    -0.335 C  
HETATM   27  O   UNL     1     -11.996  14.499  67.192  1.00  0.00    -0.406 OA 
BRANCH  26  28
HETATM   28  C   UNL     1     -12.142  14.342  69.519  1.00  0.00    -0.330 C  
HETATM   29  O   UNL     1     -11.902  13.340  70.521  1.00  0.00    -0.510 OA 
HETATM   30  H   UNL     1     -12.275  13.614  71.350  1.00  0.00     0.000 HD 
ENDBRANCH  26  28
ENDBRANCH   4  26
TORSDOF 2
ENDMDL
MODEL       17
REMARK 921   NORMALIZED FREE ENERGY PREDICTED BY IDOCK:   -6.26 KCAL/MOL
REMARK 922        TOTAL FREE ENERGY PREDICTED BY IDOCK:   -6.30 KCAL/MOL
REMARK 923 INTER-LIGAND FREE ENERGY PREDICTED BY IDOCK:   -7.19 KCAL/MOL
REMARK 924 INTRA-LIGAND FREE ENERGY PREDICTED BY IDOCK:    0.89 KCAL/MOL
REMARK 927      BINDING AFFINITY PREDICTED BY RF-SCORE:    0.00 PKD
ROOT
HETATM    1  C   UNL     1      -9.630   7.314  69.019  1.00  0.00    -0.147 C  
HETATM    2  C   UNL     1      -8.262   7.624  69.222  1.00  0.00    -0.133 C  
HETATM    3  C   UNL     1      -9.167   8.249  70.228  1.00  0.00    -0.155 C  
HETATM    4  C   UNL     1     -11.160   7.702  70.228  1.00  0.00    -0.244 C  
HETATM    5  O   UNL     1     -11.618   6.519  69.447  1.00  0.00    -0.619 OA 
HETATM    6  C   UNL     1      -9.454  12.594  68.551  1.00  0.00    -0.094 C  
HETATM    7  C   UNL     1     -10.069   7.306  70.918  1.00  0.00    -0.192 C  
HETATM    8  C   UNL     1     -10.450   9.065  71.649  1.00  0.00    -0.426 C  
HETATM    9  C   UNL     1      -9.670   6.028  71.644  1.00  0.00    -0.180 C  
HETATM   10  C   UNL     1     -10.309  11.476  67.836  1.00  0.00    -0.203 C  
HETATM   11  C   UNL     1     -11.637  12.168  67.422  1.00  0.00    -0.410 C  
HETATM   12  H   UNL     1     -12.534   6.268  69.447  1.00  0.00     0.000 HD 
HETATM   13  C   UNL     1     -10.889  10.231  70.330  1.00  0.00    -0.253 C  
HETATM   14  C   UNL     1     -11.436  13.181  66.221  1.00  0.00    -0.372 C  
HETATM   15  O   UNL     1     -10.542  12.982  63.959  1.00  0.00    -0.412 OA 
HETATM   16  O   UNL     1     -12.325  10.177  70.213  1.00  0.00    -0.444 OA 
HETATM   17  C   UNL     1     -10.172  10.177  68.773  1.00  0.00    -0.186 C  
HETATM   18  H   UNL     1     -12.555  10.788  69.523  1.00  0.00     0.000 HD 
HETATM   19  C   UNL     1     -10.351   8.686  68.091  1.00  0.00    -0.267 C  
HETATM   20  F   UNL     1      -8.778  10.286  68.913  1.00  0.00    -0.118 F  
HETATM   21  C   UNL     1      -9.789   8.632  66.661  1.00  0.00    -0.336 C  
HETATM   22  C   UNL     1     -10.245   9.825  65.842  1.00  0.00    -0.245 C  
HETATM   23  C   UNL     1      -9.705  11.092  66.469  1.00  0.00    -0.230 C  
HETATM   24  C   UNL     1      -9.190  12.042  65.663  1.00  0.00    -0.010 C  
HETATM   25  C   UNL     1     -10.428  12.731  65.152  1.00  0.00    -0.300 C  
ENDROOT
BRANCH   4  26
HETATM   26  C   UNL     1     -12.241   7.277  71.469  1.00  0.00    -0.352 C  
HETATM   27  O   UNL     1     -11.974   6.707  72.542  1.00  0.00    -0.186 OA 
BRANCH  26  28
HETATM   28  C   UNL     1     -13.731   7.537  71.244  1.00  0.00    -0.251 C  
HETATM   29  O   UNL     1     -14.183   8.590  72.111  1.00  0.00    -0.424 OA 
HETATM   30  H   UNL     1     -15.109   8.752  71.972  1.00  0.00     0.000 HD 
ENDBRANCH  26  28
ENDBRANCH   4  26
TORSDOF 2
ENDMDL
MODEL       18
REMARK 921   NORMALIZED FREE ENERGY PREDICTED BY IDOCK:   -6.25 KCAL/MOL
REMARK 922        TOTAL FREE ENERGY PREDICTED BY IDOCK:   -6.29 KCAL/MOL
REMARK 923 INTER-LIGAND FREE ENERGY PREDICTED BY IDOCK:   -6.91 KCAL/MOL
REMARK 924 INTRA-LIGAND FREE ENERGY PREDICTED BY IDOCK:    0.63 KCAL/MOL
REMARK 927      BINDING AFFINITY PREDICTED BY RF-SCORE:    0.00 PKD
ROOT
HETATM    1  C   UNL     1     -11.223  12.808  63.819  1.00  0.00    -0.496 C  
HETATM    2  C   UNL     1     -12.275  11.859  63.842  1.00  0.00    -0.497 C  
HETATM    3  C   UNL     1     -11.728  12.169  65.193  1.00  0.00    -0.366 C  
HETATM    4  C   UNL     1     -10.364  13.712  65.368  1.00  0.00    -0.332 C  
HETATM    5  O   UNL     1     -10.152  14.664  64.242  1.00  0.00    -0.397 OA 
HETATM    6  C   UNL     1      -8.960   8.475  65.875  1.00  0.00    -0.235 C  
HETATM    7  C   UNL     1     -11.699  13.605  65.533  1.00  0.00    -0.352 C  
HETATM    8  C   UNL     1     -10.979  12.662  67.072  1.00  0.00    -0.300 C  
HETATM    9  C   UNL     1     -12.866  14.582  65.463  1.00  0.00    -0.134 C  
HETATM   10  C   UNL     1      -8.433   9.618  64.922  1.00  0.00    -0.161 C  
HETATM   11  C   UNL     1      -6.904   9.706  65.185  1.00  0.00    -0.098 C  
HETATM   12  H   UNL     1      -9.525  15.373  64.323  1.00  0.00     0.000 HD 
HETATM   13  C   UNL     1      -9.571  11.625  66.591  1.00  0.00    -0.204 C  
HETATM   14  C   UNL     1      -6.122   8.463  64.593  1.00  0.00    -0.064 C  
HETATM   15  O   UNL     1      -5.938   7.468  62.372  1.00  0.00    -0.057 OA 
HETATM   16  O   UNL     1      -8.395  12.438  66.778  1.00  0.00    -0.322 OA 
HETATM   17  C   UNL     1      -9.490  10.818  65.079  1.00  0.00    -0.241 C  
HETATM   18  H   UNL     1      -7.657  11.895  66.526  1.00  0.00     0.000 HD 
HETATM   19  C   UNL     1      -9.673  11.881  63.832  1.00  0.00    -0.203 C  
HETATM   20  F   UNL     1     -10.619   9.992  64.947  1.00  0.00    -0.264 F  
HETATM   21  C   UNL     1      -9.524  11.198  62.463  1.00  0.00    -0.233 C  
HETATM   22  C   UNL     1      -8.308  10.293  62.425  1.00  0.00    -0.196 C  
HETATM   23  C   UNL     1      -8.483   9.186  63.442  1.00  0.00    -0.195 C  
HETATM   24  C   UNL     1      -8.149   7.928  63.090  1.00  0.00    -0.098 C  
HETATM   25  C   UNL     1      -6.650   7.940  63.248  1.00  0.00    -0.075 C  
ENDROOT
BRANCH   4  26
HETATM   26  C   UNL     1     -10.216  15.004  66.462  1.00  0.00    -0.275 C  
HETATM   27  O   UNL     1     -10.064  14.938  67.695  1.00  0.00    -0.226 OA 
BRANCH  26  28
HETATM   28  C   UNL     1     -10.359  16.426  65.918  1.00  0.00    -0.362 C  
HETATM   29  O   UNL     1      -9.064  17.037  65.791  1.00  0.00    -0.530 OA 
HETATM   30  H   UNL     1      -9.153  17.920  65.453  1.00  0.00     0.000 HD 
ENDBRANCH  26  28
ENDBRANCH   4  26
TORSDOF 2
ENDMDL
MODEL       19
REMARK 921   NORMALIZED FREE ENERGY PREDICTED BY IDOCK:   -6.20 KCAL/MOL
REMARK 922        TOTAL FREE ENERGY PREDICTED BY IDOCK:   -6.23 KCAL/MOL
REMARK 923 INTER-LIGAND FREE ENERGY PREDICTED BY IDOCK:   -6.75 KCAL/MOL
REMARK 924 INTRA-LIGAND FREE ENERGY PREDICTED BY IDOCK:    0.52 KCAL/MOL
REMARK 927      BINDING AFFINITY PREDICTED BY RF-SCORE:    0.00 PKD
ROOT
HETATM    1  C   UNL     1     -10.646  11.031  68.058  1.00  0.00    -0.241 C  
HETATM    2  C   UNL     1     -11.576  11.372  67.046  1.00  0.00    -0.135 C  
HETATM    3  C   UNL     1     -10.342  12.207  67.021  1.00  0.00    -0.232 C  
HETATM    4  C   UNL     1      -8.779  11.682  68.266  1.00  0.00    -0.163 C  
HETATM    5  O   UNL     1      -8.769  10.359  68.949  1.00  0.00    -0.139 OA 
HETATM    6  C   UNL     1     -11.874  16.079  69.128  1.00  0.00    -0.268 C  
HETATM    7  C   UNL     1      -9.081  11.443  66.972  1.00  0.00    -0.169 C  
HETATM    8  C   UNL     1      -8.585  13.322  66.978  1.00  0.00    -0.169 C  
HETATM    9  C   UNL     1      -8.713  10.354  65.973  1.00  0.00    -0.163 C  
HETATM   10  C   UNL     1     -11.536  14.835  70.039  1.00  0.00    -0.321 C  
HETATM   11  C   UNL     1     -10.922  15.425  71.338  1.00  0.00    -0.200 C  
HETATM   12  H   UNL     1      -8.050  10.118  69.522  1.00  0.00     0.000 HD 
HETATM   13  C   UNL     1      -9.293  14.171  68.416  1.00  0.00    -0.208 C  
HETATM   14  C   UNL     1     -12.007  16.148  72.238  1.00  0.00    -0.637 C  
HETATM   15  O   UNL     1     -14.116  15.453  73.251  1.00  0.00    -0.137 OA 
HETATM   16  O   UNL     1      -8.294  14.099  69.453  1.00  0.00    -0.344 OA 
HETATM   17  C   UNL     1     -10.832  13.773  69.059  1.00  0.00    -0.217 C  
HETATM   18  H   UNL     1      -8.664  14.544  70.206  1.00  0.00     0.000 HD 
HETATM   19  C   UNL     1     -10.920  12.169  69.434  1.00  0.00    -0.109 C  
HETATM   20  F   UNL     1     -11.794  13.904  68.043  1.00  0.00    -0.330 F  
HETATM   21  C   UNL     1     -12.261  11.800  70.088  1.00  0.00    -0.342 C  
HETATM   22  C   UNL     1     -12.636  12.785  71.179  1.00  0.00    -0.365 C  
HETATM   23  C   UNL     1     -12.819  14.157  70.566  1.00  0.00    -0.310 C  
HETATM   24  C   UNL     1     -13.869  14.904  70.959  1.00  0.00    -0.332 C  
HETATM   25  C   UNL     1     -13.385  15.470  72.269  1.00  0.00    -0.473 C  
ENDROOT
BRANCH   4  26
HETATM   26  C   UNL     1      -7.102  11.545  68.019  1.00  0.00    -0.079 C  
HETATM   27  O   UNL     1      -6.478  11.708  66.956  1.00  0.00    -0.124 OA 
BRANCH  26  28
HETATM   28  C   UNL     1      -6.237  11.095  69.198  1.00  0.00    -0.055 C  
HETATM   29  O   UNL     1      -6.490  11.928  70.341  1.00  0.00    -0.491 OA 
HETATM   30  H   UNL     1      -5.953  11.648  71.073  1.00  0.00     0.000 HD 
ENDBRANCH  26  28
ENDBRANCH   4  26
TORSDOF 2
ENDMDL
MODEL       20
REMARK 921   NORMALIZED FREE ENERGY PREDICTED BY IDOCK:   -6.17 KCAL/MOL
REMARK 922        TOTAL FREE ENERGY PREDICTED BY IDOCK:   -6.20 KCAL/MOL
REMARK 923 INTER-LIGAND FREE ENERGY PREDICTED BY IDOCK:   -6.96 KCAL/MOL
REMARK 924 INTRA-LIGAND FREE ENERGY PREDICTED BY IDOCK:    0.76 KCAL/MOL
REMARK 927      BINDING AFFINITY PREDICTED BY RF-SCORE:    0.00 PKD
ROOT
HETATM    1  C   UNL     1     -10.607   6.224  70.342  1.00  0.00    -0.309 C  
HETATM    2  C   UNL     1      -9.325   5.833  70.799  1.00  0.00    -0.189 C  
HETATM    3  C   UNL     1      -9.609   7.281  71.005  1.00  0.00    -0.158 C  
HETATM    4  C   UNL     1     -11.521   7.967  70.625  1.00  0.00    -0.232 C  
HETATM    5  O   UNL     1     -12.643   7.008  70.432  1.00  0.00    -0.618 OA 
HETATM    6  C   UNL     1      -7.285   9.139  67.410  1.00  0.00    -0.080 C  
HETATM    7  C   UNL     1     -10.861   7.567  71.732  1.00  0.00    -0.261 C  
HETATM    8  C   UNL     1     -10.056   9.288  71.327  1.00  0.00    -0.361 C  
HETATM    9  C   UNL     1     -11.283   6.996  73.080  1.00  0.00    -0.242 C  
HETATM   10  C   UNL     1      -8.679   8.463  67.109  1.00  0.00    -0.131 C  
HETATM   11  C   UNL     1      -9.333   9.333  66.000  1.00  0.00    -0.283 C  
HETATM   12  H   UNL     1     -13.523   7.323  70.258  1.00  0.00     0.000 HD 
HETATM   13  C   UNL     1      -9.764   9.460  69.545  1.00  0.00    -0.183 C  
HETATM   14  C   UNL     1      -8.621   9.149  64.597  1.00  0.00    -0.206 C  
HETATM   15  O   UNL     1      -8.151   7.229  63.165  1.00  0.00    -0.108 OA 
HETATM   16  O   UNL     1     -10.941  10.097  69.009  1.00  0.00    -0.218 OA 
HETATM   17  C   UNL     1      -9.310   8.138  68.551  1.00  0.00    -0.138 C  
HETATM   18  H   UNL     1     -10.789  10.187  68.076  1.00  0.00     0.000 HD 
HETATM   19  C   UNL     1     -10.393   6.901  68.681  1.00  0.00    -0.200 C  
HETATM   20  F   UNL     1      -8.132   7.570  69.064  1.00  0.00    -0.116 F  
HETATM   21  C   UNL     1     -10.056   5.734  67.740  1.00  0.00    -0.196 C  
HETATM   22  C   UNL     1      -9.735   6.226  66.341  1.00  0.00    -0.146 C  
HETATM   23  C   UNL     1      -8.505   7.105  66.395  1.00  0.00    -0.130 C  
HETATM   24  C   UNL     1      -7.562   6.955  65.444  1.00  0.00    -0.093 C  
HETATM   25  C   UNL     1      -8.151   7.719  64.287  1.00  0.00    -0.079 C  
ENDROOT
BRANCH   4  26
HETATM   26  C   UNL     1     -12.571   8.993  71.483  1.00  0.00    -0.338 C  
HETATM   27  O   UNL     1     -12.342  10.148  71.882  1.00  0.00    -0.362 OA 
BRANCH  26  28
HETATM   28  C   UNL     1     -13.935   8.439  71.898  1.00  0.00    -0.421 C  
HETATM   29  O   UNL     1     -14.222   8.807  73.258  1.00  0.00    -1.164 OA 
HETATM   30  H   UNL     1     -15.069   8.463  73.516  1.00  0.00     0.000 HD 
ENDBRANCH  26  28
ENDBRANCH   4  26
TORSDOF 2
ENDMDL
MODEL       21
REMARK 921   NORMALIZED FREE ENERGY PREDICTED BY IDOCK:   -6.14 KCAL/MOL
REMARK 922        TOTAL FREE ENERGY PREDICTED BY IDOCK:   -6.17 KCAL/MOL
REMARK 923 INTER-LIGAND FREE ENERGY PREDICTED BY IDOCK:   -6.77 KCAL/MOL
REMARK 924 INTRA-LIGAND FREE ENERGY PREDICTED BY IDOCK:    0.60 KCAL/MOL
REMARK 927      BINDING AFFINITY PREDICTED BY RF-SCORE:    0.00 PKD
ROOT
HETATM    1  C   UNL     1     -10.735  13.608  69.309  1.00  0.00    -0.060 C  
HETATM    2  C   UNL     1     -11.952  14.269  69.606  1.00  0.00    -0.387 C  
HETATM    3  C   UNL     1     -11.838  13.853  68.180  1.00  0.00    -0.407 C  
HETATM    4  C   UNL     1     -10.241  12.661  67.633  1.00  0.00    -0.217 C  
HETATM    5  O   UNL     1      -9.397  12.005  68.670  1.00  0.00    -0.343 OA 
HETATM    6  C   UNL     1     -10.629  17.898  66.192  1.00  0.00    -0.243 C  
HETATM    7  C   UNL     1     -11.524  12.425  67.977  1.00  0.00    -0.377 C  
HETATM    8  C   UNL     1     -11.671  13.212  66.206  1.00  0.00    -0.424 C  
HETATM    9  C   UNL     1     -12.271  11.235  68.565  1.00  0.00     0.032 C  
HETATM   10  C   UNL     1      -9.509  17.100  66.967  1.00  0.00    -0.257 C  
HETATM   11  C   UNL     1      -8.203  17.320  66.154  1.00  0.00    -0.258 C  
HETATM   12  H   UNL     1      -8.663  11.457  68.419  1.00  0.00     0.000 HD 
HETATM   13  C   UNL     1     -10.536  14.616  66.029  1.00  0.00    -0.305 C  
HETATM   14  C   UNL     1      -7.650  18.797  66.299  1.00  0.00    -0.287 C  
HETATM   15  O   UNL     1      -7.004  20.195  68.192  1.00  0.00    -0.284 OA 
HETATM   16  O   UNL     1      -9.317  14.075  65.480  1.00  0.00    -0.499 OA 
HETATM   17  C   UNL     1     -10.173  15.680  67.324  1.00  0.00    -0.266 C  
HETATM   18  H   UNL     1      -8.722  14.810  65.387  1.00  0.00     0.000 HD 
HETATM   19  C   UNL     1      -9.610  14.850  68.633  1.00  0.00    -0.222 C  
HETATM   20  F   UNL     1     -11.372  16.234  67.804  1.00  0.00    -0.309 F  
HETATM   21  C   UNL     1      -9.201  15.786  69.781  1.00  0.00    -0.025 C  
HETATM   22  C   UNL     1      -8.352  16.939  69.279  1.00  0.00     0.070 C  
HETATM   23  C   UNL     1      -9.168  17.772  68.315  1.00  0.00    -0.280 C  
HETATM   24  C   UNL     1      -9.102  19.115  68.406  1.00  0.00    -0.405 C  
HETATM   25  C   UNL     1      -7.810  19.420  67.694  1.00  0.00    -0.274 C  
ENDROOT
BRANCH   4  26
HETATM   26  C   UNL     1     -10.119  11.260  66.677  1.00  0.00    -0.214 C  
HETATM   27  O   UNL     1     -10.560  11.089  65.527  1.00  0.00    -0.256 OA 
BRANCH  26  28
HETATM   28  C   UNL     1      -9.468  10.022  67.296  1.00  0.00    -0.154 C  
HETATM   29  O   UNL     1      -8.119   9.885  66.820  1.00  0.00    -0.115 OA 
HETATM   30  H   UNL     1      -7.715   9.116  67.205  1.00  0.00     0.000 HD 
ENDBRANCH  26  28
ENDBRANCH   4  26
TORSDOF 2
ENDMDL
MODEL       22
REMARK 921   NORMALIZED FREE ENERGY PREDICTED BY IDOCK:   -6.13 KCAL/MOL
REMARK 922        TOTAL FREE ENERGY PREDICTED BY IDOCK:   -6.15 KCAL/MOL
REMARK 923 INTER-LIGAND FREE ENERGY PREDICTED BY IDOCK:   -6.78 KCAL/MOL
REMARK 924 INTRA-LIGAND FREE ENERGY PREDICTED BY IDOCK:    0.62 KCAL/MOL
REMARK 927      BINDING AFFINITY PREDICTED BY RF-SCORE:    0.00 PKD
ROOT
HETATM    1  C   UNL     1      -8.477  10.961  67.127  1.00  0.00    -0.128 C  
HETATM    2  C   UNL     1      -9.433  10.569  68.096  1.00  0.00    -0.157 C  
HETATM    3  C   UNL     1     -10.003  10.710  66.726  1.00  0.00    -0.254 C  
HETATM    4  C   UNL     1      -8.702  11.032  65.153  1.00  0.00    -0.061 C  
HETATM    5  O   UNL     1      -7.236  10.842  65.334  1.00  0.00    -0.354 OA 
HETATM    6  C   UNL     1     -12.026  14.902  67.056  1.00  0.00    -0.126 C  
HETATM    7  C   UNL     1      -9.297   9.942  65.682  1.00  0.00    -0.269 C  
HETATM    8  C   UNL     1     -10.758  10.864  64.792  1.00  0.00    -0.248 C  
HETATM    9  C   UNL     1      -8.973   8.454  65.708  1.00  0.00    -0.207 C  
HETATM   10  C   UNL     1     -10.458  14.859  66.871  1.00  0.00    -0.280 C  
HETATM   11  C   UNL     1     -10.112  16.071  65.964  1.00  0.00    -0.362 C  
HETATM   12  H   UNL     1      -6.638  10.990  64.611  1.00  0.00     0.000 HD 
HETATM   13  C   UNL     1     -10.664  12.652  65.084  1.00  0.00    -0.292 C  
HETATM   14  C   UNL     1     -10.268  17.452  66.724  1.00  0.00    -0.318 C  
HETATM   15  O   UNL     1      -9.315  18.388  68.766  1.00  0.00    -0.326 OA 
HETATM   16  O   UNL     1      -9.903  13.195  63.986  1.00  0.00    -0.715 OA 
HETATM   17  C   UNL     1     -10.113  13.319  66.565  1.00  0.00    -0.275 C  
HETATM   18  H   UNL     1      -9.854  14.132  64.139  1.00  0.00     0.000 HD 
HETATM   19  C   UNL     1      -8.611  12.753  66.946  1.00  0.00    -0.140 C  
HETATM   20  F   UNL     1     -10.905  12.816  67.611  1.00  0.00    -0.219 F  
HETATM   21  C   UNL     1      -8.058  13.396  68.227  1.00  0.00    -0.152 C  
HETATM   22  C   UNL     1      -8.245  14.902  68.217  1.00  0.00    -0.145 C  
HETATM   23  C   UNL     1      -9.725  15.216  68.182  1.00  0.00    -0.217 C  
HETATM   24  C   UNL     1     -10.195  16.198  68.977  1.00  0.00    -0.250 C  
HETATM   25  C   UNL     1      -9.836  17.437  68.198  1.00  0.00    -0.301 C  
ENDROOT
BRANCH   4  26
HETATM   26  C   UNL     1      -8.577  10.351  63.600  1.00  0.00    -0.186 C  
HETATM   27  O   UNL     1      -9.505   9.973  62.863  1.00  0.00    -0.294 OA 
BRANCH  26  28
HETATM   28  C   UNL     1      -7.178  10.086  63.042  1.00  0.00    -0.131 C  
HETATM   29  O   UNL     1      -6.659  11.276  62.427  1.00  0.00    -0.368 OA 
HETATM   30  H   UNL     1      -5.790  11.111  62.080  1.00  0.00     0.000 HD 
ENDBRANCH  26  28
ENDBRANCH   4  26
TORSDOF 2
ENDMDL
MODEL       23
REMARK 921   NORMALIZED FREE ENERGY PREDICTED BY IDOCK:   -6.08 KCAL/MOL
REMARK 922        TOTAL FREE ENERGY PREDICTED BY IDOCK:   -6.10 KCAL/MOL
REMARK 923 INTER-LIGAND FREE ENERGY PREDICTED BY IDOCK:   -6.83 KCAL/MOL
REMARK 924 INTRA-LIGAND FREE ENERGY PREDICTED BY IDOCK:    0.73 KCAL/MOL
REMARK 927      BINDING AFFINITY PREDICTED BY RF-SCORE:    0.00 PKD
ROOT
HETATM    1  C   UNL     1      -8.412  17.399  69.155  1.00  0.00     0.064 C  
HETATM    2  C   UNL     1      -7.227  16.694  69.479  1.00  0.00    -0.016 C  
HETATM    3  C   UNL     1      -7.353  17.003  68.027  1.00  0.00    -0.183 C  
HETATM    4  C   UNL     1      -8.893  18.239  67.419  1.00  0.00    -0.253 C  
HETATM    5  O   UNL     1      -9.672  19.023  68.417  1.00  0.00    -0.336 OA 
HETATM    6  C   UNL     1      -8.836  12.891  66.392  1.00  0.00     0.061 C  
HETATM    7  C   UNL     1      -7.590  18.426  67.717  1.00  0.00    -0.238 C  
HETATM    8  C   UNL     1      -7.532  17.495  66.012  1.00  0.00    -0.274 C  
HETATM    9  C   UNL     1      -6.763  19.613  68.193  1.00  0.00    -0.299 C  
HETATM   10  C   UNL     1      -9.890  13.811  67.124  1.00  0.00    -0.242 C  
HETATM   11  C   UNL     1     -11.226  13.604  66.358  1.00  0.00    -0.317 C  
HETATM   12  H   UNL     1     -10.381  19.591  68.138  1.00  0.00     0.000 HD 
HETATM   13  C   UNL     1      -8.749  16.151  65.970  1.00  0.00    -0.246 C  
HETATM   14  C   UNL     1     -11.858  12.178  66.631  1.00  0.00    -0.314 C  
HETATM   15  O   UNL     1     -12.535  10.973  68.642  1.00  0.00    -0.462 OA 
HETATM   16  O   UNL     1      -9.948  16.716  65.405  1.00  0.00    -0.565 OA 
HETATM   17  C   UNL     1      -9.139  15.214  67.353  1.00  0.00    -0.191 C  
HETATM   18  H   UNL     1     -10.585  16.012  65.383  1.00  0.00     0.000 HD 
HETATM   19  C   UNL     1      -9.621  16.176  68.603  1.00  0.00    -0.226 C  
HETATM   20  F   UNL     1      -7.961  14.630  67.851  1.00  0.00    -0.114 F  
HETATM   21  C   UNL     1     -10.055  15.358  69.829  1.00  0.00    -0.266 C  
HETATM   22  C   UNL     1     -10.979  14.221  69.438  1.00  0.00    -0.242 C  
HETATM   23  C   UNL     1     -10.235  13.269  68.527  1.00  0.00    -0.222 C  
HETATM   24  C   UNL     1     -10.374  11.943  68.727  1.00  0.00    -0.184 C  
HETATM   25  C   UNL     1     -11.699  11.659  68.068  1.00  0.00    -0.281 C  
ENDROOT
BRANCH   4  26
HETATM   26  C   UNL     1      -8.959  19.565  66.357  1.00  0.00    -0.370 C  
HETATM   27  O   UNL     1      -8.003  20.197  65.875  1.00  0.00    -0.297 OA 
BRANCH  26  28
HETATM   28  C   UNL     1     -10.335  20.124  65.990  1.00  0.00    -0.372 C  
HETATM   29  O   UNL     1     -11.006  19.227  65.089  1.00  0.00    -0.448 OA 
HETATM   30  H   UNL     1     -11.861  19.574  64.861  1.00  0.00     0.000 HD 
ENDBRANCH  26  28
ENDBRANCH   4  26
TORSDOF 2
ENDMDL
MODEL       24
REMARK 921   NORMALIZED FREE ENERGY PREDICTED BY IDOCK:   -6.08 KCAL/MOL
REMARK 922        TOTAL FREE ENERGY PREDICTED BY IDOCK:   -6.10 KCAL/MOL
REMARK 923 INTER-LIGAND FREE ENERGY PREDICTED BY IDOCK:   -6.81 KCAL/MOL
REMARK 924 INTRA-LIGAND FREE ENERGY PREDICTED BY IDOCK:    0.71 KCAL/MOL
REMARK 927      BINDING AFFINITY PREDICTED BY RF-SCORE:    0.00 PKD
ROOT
HETATM    1  C   UNL     1     -11.675  11.844  67.900  1.00  0.00    -0.368 C  
HETATM    2  C   UNL     1     -11.430  12.283  69.225  1.00  0.00    -0.352 C  
HETATM    3  C   UNL     1     -10.433  12.790  68.239  1.00  0.00    -0.250 C  
HETATM    4  C   UNL     1     -10.783  12.452  66.231  1.00  0.00    -0.256 C  
HETATM    5  O   UNL     1     -12.115  11.976  65.766  1.00  0.00    -0.536 OA 
HETATM    6  C   UNL     1      -6.882   9.864  69.013  1.00  0.00    -0.054 C  
HETATM    7  C   UNL     1     -11.016  13.481  67.072  1.00  0.00    -0.297 C  
HETATM    8  C   UNL     1      -9.089  13.526  66.831  1.00  0.00    -0.246 C  
HETATM    9  C   UNL     1     -12.009  14.635  67.099  1.00  0.00    -0.310 C  
HETATM   10  C   UNL     1      -8.100   9.328  68.162  1.00  0.00    -0.107 C  
HETATM   11  C   UNL     1      -7.476   8.403  67.081  1.00  0.00    -0.089 C  
HETATM   12  H   UNL     1     -12.276  11.820  64.842  1.00  0.00     0.000 HD 
HETATM   13  C   UNL     1      -8.395  11.850  66.875  1.00  0.00    -0.169 C  
HETATM   14  C   UNL     1      -6.940   7.044  67.692  1.00  0.00    -0.083 C  
HETATM   15  O   UNL     1      -7.951   5.251  69.002  1.00  0.00    -0.084 OA 
HETATM   16  O   UNL     1      -8.365  11.396  65.507  1.00  0.00    -0.376 OA 
HETATM   17  C   UNL     1      -9.021  10.616  67.888  1.00  0.00    -0.138 C  
HETATM   18  H   UNL     1      -8.001  10.519  65.529  1.00  0.00     0.000 HD 
HETATM   19  C   UNL     1     -10.633  10.395  67.622  1.00  0.00    -0.304 C  
HETATM   20  F   UNL     1      -8.987  11.064  69.219  1.00  0.00    -0.151 F  
HETATM   21  C   UNL     1     -11.205   9.239  68.459  1.00  0.00     0.197 C  
HETATM   22  C   UNL     1     -10.318   8.010  68.384  1.00  0.00    -0.236 C  
HETATM   23  C   UNL     1      -8.964   8.340  68.974  1.00  0.00    -0.147 C  
HETATM   24  C   UNL     1      -8.382   7.442  69.793  1.00  0.00    -0.134 C  
HETATM   25  C   UNL     1      -7.800   6.451  68.818  1.00  0.00    -0.109 C  
ENDROOT
BRANCH   4  26
HETATM   26  C   UNL     1     -10.681  13.448  64.857  1.00  0.00    -0.369 C  
HETATM   27  O   UNL     1     -10.055  14.516  64.742  1.00  0.00    -0.340 OA 
BRANCH  26  28
HETATM   28  C   UNL     1     -11.503  13.061  63.627  1.00  0.00    -0.392 C  
HETATM   29  O   UNL     1     -12.494  14.066  63.361  1.00  0.00    -1.108 OA 
HETATM   30  H   UNL     1     -13.005  13.826  62.596  1.00  0.00     0.000 HD 
ENDBRANCH  26  28
ENDBRANCH   4  26
TORSDOF 2
ENDMDL
MODEL       25
REMARK 921   NORMALIZED FREE ENERGY PREDICTED BY IDOCK:   -6.05 KCAL/MOL
REMARK 922        TOTAL FREE ENERGY PREDICTED BY IDOCK:   -6.06 KCAL/MOL
REMARK 923 INTER-LIGAND FREE ENERGY PREDICTED BY IDOCK:   -6.66 KCAL/MOL
REMARK 924 INTRA-LIGAND FREE ENERGY PREDICTED BY IDOCK:    0.60 KCAL/MOL
REMARK 927      BINDING AFFINITY PREDICTED BY RF-SCORE:    0.00 PKD
ROOT
HETATM    1  C   UNL     1     -10.920  14.729  66.582  1.00  0.00    -0.326 C  
HETATM    2  C   UNL     1     -11.798  14.145  67.528  1.00  0.00    -0.437 C  
HETATM    3  C   UNL     1     -10.469  14.507  68.098  1.00  0.00    -0.239 C  
HETATM    4  C   UNL     1      -9.162  15.592  66.922  1.00  0.00    -0.236 C  
HETATM    5  O   UNL     1      -9.634  16.236  65.664  1.00  0.00    -0.466 OA 
HETATM    6  C   UNL     1      -8.371  10.339  68.118  1.00  0.00    -0.118 C  
HETATM    7  C   UNL     1     -10.063  15.908  67.876  1.00  0.00    -0.235 C  
HETATM    8  C   UNL     1      -8.624  15.072  68.877  1.00  0.00    -0.189 C  
HETATM    9  C   UNL     1     -10.871  17.155  68.211  1.00  0.00    -0.314 C  
HETATM   10  C   UNL     1      -8.472  11.101  66.738  1.00  0.00    -0.153 C  
HETATM   11  C   UNL     1      -7.149  10.784  65.990  1.00  0.00    -0.102 C  
HETATM   12  H   UNL     1      -9.032  16.735  65.124  1.00  0.00     0.000 HD 
HETATM   13  C   UNL     1      -8.003  13.604  68.010  1.00  0.00    -0.154 C  
HETATM   14  C   UNL     1      -7.092   9.285  65.481  1.00  0.00    -0.086 C  
HETATM   15  O   UNL     1      -8.521   7.917  64.052  1.00  0.00     0.005 OA 
HETATM   16  O   UNL     1      -6.911  14.060  67.187  1.00  0.00    -0.407 OA 
HETATM   17  C   UNL     1      -9.024  12.565  67.105  1.00  0.00    -0.200 C  
HETATM   18  H   UNL     1      -6.586  13.292  66.733  1.00  0.00     0.000 HD 
HETATM   19  C   UNL     1      -9.859  13.407  65.959  1.00  0.00    -0.273 C  
HETATM   20  F   UNL     1     -10.047  12.093  67.945  1.00  0.00    -0.181 F  
HETATM   21  C   UNL     1     -10.721  12.489  65.079  1.00  0.00    -0.326 C  
HETATM   22  C   UNL     1      -9.939  11.276  64.611  1.00  0.00    -0.331 C  
HETATM   23  C   UNL     1      -9.528  10.457  65.815  1.00  0.00    -0.247 C  
HETATM   24  C   UNL     1      -9.651   9.116  65.755  1.00  0.00    -0.323 C  
HETATM   25  C   UNL     1      -8.427   8.718  64.973  1.00  0.00    -0.175 C  
ENDROOT
BRANCH   4  26
HETATM   26  C   UNL     1      -8.189  16.952  67.229  1.00  0.00    -0.184 C  
HETATM   27  O   UNL     1      -7.354  17.094  68.140  1.00  0.00    -0.189 OA 
BRANCH  26  28
HETATM   28  C   UNL     1      -8.389  18.191  66.356  1.00  0.00    -0.245 C  
HETATM   29  O   UNL     1      -7.357  18.263  65.359  1.00  0.00    -0.531 OA 
HETATM   30  H   UNL     1      -7.481  19.033  64.816  1.00  0.00     0.000 HD 
ENDBRANCH  26  28
ENDBRANCH   4  26
TORSDOF 2
ENDMDL
MODEL       26
REMARK 921   NORMALIZED FREE ENERGY PREDICTED BY IDOCK:   -6.03 KCAL/MOL
REMARK 922        TOTAL FREE ENERGY PREDICTED BY IDOCK:   -6.04 KCAL/MOL
REMARK 923 INTER-LIGAND FREE ENERGY PREDICTED BY IDOCK:   -6.82 KCAL/MOL
REMARK 924 INTRA-LIGAND FREE ENERGY PREDICTED BY IDOCK:    0.79 KCAL/MOL
REMARK 927      BINDING AFFINITY PREDICTED BY RF-SCORE:    0.00 PKD
ROOT
HETATM    1  C   UNL     1     -10.184  13.965  65.328  1.00  0.00    -0.366 C  
HETATM    2  C   UNL     1     -11.454  13.617  64.804  1.00  0.00    -0.367 C  
HETATM    3  C   UNL     1     -11.525  14.287  66.134  1.00  0.00    -0.357 C  
HETATM    4  C   UNL     1      -9.789  15.082  66.924  1.00  0.00    -0.238 C  
HETATM    5  O   UNL     1      -8.575  15.237  66.075  1.00  0.00    -0.394 OA 
HETATM    6  C   UNL     1     -12.148  10.602  68.929  1.00  0.00    -0.014 C  
HETATM    7  C   UNL     1     -10.821  15.581  66.211  1.00  0.00    -0.283 C  
HETATM    8  C   UNL     1     -11.595  15.272  67.966  1.00  0.00    -0.325 C  
HETATM    9  C   UNL     1     -10.998  16.772  65.278  1.00  0.00    -0.084 C  
HETATM   10  C   UNL     1     -10.690  10.871  68.386  1.00  0.00    -0.240 C  
HETATM   11  C   UNL     1      -9.735  10.483  69.548  1.00  0.00    -0.147 C  
HETATM   12  H   UNL     1      -7.777  15.603  66.439  1.00  0.00     0.000 HD 
HETATM   13  C   UNL     1     -11.040  13.684  68.645  1.00  0.00    -0.272 C  
HETATM   14  C   UNL     1      -9.669   8.916  69.772  1.00  0.00    -0.180 C  
HETATM   15  O   UNL     1      -9.112   7.015  68.346  1.00  0.00    -0.129 OA 
HETATM   16  O   UNL     1      -9.863  13.975  69.425  1.00  0.00    -0.403 OA 
HETATM   17  C   UNL     1     -10.767  12.305  67.663  1.00  0.00    -0.220 C  
HETATM   18  H   UNL     1      -9.572  13.143  69.780  1.00  0.00     0.000 HD 
HETATM   19  C   UNL     1      -9.696  12.641  66.455  1.00  0.00    -0.259 C  
HETATM   20  F   UNL     1     -11.945  12.011  66.957  1.00  0.00    -0.388 F  
HETATM   21  C   UNL     1      -9.370  11.400  65.608  1.00  0.00    -0.242 C  
HETATM   22  C   UNL     1      -9.068  10.197  66.482  1.00  0.00    -0.166 C  
HETATM   23  C   UNL     1     -10.299   9.853  67.293  1.00  0.00    -0.303 C  
HETATM   24  C   UNL     1     -10.651   8.558  67.413  1.00  0.00    -0.304 C  
HETATM   25  C   UNL     1      -9.713   8.072  68.488  1.00  0.00    -0.159 C  
ENDROOT
BRANCH   4  26
HETATM   26  C   UNL     1      -9.434  16.569  67.668  1.00  0.00    -0.225 C  
HETATM   27  O   UNL     1     -10.046  17.110  68.606  1.00  0.00    -0.289 OA 
BRANCH  26  28
HETATM   28  C   UNL     1      -8.287  17.403  67.097  1.00  0.00    -0.214 C  
HETATM   29  O   UNL     1      -7.674  18.178  68.140  1.00  0.00    -0.256 OA 
HETATM   30  H   UNL     1      -6.961  18.696  67.785  1.00  0.00     0.000 HD 
ENDBRANCH  26  28
ENDBRANCH   4  26
TORSDOF 2
ENDMDL
MODEL       27
REMARK 921   NORMALIZED FREE ENERGY PREDICTED BY IDOCK:   -5.91 KCAL/MOL
REMARK 922        TOTAL FREE ENERGY PREDICTED BY IDOCK:   -5.91 KCAL/MOL
REMARK 923 INTER-LIGAND FREE ENERGY PREDICTED BY IDOCK:   -6.41 KCAL/MOL
REMARK 924 INTRA-LIGAND FREE ENERGY PREDICTED BY IDOCK:    0.50 KCAL/MOL
REMARK 927      BINDING AFFINITY PREDICTED BY RF-SCORE:    0.00 PKD
ROOT
HETATM    1  C   UNL     1      -8.911   7.781  67.275  1.00  0.00    -0.130 C  
HETATM    2  C   UNL     1      -9.895   6.910  66.748  1.00  0.00    -0.243 C  
HETATM    3  C   UNL     1     -10.435   8.241  67.145  1.00  0.00    -0.386 C  
HETATM    4  C   UNL     1      -9.095   9.714  67.699  1.00  0.00    -0.131 C  
HETATM    5  O   UNL     1      -7.639   9.549  67.437  1.00  0.00    -0.094 OA 
HETATM    6  C   UNL     1     -12.349   7.204  71.272  1.00  0.00    -0.418 C  
HETATM    7  C   UNL     1      -9.730   9.395  66.552  1.00  0.00    -0.299 C  
HETATM    8  C   UNL     1     -11.148  10.128  67.660  1.00  0.00    -0.275 C  
HETATM    9  C   UNL     1      -9.446   9.627  65.074  1.00  0.00    -0.312 C  
HETATM   10  C   UNL     1     -10.780   7.371  71.215  1.00  0.00    -0.238 C  
HETATM   11  C   UNL     1     -10.384   8.046  72.557  1.00  0.00    -0.374 C  
HETATM   12  H   UNL     1      -7.023  10.226  67.692  1.00  0.00     0.000 HD 
HETATM   13  C   UNL     1     -11.011   9.523  69.365  1.00  0.00    -0.170 C  
HETATM   14  C   UNL     1     -10.518   7.056  73.787  1.00  0.00    -0.392 C  
HETATM   15  O   UNL     1      -9.579   4.867  74.319  1.00  0.00    -0.122 OA 
HETATM   16  O   UNL     1     -10.215  10.497  70.070  1.00  0.00    -0.430 OA 
HETATM   17  C   UNL     1     -10.471   7.940  69.743  1.00  0.00    -0.233 C  
HETATM   18  H   UNL     1     -10.144  10.181  70.963  1.00  0.00     0.000 HD 
HETATM   19  C   UNL     1      -8.993   7.644  69.075  1.00  0.00    -0.137 C  
HETATM   20  F   UNL     1     -11.297   7.011  69.088  1.00  0.00    -0.194 F  
HETATM   21  C   UNL     1      -8.447   6.261  69.465  1.00  0.00    -0.129 C  
HETATM   22  C   UNL     1      -8.593   6.008  70.954  1.00  0.00    -0.131 C  
HETATM   23  C   UNL     1     -10.063   6.008  71.313  1.00  0.00    -0.237 C  
HETATM   24  C   UNL     1     -10.522   5.059  72.154  1.00  0.00    -0.274 C  
HETATM   25  C   UNL     1     -10.114   5.601  73.499  1.00  0.00    -0.193 C  
ENDROOT
BRANCH   4  26
HETATM   26  C   UNL     1      -8.959  11.361  67.300  1.00  0.00    -0.159 C  
HETATM   27  O   UNL     1      -9.619  11.991  66.455  1.00  0.00    -0.217 OA 
BRANCH  26  28
HETATM   28  C   UNL     1      -7.859  12.177  67.980  1.00  0.00    -0.145 C  
HETATM   29  O   UNL     1      -7.765  11.817  69.368  1.00  0.00    -0.344 OA 
HETATM   30  H   UNL     1      -7.081  12.323  69.790  1.00  0.00     0.000 HD 
ENDBRANCH  26  28
ENDBRANCH   4  26
TORSDOF 2
ENDMDL
MODEL       28
REMARK 921   NORMALIZED FREE ENERGY PREDICTED BY IDOCK:   -5.89 KCAL/MOL
REMARK 922        TOTAL FREE ENERGY PREDICTED BY IDOCK:   -5.89 KCAL/MOL
REMARK 923 INTER-LIGAND FREE ENERGY PREDICTED BY IDOCK:   -6.54 KCAL/MOL
REMARK 924 INTRA-LIGAND FREE ENERGY PREDICTED BY IDOCK:    0.65 KCAL/MOL
REMARK 927      BINDING AFFINITY PREDICTED BY RF-SCORE:    0.00 PKD
ROOT
HETATM    1  C   UNL     1     -11.423  11.115  68.075  1.00  0.00    -0.366 C  
HETATM    2  C   UNL     1     -10.913  11.054  69.395  1.00  0.00    -0.301 C  
HETATM    3  C   UNL     1     -10.092  11.898  68.482  1.00  0.00    -0.211 C  
HETATM    4  C   UNL     1     -10.826  12.295  66.591  1.00  0.00    -0.258 C  
HETATM    5  O   UNL     1     -12.245  11.995  66.253  1.00  0.00    -0.548 OA 
HETATM    6  C   UNL     1      -6.620   8.948  67.468  1.00  0.00    -0.062 C  
HETATM    7  C   UNL     1     -10.843  12.950  67.771  1.00  0.00    -0.248 C  
HETATM    8  C   UNL     1      -8.994  13.111  67.195  1.00  0.00    -0.228 C  
HETATM    9  C   UNL     1     -11.751  14.002  68.395  1.00  0.00    -0.389 C  
HETATM   10  C   UNL     1      -8.002   8.732  66.734  1.00  0.00    -0.097 C  
HETATM   11  C   UNL     1      -7.641   8.267  65.297  1.00  0.00    -0.094 C  
HETATM   12  H   UNL     1     -12.582  12.177  65.384  1.00  0.00     0.000 HD 
HETATM   13  C   UNL     1      -8.395  11.543  66.507  1.00  0.00    -0.147 C  
HETATM   14  C   UNL     1      -7.074   6.788  65.271  1.00  0.00    -0.067 C  
HETATM   15  O   UNL     1      -7.918   4.628  66.029  1.00  0.00    -0.101 OA 
HETATM   16  O   UNL     1      -8.644  11.609  65.088  1.00  0.00    -0.336 OA 
HETATM   17  C   UNL     1      -8.888  10.018  67.117  1.00  0.00    -0.135 C  
HETATM   18  H   UNL     1      -8.330  10.788  64.728  1.00  0.00     0.000 HD 
HETATM   19  C   UNL     1     -10.531   9.879  67.106  1.00  0.00    -0.305 C  
HETATM   20  F   UNL     1      -8.583   9.959  68.488  1.00  0.00    -0.110 F  
HETATM   21  C   UNL     1     -10.998   8.491  67.572  1.00  0.00     0.095 C  
HETATM   22  C   UNL     1     -10.208   7.385  66.897  1.00  0.00    -0.346 C  
HETATM   23  C   UNL     1      -8.752   7.505  67.293  1.00  0.00    -0.121 C  
HETATM   24  C   UNL     1      -8.076   6.383  67.613  1.00  0.00    -0.114 C  
HETATM   25  C   UNL     1      -7.740   5.817  66.258  1.00  0.00    -0.099 C  
ENDROOT
BRANCH   4  26
HETATM   26  C   UNL     1     -10.928  13.718  65.668  1.00  0.00    -0.288 C  
HETATM   27  O   UNL     1     -10.024  14.544  65.449  1.00  0.00    -0.352 OA 
BRANCH  26  28
HETATM   28  C   UNL     1     -12.290  14.102  65.088  1.00  0.00    -0.451 C  
HETATM   29  O   UNL     1     -12.286  13.924  63.662  1.00  0.00    -0.865 OA 
HETATM   30  H   UNL     1     -13.132  14.163  63.302  1.00  0.00     0.000 HD 
ENDBRANCH  26  28
ENDBRANCH   4  26
TORSDOF 2
ENDMDL
MODEL       29
REMARK 921   NORMALIZED FREE ENERGY PREDICTED BY IDOCK:   -5.89 KCAL/MOL
REMARK 922        TOTAL FREE ENERGY PREDICTED BY IDOCK:   -5.89 KCAL/MOL
REMARK 923 INTER-LIGAND FREE ENERGY PREDICTED BY IDOCK:   -6.47 KCAL/MOL
REMARK 924 INTRA-LIGAND FREE ENERGY PREDICTED BY IDOCK:    0.58 KCAL/MOL
REMARK 927      BINDING AFFINITY PREDICTED BY RF-SCORE:    0.00 PKD
ROOT
HETATM    1  C   UNL     1     -11.354  11.759  66.890  1.00  0.00    -0.386 C  
HETATM    2  C   UNL     1     -11.216  11.984  65.498  1.00  0.00    -0.372 C  
HETATM    3  C   UNL     1      -9.950  11.553  66.157  1.00  0.00    -0.257 C  
HETATM    4  C   UNL     1     -10.032  10.943  68.130  1.00  0.00    -0.174 C  
HETATM    5  O   UNL     1     -11.342  10.669  68.782  1.00  0.00    -0.255 OA 
HETATM    6  C   UNL     1      -7.765  15.653  66.600  1.00  0.00    -0.068 C  
HETATM    7  C   UNL     1     -10.055  10.307  66.940  1.00  0.00    -0.274 C  
HETATM    8  C   UNL     1      -8.211  10.899  67.096  1.00  0.00    -0.126 C  
HETATM    9  C   UNL     1     -10.598   8.969  66.455  1.00  0.00    -0.076 C  
HETATM   10  C   UNL     1      -8.921  15.325  67.625  1.00  0.00    -0.182 C  
HETATM   11  C   UNL     1      -8.458  15.928  68.979  1.00  0.00    -0.242 C  
HETATM   12  H   UNL     1     -11.379  10.389  69.690  1.00  0.00     0.000 HD 
HETATM   13  C   UNL     1      -8.131  12.592  67.743  1.00  0.00    -0.164 C  
HETATM   14  C   UNL     1      -8.519  17.511  68.982  1.00  0.00    -0.037 C  
HETATM   15  O   UNL     1     -10.282  19.147  68.568  1.00  0.00    -0.394 OA 
HETATM   16  O   UNL     1      -8.012  12.466  69.174  1.00  0.00    -0.331 OA 
HETATM   17  C   UNL     1      -9.299  13.786  67.355  1.00  0.00    -0.226 C  
HETATM   18  H   UNL     1      -7.970  13.352  69.513  1.00  0.00     0.000 HD 
HETATM   19  C   UNL     1     -10.820  13.268  67.726  1.00  0.00    -0.268 C  
HETATM   20  F   UNL     1      -9.355  13.927  65.958  1.00  0.00    -0.261 F  
HETATM   21  C   UNL     1     -11.881  14.349  67.464  1.00  0.00    -0.418 C  
HETATM   22  C   UNL     1     -11.453  15.692  68.027  1.00  0.00    -0.294 C  
HETATM   23  C   UNL     1     -10.193  16.145  67.322  1.00  0.00    -0.277 C  
HETATM   24  C   UNL     1     -10.095  17.434  66.941  1.00  0.00    -0.314 C  
HETATM   25  C   UNL     1      -9.712  18.119  68.228  1.00  0.00    -0.337 C  
ENDROOT
BRANCH   4  26
HETATM   26  C   UNL     1      -9.365   9.616  68.957  1.00  0.00    -0.159 C  
HETATM   27  O   UNL     1      -8.178   9.243  68.957  1.00  0.00    -0.106 OA 
BRANCH  26  28
HETATM   28  C   UNL     1     -10.313   8.706  69.739  1.00  0.00    -0.212 C  
HETATM   29  O   UNL     1     -10.452   9.182  71.087  1.00  0.00    -0.261 OA 
HETATM   30  H   UNL     1     -11.042   8.617  71.573  1.00  0.00     0.000 HD 
ENDBRANCH  26  28
ENDBRANCH   4  26
TORSDOF 2
ENDMDL
MODEL       30
REMARK 921   NORMALIZED FREE ENERGY PREDICTED BY IDOCK:   -5.87 KCAL/MOL
REMARK 922        TOTAL FREE ENERGY PREDICTED BY IDOCK:   -5.86 KCAL/MOL
REMARK 923 INTER-LIGAND FREE ENERGY PREDICTED BY IDOCK:   -6.80 KCAL/MOL
REMARK 924 INTRA-LIGAND FREE ENERGY PREDICTED BY IDOCK:    0.94 KCAL/MOL
REMARK 927      BINDING AFFINITY PREDICTED BY RF-SCORE:    0.00 PKD
ROOT
HETATM    1  C   UNL     1      -9.591  18.718  66.493  1.00  0.00    -0.369 C  
HETATM    2  C   UNL     1     -10.637  19.204  67.315  1.00  0.00    -0.573 C  
HETATM    3  C   UNL     1      -9.382  18.914  68.064  1.00  0.00    -0.349 C  
HETATM    4  C   UNL     1      -7.685  18.436  66.985  1.00  0.00    -0.222 C  
HETATM    5  O   UNL     1      -7.640  18.654  65.512  1.00  0.00    -0.488 OA 
HETATM    6  C   UNL     1     -10.425  14.766  69.930  1.00  0.00    -0.040 C  
HETATM    7  C   UNL     1      -8.175  19.571  67.526  1.00  0.00    -0.328 C  
HETATM    8  C   UNL     1      -7.598  18.549  69.074  1.00  0.00    -0.204 C  
HETATM    9  C   UNL     1      -8.000  21.056  67.233  1.00  0.00    -0.092 C  
HETATM   10  C   UNL     1     -10.021  14.801  68.404  1.00  0.00    -0.223 C  
HETATM   11  C   UNL     1      -9.206  13.501  68.160  1.00  0.00    -0.208 C  
HETATM   12  H   UNL     1      -6.860  18.434  65.016  1.00  0.00     0.000 HD 
HETATM   13  C   UNL     1      -8.059  16.803  68.902  1.00  0.00    -0.230 C  
HETATM   14  C   UNL     1     -10.120  12.208  68.180  1.00  0.00    -0.206 C  
HETATM   15  O   UNL     1     -12.096  11.501  66.935  1.00  0.00    -0.393 OA 
HETATM   16  O   UNL     1      -6.929  16.152  68.288  1.00  0.00    -0.119 OA 
HETATM   17  C   UNL     1      -9.510  16.301  68.138  1.00  0.00    -0.215 C  
HETATM   18  H   UNL     1      -7.170  15.237  68.198  1.00  0.00     0.000 HD 
HETATM   19  C   UNL     1      -9.618  16.915  66.611  1.00  0.00    -0.282 C  
HETATM   20  F   UNL     1     -10.598  16.907  68.790  1.00  0.00    -0.280 F  
HETATM   21  C   UNL     1     -10.870  16.416  65.873  1.00  0.00    -0.116 C  
HETATM   22  C   UNL     1     -11.043  14.917  66.027  1.00  0.00    -0.334 C  
HETATM   23  C   UNL     1     -11.247  14.590  67.490  1.00  0.00    -0.333 C  
HETATM   24  C   UNL     1     -12.197  13.694  67.825  1.00  0.00    -0.201 C  
HETATM   25  C   UNL     1     -11.510  12.382  67.549  1.00  0.00    -0.346 C  
ENDROOT
BRANCH   4  26
HETATM   26  C   UNL     1      -6.068  18.948  67.090  1.00  0.00    -0.170 C  
HETATM   27  O   UNL     1      -5.217  18.602  67.929  1.00  0.00    -0.170 OA 
BRANCH  26  28
HETATM   28  C   UNL     1      -5.587  20.016  66.106  1.00  0.00    -0.166 C  
HETATM   29  O   UNL     1      -5.252  19.410  64.847  1.00  0.00    -0.148 OA 
HETATM   30  H   UNL     1      -4.954  20.073  64.235  1.00  0.00     0.000 HD 
ENDBRANCH  26  28
ENDBRANCH   4  26
TORSDOF 2
ENDMDL
MODEL       31
REMARK 921   NORMALIZED FREE ENERGY PREDICTED BY IDOCK:   -5.85 KCAL/MOL
REMARK 922        TOTAL FREE ENERGY PREDICTED BY IDOCK:   -5.84 KCAL/MOL
REMARK 923 INTER-LIGAND FREE ENERGY PREDICTED BY IDOCK:   -6.33 KCAL/MOL
REMARK 924 INTRA-LIGAND FREE ENERGY PREDICTED BY IDOCK:    0.49 KCAL/MOL
REMARK 927      BINDING AFFINITY PREDICTED BY RF-SCORE:    0.00 PKD
ROOT
HETATM    1  C   UNL     1      -9.122  11.308  65.939  1.00  0.00    -0.217 C  
HETATM    2  C   UNL     1      -9.830  10.327  65.203  1.00  0.00    -0.389 C  
HETATM    3  C   UNL     1     -10.703  11.143  66.093  1.00  0.00    -0.285 C  
HETATM    4  C   UNL     1      -9.873  12.778  67.047  1.00  0.00    -0.231 C  
HETATM    5  O   UNL     1      -8.536  13.292  66.640  1.00  0.00    -0.418 OA 
HETATM    6  C   UNL     1     -11.247   8.218  69.689  1.00  0.00     0.085 C  
HETATM    7  C   UNL     1     -10.579  12.602  65.911  1.00  0.00    -0.297 C  
HETATM    8  C   UNL     1     -11.903  12.334  67.308  1.00  0.00    -0.330 C  
HETATM    9  C   UNL     1     -10.705  13.370  64.601  1.00  0.00    -0.425 C  
HETATM   10  C   UNL     1      -9.880   9.003  69.584  1.00  0.00    -0.182 C  
HETATM   11  C   UNL     1      -9.475   9.330  71.048  1.00  0.00    -0.313 C  
HETATM   12  H   UNL     1      -8.155  14.044  67.078  1.00  0.00     0.000 HD 
HETATM   13  C   UNL     1     -11.218  11.341  68.662  1.00  0.00    -0.250 C  
HETATM   14  C   UNL     1      -9.002   8.043  71.840  1.00  0.00    -0.200 C  
HETATM   15  O   UNL     1      -7.275   6.358  71.474  1.00  0.00    -0.079 OA 
HETATM   16  O   UNL     1     -10.682  12.282  69.614  1.00  0.00    -0.432 OA 
HETATM   17  C   UNL     1     -10.097  10.069  68.401  1.00  0.00    -0.165 C  
HETATM   18  H   UNL     1     -10.323  11.763  70.324  1.00  0.00     0.000 HD 
HETATM   19  C   UNL     1      -8.779  10.605  67.567  1.00  0.00    -0.125 C  
HETATM   20  F   UNL     1     -10.666   9.140  67.514  1.00  0.00    -0.310 F  
HETATM   21  C   UNL     1      -7.720   9.505  67.389  1.00  0.00    -0.095 C  
HETATM   22  C   UNL     1      -7.460   8.770  68.691  1.00  0.00    -0.092 C  
HETATM   23  C   UNL     1      -8.732   8.077  69.130  1.00  0.00    -0.137 C  
HETATM   24  C   UNL     1      -8.649   6.816  69.599  1.00  0.00    -0.133 C  
HETATM   25  C   UNL     1      -8.188   7.033  71.017  1.00  0.00    -0.117 C  
ENDROOT
BRANCH   4  26
HETATM   26  C   UNL     1     -10.401  14.379  67.264  1.00  0.00    -0.260 C  
HETATM   27  O   UNL     1     -11.392  14.925  66.748  1.00  0.00    -0.344 OA 
BRANCH  26  28
HETATM   28  C   UNL     1      -9.542  15.309  68.122  1.00  0.00    -0.204 C  
HETATM   29  O   UNL     1      -8.965  14.576  69.216  1.00  0.00    -0.384 OA 
HETATM   30  H   UNL     1      -8.432  15.154  69.749  1.00  0.00     0.000 HD 
ENDBRANCH  26  28
ENDBRANCH   4  26
TORSDOF 2
ENDMDL
MODEL       32
REMARK 921   NORMALIZED FREE ENERGY PREDICTED BY IDOCK:   -5.76 KCAL/MOL
REMARK 922        TOTAL FREE ENERGY PREDICTED BY IDOCK:   -5.74 KCAL/MOL
REMARK 923 INTER-LIGAND FREE ENERGY PREDICTED BY IDOCK:   -6.32 KCAL/MOL
REMARK 924 INTRA-LIGAND FREE ENERGY PREDICTED BY IDOCK:    0.59 KCAL/MOL
REMARK 927      BINDING AFFINITY PREDICTED BY RF-SCORE:    0.00 PKD
ROOT
HETATM    1  C   UNL     1     -10.186   9.538  66.014  1.00  0.00    -0.242 C  
HETATM    2  C   UNL     1      -9.255   9.655  64.953  1.00  0.00    -0.306 C  
HETATM    3  C   UNL     1      -8.615   9.422  66.278  1.00  0.00    -0.142 C  
HETATM    4  C   UNL     1      -9.832   8.982  67.890  1.00  0.00    -0.171 C  
HETATM    5  O   UNL     1     -11.263   8.625  67.680  1.00  0.00    -0.380 OA 
HETATM    6  C   UNL     1      -7.268  13.757  67.362  1.00  0.00    -0.107 C  
HETATM    7  C   UNL     1      -9.121   8.245  67.010  1.00  0.00    -0.172 C  
HETATM    8  C   UNL     1      -7.753   9.044  68.135  1.00  0.00    -0.096 C  
HETATM    9  C   UNL     1      -9.221   6.819  66.484  1.00  0.00    -0.190 C  
HETATM   10  C   UNL     1      -8.794  13.397  67.549  1.00  0.00    -0.210 C  
HETATM   11  C   UNL     1      -9.250  14.162  68.821  1.00  0.00    -0.080 C  
HETATM   12  H   UNL     1     -11.822   8.423  68.421  1.00  0.00     0.000 HD 
HETATM   13  C   UNL     1      -8.133  10.786  68.472  1.00  0.00    -0.133 C  
HETATM   14  C   UNL     1      -9.356  15.723  68.575  1.00  0.00    -0.198 C  
HETATM   15  O   UNL     1     -10.584  17.117  66.992  1.00  0.00    -0.306 OA 
HETATM   16  O   UNL     1      -8.884  10.799  69.703  1.00  0.00    -0.392 OA 
HETATM   17  C   UNL     1      -8.883  11.808  67.318  1.00  0.00    -0.167 C  
HETATM   18  H   UNL     1      -9.083  11.710  69.879  1.00  0.00     0.000 HD 
HETATM   19  C   UNL     1     -10.308  11.163  66.793  1.00  0.00    -0.284 C  
HETATM   20  F   UNL     1      -8.103  11.821  66.149  1.00  0.00    -0.101 F  
HETATM   21  C   UNL     1     -11.042  12.097  65.818  1.00  0.00    -0.362 C  
HETATM   22  C   UNL     1     -11.080  13.522  66.338  1.00  0.00    -0.311 C  
HETATM   23  C   UNL     1      -9.665  14.045  66.452  1.00  0.00    -0.309 C  
HETATM   24  C   UNL     1      -9.405  15.299  66.031  1.00  0.00    -0.346 C  
HETATM   25  C   UNL     1      -9.887  16.131  67.192  1.00  0.00    -0.241 C  
ENDROOT
BRANCH   4  26
HETATM   26  C   UNL     1      -9.741   7.811  69.119  1.00  0.00    -0.161 C  
HETATM   27  O   UNL     1      -8.791   7.599  69.892  1.00  0.00    -0.142 OA 
BRANCH  26  28
HETATM   28  C   UNL     1     -10.911   6.838  69.272  1.00  0.00    -0.264 C  
HETATM   29  O   UNL     1     -11.889   7.381  70.174  1.00  0.00    -0.507 OA 
HETATM   30  H   UNL     1     -12.615   6.776  70.269  1.00  0.00     0.000 HD 
ENDBRANCH  26  28
ENDBRANCH   4  26
TORSDOF 2
ENDMDL
MODEL       33
REMARK 921   NORMALIZED FREE ENERGY PREDICTED BY IDOCK:   -5.72 KCAL/MOL
REMARK 922        TOTAL FREE ENERGY PREDICTED BY IDOCK:   -5.69 KCAL/MOL
REMARK 923 INTER-LIGAND FREE ENERGY PREDICTED BY IDOCK:   -6.19 KCAL/MOL
REMARK 924 INTRA-LIGAND FREE ENERGY PREDICTED BY IDOCK:    0.50 KCAL/MOL
REMARK 927      BINDING AFFINITY PREDICTED BY RF-SCORE:    0.00 PKD
ROOT
HETATM    1  C   UNL     1     -11.539   7.791  71.430  1.00  0.00    -0.305 C  
HETATM    2  C   UNL     1     -12.367   7.120  70.498  1.00  0.00    -0.113 C  
HETATM    3  C   UNL     1     -10.923   6.780  70.357  1.00  0.00    -0.330 C  
HETATM    4  C   UNL     1      -9.610   7.476  71.794  1.00  0.00    -0.152 C  
HETATM    5  O   UNL     1     -10.120   8.047  73.071  1.00  0.00    -0.294 OA 
HETATM    6  C   UNL     1      -9.749   9.468  66.728  1.00  0.00    -0.254 C  
HETATM    7  C   UNL     1     -10.275   6.317  71.599  1.00  0.00    -0.225 C  
HETATM    8  C   UNL     1      -8.906   6.286  70.221  1.00  0.00    -0.153 C  
HETATM    9  C   UNL     1     -10.749   5.192  72.510  1.00  0.00    -0.286 C  
HETATM   10  C   UNL     1      -9.895  10.165  68.137  1.00  0.00    -0.164 C  
HETATM   11  C   UNL     1      -8.792  11.257  68.178  1.00  0.00    -0.159 C  
HETATM   12  H   UNL     1      -9.516   8.367  73.731  1.00  0.00     0.000 HD 
HETATM   13  C   UNL     1      -8.737   7.916  69.443  1.00  0.00    -0.138 C  
HETATM   14  C   UNL     1      -9.121  12.478  67.224  1.00  0.00    -0.189 C  
HETATM   15  O   UNL     1     -10.998  14.026  67.027  1.00  0.00    -0.290 OA 
HETATM   16  O   UNL     1      -7.709   8.605  70.183  1.00  0.00    -0.073 OA 
HETATM   17  C   UNL     1     -10.073   8.960  69.186  1.00  0.00    -0.197 C  
HETATM   18  H   UNL     1      -7.620   9.459  69.775  1.00  0.00     0.000 HD 
HETATM   19  C   UNL     1     -10.877   9.251  70.597  1.00  0.00    -0.339 C  
HETATM   20  F   UNL     1     -11.035   8.283  68.418  1.00  0.00    -0.150 F  
HETATM   21  C   UNL     1     -12.031  10.248  70.411  1.00  0.00    -0.391 C  
HETATM   22  C   UNL     1     -11.594  11.457  69.605  1.00  0.00    -0.399 C  
HETATM   23  C   UNL     1     -11.187  11.007  68.219  1.00  0.00    -0.340 C  
HETATM   24  C   UNL     1     -11.590  11.735  67.159  1.00  0.00    -0.342 C  
HETATM   25  C   UNL     1     -10.604  12.875  67.162  1.00  0.00    -0.238 C  
ENDROOT
BRANCH   4  26
HETATM   26  C   UNL     1      -8.343   6.737  72.654  1.00  0.00    -0.111 C  
HETATM   27  O   UNL     1      -8.043   5.531  72.672  1.00  0.00    -0.105 OA 
BRANCH  26  28
HETATM   28  C   UNL     1      -7.501   7.612  73.585  1.00  0.00    -0.113 C  
HETATM   29  O   UNL     1      -7.270   8.895  72.980  1.00  0.00    -0.343 OA 
HETATM   30  H   UNL     1      -6.748   9.438  73.558  1.00  0.00     0.000 HD 
ENDBRANCH  26  28
ENDBRANCH   4  26
TORSDOF 2
ENDMDL
MODEL       34
REMARK 921   NORMALIZED FREE ENERGY PREDICTED BY IDOCK:   -5.67 KCAL/MOL
REMARK 922        TOTAL FREE ENERGY PREDICTED BY IDOCK:   -5.64 KCAL/MOL
REMARK 923 INTER-LIGAND FREE ENERGY PREDICTED BY IDOCK:   -6.33 KCAL/MOL
REMARK 924 INTRA-LIGAND FREE ENERGY PREDICTED BY IDOCK:    0.69 KCAL/MOL
REMARK 927      BINDING AFFINITY PREDICTED BY RF-SCORE:    0.00 PKD
ROOT
HETATM    1  C   UNL     1     -10.120  12.409  64.746  1.00  0.00    -0.260 C  
HETATM    2  C   UNL     1     -11.135  11.653  64.110  1.00  0.00    -0.435 C  
HETATM    3  C   UNL     1     -11.461  12.012  65.519  1.00  0.00    -0.368 C  
HETATM    4  C   UNL     1     -10.205  13.321  66.511  1.00  0.00    -0.283 C  
HETATM    5  O   UNL     1      -9.181  14.099  65.761  1.00  0.00    -0.505 OA 
HETATM    6  C   UNL     1     -10.441   8.010  67.692  1.00  0.00    -0.301 C  
HETATM    7  C   UNL     1     -11.362  13.452  65.828  1.00  0.00    -0.322 C  
HETATM    8  C   UNL     1     -11.909  12.575  67.473  1.00  0.00    -0.389 C  
HETATM    9  C   UNL     1     -12.035  14.593  65.076  1.00  0.00    -0.364 C  
HETATM   10  C   UNL     1      -9.237   8.943  67.273  1.00  0.00    -0.164 C  
HETATM   11  C   UNL     1      -8.190   8.808  68.413  1.00  0.00    -0.118 C  
HETATM   12  H   UNL     1      -8.604  14.701  66.217  1.00  0.00     0.000 HD 
HETATM   13  C   UNL     1     -10.730  11.276  67.933  1.00  0.00    -0.207 C  
HETATM   14  C   UNL     1      -7.471   7.397  68.402  1.00  0.00    -0.105 C  
HETATM   15  O   UNL     1      -6.190   6.153  66.738  1.00  0.00    -0.033 OA 
HETATM   16  O   UNL     1      -9.771  11.902  68.809  1.00  0.00    -0.359 OA 
HETATM   17  C   UNL     1      -9.918  10.310  66.772  1.00  0.00    -0.209 C  
HETATM   18  H   UNL     1      -9.153  11.222  69.051  1.00  0.00     0.000 HD 
HETATM   19  C   UNL     1      -9.105  11.248  65.686  1.00  0.00    -0.203 C  
HETATM   20  F   UNL     1     -10.876   9.669  65.967  1.00  0.00    -0.103 F  
HETATM   21  C   UNL     1      -8.302  10.407  64.681  1.00  0.00    -0.155 C  
HETATM   22  C   UNL     1      -7.511   9.316  65.379  1.00  0.00    -0.098 C  
HETATM   23  C   UNL     1      -8.472   8.368  66.062  1.00  0.00    -0.142 C  
HETATM   24  C   UNL     1      -8.247   7.043  65.968  1.00  0.00    -0.129 C  
HETATM   25  C   UNL     1      -7.176   6.827  67.006  1.00  0.00    -0.081 C  
ENDROOT
BRANCH   4  26
HETATM   26  C   UNL     1     -10.495  14.682  67.488  1.00  0.00    -0.247 C  
HETATM   27  O   UNL     1     -11.585  15.067  67.945  1.00  0.00    -0.332 OA 
BRANCH  26  28
HETATM   28  C   UNL     1      -9.317  15.607  67.798  1.00  0.00    -0.202 C  
HETATM   29  O   UNL     1      -9.308  16.715  66.884  1.00  0.00    -0.218 OA 
HETATM   30  H   UNL     1      -8.577  17.290  67.077  1.00  0.00     0.000 HD 
ENDBRANCH  26  28
ENDBRANCH   4  26
TORSDOF 2
ENDMDL
MODEL       35
REMARK 921   NORMALIZED FREE ENERGY PREDICTED BY IDOCK:   -5.67 KCAL/MOL
REMARK 922        TOTAL FREE ENERGY PREDICTED BY IDOCK:   -5.64 KCAL/MOL
REMARK 923 INTER-LIGAND FREE ENERGY PREDICTED BY IDOCK:   -6.22 KCAL/MOL
REMARK 924 INTRA-LIGAND FREE ENERGY PREDICTED BY IDOCK:    0.59 KCAL/MOL
REMARK 927      BINDING AFFINITY PREDICTED BY RF-SCORE:    0.00 PKD
ROOT
HETATM    1  C   UNL     1     -11.057   8.349  71.470  1.00  0.00    -0.329 C  
HETATM    2  C   UNL     1     -11.830   7.551  70.591  1.00  0.00    -0.205 C  
HETATM    3  C   UNL     1     -10.362   7.384  70.404  1.00  0.00    -0.215 C  
HETATM    4  C   UNL     1      -9.092   8.282  71.765  1.00  0.00    -0.193 C  
HETATM    5  O   UNL     1      -9.623   8.832  73.044  1.00  0.00    -0.085 OA 
HETATM    6  C   UNL     1      -9.656  10.065  66.651  1.00  0.00    -0.234 C  
HETATM    7  C   UNL     1      -9.617   7.046  71.633  1.00  0.00    -0.160 C  
HETATM    8  C   UNL     1      -8.305   7.132  70.203  1.00  0.00    -0.137 C  
HETATM    9  C   UNL     1      -9.917   5.904  72.595  1.00  0.00    -0.195 C  
HETATM   10  C   UNL     1      -9.835  10.788  68.043  1.00  0.00    -0.180 C  
HETATM   11  C   UNL     1      -8.873  12.007  68.007  1.00  0.00    -0.179 C  
HETATM   12  H   UNL     1      -9.039   9.245  73.670  1.00  0.00     0.000 HD 
HETATM   13  C   UNL     1      -8.365   8.743  69.370  1.00  0.00    -0.117 C  
HETATM   14  C   UNL     1      -9.383  13.144  67.030  1.00  0.00    -0.238 C  
HETATM   15  O   UNL     1     -11.441  14.446  66.861  1.00  0.00    -0.337 OA 
HETATM   16  O   UNL     1      -7.403   9.577  70.046  1.00  0.00    -0.083 OA 
HETATM   17  C   UNL     1      -9.827   9.608  69.135  1.00  0.00    -0.186 C  
HETATM   18  H   UNL     1      -7.434  10.420  69.610  1.00  0.00     0.000 HD 
HETATM   19  C   UNL     1     -10.609   9.848  70.567  1.00  0.00    -0.359 C  
HETATM   20  F   UNL     1     -10.726   8.793  68.426  1.00  0.00    -0.241 F  
HETATM   21  C   UNL     1     -11.882  10.691  70.397  1.00  0.00    -0.441 C  
HETATM   22  C   UNL     1     -11.625  11.915  69.538  1.00  0.00    -0.394 C  
HETATM   23  C   UNL     1     -11.216  11.469  68.151  1.00  0.00    -0.335 C  
HETATM   24  C   UNL     1     -11.744  12.107  67.087  1.00  0.00    -0.372 C  
HETATM   25  C   UNL     1     -10.905  13.356  67.015  1.00  0.00    -0.273 C  
ENDROOT
BRANCH   4  26
HETATM   26  C   UNL     1      -7.715   7.734  72.596  1.00  0.00    -0.105 C  
HETATM   27  O   UNL     1      -6.720   7.161  72.117  1.00  0.00    -0.056 OA 
BRANCH  26  28
HETATM   28  C   UNL     1      -7.692   7.871  74.119  1.00  0.00    -0.188 C  
HETATM   29  O   UNL     1      -6.970   9.055  74.496  1.00  0.00    -0.387 OA 
HETATM   30  H   UNL     1      -6.956   9.140  75.442  1.00  0.00     0.000 HD 
ENDBRANCH  26  28
ENDBRANCH   4  26
TORSDOF 2
ENDMDL
MODEL       36
REMARK 921   NORMALIZED FREE ENERGY PREDICTED BY IDOCK:   -5.66 KCAL/MOL
REMARK 922        TOTAL FREE ENERGY PREDICTED BY IDOCK:   -5.62 KCAL/MOL
REMARK 923 INTER-LIGAND FREE ENERGY PREDICTED BY IDOCK:   -6.31 KCAL/MOL
REMARK 924 INTRA-LIGAND FREE ENERGY PREDICTED BY IDOCK:    0.69 KCAL/MOL
REMARK 927      BINDING AFFINITY PREDICTED BY RF-SCORE:    0.00 PKD
ROOT
HETATM    1  C   UNL     1      -9.817   9.282  68.520  1.00  0.00    -0.173 C  
HETATM    2  C   UNL     1     -10.384   8.317  67.652  1.00  0.00    -0.313 C  
HETATM    3  C   UNL     1      -9.021   8.756  67.239  1.00  0.00    -0.144 C  
HETATM    4  C   UNL     1      -7.952   9.971  68.525  1.00  0.00    -0.102 C  
HETATM    5  O   UNL     1      -8.403  10.165  69.931  1.00  0.00    -0.275 OA 
HETATM    6  C   UNL     1     -10.079  11.788  63.852  1.00  0.00    -0.399 C  
HETATM    7  C   UNL     1      -7.991   8.643  68.289  1.00  0.00    -0.110 C  
HETATM    8  C   UNL     1      -7.096   9.352  66.717  1.00  0.00    -0.082 C  
HETATM    9  C   UNL     1      -7.658   7.403  69.109  1.00  0.00    -0.105 C  
HETATM   10  C   UNL     1     -10.255  12.269  65.346  1.00  0.00    -0.297 C  
HETATM   11  C   UNL     1      -9.844  13.767  65.352  1.00  0.00    -0.171 C  
HETATM   12  H   UNL     1      -7.912  10.723  70.522  1.00  0.00     0.000 HD 
HETATM   13  C   UNL     1      -7.908  10.869  66.143  1.00  0.00    -0.144 C  
HETATM   14  C   UNL     1     -10.914  14.685  64.632  1.00  0.00    -0.340 C  
HETATM   15  O   UNL     1     -13.302  15.081  64.943  1.00  0.00     0.155 OA 
HETATM   16  O   UNL     1      -7.220  11.958  66.792  1.00  0.00    -0.310 OA 
HETATM   17  C   UNL     1      -9.603  11.105  66.243  1.00  0.00    -0.206 C  
HETATM   18  H   UNL     1      -7.645  12.753  66.492  1.00  0.00     0.000 HD 
HETATM   19  C   UNL     1     -10.139  10.903  67.790  1.00  0.00    -0.203 C  
HETATM   20  F   UNL     1     -10.246  10.061  65.557  1.00  0.00    -0.347 F  
HETATM   21  C   UNL     1     -11.643  11.188  67.924  1.00  0.00    -0.328 C  
HETATM   22  C   UNL     1     -12.027  12.478  67.224  1.00  0.00    -0.286 C  
HETATM   23  C   UNL     1     -11.745  12.341  65.744  1.00  0.00    -0.445 C  
HETATM   24  C   UNL     1     -12.660  12.801  64.867  1.00  0.00    -0.541 C  
HETATM   25  C   UNL     1     -12.379  14.281  64.861  1.00  0.00    -0.425 C  
ENDROOT
BRANCH   4  26
HETATM   26  C   UNL     1      -6.341   9.945  69.066  1.00  0.00    -0.040 C  
HETATM   27  O   UNL     1      -5.338   9.564  68.438  1.00  0.00    -0.037 OA 
BRANCH  26  28
HETATM   28  C   UNL     1      -6.063  10.356  70.513  1.00  0.00    -0.116 C  
HETATM   29  O   UNL     1      -6.382  11.744  70.701  1.00  0.00    -0.528 OA 
HETATM   30  H   UNL     1      -6.209  11.999  71.599  1.00  0.00     0.000 HD 
ENDBRANCH  26  28
ENDBRANCH   4  26
TORSDOF 2
ENDMDL
MODEL       37
REMARK 921   NORMALIZED FREE ENERGY PREDICTED BY IDOCK:   -5.65 KCAL/MOL
REMARK 922        TOTAL FREE ENERGY PREDICTED BY IDOCK:   -5.62 KCAL/MOL
REMARK 923 INTER-LIGAND FREE ENERGY PREDICTED BY IDOCK:   -6.21 KCAL/MOL
REMARK 924 INTRA-LIGAND FREE ENERGY PREDICTED BY IDOCK:    0.59 KCAL/MOL
REMARK 927      BINDING AFFINITY PREDICTED BY RF-SCORE:    0.00 PKD
ROOT
HETATM    1  C   UNL     1      -8.579  11.476  67.749  1.00  0.00    -0.138 C  
HETATM    2  C   UNL     1      -8.664  10.478  66.747  1.00  0.00    -0.136 C  
HETATM    3  C   UNL     1      -9.992  11.007  67.168  1.00  0.00    -0.218 C  
HETATM    4  C   UNL     1     -10.039  12.639  68.435  1.00  0.00    -0.222 C  
HETATM    5  O   UNL     1      -8.805  13.435  68.688  1.00  0.00    -0.339 OA 
HETATM    6  C   UNL     1     -11.401   7.621  70.053  1.00  0.00    -0.081 C  
HETATM    7  C   UNL     1     -10.121  12.476  67.097  1.00  0.00    -0.219 C  
HETATM    8  C   UNL     1     -11.828  11.805  67.738  1.00  0.00    -0.266 C  
HETATM    9  C   UNL     1      -9.826  13.360  65.893  1.00  0.00    -0.251 C  
HETATM   10  C   UNL     1     -10.332   8.649  70.597  1.00  0.00    -0.241 C  
HETATM   11  C   UNL     1     -10.689   8.866  72.094  1.00  0.00    -0.323 C  
HETATM   12  H   UNL     1      -8.827  14.185  69.271  1.00  0.00     0.000 HD 
HETATM   13  C   UNL     1     -11.605  10.798  69.230  1.00  0.00    -0.305 C  
HETATM   14  C   UNL     1     -10.342   7.602  72.982  1.00  0.00    -0.393 C  
HETATM   15  O   UNL     1      -8.308   6.317  73.393  1.00  0.00    -0.115 OA 
HETATM   16  O   UNL     1     -11.757  11.700  70.345  1.00  0.00    -0.458 OA 
HETATM   17  C   UNL     1     -10.237   9.793  69.472  1.00  0.00    -0.221 C  
HETATM   18  H   UNL     1     -11.641  11.173  71.127  1.00  0.00     0.000 HD 
HETATM   19  C   UNL     1      -8.838  10.656  69.337  1.00  0.00    -0.037 C  
HETATM   20  F   UNL     1     -10.145   8.889  68.400  1.00  0.00    -0.175 F  
HETATM   21  C   UNL     1      -7.597   9.798  69.629  1.00  0.00    -0.120 C  
HETATM   22  C   UNL     1      -7.779   8.972  70.889  1.00  0.00    -0.149 C  
HETATM   23  C   UNL     1      -8.930   8.010  70.688  1.00  0.00    -0.148 C  
HETATM   24  C   UNL     1      -8.789   6.738  71.112  1.00  0.00    -0.137 C  
HETATM   25  C   UNL     1      -9.052   6.864  72.590  1.00  0.00    -0.134 C  
ENDROOT
BRANCH   4  26
HETATM   26  C   UNL     1     -10.942  14.079  68.430  1.00  0.00    -0.252 C  
HETATM   27  O   UNL     1     -11.840  14.407  67.634  1.00  0.00    -0.369 OA 
BRANCH  26  28
HETATM   28  C   UNL     1     -10.586  15.154  69.458  1.00  0.00    -0.270 C  
HETATM   29  O   UNL     1     -10.867  14.678  70.785  1.00  0.00    -0.495 OA 
HETATM   30  H   UNL     1     -10.646  15.346  71.424  1.00  0.00     0.000 HD 
ENDBRANCH  26  28
ENDBRANCH   4  26
TORSDOF 2
ENDMDL
MODEL       38
REMARK 921   NORMALIZED FREE ENERGY PREDICTED BY IDOCK:   -5.54 KCAL/MOL
REMARK 922        TOTAL FREE ENERGY PREDICTED BY IDOCK:   -5.50 KCAL/MOL
REMARK 923 INTER-LIGAND FREE ENERGY PREDICTED BY IDOCK:   -6.04 KCAL/MOL
REMARK 924 INTRA-LIGAND FREE ENERGY PREDICTED BY IDOCK:    0.55 KCAL/MOL
REMARK 927      BINDING AFFINITY PREDICTED BY RF-SCORE:    0.00 PKD
ROOT
HETATM    1  C   UNL     1      -8.347  14.234  68.327  1.00  0.00    -0.165 C  
HETATM    2  C   UNL     1      -7.679  14.487  67.104  1.00  0.00    -0.093 C  
HETATM    3  C   UNL     1      -9.163  14.580  66.999  1.00  0.00    -0.253 C  
HETATM    4  C   UNL     1     -10.276  14.486  68.738  1.00  0.00    -0.244 C  
HETATM    5  O   UNL     1      -9.614  14.610  70.066  1.00  0.00    -0.260 OA 
HETATM    6  C   UNL     1     -10.158  10.436  65.099  1.00  0.00    -0.379 C  
HETATM    7  C   UNL     1      -9.795  15.490  67.974  1.00  0.00    -0.212 C  
HETATM    8  C   UNL     1     -11.235  14.755  66.896  1.00  0.00    -0.347 C  
HETATM    9  C   UNL     1      -9.432  16.946  68.230  1.00  0.00    -0.250 C  
HETATM   10  C   UNL     1      -9.830  10.473  66.643  1.00  0.00    -0.246 C  
HETATM   11  C   UNL     1     -10.763   9.414  67.292  1.00  0.00    -0.258 C  
HETATM   12  H   UNL     1     -10.125  14.567  70.865  1.00  0.00     0.000 HD 
HETATM   13  C   UNL     1     -11.216  12.942  66.945  1.00  0.00    -0.291 C  
HETATM   14  C   UNL     1     -10.321   7.933  66.946  1.00  0.00    -0.400 C  
HETATM   15  O   UNL     1      -8.258   6.661  67.235  1.00  0.00    -0.118 OA 
HETATM   16  O   UNL     1     -12.090  12.564  68.028  1.00  0.00    -0.351 OA 
HETATM   17  C   UNL     1      -9.763  12.034  67.022  1.00  0.00    -0.196 C  
HETATM   18  H   UNL     1     -12.080  11.615  68.055  1.00  0.00     0.000 HD 
HETATM   19  C   UNL     1      -8.843  12.497  68.310  1.00  0.00    -0.171 C  
HETATM   20  F   UNL     1      -8.954  12.381  65.926  1.00  0.00    -0.132 F  
HETATM   21  C   UNL     1      -7.572  11.645  68.450  1.00  0.00    -0.126 C  
HETATM   22  C   UNL     1      -7.880  10.165  68.320  1.00  0.00    -0.093 C  
HETATM   23  C   UNL     1      -8.429   9.894  66.936  1.00  0.00    -0.125 C  
HETATM   24  C   UNL     1      -7.990   8.808  66.269  1.00  0.00    -0.106 C  
HETATM   25  C   UNL     1      -8.802   7.702  66.892  1.00  0.00    -0.131 C  
ENDROOT
BRANCH   4  26
HETATM   26  C   UNL     1     -11.581  15.403  69.325  1.00  0.00    -0.339 C  
HETATM   27  O   UNL     1     -12.153  16.352  68.760  1.00  0.00     0.004 OA 
BRANCH  26  28
HETATM   28  C   UNL     1     -12.088  15.109  70.737  1.00  0.00    -0.336 C  
HETATM   29  O   UNL     1     -12.084  13.692  70.977  1.00  0.00    -0.425 OA 
HETATM   30  H   UNL     1     -12.398  13.509  71.854  1.00  0.00     0.000 HD 
ENDBRANCH  26  28
ENDBRANCH   4  26
TORSDOF 2
ENDMDL
MODEL       39
REMARK 921   NORMALIZED FREE ENERGY PREDICTED BY IDOCK:   -5.50 KCAL/MOL
REMARK 922        TOTAL FREE ENERGY PREDICTED BY IDOCK:   -5.45 KCAL/MOL
REMARK 923 INTER-LIGAND FREE ENERGY PREDICTED BY IDOCK:   -6.25 KCAL/MOL
REMARK 924 INTRA-LIGAND FREE ENERGY PREDICTED BY IDOCK:    0.80 KCAL/MOL
REMARK 927      BINDING AFFINITY PREDICTED BY RF-SCORE:    0.00 PKD
ROOT
HETATM    1  C   UNL     1     -10.410   9.943  68.912  1.00  0.00    -0.221 C  
HETATM    2  C   UNL     1      -9.327  10.024  69.822  1.00  0.00    -0.233 C  
HETATM    3  C   UNL     1      -8.943  10.335  68.416  1.00  0.00    -0.132 C  
HETATM    4  C   UNL     1     -10.445  10.506  67.006  1.00  0.00    -0.249 C  
HETATM    5  O   UNL     1     -11.870  10.602  67.428  1.00  0.00    -0.450 OA 
HETATM    6  C   UNL     1      -7.000   6.290  67.134  1.00  0.00    -0.072 C  
HETATM    7  C   UNL     1      -9.759  11.382  67.770  1.00  0.00    -0.184 C  
HETATM    8  C   UNL     1      -8.450  10.815  66.451  1.00  0.00    -0.158 C  
HETATM    9  C   UNL     1     -10.040  12.779  68.308  1.00  0.00    -0.237 C  
HETATM   10  C   UNL     1      -8.577   6.363  67.179  1.00  0.00    -0.111 C  
HETATM   11  C   UNL     1      -9.067   5.495  65.988  1.00  0.00    -0.162 C  
HETATM   12  H   UNL     1     -12.560  10.680  66.780  1.00  0.00     0.000 HD 
HETATM   13  C   UNL     1      -8.549   9.026  66.172  1.00  0.00    -0.135 C  
HETATM   14  C   UNL     1      -8.848   3.947  66.244  1.00  0.00    -0.124 C  
HETATM   15  O   UNL     1      -9.552   2.395  67.991  1.00  0.00    -0.199 OA 
HETATM   16  O   UNL     1      -9.459   8.845  65.068  1.00  0.00    -0.436 OA 
HETATM   17  C   UNL     1      -8.920   7.914  67.424  1.00  0.00    -0.127 C  
HETATM   18  H   UNL     1      -9.511   7.908  64.921  1.00  0.00     0.000 HD 
HETATM   19  C   UNL     1     -10.345   8.303  68.158  1.00  0.00    -0.253 C  
HETATM   20  F   UNL     1      -7.987   8.073  68.462  1.00  0.00    -0.110 F  
HETATM   21  C   UNL     1     -10.744   7.277  69.230  1.00  0.00    -0.212 C  
HETATM   22  C   UNL     1     -10.597   5.856  68.719  1.00  0.00    -0.340 C  
HETATM   23  C   UNL     1      -9.142   5.595  68.393  1.00  0.00    -0.121 C  
HETATM   24  C   UNL     1      -8.598   4.420  68.767  1.00  0.00    -0.102 C  
HETATM   25  C   UNL     1      -9.085   3.486  67.691  1.00  0.00    -0.159 C  
ENDROOT
BRANCH   4  26
HETATM   26  C   UNL     1     -10.753  11.641  65.779  1.00  0.00    -0.280 C  
HETATM   27  O   UNL     1     -10.101  11.823  64.735  1.00  0.00    -0.250 OA 
BRANCH  26  28
HETATM   28  C   UNL     1     -11.909  12.622  65.981  1.00  0.00    -0.436 C  
HETATM   29  O   UNL     1     -12.874  12.469  64.928  1.00  0.00    -0.758 OA 
HETATM   30  H   UNL     1     -13.592  13.079  65.054  1.00  0.00     0.000 HD 
ENDBRANCH  26  28
ENDBRANCH   4  26
TORSDOF 2
ENDMDL
MODEL       40
REMARK 921   NORMALIZED FREE ENERGY PREDICTED BY IDOCK:   -5.48 KCAL/MOL
REMARK 922        TOTAL FREE ENERGY PREDICTED BY IDOCK:   -5.42 KCAL/MOL
REMARK 923 INTER-LIGAND FREE ENERGY PREDICTED BY IDOCK:   -5.92 KCAL/MOL
REMARK 924 INTRA-LIGAND FREE ENERGY PREDICTED BY IDOCK:    0.50 KCAL/MOL
REMARK 927      BINDING AFFINITY PREDICTED BY RF-SCORE:    0.00 PKD
ROOT
HETATM    1  C   UNL     1      -7.914  10.584  68.099  1.00  0.00    -0.111 C  
HETATM    2  C   UNL     1      -8.764  10.591  69.231  1.00  0.00    -0.135 C  
HETATM    3  C   UNL     1      -9.362   9.912  68.047  1.00  0.00    -0.140 C  
HETATM    4  C   UNL     1      -8.164   9.594  66.393  1.00  0.00    -0.119 C  
HETATM    5  O   UNL     1      -6.688   9.773  66.484  1.00  0.00    -0.077 OA 
HETATM    6  C   UNL     1     -12.178  13.273  66.451  1.00  0.00    -0.419 C  
HETATM    7  C   UNL     1      -8.526   8.848  67.459  1.00  0.00    -0.116 C  
HETATM    8  C   UNL     1     -10.148   8.924  66.392  1.00  0.00    -0.333 C  
HETATM    9  C   UNL     1      -7.910   7.663  68.191  1.00  0.00    -0.121 C  
HETATM   10  C   UNL     1     -10.635  13.404  66.143  1.00  0.00    -0.294 C  
HETATM   11  C   UNL     1     -10.546  14.017  64.718  1.00  0.00    -0.441 C  
HETATM   12  H   UNL     1      -6.138   9.626  65.723  1.00  0.00     0.000 HD 
HETATM   13  C   UNL     1     -10.411  10.595  65.737  1.00  0.00    -0.219 C  
HETATM   14  C   UNL     1     -10.968  15.543  64.695  1.00  0.00    -0.341 C  
HETATM   15  O   UNL     1     -10.204  17.539  65.875  1.00  0.00    -0.509 OA 
HETATM   16  O   UNL     1      -9.783  10.616  64.439  1.00  0.00    -0.255 OA 
HETATM   17  C   UNL     1      -9.992  12.008  66.613  1.00  0.00    -0.201 C  
HETATM   18  H   UNL     1      -9.920  11.491  64.095  1.00  0.00     0.000 HD 
HETATM   19  C   UNL     1      -8.404  11.978  67.060  1.00  0.00    -0.178 C  
HETATM   20  F   UNL     1     -10.659  11.988  67.850  1.00  0.00    -0.188 F  
HETATM   21  C   UNL     1      -7.980  13.270  67.777  1.00  0.00    -0.166 C  
HETATM   22  C   UNL     1      -8.465  14.500  67.034  1.00  0.00    -0.222 C  
HETATM   23  C   UNL     1      -9.978  14.499  67.008  1.00  0.00    -0.255 C  
HETATM   24  C   UNL     1     -10.628  15.655  67.250  1.00  0.00    -0.305 C  
HETATM   25  C   UNL     1     -10.530  16.360  65.921  1.00  0.00    -0.337 C  
ENDROOT
BRANCH   4  26
HETATM   26  C   UNL     1      -7.919   8.245  65.388  1.00  0.00    -0.127 C  
HETATM   27  O   UNL     1      -8.347   7.090  65.554  1.00  0.00    -0.135 OA 
BRANCH  26  28
HETATM   28  C   UNL     1      -7.008   8.413  64.171  1.00  0.00    -0.078 C  
HETATM   29  O   UNL     1      -7.252   9.682  63.544  1.00  0.00    -0.103 OA 
HETATM   30  H   UNL     1      -6.686   9.787  62.788  1.00  0.00     0.000 HD 
ENDBRANCH  26  28
ENDBRANCH   4  26
TORSDOF 2
ENDMDL
MODEL       41
REMARK 921   NORMALIZED FREE ENERGY PREDICTED BY IDOCK:   -5.37 KCAL/MOL
REMARK 922        TOTAL FREE ENERGY PREDICTED BY IDOCK:   -5.30 KCAL/MOL
REMARK 923 INTER-LIGAND FREE ENERGY PREDICTED BY IDOCK:   -5.82 KCAL/MOL
REMARK 924 INTRA-LIGAND FREE ENERGY PREDICTED BY IDOCK:    0.52 KCAL/MOL
REMARK 927      BINDING AFFINITY PREDICTED BY RF-SCORE:    0.00 PKD
ROOT
HETATM    1  C   UNL     1      -7.662  10.265  68.842  1.00  0.00    -0.098 C  
HETATM    2  C   UNL     1      -6.967   9.228  68.171  1.00  0.00    -0.076 C  
HETATM    3  C   UNL     1      -8.247   9.608  67.509  1.00  0.00    -0.114 C  
HETATM    4  C   UNL     1      -9.259  11.267  68.213  1.00  0.00    -0.176 C  
HETATM    5  O   UNL     1      -8.597  12.214  69.153  1.00  0.00    -0.300 OA 
HETATM    6  C   UNL     1     -11.044   6.182  68.996  1.00  0.00    -0.437 C  
HETATM    7  C   UNL     1      -8.383  11.047  67.210  1.00  0.00    -0.125 C  
HETATM    8  C   UNL     1     -10.013  10.198  66.578  1.00  0.00    -0.283 C  
HETATM    9  C   UNL     1      -7.393  11.917  66.446  1.00  0.00     0.288 C  
HETATM   10  C   UNL     1     -10.716   7.350  70.007  1.00  0.00    -0.258 C  
HETATM   11  C   UNL     1     -12.020   7.575  70.820  1.00  0.00    -0.224 C  
HETATM   12  H   UNL     1      -9.062  12.976  69.476  1.00  0.00     0.000 HD 
HETATM   13  C   UNL     1     -10.821   9.279  67.916  1.00  0.00    -0.118 C  
HETATM   14  C   UNL     1     -12.306   6.394  71.836  1.00  0.00    -0.279 C  
HETATM   15  O   UNL     1     -11.046   5.380  73.663  1.00  0.00    -0.280 OA 
HETATM   16  O   UNL     1     -11.758  10.195  68.519  1.00  0.00    -0.597 OA 
HETATM   17  C   UNL     1      -9.940   8.456  69.136  1.00  0.00    -0.196 C  
HETATM   18  H   UNL     1     -12.182   9.714  69.220  1.00  0.00     0.000 HD 
HETATM   19  C   UNL     1      -8.895   9.476  69.901  1.00  0.00    -0.227 C  
HETATM   20  F   UNL     1      -9.076   7.532  68.525  1.00  0.00    -0.134 F  
HETATM   21  C   UNL     1      -8.150   8.785  71.054  1.00  0.00    -0.186 C  
HETATM   22  C   UNL     1      -9.100   7.988  71.928  1.00  0.00    -0.210 C  
HETATM   23  C   UNL     1      -9.729   6.888  71.101  1.00  0.00    -0.177 C  
HETATM   24  C   UNL     1      -9.841   5.659  71.642  1.00  0.00    -0.213 C  
HETATM   25  C   UNL     1     -11.060   5.804  72.515  1.00  0.00    -0.279 C  
ENDROOT
BRANCH   4  26
HETATM   26  C   UNL     1      -9.996  12.586  67.435  1.00  0.00    -0.207 C  
HETATM   27  O   UNL     1      -9.876  12.926  66.245  1.00  0.00    -0.264 OA 
BRANCH  26  28
HETATM   28  C   UNL     1     -10.850  13.533  68.280  1.00  0.00    -0.259 C  
HETATM   29  O   UNL     1     -11.297  12.864  69.470  1.00  0.00    -0.394 OA 
HETATM   30  H   UNL     1     -11.827  13.452  69.995  1.00  0.00     0.000 HD 
ENDBRANCH  26  28
ENDBRANCH   4  26
TORSDOF 2
ENDMDL
MODEL       42
REMARK 921   NORMALIZED FREE ENERGY PREDICTED BY IDOCK:   -5.31 KCAL/MOL
REMARK 922        TOTAL FREE ENERGY PREDICTED BY IDOCK:   -5.24 KCAL/MOL
REMARK 923 INTER-LIGAND FREE ENERGY PREDICTED BY IDOCK:   -5.90 KCAL/MOL
REMARK 924 INTRA-LIGAND FREE ENERGY PREDICTED BY IDOCK:    0.66 KCAL/MOL
REMARK 927      BINDING AFFINITY PREDICTED BY RF-SCORE:    0.00 PKD
ROOT
HETATM    1  C   UNL     1      -7.869   7.432  65.239  1.00  0.00    -0.121 C  
HETATM    2  C   UNL     1      -6.643   7.948  65.729  1.00  0.00    -0.045 C  
HETATM    3  C   UNL     1      -7.431   7.213  66.760  1.00  0.00    -0.089 C  
HETATM    4  C   UNL     1      -9.120   6.188  66.155  1.00  0.00    -0.145 C  
HETATM    5  O   UNL     1      -9.381   5.949  64.708  1.00  0.00    -0.192 OA 
HETATM    6  C   UNL     1      -9.357  10.776  69.078  1.00  0.00    -0.168 C  
HETATM    7  C   UNL     1      -7.832   5.847  66.373  1.00  0.00    -0.101 C  
HETATM    8  C   UNL     1      -8.528   6.137  68.163  1.00  0.00    -0.116 C  
HETATM    9  C   UNL     1      -6.919   4.739  65.863  1.00  0.00    -0.063 C  
HETATM   10  C   UNL     1      -9.990  10.381  67.687  1.00  0.00    -0.205 C  
HETATM   11  C   UNL     1     -11.520  10.593  67.851  1.00  0.00    -0.261 C  
HETATM   12  H   UNL     1     -10.158   5.478  64.430  1.00  0.00     0.000 HD 
HETATM   13  C   UNL     1      -9.583   7.612  68.213  1.00  0.00    -0.153 C  
HETATM   14  C   UNL     1     -11.909  12.127  67.912  1.00  0.00    -0.338 C  
HETATM   15  O   UNL     1     -11.548  14.035  66.433  1.00  0.00    -0.339 OA 
HETATM   16  O   UNL     1     -10.927   7.149  67.970  1.00  0.00    -0.434 OA 
HETATM   17  C   UNL     1      -9.265   9.008  67.269  1.00  0.00    -0.134 C  
HETATM   18  H   UNL     1     -11.479   7.922  67.996  1.00  0.00     0.000 HD 
HETATM   19  C   UNL     1      -9.154   8.627  65.668  1.00  0.00    -0.221 C  
HETATM   20  F   UNL     1      -7.971   9.470  67.565  1.00  0.00    -0.102 F  
HETATM   21  C   UNL     1      -8.950   9.871  64.789  1.00  0.00    -0.255 C  
HETATM   22  C   UNL     1      -9.912  10.981  65.168  1.00  0.00    -0.333 C  
HETATM   23  C   UNL     1      -9.635  11.410  66.593  1.00  0.00    -0.211 C  
HETATM   24  C   UNL     1      -9.623  12.728  66.879  1.00  0.00    -0.235 C  
HETATM   25  C   UNL     1     -11.092  13.044  66.988  1.00  0.00    -0.281 C  
ENDROOT
BRANCH   4  26
HETATM   26  C   UNL     1      -9.709   4.630  66.497  1.00  0.00    -0.201 C  
HETATM   27  O   UNL     1      -9.725   4.053  67.598  1.00  0.00    -0.173 OA 
BRANCH  26  28
HETATM   28  C   UNL     1     -10.215   3.781  65.330  1.00  0.00     0.039 C  
HETATM   29  O   UNL     1     -11.474   4.290  64.860  1.00  0.00    -1.029 OA 
HETATM   30  H   UNL     1     -11.788   3.762  64.135  1.00  0.00     0.000 HD 
ENDBRANCH  26  28
ENDBRANCH   4  26
TORSDOF 2
ENDMDL
MODEL       43
REMARK 921   NORMALIZED FREE ENERGY PREDICTED BY IDOCK:   -5.30 KCAL/MOL
REMARK 922        TOTAL FREE ENERGY PREDICTED BY IDOCK:   -5.23 KCAL/MOL
REMARK 923 INTER-LIGAND FREE ENERGY PREDICTED BY IDOCK:   -6.32 KCAL/MOL
REMARK 924 INTRA-LIGAND FREE ENERGY PREDICTED BY IDOCK:    1.08 KCAL/MOL
REMARK 927      BINDING AFFINITY PREDICTED BY RF-SCORE:    0.00 PKD
ROOT
HETATM    1  C   UNL     1     -10.605  13.058  65.384  1.00  0.00    -0.307 C  
HETATM    2  C   UNL     1      -9.421  13.031  64.608  1.00  0.00     0.529 C  
HETATM    3  C   UNL     1      -9.213  12.601  66.020  1.00  0.00     0.011 C  
HETATM    4  C   UNL     1     -10.876  12.343  67.219  1.00  0.00    -0.243 C  
HETATM    5  O   UNL     1     -12.240  12.306  66.622  1.00  0.00    -0.574 OA 
HETATM    6  C   UNL     1      -7.410  16.495  67.854  1.00  0.00    -0.148 C  
HETATM    7  C   UNL     1     -10.109  11.520  66.474  1.00  0.00    -0.246 C  
HETATM    8  C   UNL     1      -8.965  11.956  67.983  1.00  0.00    -0.185 C  
HETATM    9  C   UNL     1     -10.333  10.176  65.793  1.00  0.00    -0.216 C  
HETATM   10  C   UNL     1      -8.970  16.454  67.613  1.00  0.00    -0.198 C  
HETATM   11  C   UNL     1      -9.595  17.232  68.804  1.00  0.00    -0.269 C  
HETATM   12  H   UNL     1     -13.004  12.188  67.174  1.00  0.00     0.000 HD 
HETATM   13  C   UNL     1      -9.085  13.718  68.394  1.00  0.00    -0.175 C  
HETATM   14  C   UNL     1      -9.335  18.791  68.704  1.00  0.00    -0.392 C  
HETATM   15  O   UNL     1      -9.810  20.491  67.019  1.00  0.00    -0.449 OA 
HETATM   16  O   UNL     1     -10.120  13.825  69.392  1.00  0.00    -0.402 OA 
HETATM   17  C   UNL     1      -9.293  14.934  67.202  1.00  0.00    -0.218 C  
HETATM   18  H   UNL     1     -10.183  14.748  69.608  1.00  0.00     0.000 HD 
HETATM   19  C   UNL     1     -10.621  14.630  66.273  1.00  0.00    -0.306 C  
HETATM   20  F   UNL     1      -8.241  14.842  66.275  1.00  0.00    -0.097 F  
HETATM   21  C   UNL     1     -10.878  15.746  65.248  1.00  0.00    -0.409 C  
HETATM   22  C   UNL     1     -10.784  17.118  65.888  1.00  0.00    -0.132 C  
HETATM   23  C   UNL     1      -9.378  17.326  66.407  1.00  0.00    -0.281 C  
HETATM   24  C   UNL     1      -8.783  18.518  66.199  1.00  0.00    -0.137 C  
HETATM   25  C   UNL     1      -9.391  19.371  67.282  1.00  0.00    -0.314 C  
ENDROOT
BRANCH   4  26
HETATM   26  C   UNL     1     -11.339  11.118  68.303  1.00  0.00    -0.297 C  
HETATM   27  O   UNL     1     -10.997   9.923  68.284  1.00  0.00    -0.240 OA 
BRANCH  26  28
HETATM   28  C   UNL     1     -12.352  11.469  69.394  1.00  0.00    -0.092 C  
HETATM   29  O   UNL     1     -13.095  10.298  69.771  1.00  0.00    -0.527 OA 
HETATM   30  H   UNL     1     -13.724  10.516  70.448  1.00  0.00     0.000 HD 
ENDBRANCH  26  28
ENDBRANCH   4  26
TORSDOF 2
ENDMDL
MODEL       44
REMARK 921   NORMALIZED FREE ENERGY PREDICTED BY IDOCK:   -5.26 KCAL/MOL
REMARK 922        TOTAL FREE ENERGY PREDICTED BY IDOCK:   -5.19 KCAL/MOL
REMARK 923 INTER-LIGAND FREE ENERGY PREDICTED BY IDOCK:   -5.69 KCAL/MOL
REMARK 924 INTRA-LIGAND FREE ENERGY PREDICTED BY IDOCK:    0.50 KCAL/MOL
REMARK 927      BINDING AFFINITY PREDICTED BY RF-SCORE:    0.00 PKD
ROOT
HETATM    1  C   UNL     1      -8.001   7.723  66.657  1.00  0.00    -0.107 C  
HETATM    2  C   UNL     1      -6.881   8.098  67.439  1.00  0.00    -0.074 C  
HETATM    3  C   UNL     1      -7.244   6.660  67.577  1.00  0.00    -0.090 C  
HETATM    4  C   UNL     1      -8.693   5.890  66.321  1.00  0.00    -0.136 C  
HETATM    5  O   UNL     1      -9.150   6.662  65.132  1.00  0.00    -0.350 OA 
HETATM    6  C   UNL     1      -9.555   6.735  71.630  1.00  0.00    -0.163 C  
HETATM    7  C   UNL     1      -7.343   5.923  66.303  1.00  0.00    -0.081 C  
HETATM    8  C   UNL     1      -7.743   4.643  67.709  1.00  0.00    -0.082 C  
HETATM    9  C   UNL     1      -6.288   5.850  65.207  1.00  0.00    -0.038 C  
HETATM   10  C   UNL     1     -10.314   7.252  70.345  1.00  0.00    -0.217 C  
HETATM   11  C   UNL     1     -11.788   6.794  70.521  1.00  0.00    -0.418 C  
HETATM   12  H   UNL     1      -9.816   6.308  64.555  1.00  0.00     0.000 HD 
HETATM   13  C   UNL     1      -9.114   5.228  68.742  1.00  0.00    -0.112 C  
HETATM   14  C   UNL     1     -12.542   7.619  71.644  1.00  0.00    -0.365 C  
HETATM   15  O   UNL     1     -12.971   9.992  72.014  1.00  0.00    -0.419 OA 
HETATM   16  O   UNL     1     -10.313   4.677  68.162  1.00  0.00     0.000 OA 
HETATM   17  C   UNL     1      -9.351   6.886  69.112  1.00  0.00    -0.140 C  
HETATM   18  H   UNL     1     -11.031   4.983  68.703  1.00  0.00     0.000 HD 
HETATM   19  C   UNL     1      -9.448   7.791  67.736  1.00  0.00    -0.163 C  
HETATM   20  F   UNL     1      -8.189   7.383  69.726  1.00  0.00    -0.119 F  
HETATM   21  C   UNL     1      -9.741   9.270  68.035  1.00  0.00    -0.172 C  
HETATM   22  C   UNL     1     -10.868   9.419  69.039  1.00  0.00    -0.161 C  
HETATM   23  C   UNL     1     -10.450   8.789  70.350  1.00  0.00    -0.240 C  
HETATM   24  C   UNL     1     -10.725   9.443  71.496  1.00  0.00    -0.367 C  
HETATM   25  C   UNL     1     -12.178   9.110  71.713  1.00  0.00    -0.372 C  
ENDROOT
BRANCH   4  26
HETATM   26  C   UNL     1      -8.785   4.462  65.402  1.00  0.00    -0.125 C  
HETATM   27  O   UNL     1      -7.901   3.600  65.254  1.00  0.00    -0.084 OA 
BRANCH  26  28
HETATM   28  C   UNL     1     -10.055   4.212  64.588  1.00  0.00    -0.175 C  
HETATM   29  O   UNL     1     -11.205   4.675  65.315  1.00  0.00    -0.916 OA 
HETATM   30  H   UNL     1     -11.994   4.520  64.809  1.00  0.00     0.000 HD 
ENDBRANCH  26  28
ENDBRANCH   4  26
TORSDOF 2
ENDMDL
MODEL       45
REMARK 921   NORMALIZED FREE ENERGY PREDICTED BY IDOCK:   -5.24 KCAL/MOL
REMARK 922        TOTAL FREE ENERGY PREDICTED BY IDOCK:   -5.16 KCAL/MOL
REMARK 923 INTER-LIGAND FREE ENERGY PREDICTED BY IDOCK:   -5.81 KCAL/MOL
REMARK 924 INTRA-LIGAND FREE ENERGY PREDICTED BY IDOCK:    0.64 KCAL/MOL
REMARK 927      BINDING AFFINITY PREDICTED BY RF-SCORE:    0.00 PKD
ROOT
HETATM    1  C   UNL     1     -10.218   5.773  70.928  1.00  0.00    -0.275 C  
HETATM    2  C   UNL     1      -8.988   5.416  71.532  1.00  0.00    -0.147 C  
HETATM    3  C   UNL     1      -9.129   6.881  71.300  1.00  0.00    -0.149 C  
HETATM    4  C   UNL     1     -10.957   7.599  70.658  1.00  0.00    -0.249 C  
HETATM    5  O   UNL     1     -12.167   6.731  70.702  1.00  0.00    -0.491 OA 
HETATM    6  C   UNL     1      -6.580   7.393  67.424  1.00  0.00    -0.061 C  
HETATM    7  C   UNL     1     -10.356   7.479  71.860  1.00  0.00    -0.226 C  
HETATM    8  C   UNL     1      -9.378   8.927  71.011  1.00  0.00    -0.313 C  
HETATM    9  C   UNL     1     -10.852   7.366  73.296  1.00  0.00    -0.417 C  
HETATM   10  C   UNL     1      -8.031   6.788  67.272  1.00  0.00    -0.114 C  
HETATM   11  C   UNL     1      -8.578   7.354  65.932  1.00  0.00    -0.165 C  
HETATM   12  H   UNL     1     -13.008   7.061  70.407  1.00  0.00     0.000 HD 
HETATM   13  C   UNL     1      -9.046   8.545  69.269  1.00  0.00    -0.153 C  
HETATM   14  C   UNL     1      -7.869   6.706  64.674  1.00  0.00    -0.116 C  
HETATM   15  O   UNL     1      -7.573   4.418  63.877  1.00  0.00    -0.068 OA 
HETATM   16  O   UNL     1     -10.145   9.104  68.522  1.00  0.00    -0.178 OA 
HETATM   17  C   UNL     1      -8.712   6.956  68.718  1.00  0.00    -0.129 C  
HETATM   18  H   UNL     1      -9.972   8.904  67.610  1.00  0.00     0.000 HD 
HETATM   19  C   UNL     1      -9.914   5.914  69.153  1.00  0.00    -0.214 C  
HETATM   20  F   UNL     1      -7.603   6.456  69.423  1.00  0.00    -0.085 F  
HETATM   21  C   UNL     1      -9.681   4.498  68.603  1.00  0.00    -0.203 C  
HETATM   22  C   UNL     1      -9.294   4.531  67.136  1.00  0.00    -0.163 C  
HETATM   23  C   UNL     1      -7.983   5.272  66.987  1.00  0.00    -0.101 C  
HETATM   24  C   UNL     1      -7.046   4.765  66.161  1.00  0.00    -0.075 C  
HETATM   25  C   UNL     1      -7.540   5.211  64.808  1.00  0.00    -0.078 C  
ENDROOT
BRANCH   4  26
HETATM   26  C   UNL     1     -11.912   8.921  71.138  1.00  0.00    -0.293 C  
HETATM   27  O   UNL     1     -11.626  10.128  71.060  1.00  0.00    -0.349 OA 
BRANCH  26  28
HETATM   28  C   UNL     1     -13.250   8.631  71.820  1.00  0.00    -0.363 C  
HETATM   29  O   UNL     1     -14.315   8.686  70.858  1.00  0.00    -0.631 OA 
HETATM   30  H   UNL     1     -15.146   8.506  71.281  1.00  0.00     0.000 HD 
ENDBRANCH  26  28
ENDBRANCH   4  26
TORSDOF 2
ENDMDL
MODEL       46
REMARK 921   NORMALIZED FREE ENERGY PREDICTED BY IDOCK:   -5.22 KCAL/MOL
REMARK 922        TOTAL FREE ENERGY PREDICTED BY IDOCK:   -5.14 KCAL/MOL
REMARK 923 INTER-LIGAND FREE ENERGY PREDICTED BY IDOCK:   -5.75 KCAL/MOL
REMARK 924 INTRA-LIGAND FREE ENERGY PREDICTED BY IDOCK:    0.62 KCAL/MOL
REMARK 927      BINDING AFFINITY PREDICTED BY RF-SCORE:    0.00 PKD
ROOT
HETATM    1  C   UNL     1     -10.828  11.412  69.229  1.00  0.00    -0.242 C  
HETATM    2  C   UNL     1     -12.191  11.413  68.843  1.00  0.00    -0.153 C  
HETATM    3  C   UNL     1     -11.268  10.988  67.753  1.00  0.00    -0.374 C  
HETATM    4  C   UNL     1      -9.276  10.690  68.218  1.00  0.00    -0.153 C  
HETATM    5  O   UNL     1      -8.834  10.622  69.639  1.00  0.00    -0.394 OA 
HETATM    6  C   UNL     1     -11.003  14.920  65.255  1.00  0.00    -0.389 C  
HETATM    7  C   UNL     1     -10.355   9.886  68.114  1.00  0.00    -0.232 C  
HETATM    8  C   UNL     1      -9.957  10.346  66.268  1.00  0.00    -0.283 C  
HETATM    9  C   UNL     1     -10.743   8.537  68.706  1.00  0.00    -0.089 C  
HETATM   10  C   UNL     1     -10.163  14.843  66.590  1.00  0.00    -0.264 C  
HETATM   11  C   UNL     1      -8.842  15.605  66.295  1.00  0.00    -0.364 C  
HETATM   12  H   UNL     1      -7.918  10.486  69.853  1.00  0.00     0.000 HD 
HETATM   13  C   UNL     1      -9.541  12.105  66.119  1.00  0.00    -0.240 C  
HETATM   14  C   UNL     1      -9.063  17.170  66.191  1.00  0.00    -0.214 C  
HETATM   15  O   UNL     1      -9.998  18.860  67.683  1.00  0.00    -0.320 OA 
HETATM   16  O   UNL     1      -8.107  12.187  66.249  1.00  0.00    -0.382 OA 
HETATM   17  C   UNL     1     -10.286  13.317  67.078  1.00  0.00    -0.244 C  
HETATM   18  H   UNL     1      -7.888  13.108  66.171  1.00  0.00     0.000 HD 
HETATM   19  C   UNL     1     -10.122  12.983  68.685  1.00  0.00    -0.143 C  
HETATM   20  F   UNL     1     -11.677  13.250  66.890  1.00  0.00    -0.334 F  
HETATM   21  C   UNL     1     -10.710  14.093  69.570  1.00  0.00    -0.051 C  
HETATM   22  C   UNL     1     -10.267  15.467  69.102  1.00  0.00    -0.239 C  
HETATM   23  C   UNL     1     -10.793  15.707  67.704  1.00  0.00    -0.307 C  
HETATM   24  C   UNL     1     -11.321  16.913  67.411  1.00  0.00     0.330 C  
HETATM   25  C   UNL     1     -10.091  17.750  67.175  1.00  0.00    -0.338 C  
ENDROOT
BRANCH   4  26
HETATM   26  C   UNL     1      -8.173   9.454  67.837  1.00  0.00    -0.115 C  
HETATM   27  O   UNL     1      -8.358   8.482  67.084  1.00  0.00    -0.110 OA 
BRANCH  26  28
HETATM   28  C   UNL     1      -6.816   9.460  68.541  1.00  0.00    -0.062 C  
HETATM   29  O   UNL     1      -6.034  10.579  68.094  1.00  0.00    -0.044 OA 
HETATM   30  H   UNL     1      -5.191  10.583  68.531  1.00  0.00     0.000 HD 
ENDBRANCH  26  28
ENDBRANCH   4  26
TORSDOF 2
ENDMDL
MODEL       47
REMARK 921   NORMALIZED FREE ENERGY PREDICTED BY IDOCK:   -5.21 KCAL/MOL
REMARK 922        TOTAL FREE ENERGY PREDICTED BY IDOCK:   -5.13 KCAL/MOL
REMARK 923 INTER-LIGAND FREE ENERGY PREDICTED BY IDOCK:   -5.62 KCAL/MOL
REMARK 924 INTRA-LIGAND FREE ENERGY PREDICTED BY IDOCK:    0.50 KCAL/MOL
REMARK 927      BINDING AFFINITY PREDICTED BY RF-SCORE:    0.00 PKD
ROOT
HETATM    1  C   UNL     1      -7.086  17.512  67.377  1.00  0.00    -0.188 C  
HETATM    2  C   UNL     1      -6.632  17.125  66.092  1.00  0.00    -0.091 C  
HETATM    3  C   UNL     1      -8.021  17.664  66.092  1.00  0.00    -0.248 C  
HETATM    4  C   UNL     1      -8.747  18.503  67.836  1.00  0.00    -0.284 C  
HETATM    5  O   UNL     1      -7.825  18.819  68.962  1.00  0.00    -0.278 OA 
HETATM    6  C   UNL     1     -10.486  13.705  65.937  1.00  0.00    -0.297 C  
HETATM    7  C   UNL     1      -8.168  18.992  66.718  1.00  0.00    -0.288 C  
HETATM    8  C   UNL     1      -9.940  18.471  66.116  1.00  0.00    -0.341 C  
HETATM    9  C   UNL     1      -7.372  20.248  66.390  1.00  0.00    -0.300 C  
HETATM   10  C   UNL     1      -9.860  14.123  67.325  1.00  0.00    -0.238 C  
HETATM   11  C   UNL     1     -10.901  13.698  68.396  1.00  0.00    -0.274 C  
HETATM   12  H   UNL     1      -8.159  19.205  69.764  1.00  0.00     0.000 HD 
HETATM   13  C   UNL     1     -10.416  16.870  66.824  1.00  0.00    -0.260 C  
HETATM   14  C   UNL     1     -10.966  12.126  68.578  1.00  0.00    -0.276 C  
HETATM   15  O   UNL     1      -9.324  10.407  69.129  1.00  0.00    -0.186 OA 
HETATM   16  O   UNL     1     -11.127  17.169  68.042  1.00  0.00    -0.313 OA 
HETATM   17  C   UNL     1      -9.288  15.608  67.098  1.00  0.00    -0.218 C  
HETATM   18  H   UNL     1     -11.376  16.331  68.413  1.00  0.00     0.000 HD 
HETATM   19  C   UNL     1      -8.038  16.127  68.041  1.00  0.00    -0.149 C  
HETATM   20  F   UNL     1      -8.650  15.299  65.885  1.00  0.00    -0.231 F  
HETATM   21  C   UNL     1      -7.052  14.995  68.370  1.00  0.00    -0.108 C  
HETATM   22  C   UNL     1      -7.779  13.741  68.819  1.00  0.00    -0.080 C  
HETATM   23  C   UNL     1      -8.646  13.240  67.684  1.00  0.00    -0.196 C  
HETATM   24  C   UNL     1      -8.668  11.917  67.425  1.00  0.00    -0.166 C  
HETATM   25  C   UNL     1      -9.614  11.401  68.478  1.00  0.00    -0.189 C  
ENDROOT
BRANCH   4  26
HETATM   26  C   UNL     1      -9.602  19.936  68.159  1.00  0.00    -0.354 C  
HETATM   27  O   UNL     1      -9.872  20.852  67.362  1.00  0.00    -0.444 OA 
BRANCH  26  28
HETATM   28  C   UNL     1     -10.036  20.204  69.601  1.00  0.00     0.187 C  
HETATM   29  O   UNL     1     -10.385  18.969  70.247  1.00  0.00     0.188 OA 
HETATM   30  H   UNL     1     -10.655  19.135  71.143  1.00  0.00     0.000 HD 
ENDBRANCH  26  28
ENDBRANCH   4  26
TORSDOF 2
ENDMDL
MODEL       48
REMARK 921   NORMALIZED FREE ENERGY PREDICTED BY IDOCK:   -5.21 KCAL/MOL
REMARK 922        TOTAL FREE ENERGY PREDICTED BY IDOCK:   -5.12 KCAL/MOL
REMARK 923 INTER-LIGAND FREE ENERGY PREDICTED BY IDOCK:   -6.12 KCAL/MOL
REMARK 924 INTRA-LIGAND FREE ENERGY PREDICTED BY IDOCK:    1.00 KCAL/MOL
REMARK 927      BINDING AFFINITY PREDICTED BY RF-SCORE:    0.00 PKD
ROOT
HETATM    1  C   UNL     1      -8.961  14.445  67.764  1.00  0.00    -0.192 C  
HETATM    2  C   UNL     1      -9.054  14.240  66.366  1.00  0.00    -0.171 C  
HETATM    3  C   UNL     1     -10.352  14.063  67.077  1.00  0.00    -0.267 C  
HETATM    4  C   UNL     1     -10.448  14.566  69.079  1.00  0.00    -0.237 C  
HETATM    5  O   UNL     1      -9.349  15.345  69.715  1.00  0.00    -0.370 OA 
HETATM    6  C   UNL     1     -10.570   9.409  67.336  1.00  0.00    -0.326 C  
HETATM    7  C   UNL     1     -10.750  15.202  67.927  1.00  0.00    -0.268 C  
HETATM    8  C   UNL     1     -12.159  13.875  68.091  1.00  0.00    -0.317 C  
HETATM    9  C   UNL     1     -10.848  16.662  67.506  1.00  0.00    -0.221 C  
HETATM   10  C   UNL     1      -9.617  10.154  68.352  1.00  0.00    -0.150 C  
HETATM   11  C   UNL     1      -9.719   9.356  69.680  1.00  0.00    -0.202 C  
HETATM   12  H   UNL     1      -9.394  15.577  70.636  1.00  0.00     0.000 HD 
HETATM   13  C   UNL     1     -11.485  12.283  68.642  1.00  0.00    -0.307 C  
HETATM   14  C   UNL     1      -8.992   7.951  69.592  1.00  0.00    -0.146 C  
HETATM   15  O   UNL     1      -6.722   7.240  69.045  1.00  0.00    -0.055 OA 
HETATM   16  O   UNL     1     -11.582  12.287  70.081  1.00  0.00    -0.509 OA 
HETATM   17  C   UNL     1      -9.940  11.718  68.161  1.00  0.00    -0.194 C  
HETATM   18  H   UNL     1     -11.229  11.454  70.370  1.00  0.00     0.000 HD 
HETATM   19  C   UNL     1      -8.767  12.818  68.526  1.00  0.00    -0.045 C  
HETATM   20  F   UNL     1      -9.892  11.672  66.757  1.00  0.00    -0.200 F  
HETATM   21  C   UNL     1      -7.361  12.303  68.179  1.00  0.00    -0.105 C  
HETATM   22  C   UNL     1      -7.153  10.884  68.674  1.00  0.00    -0.080 C  
HETATM   23  C   UNL     1      -8.133   9.967  67.974  1.00  0.00    -0.112 C  
HETATM   24  C   UNL     1      -7.691   8.776  67.523  1.00  0.00    -0.101 C  
HETATM   25  C   UNL     1      -7.689   7.941  68.777  1.00  0.00    -0.112 C  
ENDROOT
BRANCH   4  26
HETATM   26  C   UNL     1     -11.576  15.448  69.995  1.00  0.00    -0.321 C  
HETATM   27  O   UNL     1     -12.473  16.199  69.572  1.00  0.00    -0.051 OA 
BRANCH  26  28
HETATM   28  C   UNL     1     -11.460  15.399  71.519  1.00  0.00    -0.413 C  
HETATM   29  O   UNL     1     -11.791  16.680  72.079  1.00  0.00    -0.648 OA 
HETATM   30  H   UNL     1     -11.718  16.650  73.026  1.00  0.00     0.000 HD 
ENDBRANCH  26  28
ENDBRANCH   4  26
TORSDOF 2
ENDMDL
MODEL       49
REMARK 921   NORMALIZED FREE ENERGY PREDICTED BY IDOCK:   -5.18 KCAL/MOL
REMARK 922        TOTAL FREE ENERGY PREDICTED BY IDOCK:   -5.09 KCAL/MOL
REMARK 923 INTER-LIGAND FREE ENERGY PREDICTED BY IDOCK:   -5.71 KCAL/MOL
REMARK 924 INTRA-LIGAND FREE ENERGY PREDICTED BY IDOCK:    0.62 KCAL/MOL
REMARK 927      BINDING AFFINITY PREDICTED BY RF-SCORE:    0.00 PKD
ROOT
HETATM    1  C   UNL     1     -11.536   9.492  69.574  1.00  0.00     0.064 C  
HETATM    2  C   UNL     1     -11.744  10.440  70.605  1.00  0.00    -0.444 C  
HETATM    3  C   UNL     1     -10.344  10.418  70.096  1.00  0.00    -0.114 C  
HETATM    4  C   UNL     1      -9.927   9.273  68.426  1.00  0.00    -0.176 C  
HETATM    5  O   UNL     1     -11.032   8.722  67.593  1.00  0.00    -0.493 OA 
HETATM    6  C   UNL     1      -8.251   7.903  73.423  1.00  0.00    -0.246 C  
HETATM    7  C   UNL     1     -10.216  10.575  68.634  1.00  0.00    -0.197 C  
HETATM    8  C   UNL     1      -8.409  10.400  69.326  1.00  0.00    -0.161 C  
HETATM    9  C   UNL     1     -10.816  11.685  67.781  1.00  0.00    -0.264 C  
HETATM   10  C   UNL     1      -9.114   7.127  72.353  1.00  0.00    -0.150 C  
HETATM   11  C   UNL     1      -8.359   5.794  72.097  1.00  0.00    -0.115 C  
HETATM   12  H   UNL     1     -10.840   8.196  66.826  1.00  0.00     0.000 HD 
HETATM   13  C   UNL     1      -8.231   8.868  70.280  1.00  0.00    -0.129 C  
HETATM   14  C   UNL     1      -8.469   4.798  73.324  1.00  0.00    -0.103 C  
HETATM   15  O   UNL     1     -10.332   3.801  74.545  1.00  0.00    -0.186 OA 
HETATM   16  O   UNL     1      -7.766   7.871  69.348  1.00  0.00    -0.100 OA 
HETATM   17  C   UNL     1      -9.496   8.225  71.243  1.00  0.00    -0.172 C  
HETATM   18  H   UNL     1      -7.672   7.068  69.847  1.00  0.00     0.000 HD 
HETATM   19  C   UNL     1     -10.865   8.005  70.350  1.00  0.00    -0.247 C  
HETATM   20  F   UNL     1      -9.892   9.197  72.178  1.00  0.00    -0.379 F  
HETATM   21  C   UNL     1     -11.992   7.354  71.168  1.00  0.00    -0.351 C  
HETATM   22  C   UNL     1     -11.485   6.162  71.958  1.00  0.00    -0.366 C  
HETATM   23  C   UNL     1     -10.447   6.634  72.953  1.00  0.00    -0.254 C  
HETATM   24  C   UNL     1     -10.486   6.141  74.208  1.00  0.00    -0.211 C  
HETATM   25  C   UNL     1      -9.827   4.796  74.042  1.00  0.00    -0.156 C  
ENDROOT
BRANCH   4  26
HETATM   26  C   UNL     1      -9.038   9.578  67.010  1.00  0.00    -0.134 C  
HETATM   27  O   UNL     1      -8.095  10.376  66.865  1.00  0.00    -0.115 OA 
BRANCH  26  28
HETATM   28  C   UNL     1      -9.466   8.866  65.726  1.00  0.00    -0.202 C  
HETATM   29  O   UNL     1     -10.179   9.777  64.872  1.00  0.00    -0.310 OA 
HETATM   30  H   UNL     1     -10.445   9.335  64.075  1.00  0.00     0.000 HD 
ENDBRANCH  26  28
ENDBRANCH   4  26
TORSDOF 2
ENDMDL
MODEL       50
REMARK 921   NORMALIZED FREE ENERGY PREDICTED BY IDOCK:   -5.11 KCAL/MOL
REMARK 922        TOTAL FREE ENERGY PREDICTED BY IDOCK:   -5.01 KCAL/MOL
REMARK 923 INTER-LIGAND FREE ENERGY PREDICTED BY IDOCK:   -5.66 KCAL/MOL
REMARK 924 INTRA-LIGAND FREE ENERGY PREDICTED BY IDOCK:    0.65 KCAL/MOL
REMARK 927      BINDING AFFINITY PREDICTED BY RF-SCORE:    0.00 PKD
ROOT
HETATM    1  C   UNL     1      -8.133   9.582  68.884  1.00  0.00    -0.096 C  
HETATM    2  C   UNL     1      -9.016   9.832  69.963  1.00  0.00    -0.255 C  
HETATM    3  C   UNL     1      -9.643   9.062  68.853  1.00  0.00    -0.156 C  
HETATM    4  C   UNL     1      -8.432   8.398  67.315  1.00  0.00    -0.124 C  
HETATM    5  O   UNL     1      -6.949   8.435  67.452  1.00  0.00    -0.069 OA 
HETATM    6  C   UNL     1     -12.024  12.442  66.690  1.00  0.00    -0.300 C  
HETATM    7  C   UNL     1      -8.908   7.847  68.452  1.00  0.00    -0.130 C  
HETATM    8  C   UNL     1     -10.475   7.941  67.308  1.00  0.00    -0.390 C  
HETATM    9  C   UNL     1      -8.449   6.716  69.364  1.00  0.00    -0.131 C  
HETATM   10  C   UNL     1     -10.466  12.370  66.441  1.00  0.00    -0.267 C  
HETATM   11  C   UNL     1     -10.263  12.770  64.954  1.00  0.00    -0.294 C  
HETATM   12  H   UNL     1      -6.393   8.130  66.745  1.00  0.00     0.000 HD 
HETATM   13  C   UNL     1     -10.534   9.524  66.424  1.00  0.00    -0.098 C  
HETATM   14  C   UNL     1     -10.517  14.314  64.708  1.00  0.00    -0.421 C  
HETATM   15  O   UNL     1      -9.582  16.363  65.647  1.00  0.00    -0.495 OA 
HETATM   16  O   UNL     1      -9.864   9.303  65.167  1.00  0.00    -0.441 OA 
HETATM   17  C   UNL     1      -9.994  10.994  67.124  1.00  0.00    -0.187 C  
HETATM   18  H   UNL     1      -9.894  10.132  64.704  1.00  0.00     0.000 HD 
HETATM   19  C   UNL     1      -8.435  10.863  67.646  1.00  0.00    -0.123 C  
HETATM   20  F   UNL     1     -10.701  11.213  68.319  1.00  0.00    -0.177 F  
HETATM   21  C   UNL     1      -7.898  12.191  68.205  1.00  0.00    -0.147 C  
HETATM   22  C   UNL     1      -8.221  13.351  67.282  1.00  0.00    -0.162 C  
HETATM   23  C   UNL     1      -9.724  13.502  67.184  1.00  0.00    -0.244 C  
HETATM   24  C   UNL     1     -10.253  14.740  67.238  1.00  0.00    -0.241 C  
HETATM   25  C   UNL     1     -10.034  15.241  65.834  1.00  0.00    -0.340 C  
ENDROOT
BRANCH   4  26
HETATM   26  C   UNL     1      -8.300   6.906  66.511  1.00  0.00    -0.121 C  
HETATM   27  O   UNL     1      -9.166   6.018  66.418  1.00  0.00    -0.146 OA 
BRANCH  26  28
HETATM   28  C   UNL     1      -6.953   6.544  65.885  1.00  0.00    -0.061 C  
HETATM   29  O   UNL     1      -6.603   7.507  64.877  1.00  0.00    -0.046 OA 
HETATM   30  H   UNL     1      -5.766   7.282  64.488  1.00  0.00     0.000 HD 
ENDBRANCH  26  28
ENDBRANCH   4  26
TORSDOF 2
ENDMDL
MODEL       51
REMARK 921   NORMALIZED FREE ENERGY PREDICTED BY IDOCK:   -5.08 KCAL/MOL
REMARK 922        TOTAL FREE ENERGY PREDICTED BY IDOCK:   -4.98 KCAL/MOL
REMARK 923 INTER-LIGAND FREE ENERGY PREDICTED BY IDOCK:   -5.51 KCAL/MOL
REMARK 924 INTRA-LIGAND FREE ENERGY PREDICTED BY IDOCK:    0.53 KCAL/MOL
REMARK 927      BINDING AFFINITY PREDICTED BY RF-SCORE:    0.00 PKD
ROOT
HETATM    1  C   UNL     1      -8.858   6.356  69.117  1.00  0.00    -0.126 C  
HETATM    2  C   UNL     1      -7.575   6.692  68.620  1.00  0.00    -0.101 C  
HETATM    3  C   UNL     1      -7.844   7.238  69.980  1.00  0.00    -0.111 C  
HETATM    4  C   UNL     1      -9.564   6.636  70.954  1.00  0.00    -0.175 C  
HETATM    5  O   UNL     1     -10.358   5.484  70.443  1.00  0.00    -0.234 OA 
HETATM    6  C   UNL     1      -8.929  11.656  68.943  1.00  0.00     0.074 C  
HETATM    7  C   UNL     1      -8.276   6.235  70.973  1.00  0.00    -0.123 C  
HETATM    8  C   UNL     1      -8.229   7.941  71.901  1.00  0.00    -0.142 C  
HETATM    9  C   UNL     1      -7.567   4.932  71.319  1.00  0.00    -0.082 C  
HETATM   10  C   UNL     1     -10.032  10.554  68.693  1.00  0.00    -0.188 C  
HETATM   11  C   UNL     1     -11.384  11.230  69.049  1.00  0.00    -0.344 C  
HETATM   12  H   UNL     1     -11.149   5.207  70.891  1.00  0.00     0.000 HD 
HETATM   13  C   UNL     1      -9.272   9.162  71.058  1.00  0.00    -0.252 C  
HETATM   14  C   UNL     1     -11.816  12.310  67.975  1.00  0.00    -0.368 C  
HETATM   15  O   UNL     1     -12.191  12.257  65.564  1.00  0.00    -0.577 OA 
HETATM   16  O   UNL     1     -10.570   9.075  71.680  1.00  0.00    -0.316 OA 
HETATM   17  C   UNL     1      -9.442   9.211  69.352  1.00  0.00    -0.161 C  
HETATM   18  H   UNL     1     -11.116   9.714  71.238  1.00  0.00     0.000 HD 
HETATM   19  C   UNL     1      -9.946   7.754  68.765  1.00  0.00    -0.181 C  
HETATM   20  F   UNL     1      -8.169   9.352  68.774  1.00  0.00    -0.101 F  
HETATM   21  C   UNL     1     -10.185   7.792  67.248  1.00  0.00    -0.343 C  
HETATM   22  C   UNL     1     -10.990   9.014  66.844  1.00  0.00     0.199 C  
HETATM   23  C   UNL     1     -10.204  10.260  67.187  1.00  0.00    -0.277 C  
HETATM   24  C   UNL     1     -10.165  11.266  66.290  1.00  0.00    -0.280 C  
HETATM   25  C   UNL     1     -11.490  11.947  66.518  1.00  0.00    -0.314 C  
ENDROOT
BRANCH   4  26
HETATM   26  C   UNL     1      -9.870   6.115  72.543  1.00  0.00    -0.167 C  
HETATM   27  O   UNL     1      -9.036   5.879  73.435  1.00  0.00    -0.130 OA 
BRANCH  26  28
HETATM   28  C   UNL     1     -11.317   5.815  72.936  1.00  0.00    -0.252 C  
HETATM   29  O   UNL     1     -12.217   6.584  72.122  1.00  0.00    -0.435 OA 
HETATM   30  H   UNL     1     -13.116   6.398  72.365  1.00  0.00     0.000 HD 
ENDBRANCH  26  28
ENDBRANCH   4  26
TORSDOF 2
ENDMDL
MODEL       52
REMARK 921   NORMALIZED FREE ENERGY PREDICTED BY IDOCK:   -5.07 KCAL/MOL
REMARK 922        TOTAL FREE ENERGY PREDICTED BY IDOCK:   -4.96 KCAL/MOL
REMARK 923 INTER-LIGAND FREE ENERGY PREDICTED BY IDOCK:   -5.79 KCAL/MOL
REMARK 924 INTRA-LIGAND FREE ENERGY PREDICTED BY IDOCK:    0.82 KCAL/MOL
REMARK 927      BINDING AFFINITY PREDICTED BY RF-SCORE:    0.00 PKD
ROOT
HETATM    1  C   UNL     1     -10.306   8.549  70.972  1.00  0.00    -0.261 C  
HETATM    2  C   UNL     1     -11.268   7.729  70.333  1.00  0.00    -0.246 C  
HETATM    3  C   UNL     1      -9.884   7.527  69.819  1.00  0.00    -0.180 C  
HETATM    4  C   UNL     1      -8.327   8.458  70.809  1.00  0.00    -0.130 C  
HETATM    5  O   UNL     1      -8.542   9.071  72.149  1.00  0.00    -0.364 OA 
HETATM    6  C   UNL     1     -10.042  10.034  65.887  1.00  0.00    -0.319 C  
HETATM    7  C   UNL     1      -8.878   7.227  70.857  1.00  0.00    -0.149 C  
HETATM    8  C   UNL     1      -7.931   7.229  69.161  1.00  0.00    -0.119 C  
HETATM    9  C   UNL     1      -8.957   6.133  71.914  1.00  0.00    -0.140 C  
HETATM   10  C   UNL     1      -9.889  10.818  67.249  1.00  0.00    -0.208 C  
HETATM   11  C   UNL     1      -8.951  12.016  66.937  1.00  0.00    -0.199 C  
HETATM   12  H   UNL     1      -7.826   9.499  72.604  1.00  0.00     0.000 HD 
HETATM   13  C   UNL     1      -8.169   8.804  68.292  1.00  0.00    -0.118 C  
HETATM   14  C   UNL     1      -9.664  13.121  66.054  1.00  0.00    -0.234 C  
HETATM   15  O   UNL     1     -11.694  14.452  66.305  1.00  0.00    -0.370 OA 
HETATM   16  O   UNL     1      -7.069   9.647  68.690  1.00  0.00    -0.070 OA 
HETATM   17  C   UNL     1      -9.638   9.685  68.362  1.00  0.00    -0.144 C  
HETATM   18  H   UNL     1      -7.193  10.472  68.235  1.00  0.00     0.000 HD 
HETATM   19  C   UNL     1     -10.066  10.000  69.923  1.00  0.00    -0.289 C  
HETATM   20  F   UNL     1     -10.684   8.858  67.917  1.00  0.00    -0.279 F  
HETATM   21  C   UNL     1     -11.337  10.859  70.013  1.00  0.00    -0.386 C  
HETATM   22  C   UNL     1     -11.276  12.041  69.064  1.00  0.00    -0.313 C  
HETATM   23  C   UNL     1     -11.202  11.529  67.641  1.00  0.00    -0.343 C  
HETATM   24  C   UNL     1     -11.956  12.131  66.700  1.00  0.00    -0.186 C  
HETATM   25  C   UNL     1     -11.146  13.361  66.380  1.00  0.00    -0.299 C  
ENDROOT
BRANCH   4  26
HETATM   26  C   UNL     1      -6.799   7.919  71.324  1.00  0.00    -0.046 C  
HETATM   27  O   UNL     1      -6.407   6.744  71.428  1.00  0.00    -0.041 OA 
BRANCH  26  28
HETATM   28  C   UNL     1      -5.789   8.967  71.795  1.00  0.00    -0.062 C  
HETATM   29  O   UNL     1      -6.028   9.295  73.173  1.00  0.00    -0.291 OA 
HETATM   30  H   UNL     1      -5.400   9.946  73.466  1.00  0.00     0.000 HD 
ENDBRANCH  26  28
ENDBRANCH   4  26
TORSDOF 2
ENDMDL
MODEL       53
REMARK 921   NORMALIZED FREE ENERGY PREDICTED BY IDOCK:   -5.05 KCAL/MOL
REMARK 922        TOTAL FREE ENERGY PREDICTED BY IDOCK:   -4.95 KCAL/MOL
REMARK 923 INTER-LIGAND FREE ENERGY PREDICTED BY IDOCK:   -5.84 KCAL/MOL
REMARK 924 INTRA-LIGAND FREE ENERGY PREDICTED BY IDOCK:    0.89 KCAL/MOL
REMARK 927      BINDING AFFINITY PREDICTED BY RF-SCORE:    0.00 PKD
ROOT
HETATM    1  C   UNL     1     -10.372   5.807  70.174  1.00  0.00    -0.324 C  
HETATM    2  C   UNL     1      -9.340   5.050  70.781  1.00  0.00    -0.209 C  
HETATM    3  C   UNL     1      -9.505   6.407  71.373  1.00  0.00    -0.164 C  
HETATM    4  C   UNL     1     -11.123   7.546  70.776  1.00  0.00    -0.265 C  
HETATM    5  O   UNL     1     -12.238   6.929  70.006  1.00  0.00    -0.640 OA 
HETATM    6  C   UNL     1      -6.011   8.692  69.288  1.00  0.00    -0.041 C  
HETATM    7  C   UNL     1     -10.876   6.724  71.818  1.00  0.00    -0.257 C  
HETATM    8  C   UNL     1      -9.795   8.289  72.215  1.00  0.00    -0.364 C  
HETATM    9  C   UNL     1     -11.746   5.894  72.753  1.00  0.00    -0.183 C  
HETATM   10  C   UNL     1      -7.319   8.427  68.444  1.00  0.00    -0.094 C  
HETATM   11  C   UNL     1      -7.505   9.688  67.556  1.00  0.00    -0.091 C  
HETATM   12  H   UNL     1     -12.982   7.453  69.731  1.00  0.00     0.000 HD 
HETATM   13  C   UNL     1      -8.964   8.894  70.720  1.00  0.00    -0.209 C  
HETATM   14  C   UNL     1      -6.430   9.768  66.395  1.00  0.00    -0.071 C  
HETATM   15  O   UNL     1      -5.776   8.277  64.577  1.00  0.00    -0.050 OA 
HETATM   16  O   UNL     1      -9.844   9.882  70.148  1.00  0.00    -0.248 OA 
HETATM   17  C   UNL     1      -8.387   7.843  69.494  1.00  0.00    -0.131 C  
HETATM   18  H   UNL     1      -9.409  10.199  69.365  1.00  0.00     0.000 HD 
HETATM   19  C   UNL     1      -9.594   6.867  68.936  1.00  0.00    -0.139 C  
HETATM   20  F   UNL     1      -7.491   6.926  70.068  1.00  0.00    -0.082 F  
HETATM   21  C   UNL     1      -9.125   5.970  67.779  1.00  0.00    -0.109 C  
HETATM   22  C   UNL     1      -8.345   6.761  66.746  1.00  0.00    -0.115 C  
HETATM   23  C   UNL     1      -7.095   7.321  67.391  1.00  0.00    -0.088 C  
HETATM   24  C   UNL     1      -5.934   7.256  66.710  1.00  0.00    -0.035 C  
HETATM   25  C   UNL     1      -6.056   8.420  65.760  1.00  0.00    -0.048 C  
ENDROOT
BRANCH   4  26
HETATM   26  C   UNL     1     -12.257   8.479  71.633  1.00  0.00    -0.322 C  
HETATM   27  O   UNL     1     -12.060   9.557  72.221  1.00  0.00    -0.248 OA 
BRANCH  26  28
HETATM   28  C   UNL     1     -13.674   7.924  71.786  1.00  0.00    -0.352 C  
HETATM   29  O   UNL     1     -14.296   8.479  72.957  1.00  0.00    -0.963 OA 
HETATM   30  H   UNL     1     -15.176   8.134  73.052  1.00  0.00     0.000 HD 
ENDBRANCH  26  28
ENDBRANCH   4  26
TORSDOF 2
ENDMDL
MODEL       54
REMARK 921   NORMALIZED FREE ENERGY PREDICTED BY IDOCK:   -5.03 KCAL/MOL
REMARK 922        TOTAL FREE ENERGY PREDICTED BY IDOCK:   -4.93 KCAL/MOL
REMARK 923 INTER-LIGAND FREE ENERGY PREDICTED BY IDOCK:   -5.99 KCAL/MOL
REMARK 924 INTRA-LIGAND FREE ENERGY PREDICTED BY IDOCK:    1.06 KCAL/MOL
REMARK 927      BINDING AFFINITY PREDICTED BY RF-SCORE:    0.00 PKD
ROOT
HETATM    1  C   UNL     1      -6.248  16.639  67.774  1.00  0.00    -0.159 C  
HETATM    2  C   UNL     1      -5.853  16.504  66.421  1.00  0.00     0.578 C  
HETATM    3  C   UNL     1      -6.835  17.602  66.643  1.00  0.00    -0.252 C  
HETATM    4  C   UNL     1      -7.327  18.098  68.588  1.00  0.00    -0.286 C  
HETATM    5  O   UNL     1      -6.519  17.579  69.727  1.00  0.00    -0.206 OA 
HETATM    6  C   UNL     1     -10.778  15.532  65.248  1.00  0.00    -0.440 C  
HETATM    7  C   UNL     1      -6.448  18.576  67.682  1.00  0.00    -0.204 C  
HETATM    8  C   UNL     1      -8.168  19.162  66.994  1.00  0.00    -0.285 C  
HETATM    9  C   UNL     1      -5.135  19.342  67.769  1.00  0.00    -0.170 C  
HETATM   10  C   UNL     1     -10.219  15.155  66.676  1.00  0.00    -0.270 C  
HETATM   11  C   UNL     1     -11.472  14.961  67.575  1.00  0.00    -0.361 C  
HETATM   12  H   UNL     1      -6.745  17.807  70.621  1.00  0.00     0.000 HD 
HETATM   13  C   UNL     1      -9.404  17.843  67.140  1.00  0.00    -0.265 C  
HETATM   14  C   UNL     1     -12.263  13.635  67.222  1.00  0.00    -0.317 C  
HETATM   15  O   UNL     1     -11.662  11.272  67.116  1.00  0.00    -0.533 OA 
HETATM   16  O   UNL     1     -10.056  18.047  68.409  1.00  0.00    -0.346 OA 
HETATM   17  C   UNL     1      -9.014  16.185  66.942  1.00  0.00    -0.223 C  
HETATM   18  H   UNL     1     -10.704  17.357  68.486  1.00  0.00     0.000 HD 
HETATM   19  C   UNL     1      -7.801  15.736  67.965  1.00  0.00    -0.138 C  
HETATM   20  F   UNL     1      -8.431  16.005  65.676  1.00  0.00    -0.228 F  
HETATM   21  C   UNL     1      -7.486  14.235  67.867  1.00  0.00    -0.157 C  
HETATM   22  C   UNL     1      -8.752  13.401  67.892  1.00  0.00    -0.187 C  
HETATM   23  C   UNL     1      -9.595  13.743  66.682  1.00  0.00    -0.295 C  
HETATM   24  C   UNL     1     -10.177  12.740  65.997  1.00  0.00    -0.290 C  
HETATM   25  C   UNL     1     -11.384  12.432  66.845  1.00  0.00    -0.333 C  
ENDROOT
BRANCH   4  26
HETATM   26  C   UNL     1      -7.477  19.585  69.398  1.00  0.00    -0.162 C  
HETATM   27  O   UNL     1      -8.494  20.292  69.499  1.00  0.00     0.477 OA 
BRANCH  26  28
HETATM   28  C   UNL     1      -6.219  20.194  70.021  1.00  0.00    -0.349 C  
HETATM   29  O   UNL     1      -6.397  20.347  71.439  1.00  0.00    -0.589 OA 
HETATM   30  H   UNL     1      -5.616  20.725  71.825  1.00  0.00     0.000 HD 
ENDBRANCH  26  28
ENDBRANCH   4  26
TORSDOF 2
ENDMDL
MODEL       55
REMARK 921   NORMALIZED FREE ENERGY PREDICTED BY IDOCK:   -5.01 KCAL/MOL
REMARK 922        TOTAL FREE ENERGY PREDICTED BY IDOCK:   -4.90 KCAL/MOL
REMARK 923 INTER-LIGAND FREE ENERGY PREDICTED BY IDOCK:   -5.47 KCAL/MOL
REMARK 924 INTRA-LIGAND FREE ENERGY PREDICTED BY IDOCK:    0.56 KCAL/MOL
REMARK 927      BINDING AFFINITY PREDICTED BY RF-SCORE:    0.00 PKD
ROOT
HETATM    1  C   UNL     1     -11.279  10.342  66.908  1.00  0.00     0.058 C  
HETATM    2  C   UNL     1     -10.279   9.980  65.972  1.00  0.00    -0.277 C  
HETATM    3  C   UNL     1      -9.733  10.347  67.309  1.00  0.00    -0.195 C  
HETATM    4  C   UNL     1     -11.064  10.660  68.858  1.00  0.00    -0.261 C  
HETATM    5  O   UNL     1     -12.490  10.254  68.722  1.00  0.00    -0.394 OA 
HETATM    6  C   UNL     1      -8.303  14.713  66.491  1.00  0.00     0.192 C  
HETATM    7  C   UNL     1     -10.325   9.609  68.441  1.00  0.00    -0.233 C  
HETATM    8  C   UNL     1      -9.004  10.814  69.202  1.00  0.00    -0.100 C  
HETATM    9  C   UNL     1     -10.443   8.097  68.583  1.00  0.00    -0.195 C  
HETATM   10  C   UNL     1      -9.850  14.477  66.705  1.00  0.00    -0.282 C  
HETATM   11  C   UNL     1     -10.357  15.724  67.481  1.00  0.00    -0.280 C  
HETATM   12  H   UNL     1     -13.102  10.398  69.435  1.00  0.00     0.000 HD 
HETATM   13  C   UNL     1      -9.342  12.529  68.718  1.00  0.00     0.132 C  
HETATM   14  C   UNL     1     -10.392  17.021  66.573  1.00  0.00    -0.298 C  
HETATM   15  O   UNL     1     -11.467  17.589  64.456  1.00  0.00    -0.626 OA 
HETATM   16  O   UNL     1     -10.168  13.082  69.763  1.00  0.00     0.244 OA 
HETATM   17  C   UNL     1      -9.981  12.948  67.183  1.00  0.00    -0.240 C  
HETATM   18  H   UNL     1     -10.345  13.980  69.510  1.00  0.00     0.000 HD 
HETATM   19  C   UNL     1     -11.391  12.145  66.890  1.00  0.00    -0.402 C  
HETATM   20  F   UNL     1      -9.128  12.445  66.185  1.00  0.00    -0.218 F  
HETATM   21  C   UNL     1     -12.029  12.562  65.555  1.00  0.00    -0.500 C  
HETATM   22  C   UNL     1     -12.049  14.071  65.399  1.00  0.00    -0.411 C  
HETATM   23  C   UNL     1     -10.626  14.585  65.375  1.00  0.00    -0.385 C  
HETATM   24  C   UNL     1     -10.296  15.529  64.471  1.00  0.00     0.497 C  
HETATM   25  C   UNL     1     -10.820  16.786  65.116  1.00  0.00    -0.138 C  
ENDROOT
BRANCH   4  26
HETATM   26  C   UNL     1     -11.092  10.144  70.478  1.00  0.00    -0.327 C  
HETATM   27  O   UNL     1     -10.358   9.296  71.015  1.00  0.00    -0.269 OA 
BRANCH  26  28
HETATM   28  C   UNL     1     -12.182  10.706  71.392  1.00  0.00    -0.302 C  
HETATM   29  O   UNL     1     -12.728  11.908  70.825  1.00  0.00    -0.255 OA 
HETATM   30  H   UNL     1     -13.405  12.257  71.393  1.00  0.00     0.000 HD 
ENDBRANCH  26  28
ENDBRANCH   4  26
TORSDOF 2
ENDMDL
MODEL       56
REMARK 921   NORMALIZED FREE ENERGY PREDICTED BY IDOCK:   -4.92 KCAL/MOL
REMARK 922        TOTAL FREE ENERGY PREDICTED BY IDOCK:   -4.80 KCAL/MOL
REMARK 923 INTER-LIGAND FREE ENERGY PREDICTED BY IDOCK:   -5.45 KCAL/MOL
REMARK 924 INTRA-LIGAND FREE ENERGY PREDICTED BY IDOCK:    0.65 KCAL/MOL
REMARK 927      BINDING AFFINITY PREDICTED BY RF-SCORE:    0.00 PKD
ROOT
HETATM    1  C   UNL     1      -7.736   9.679  68.707  1.00  0.00    -0.080 C  
HETATM    2  C   UNL     1      -7.080   8.762  67.850  1.00  0.00    -0.079 C  
HETATM    3  C   UNL     1      -8.547   8.855  67.605  1.00  0.00    -0.124 C  
HETATM    4  C   UNL     1      -9.614  10.322  68.594  1.00  0.00    -0.168 C  
HETATM    5  O   UNL     1      -8.905  11.426  69.300  1.00  0.00    -0.376 OA 
HETATM    6  C   UNL     1     -10.041   5.037  69.835  1.00  0.00    -0.344 C  
HETATM    7  C   UNL     1      -9.048  10.223  67.373  1.00  0.00    -0.148 C  
HETATM    8  C   UNL     1     -10.589   9.046  67.252  1.00  0.00    -0.301 C  
HETATM    9  C   UNL     1      -8.522  11.226  66.355  1.00  0.00    -0.169 C  
HETATM   10  C   UNL     1      -9.667   6.297  70.711  1.00  0.00    -0.202 C  
HETATM   11  C   UNL     1     -10.691   6.310  71.879  1.00  0.00    -0.271 C  
HETATM   12  H   UNL     1      -9.395  12.101  69.755  1.00  0.00     0.000 HD 
HETATM   13  C   UNL     1     -10.767   8.060  68.764  1.00  0.00    -0.045 C  
HETATM   14  C   UNL     1     -10.423   5.151  72.924  1.00  0.00    -0.255 C  
HETATM   15  O   UNL     1      -8.504   4.492  74.281  1.00  0.00    -0.103 OA 
HETATM   16  O   UNL     1     -11.646   8.809  69.627  1.00  0.00    -0.409 OA 
HETATM   17  C   UNL     1      -9.420   7.485  69.656  1.00  0.00    -0.156 C  
HETATM   18  H   UNL     1     -11.739   8.293  70.419  1.00  0.00     0.000 HD 
HETATM   19  C   UNL     1      -8.419   8.725  70.081  1.00  0.00    -0.139 C  
HETATM   20  F   UNL     1      -8.610   6.713  68.806  1.00  0.00    -0.120 F  
HETATM   21  C   UNL     1      -7.245   8.250  70.951  1.00  0.00    -0.058 C  
HETATM   22  C   UNL     1      -7.716   7.332  72.064  1.00  0.00    -0.089 C  
HETATM   23  C   UNL     1      -8.331   6.091  71.454  1.00  0.00    -0.127 C  
HETATM   24  C   UNL     1      -8.031   4.892  71.993  1.00  0.00    -0.110 C  
HETATM   25  C   UNL     1      -8.941   4.846  73.194  1.00  0.00    -0.111 C  
ENDROOT
BRANCH   4  26
HETATM   26  C   UNL     1     -10.794  11.434  68.084  1.00  0.00    -0.213 C  
HETATM   27  O   UNL     1     -11.758  11.220  67.328  1.00  0.00    -0.566 OA 
BRANCH  26  28
HETATM   28  C   UNL     1     -10.644  12.892  68.520  1.00  0.00    -0.253 C  
HETATM   29  O   UNL     1     -10.969  13.026  69.914  1.00  0.00    -0.430 OA 
HETATM   30  H   UNL     1     -10.875  13.931  70.184  1.00  0.00     0.000 HD 
ENDBRANCH  26  28
ENDBRANCH   4  26
TORSDOF 2
ENDMDL
MODEL       57
REMARK 921   NORMALIZED FREE ENERGY PREDICTED BY IDOCK:   -4.89 KCAL/MOL
REMARK 922        TOTAL FREE ENERGY PREDICTED BY IDOCK:   -4.77 KCAL/MOL
REMARK 923 INTER-LIGAND FREE ENERGY PREDICTED BY IDOCK:   -5.36 KCAL/MOL
REMARK 924 INTRA-LIGAND FREE ENERGY PREDICTED BY IDOCK:    0.59 KCAL/MOL
REMARK 927      BINDING AFFINITY PREDICTED BY RF-SCORE:    0.00 PKD
ROOT
HETATM    1  C   UNL     1      -7.999   7.753  71.510  1.00  0.00    -0.097 C  
HETATM    2  C   UNL     1      -8.239   8.637  72.591  1.00  0.00    -0.037 C  
HETATM    3  C   UNL     1      -9.431   7.825  72.214  1.00  0.00    -0.225 C  
HETATM    4  C   UNL     1      -9.187   6.313  70.827  1.00  0.00    -0.154 C  
HETATM    5  O   UNL     1      -7.823   5.861  70.434  1.00  0.00    -0.100 OA 
HETATM    6  C   UNL     1     -11.837  10.935  69.701  1.00  0.00    -0.416 C  
HETATM    7  C   UNL     1      -9.199   6.368  72.175  1.00  0.00    -0.140 C  
HETATM    8  C   UNL     1     -11.062   6.640  71.699  1.00  0.00    -0.290 C  
HETATM    9  C   UNL     1      -8.604   5.511  73.285  1.00  0.00    -0.116 C  
HETATM   10  C   UNL     1     -10.601  10.236  69.011  1.00  0.00    -0.247 C  
HETATM   11  C   UNL     1     -11.014  10.031  67.527  1.00  0.00    -0.276 C  
HETATM   12  H   UNL     1      -7.711   5.166  69.796  1.00  0.00     0.000 HD 
HETATM   13  C   UNL     1     -11.208   7.760  70.280  1.00  0.00    -0.206 C  
HETATM   14  C   UNL     1     -11.052  11.394  66.722  1.00  0.00    -0.343 C  
HETATM   15  O   UNL     1      -9.425  13.160  66.287  1.00  0.00    -0.252 OA 
HETATM   16  O   UNL     1     -11.228   6.920  69.109  1.00  0.00    -0.459 OA 
HETATM   17  C   UNL     1     -10.144   9.083  70.033  1.00  0.00    -0.196 C  
HETATM   18  H   UNL     1     -11.305   7.506  68.366  1.00  0.00     0.000 HD 
HETATM   19  C   UNL     1      -8.573   8.581  70.011  1.00  0.00    -0.134 C  
HETATM   20  F   UNL     1     -10.186   9.914  71.166  1.00  0.00    -0.327 F  
HETATM   21  C   UNL     1      -7.602   9.734  69.711  1.00  0.00    -0.137 C  
HETATM   22  C   UNL     1      -8.076  10.566  68.535  1.00  0.00    -0.121 C  
HETATM   23  C   UNL     1      -9.405  11.203  68.883  1.00  0.00    -0.117 C  
HETATM   24  C   UNL     1      -9.607  12.494  68.554  1.00  0.00    -0.114 C  
HETATM   25  C   UNL     1      -9.950  12.400  67.089  1.00  0.00    -0.207 C  
ENDROOT
BRANCH   4  26
HETATM   26  C   UNL     1      -9.715   4.698  70.774  1.00  0.00    -0.199 C  
HETATM   27  O   UNL     1     -10.047   3.979  71.733  1.00  0.00    -0.180 OA 
BRANCH  26  28
HETATM   28  C   UNL     1      -9.723   3.988  69.419  1.00  0.00    -0.135 C  
HETATM   29  O   UNL     1      -9.541   4.944  68.362  1.00  0.00    -0.132 OA 
HETATM   30  H   UNL     1      -9.546   4.503  67.520  1.00  0.00     0.000 HD 
ENDBRANCH  26  28
ENDBRANCH   4  26
TORSDOF 2
ENDMDL
MODEL       58
REMARK 921   NORMALIZED FREE ENERGY PREDICTED BY IDOCK:   -4.88 KCAL/MOL
REMARK 922        TOTAL FREE ENERGY PREDICTED BY IDOCK:   -4.76 KCAL/MOL
REMARK 923 INTER-LIGAND FREE ENERGY PREDICTED BY IDOCK:   -5.56 KCAL/MOL
REMARK 924 INTRA-LIGAND FREE ENERGY PREDICTED BY IDOCK:    0.80 KCAL/MOL
REMARK 927      BINDING AFFINITY PREDICTED BY RF-SCORE:    0.00 PKD
ROOT
HETATM    1  C   UNL     1      -9.757   7.165  67.358  1.00  0.00    -0.186 C  
HETATM    2  C   UNL     1     -11.156   7.258  67.155  1.00  0.00    -0.133 C  
HETATM    3  C   UNL     1     -10.532   8.547  67.565  1.00  0.00    -0.328 C  
HETATM    4  C   UNL     1      -8.470   8.650  67.661  1.00  0.00    -0.125 C  
HETATM    5  O   UNL     1      -7.631   7.571  67.068  1.00  0.00    -0.098 OA 
HETATM    6  C   UNL     1     -11.622   8.632  72.102  1.00  0.00    -0.440 C  
HETATM    7  C   UNL     1      -9.392   8.974  66.731  1.00  0.00    -0.213 C  
HETATM    8  C   UNL     1      -9.622  10.345  68.088  1.00  0.00    -0.155 C  
HETATM    9  C   UNL     1      -9.375   9.115  65.214  1.00  0.00    -0.224 C  
HETATM   10  C   UNL     1     -10.431   7.698  71.653  1.00  0.00    -0.229 C  
HETATM   11  C   UNL     1      -9.389   7.771  72.802  1.00  0.00    -0.263 C  
HETATM   12  H   UNL     1      -6.683   7.619  67.112  1.00  0.00     0.000 HD 
HETATM   13  C   UNL     1      -9.549   9.624  69.751  1.00  0.00    -0.219 C  
HETATM   14  C   UNL     1      -9.874   7.005  74.101  1.00  0.00    -0.306 C  
HETATM   15  O   UNL     1     -10.592   4.719  74.560  1.00  0.00    -0.300 OA 
HETATM   16  O   UNL     1      -8.170   9.715  70.164  1.00  0.00    -0.161 OA 
HETATM   17  C   UNL     1     -10.166   8.065  70.111  1.00  0.00    -0.203 C  
HETATM   18  H   UNL     1      -8.131   9.337  71.035  1.00  0.00     0.000 HD 
HETATM   19  C   UNL     1      -9.495   6.922  69.129  1.00  0.00    -0.142 C  
HETATM   20  F   UNL     1     -11.523   8.021  69.750  1.00  0.00    -0.133 F  
HETATM   21  C   UNL     1      -9.969   5.504  69.482  1.00  0.00    -0.278 C  
HETATM   22  C   UNL     1      -9.902   5.254  70.977  1.00  0.00    -0.254 C  
HETATM   23  C   UNL     1     -10.840   6.210  71.682  1.00  0.00    -0.308 C  
HETATM   24  C   UNL     1     -11.613   5.737  72.680  1.00  0.00    -0.304 C  
HETATM   25  C   UNL     1     -10.652   5.706  73.840  1.00  0.00    -0.256 C  
ENDROOT
BRANCH   4  26
HETATM   26  C   UNL     1      -7.344   9.799  67.113  1.00  0.00    -0.087 C  
HETATM   27  O   UNL     1      -7.316  11.015  67.374  1.00  0.00    -0.096 OA 
BRANCH  26  28
HETATM   28  C   UNL     1      -6.275   9.341  66.120  1.00  0.00    -0.064 C  
HETATM   29  O   UNL     1      -5.400  10.435  65.799  1.00  0.00    -0.056 OA 
HETATM   30  H   UNL     1      -4.735  10.150  65.183  1.00  0.00     0.000 HD 
ENDBRANCH  26  28
ENDBRANCH   4  26
TORSDOF 2
ENDMDL
MODEL       59
REMARK 921   NORMALIZED FREE ENERGY PREDICTED BY IDOCK:   -4.85 KCAL/MOL
REMARK 922        TOTAL FREE ENERGY PREDICTED BY IDOCK:   -4.73 KCAL/MOL
REMARK 923 INTER-LIGAND FREE ENERGY PREDICTED BY IDOCK:   -5.53 KCAL/MOL
REMARK 924 INTRA-LIGAND FREE ENERGY PREDICTED BY IDOCK:    0.81 KCAL/MOL
REMARK 927      BINDING AFFINITY PREDICTED BY RF-SCORE:    0.00 PKD
ROOT
HETATM    1  C   UNL     1      -8.294   6.756  67.279  1.00  0.00    -0.121 C  
HETATM    2  C   UNL     1      -9.306   5.913  66.757  1.00  0.00    -0.144 C  
HETATM    3  C   UNL     1      -9.722   7.340  66.867  1.00  0.00    -0.252 C  
HETATM    4  C   UNL     1      -8.291   8.741  67.374  1.00  0.00    -0.109 C  
HETATM    5  O   UNL     1      -6.845   8.388  67.348  1.00  0.00    -0.068 OA 
HETATM    6  C   UNL     1     -12.242   7.206  70.792  1.00  0.00    -0.308 C  
HETATM    7  C   UNL     1      -8.814   8.300  66.211  1.00  0.00    -0.192 C  
HETATM    8  C   UNL     1     -10.256   9.348  66.983  1.00  0.00    -0.322 C  
HETATM    9  C   UNL     1      -8.325   8.253  64.769  1.00  0.00    -0.129 C  
HETATM   10  C   UNL     1     -10.669   7.202  70.932  1.00  0.00    -0.251 C  
HETATM   11  C   UNL     1     -10.362   8.047  72.198  1.00  0.00    -0.318 C  
HETATM   12  H   UNL     1      -6.186   9.032  67.582  1.00  0.00     0.000 HD 
HETATM   13  C   UNL     1     -10.406   9.026  68.762  1.00  0.00    -0.215 C  
HETATM   14  C   UNL     1     -10.766   7.295  73.533  1.00  0.00    -0.367 C  
HETATM   15  O   UNL     1     -10.175   5.142  74.519  1.00  0.00    -0.234 OA 
HETATM   16  O   UNL     1      -9.589  10.018  69.416  1.00  0.00    -0.197 OA 
HETATM   17  C   UNL     1     -10.114   7.482  69.450  1.00  0.00    -0.190 C  
HETATM   18  H   UNL     1      -9.667   9.850  70.348  1.00  0.00     0.000 HD 
HETATM   19  C   UNL     1      -8.613   6.930  69.049  1.00  0.00    -0.128 C  
HETATM   20  F   UNL     1     -10.961   6.545  68.833  1.00  0.00    -0.254 F  
HETATM   21  C   UNL     1      -8.293   5.584  69.718  1.00  0.00    -0.105 C  
HETATM   22  C   UNL     1      -8.651   5.600  71.192  1.00  0.00    -0.127 C  
HETATM   23  C   UNL     1     -10.143   5.808  71.337  1.00  0.00    -0.249 C  
HETATM   24  C   UNL     1     -10.814   5.064  72.238  1.00  0.00    -0.207 C  
HETATM   25  C   UNL     1     -10.511   5.780  73.530  1.00  0.00    -0.256 C  
ENDROOT
BRANCH   4  26
HETATM   26  C   UNL     1      -7.906  10.276  66.752  1.00  0.00    -0.114 C  
HETATM   27  O   UNL     1      -8.677  11.089  66.212  1.00  0.00    -0.165 OA 
BRANCH  26  28
HETATM   28  C   UNL     1      -6.440  10.711  66.769  1.00  0.00    -0.086 C  
HETATM   29  O   UNL     1      -6.100  11.344  65.524  1.00  0.00    -0.424 OA 
HETATM   30  H   UNL     1      -5.189  11.614  65.535  1.00  0.00     0.000 HD 
ENDBRANCH  26  28
ENDBRANCH   4  26
TORSDOF 2
ENDMDL
MODEL       60
REMARK 921   NORMALIZED FREE ENERGY PREDICTED BY IDOCK:   -4.85 KCAL/MOL
REMARK 922        TOTAL FREE ENERGY PREDICTED BY IDOCK:   -4.72 KCAL/MOL
REMARK 923 INTER-LIGAND FREE ENERGY PREDICTED BY IDOCK:   -5.45 KCAL/MOL
REMARK 924 INTRA-LIGAND FREE ENERGY PREDICTED BY IDOCK:    0.73 KCAL/MOL
REMARK 927      BINDING AFFINITY PREDICTED BY RF-SCORE:    0.00 PKD
ROOT
HETATM    1  C   UNL     1      -8.017  10.544  67.121  1.00  0.00    -0.116 C  
HETATM    2  C   UNL     1      -6.955  10.679  68.049  1.00  0.00    -0.073 C  
HETATM    3  C   UNL     1      -6.993   9.345  67.384  1.00  0.00    -0.085 C  
HETATM    4  C   UNL     1      -8.322   9.066  65.826  1.00  0.00    -0.128 C  
HETATM    5  O   UNL     1      -9.009  10.231  65.201  1.00  0.00    -0.167 OA 
HETATM    6  C   UNL     1      -9.005   6.773  70.718  1.00  0.00    -0.151 C  
HETATM    7  C   UNL     1      -7.015   9.391  65.909  1.00  0.00    -0.090 C  
HETATM    8  C   UNL     1      -7.042   7.512  66.400  1.00  0.00    -0.071 C  
HETATM    9  C   UNL     1      -6.040  10.136  65.006  1.00  0.00    -0.123 C  
HETATM   10  C   UNL     1      -9.937   7.714  69.857  1.00  0.00    -0.190 C  
HETATM   11  C   UNL     1     -11.265   6.930  69.676  1.00  0.00    -0.289 C  
HETATM   12  H   UNL     1      -9.620  10.102  64.484  1.00  0.00     0.000 HD 
HETATM   13  C   UNL     1      -8.438   7.154  67.502  1.00  0.00    -0.123 C  
HETATM   14  C   UNL     1     -12.104   6.853  71.017  1.00  0.00    -0.429 C  
HETATM   15  O   UNL     1     -13.004   8.517  72.559  1.00  0.00    -0.337 OA 
HETATM   16  O   UNL     1      -9.527   6.751  66.647  1.00  0.00    -0.159 OA 
HETATM   17  C   UNL     1      -8.998   8.271  68.677  1.00  0.00    -0.137 C  
HETATM   18  H   UNL     1     -10.258   6.563  67.224  1.00  0.00     0.000 HD 
HETATM   19  C   UNL     1      -9.373   9.720  67.984  1.00  0.00    -0.138 C  
HETATM   20  F   UNL     1      -7.932   8.604  69.529  1.00  0.00    -0.089 F  
HETATM   21  C   UNL     1      -9.954  10.715  69.001  1.00  0.00    -0.226 C  
HETATM   22  C   UNL     1     -11.021  10.066  69.863  1.00  0.00    -0.339 C  
HETATM   23  C   UNL     1     -10.396   8.946  70.666  1.00  0.00    -0.265 C  
HETATM   24  C   UNL     1     -10.730   8.819  71.965  1.00  0.00    -0.417 C  
HETATM   25  C   UNL     1     -12.062   8.120  71.885  1.00  0.00    -0.323 C  
ENDROOT
BRANCH   4  26
HETATM   26  C   UNL     1      -8.166   8.358  64.289  1.00  0.00    -0.127 C  
HETATM   27  O   UNL     1      -7.967   7.159  64.025  1.00  0.00    -0.128 OA 
BRANCH  26  28
HETATM   28  C   UNL     1      -8.191   9.279  63.068  1.00  0.00    -0.177 C  
HETATM   29  O   UNL     1      -9.548   9.523  62.662  1.00  0.00    -0.555 OA 
HETATM   30  H   UNL     1      -9.563  10.095  61.904  1.00  0.00     0.000 HD 
ENDBRANCH  26  28
ENDBRANCH   4  26
TORSDOF 2
ENDMDL
MODEL       61
REMARK 921   NORMALIZED FREE ENERGY PREDICTED BY IDOCK:   -4.78 KCAL/MOL
REMARK 922        TOTAL FREE ENERGY PREDICTED BY IDOCK:   -4.64 KCAL/MOL
REMARK 923 INTER-LIGAND FREE ENERGY PREDICTED BY IDOCK:   -5.54 KCAL/MOL
REMARK 924 INTRA-LIGAND FREE ENERGY PREDICTED BY IDOCK:    0.89 KCAL/MOL
REMARK 927      BINDING AFFINITY PREDICTED BY RF-SCORE:    0.00 PKD
ROOT
HETATM    1  C   UNL     1      -7.425   7.500  68.841  1.00  0.00    -0.096 C  
HETATM    2  C   UNL     1      -7.513   7.910  70.194  1.00  0.00    -0.078 C  
HETATM    3  C   UNL     1      -8.753   7.253  69.693  1.00  0.00    -0.141 C  
HETATM    4  C   UNL     1      -8.708   6.372  67.824  1.00  0.00    -0.114 C  
HETATM    5  O   UNL     1      -7.412   6.149  67.125  1.00  0.00    -0.079 OA 
HETATM    6  C   UNL     1     -11.427  10.980  68.837  1.00  0.00    -0.364 C  
HETATM    7  C   UNL     1      -8.545   5.923  69.086  1.00  0.00    -0.115 C  
HETATM    8  C   UNL     1     -10.451   6.282  68.980  1.00  0.00    -0.287 C  
HETATM    9  C   UNL     1      -7.823   4.738  69.713  1.00  0.00    -0.066 C  
HETATM   10  C   UNL     1     -10.298  10.633  67.789  1.00  0.00    -0.239 C  
HETATM   11  C   UNL     1     -10.901  10.978  66.399  1.00  0.00    -0.253 C  
HETATM   12  H   UNL     1      -7.391   5.745  66.265  1.00  0.00     0.000 HD 
HETATM   13  C   UNL     1     -10.765   7.843  68.110  1.00  0.00    -0.040 C  
HETATM   14  C   UNL     1     -11.027  12.540  66.171  1.00  0.00    -0.318 C  
HETATM   15  O   UNL     1      -9.449  14.401  66.228  1.00  0.00    -0.290 OA 
HETATM   16  O   UNL     1     -10.946   7.496  66.722  1.00  0.00    -0.495 OA 
HETATM   17  C   UNL     1      -9.727   9.201  68.244  1.00  0.00    -0.154 C  
HETATM   18  H   UNL     1     -11.111   8.314  66.267  1.00  0.00     0.000 HD 
HETATM   19  C   UNL     1      -8.177   8.803  67.842  1.00  0.00    -0.111 C  
HETATM   20  F   UNL     1      -9.612   9.551  69.600  1.00  0.00    -0.159 F  
HETATM   21  C   UNL     1      -7.239  10.020  67.875  1.00  0.00    -0.087 C  
HETATM   22  C   UNL     1      -7.852  11.211  67.162  1.00  0.00    -0.139 C  
HETATM   23  C   UNL     1      -9.117  11.622  67.883  1.00  0.00    -0.171 C  
HETATM   24  C   UNL     1      -9.345  12.935  68.087  1.00  0.00    -0.214 C  
HETATM   25  C   UNL     1      -9.874  13.378  66.747  1.00  0.00    -0.265 C  
ENDROOT
BRANCH   4  26
HETATM   26  C   UNL     1      -9.258   4.874  67.239  1.00  0.00    -0.124 C  
HETATM   27  O   UNL     1      -9.287   3.789  67.847  1.00  0.00    -0.161 OA 
BRANCH  26  28
HETATM   28  C   UNL     1      -9.701   4.791  65.778  1.00  0.00    -0.188 C  
HETATM   29  O   UNL     1     -11.132   4.900  65.691  1.00  0.00    -0.787 OA 
HETATM   30  H   UNL     1     -11.407   4.848  64.783  1.00  0.00     0.000 HD 
ENDBRANCH  26  28
ENDBRANCH   4  26
TORSDOF 2
ENDMDL
MODEL       62
REMARK 921   NORMALIZED FREE ENERGY PREDICTED BY IDOCK:   -4.74 KCAL/MOL
REMARK 922        TOTAL FREE ENERGY PREDICTED BY IDOCK:   -4.60 KCAL/MOL
REMARK 923 INTER-LIGAND FREE ENERGY PREDICTED BY IDOCK:   -5.41 KCAL/MOL
REMARK 924 INTRA-LIGAND FREE ENERGY PREDICTED BY IDOCK:    0.81 KCAL/MOL
REMARK 927      BINDING AFFINITY PREDICTED BY RF-SCORE:    0.00 PKD
ROOT
HETATM    1  C   UNL     1     -10.837   8.263  69.113  1.00  0.00    -0.036 C  
HETATM    2  C   UNL     1     -10.719   7.590  67.871  1.00  0.00    -0.200 C  
HETATM    3  C   UNL     1      -9.425   7.720  68.599  1.00  0.00    -0.152 C  
HETATM    4  C   UNL     1      -9.457   8.452  70.532  1.00  0.00    -0.169 C  
HETATM    5  O   UNL     1     -10.744   8.572  71.272  1.00  0.00    -0.218 OA 
HETATM    6  C   UNL     1      -7.515  11.326  66.334  1.00  0.00    -0.064 C  
HETATM    7  C   UNL     1      -9.443   7.217  69.986  1.00  0.00    -0.161 C  
HETATM    8  C   UNL     1      -7.642   7.871  69.664  1.00  0.00    -0.098 C  
HETATM    9  C   UNL     1      -9.898   5.839  70.450  1.00  0.00    -0.241 C  
HETATM   10  C   UNL     1      -8.642  11.642  67.394  1.00  0.00    -0.149 C  
HETATM   11  C   UNL     1      -8.216  12.973  68.071  1.00  0.00    -0.161 C  
HETATM   12  H   UNL     1     -10.759   8.909  72.161  1.00  0.00     0.000 HD 
HETATM   13  C   UNL     1      -7.672   9.604  69.131  1.00  0.00    -0.087 C  
HETATM   14  C   UNL     1      -8.382  14.217  67.104  1.00  0.00    -0.189 C  
HETATM   15  O   UNL     1     -10.251  15.160  65.850  1.00  0.00    -0.283 OA 
HETATM   16  O   UNL     1      -7.539  10.393  70.331  1.00  0.00    -0.451 OA 
HETATM   17  C   UNL     1      -8.919  10.246  68.143  1.00  0.00    -0.130 C  
HETATM   18  H   UNL     1      -7.555  11.300  70.052  1.00  0.00     0.000 HD 
HETATM   19  C   UNL     1     -10.401   9.992  68.821  1.00  0.00    -0.216 C  
HETATM   20  F   UNL     1      -8.989   9.495  66.958  1.00  0.00    -0.131 F  
HETATM   21  C   UNL     1     -11.531  10.628  67.997  1.00  0.00    -0.289 C  
HETATM   22  C   UNL     1     -11.191  12.052  67.597  1.00  0.00    -0.343 C  
HETATM   23  C   UNL     1      -9.967  12.037  66.708  1.00  0.00    -0.218 C  
HETATM   24  C   UNL     1      -9.957  12.821  65.612  1.00  0.00    -0.249 C  
HETATM   25  C   UNL     1      -9.615  14.171  66.189  1.00  0.00    -0.254 C  
ENDROOT
BRANCH   4  26
HETATM   26  C   UNL     1      -8.701   7.950  71.969  1.00  0.00    -0.137 C  
HETATM   27  O   UNL     1      -7.528   7.560  72.111  1.00  0.00    -0.073 OA 
BRANCH  26  28
HETATM   28  C   UNL     1      -9.547   7.883  73.241  1.00  0.00    -0.285 C  
HETATM   29  O   UNL     1      -8.715   8.072  74.397  1.00  0.00    -0.423 OA 
HETATM   30  H   UNL     1      -9.241   8.030  75.187  1.00  0.00     0.000 HD 
ENDBRANCH  26  28
ENDBRANCH   4  26
TORSDOF 2
ENDMDL
MODEL       63
REMARK 921   NORMALIZED FREE ENERGY PREDICTED BY IDOCK:   -4.71 KCAL/MOL
REMARK 922        TOTAL FREE ENERGY PREDICTED BY IDOCK:   -4.57 KCAL/MOL
REMARK 923 INTER-LIGAND FREE ENERGY PREDICTED BY IDOCK:   -5.40 KCAL/MOL
REMARK 924 INTRA-LIGAND FREE ENERGY PREDICTED BY IDOCK:    0.83 KCAL/MOL
REMARK 927      BINDING AFFINITY PREDICTED BY RF-SCORE:    0.00 PKD
ROOT
HETATM    1  C   UNL     1      -8.011  11.326  68.699  1.00  0.00    -0.145 C  
HETATM    2  C   UNL     1      -6.779  11.035  68.062  1.00  0.00    -0.063 C  
HETATM    3  C   UNL     1      -7.961  10.865  67.170  1.00  0.00    -0.127 C  
HETATM    4  C   UNL     1      -9.807  11.485  67.863  1.00  0.00    -0.185 C  
HETATM    5  O   UNL     1      -9.911  12.331  69.084  1.00  0.00    -0.407 OA 
HETATM    6  C   UNL     1      -8.489   6.230  67.309  1.00  0.00    -0.108 C  
HETATM    7  C   UNL     1      -8.850  12.041  67.091  1.00  0.00    -0.188 C  
HETATM    8  C   UNL     1      -9.628  10.687  65.935  1.00  0.00    -0.253 C  
HETATM    9  C   UNL     1      -8.441  13.470  66.759  1.00  0.00     0.013 C  
HETATM   10  C   UNL     1      -8.999   7.062  68.550  1.00  0.00    -0.122 C  
HETATM   11  C   UNL     1     -10.289   6.342  69.032  1.00  0.00    -0.251 C  
HETATM   12  H   UNL     1     -10.760  12.616  69.402  1.00  0.00     0.000 HD 
HETATM   13  C   UNL     1      -9.928   9.151  66.853  1.00  0.00    -0.238 C  
HETATM   14  C   UNL     1      -9.975   4.956  69.731  1.00  0.00    -0.314 C  
HETATM   15  O   UNL     1      -8.588   4.278  71.621  1.00  0.00    -0.104 OA 
HETATM   16  O   UNL     1     -11.281   9.238  67.343  1.00  0.00    -0.362 OA 
HETATM   17  C   UNL     1      -8.887   8.601  68.101  1.00  0.00    -0.142 C  
HETATM   18  H   UNL     1     -11.438   8.434  67.824  1.00  0.00     0.000 HD 
HETATM   19  C   UNL     1      -8.698   9.754  69.264  1.00  0.00    -0.165 C  
HETATM   20  F   UNL     1      -7.588   8.472  67.582  1.00  0.00    -0.091 F  
HETATM   21  C   UNL     1      -7.835   9.259  70.436  1.00  0.00    -0.158 C  
HETATM   22  C   UNL     1      -8.265   7.879  70.896  1.00  0.00    -0.103 C  
HETATM   23  C   UNL     1      -8.062   6.894  69.765  1.00  0.00    -0.126 C  
HETATM   24  C   UNL     1      -7.523   5.691  70.046  1.00  0.00    -0.070 C  
HETATM   25  C   UNL     1      -8.704   4.933  70.595  1.00  0.00    -0.116 C  
ENDROOT
BRANCH   4  26
HETATM   26  C   UNL     1     -11.062  12.387  67.155  1.00  0.00    -0.280 C  
HETATM   27  O   UNL     1     -11.375  12.434  65.953  1.00  0.00    -0.322 OA 
BRANCH  26  28
HETATM   28  C   UNL     1     -11.873  13.320  68.056  1.00  0.00    -0.355 C  
HETATM   29  O   UNL     1     -12.338  14.451  67.302  1.00  0.00    -0.617 OA 
HETATM   30  H   UNL     1     -12.841  15.031  67.862  1.00  0.00     0.000 HD 
ENDBRANCH  26  28
ENDBRANCH   4  26
TORSDOF 2
ENDMDL
MODEL       64
REMARK 921   NORMALIZED FREE ENERGY PREDICTED BY IDOCK:   -4.64 KCAL/MOL
REMARK 922        TOTAL FREE ENERGY PREDICTED BY IDOCK:   -4.49 KCAL/MOL
REMARK 923 INTER-LIGAND FREE ENERGY PREDICTED BY IDOCK:   -5.08 KCAL/MOL
REMARK 924 INTRA-LIGAND FREE ENERGY PREDICTED BY IDOCK:    0.59 KCAL/MOL
REMARK 927      BINDING AFFINITY PREDICTED BY RF-SCORE:    0.00 PKD
ROOT
HETATM    1  C   UNL     1     -10.523   9.819  70.766  1.00  0.00    -0.339 C  
HETATM    2  C   UNL     1     -11.513  10.355  69.906  1.00  0.00    -0.368 C  
HETATM    3  C   UNL     1     -11.524   8.866  69.965  1.00  0.00     0.021 C  
HETATM    4  C   UNL     1     -10.314   7.933  71.357  1.00  0.00    -0.198 C  
HETATM    5  O   UNL     1      -9.676   8.717  72.450  1.00  0.00    -0.283 OA 
HETATM    6  C   UNL     1      -9.269   7.826  66.014  1.00  0.00    -0.139 C  
HETATM    7  C   UNL     1     -11.612   8.302  71.326  1.00  0.00    -0.318 C  
HETATM    8  C   UNL     1     -11.547   6.789  70.110  1.00  0.00    -0.397 C  
HETATM    9  C   UNL     1     -12.652   8.641  72.387  1.00  0.00    -0.426 C  
HETATM   10  C   UNL     1      -8.404   8.303  67.246  1.00  0.00    -0.124 C  
HETATM   11  C   UNL     1      -7.092   7.474  67.179  1.00  0.00    -0.085 C  
HETATM   12  H   UNL     1      -9.120   8.288  73.090  1.00  0.00     0.000 HD 
HETATM   13  C   UNL     1     -10.074   6.872  69.055  1.00  0.00    -0.170 C  
HETATM   14  C   UNL     1      -6.157   7.928  65.985  1.00  0.00    -0.038 C  
HETATM   15  O   UNL     1      -5.146  10.050  65.327  1.00  0.00    -0.043 OA 
HETATM   16  O   UNL     1      -9.051   6.122  69.741  1.00  0.00    -0.139 OA 
HETATM   17  C   UNL     1      -9.428   8.355  68.484  1.00  0.00    -0.146 C  
HETATM   18  H   UNL     1      -8.279   6.165  69.189  1.00  0.00     0.000 HD 
HETATM   19  C   UNL     1      -9.107   9.381  69.735  1.00  0.00    -0.204 C  
HETATM   20  F   UNL     1     -10.429   9.040  67.774  1.00  0.00    -0.254 F  
HETATM   21  C   UNL     1      -8.452  10.687  69.258  1.00  0.00    -0.102 C  
HETATM   22  C   UNL     1      -7.323  10.417  68.281  1.00  0.00    -0.088 C  
HETATM   23  C   UNL     1      -7.887   9.744  67.048  1.00  0.00    -0.102 C  
HETATM   24  C   UNL     1      -7.457  10.151  65.837  1.00  0.00    -0.125 C  
HETATM   25  C   UNL     1      -6.134   9.441  65.713  1.00  0.00    -0.056 C  
ENDROOT
BRANCH   4  26
HETATM   26  C   UNL     1     -10.583   6.662  72.453  1.00  0.00    -0.214 C  
HETATM   27  O   UNL     1     -11.168   5.586  72.236  1.00  0.00    -0.257 OA 
BRANCH  26  28
HETATM   28  C   UNL     1     -10.139   6.858  73.904  1.00  0.00    -0.357 C  
HETATM   29  O   UNL     1      -8.834   6.290  74.100  1.00  0.00    -0.128 OA 
HETATM   30  H   UNL     1      -8.558   6.412  75.001  1.00  0.00     0.000 HD 
ENDBRANCH  26  28
ENDBRANCH   4  26
TORSDOF 2
ENDMDL
MODEL       65
REMARK 921   NORMALIZED FREE ENERGY PREDICTED BY IDOCK:   -4.61 KCAL/MOL
REMARK 922        TOTAL FREE ENERGY PREDICTED BY IDOCK:   -4.45 KCAL/MOL
REMARK 923 INTER-LIGAND FREE ENERGY PREDICTED BY IDOCK:   -4.99 KCAL/MOL
REMARK 924 INTRA-LIGAND FREE ENERGY PREDICTED BY IDOCK:    0.53 KCAL/MOL
REMARK 927      BINDING AFFINITY PREDICTED BY RF-SCORE:    0.00 PKD
ROOT
HETATM    1  C   UNL     1      -8.083  11.791  67.795  1.00  0.00    -0.143 C  
HETATM    2  C   UNL     1      -7.374  11.195  66.724  1.00  0.00    -0.146 C  
HETATM    3  C   UNL     1      -8.805  10.786  66.785  1.00  0.00    -0.147 C  
HETATM    4  C   UNL     1     -10.042  11.751  68.131  1.00  0.00    -0.192 C  
HETATM    5  O   UNL     1      -9.593  13.000  68.808  1.00  0.00    -0.402 OA 
HETATM    6  C   UNL     1      -8.424   6.595  68.801  1.00  0.00    -0.123 C  
HETATM    7  C   UNL     1      -9.766  11.906  66.819  1.00  0.00    -0.218 C  
HETATM    8  C   UNL     1     -10.822  10.276  66.867  1.00  0.00    -0.205 C  
HETATM    9  C   UNL     1      -9.841  13.073  65.843  1.00  0.00    -0.243 C  
HETATM   10  C   UNL     1      -8.296   7.867  69.728  1.00  0.00    -0.127 C  
HETATM   11  C   UNL     1      -8.976   7.475  71.068  1.00  0.00    -0.147 C  
HETATM   12  H   UNL     1     -10.162  13.443  69.427  1.00  0.00     0.000 HD 
HETATM   13  C   UNL     1     -10.321   9.224  68.257  1.00  0.00    -0.217 C  
HETATM   14  C   UNL     1      -8.115   6.435  71.896  1.00  0.00    -0.109 C  
HETATM   15  O   UNL     1      -5.833   6.421  72.760  1.00  0.00    -0.037 OA 
HETATM   16  O   UNL     1     -11.178   9.586  69.359  1.00  0.00    -0.404 OA 
HETATM   17  C   UNL     1      -8.696   9.112  68.793  1.00  0.00    -0.132 C  
HETATM   18  H   UNL     1     -10.916   9.035  70.087  1.00  0.00     0.000 HD 
HETATM   19  C   UNL     1      -8.087  10.601  69.154  1.00  0.00    -0.143 C  
HETATM   20  F   UNL     1      -7.891   8.705  67.714  1.00  0.00    -0.098 F  
HETATM   21  C   UNL     1      -6.658  10.523  69.714  1.00  0.00    -0.112 C  
HETATM   22  C   UNL     1      -6.539   9.452  70.782  1.00  0.00    -0.096 C  
HETATM   23  C   UNL     1      -6.834   8.102  70.164  1.00  0.00    -0.040 C  
HETATM   24  C   UNL     1      -6.046   7.058  70.488  1.00  0.00    -0.027 C  
HETATM   25  C   UNL     1      -6.595   6.649  71.830  1.00  0.00    -0.054 C  
ENDROOT
BRANCH   4  26
HETATM   26  C   UNL     1     -11.604  12.408  67.999  1.00  0.00    -0.347 C  
HETATM   27  O   UNL     1     -12.271  12.569  66.961  1.00  0.00    -0.490 OA 
BRANCH  26  28
HETATM   28  C   UNL     1     -12.268  12.946  69.267  1.00  0.00    -0.065 C  
HETATM   29  O   UNL     1     -11.675  12.340  70.428  1.00  0.00    -0.526 OA 
HETATM   30  H   UNL     1     -12.088  12.674  71.216  1.00  0.00     0.000 HD 
ENDBRANCH  26  28
ENDBRANCH   4  26
TORSDOF 2
ENDMDL
MODEL       66
REMARK 921   NORMALIZED FREE ENERGY PREDICTED BY IDOCK:   -4.60 KCAL/MOL
REMARK 922        TOTAL FREE ENERGY PREDICTED BY IDOCK:   -4.44 KCAL/MOL
REMARK 923 INTER-LIGAND FREE ENERGY PREDICTED BY IDOCK:   -4.95 KCAL/MOL
REMARK 924 INTRA-LIGAND FREE ENERGY PREDICTED BY IDOCK:    0.50 KCAL/MOL
REMARK 927      BINDING AFFINITY PREDICTED BY RF-SCORE:    0.00 PKD
ROOT
HETATM    1  C   UNL     1     -10.941   9.098  67.986  1.00  0.00    -0.032 C  
HETATM    2  C   UNL     1     -11.196  10.276  68.731  1.00  0.00    -0.260 C  
HETATM    3  C   UNL     1      -9.751  10.066  68.433  1.00  0.00    -0.157 C  
HETATM    4  C   UNL     1      -9.229   8.534  67.147  1.00  0.00    -0.142 C  
HETATM    5  O   UNL     1     -10.266   7.851  66.325  1.00  0.00    -0.479 OA 
HETATM    6  C   UNL     1      -8.269   8.330  72.503  1.00  0.00    -0.224 C  
HETATM    7  C   UNL     1      -9.439   9.860  67.005  1.00  0.00    -0.196 C  
HETATM    8  C   UNL     1      -7.746   9.772  67.955  1.00  0.00    -0.087 C  
HETATM    9  C   UNL     1      -9.845  10.759  65.845  1.00  0.00    -0.290 C  
HETATM   10  C   UNL     1      -9.057   7.360  71.538  1.00  0.00    -0.148 C  
HETATM   11  C   UNL     1      -8.382   5.971  71.703  1.00  0.00    -0.127 C  
HETATM   12  H   UNL     1     -10.026   7.147  65.734  1.00  0.00     0.000 HD 
HETATM   13  C   UNL     1      -7.801   8.508  69.254  1.00  0.00    -0.099 C  
HETATM   14  C   UNL     1      -8.714   5.307  73.102  1.00  0.00    -0.120 C  
HETATM   15  O   UNL     1     -10.780   4.721  74.261  1.00  0.00    -0.289 OA 
HETATM   16  O   UNL     1      -7.308   7.295  68.650  1.00  0.00    -0.094 OA 
HETATM   17  C   UNL     1      -9.218   8.176  70.162  1.00  0.00    -0.155 C  
HETATM   18  H   UNL     1      -7.337   6.632  69.331  1.00  0.00     0.000 HD 
HETATM   19  C   UNL     1     -10.484   7.812  69.169  1.00  0.00    -0.219 C  
HETATM   20  F   UNL     1      -9.645   9.361  70.783  1.00  0.00    -0.264 F  
HETATM   21  C   UNL     1     -11.747   7.431  69.958  1.00  0.00     0.052 C  
HETATM   22  C   UNL     1     -11.432   6.442  71.065  1.00  0.00    -0.394 C  
HETATM   23  C   UNL     1     -10.486   7.090  72.053  1.00  0.00    -0.232 C  
HETATM   24  C   UNL     1     -10.712   6.916  73.370  1.00  0.00    -0.352 C  
HETATM   25  C   UNL     1     -10.144   5.541  73.612  1.00  0.00    -0.196 C  
ENDROOT
BRANCH   4  26
HETATM   26  C   UNL     1      -8.157   8.446  65.831  1.00  0.00    -0.110 C  
HETATM   27  O   UNL     1      -7.571   9.388  65.268  1.00  0.00    -0.103 OA 
BRANCH  26  28
HETATM   28  C   UNL     1      -7.921   7.079  65.186  1.00  0.00    -0.128 C  
HETATM   29  O   UNL     1      -7.919   6.054  66.193  1.00  0.00    -0.102 OA 
HETATM   30  H   UNL     1      -7.773   5.205  65.792  1.00  0.00     0.000 HD 
ENDBRANCH  26  28
ENDBRANCH   4  26
TORSDOF 2
ENDMDL
MODEL       67
REMARK 921   NORMALIZED FREE ENERGY PREDICTED BY IDOCK:   -4.60 KCAL/MOL
REMARK 922        TOTAL FREE ENERGY PREDICTED BY IDOCK:   -4.44 KCAL/MOL
REMARK 923 INTER-LIGAND FREE ENERGY PREDICTED BY IDOCK:   -4.97 KCAL/MOL
REMARK 924 INTRA-LIGAND FREE ENERGY PREDICTED BY IDOCK:    0.53 KCAL/MOL
REMARK 927      BINDING AFFINITY PREDICTED BY RF-SCORE:    0.00 PKD
ROOT
HETATM    1  C   UNL     1      -9.839   9.600  69.244  1.00  0.00    -0.195 C  
HETATM    2  C   UNL     1     -10.791   9.973  68.263  1.00  0.00    -0.286 C  
HETATM    3  C   UNL     1     -11.246   8.851  69.132  1.00  0.00     0.230 C  
HETATM    4  C   UNL     1     -10.088   8.349  70.769  1.00  0.00    -0.193 C  
HETATM    5  O   UNL     1      -8.998   9.254  71.229  1.00  0.00    -0.285 OA 
HETATM    6  C   UNL     1     -10.432   5.204  66.337  1.00  0.00    -0.356 C  
HETATM    7  C   UNL     1     -11.176   9.125  70.580  1.00  0.00    -0.322 C  
HETATM    8  C   UNL     1     -11.873   7.321  70.397  1.00  0.00    -0.174 C  
HETATM    9  C   UNL     1     -11.776  10.319  71.312  1.00  0.00    -0.378 C  
HETATM   10  C   UNL     1      -9.195   5.850  67.075  1.00  0.00    -0.120 C  
HETATM   11  C   UNL     1      -8.258   4.664  67.434  1.00  0.00    -0.101 C  
HETATM   12  H   UNL     1      -8.465   9.023  71.981  1.00  0.00     0.000 HD 
HETATM   13  C   UNL     1     -10.742   6.289  69.425  1.00  0.00    -0.303 C  
HETATM   14  C   UNL     1      -7.541   4.059  66.158  1.00  0.00    -0.089 C  
HETATM   15  O   UNL     1      -6.112   4.986  64.410  1.00  0.00    -0.021 OA 
HETATM   16  O   UNL     1      -9.868   5.650  70.377  1.00  0.00    -0.176 OA 
HETATM   17  C   UNL     1      -9.826   6.904  68.111  1.00  0.00    -0.136 C  
HETATM   18  H   UNL     1      -9.275   5.109  69.869  1.00  0.00     0.000 HD 
HETATM   19  C   UNL     1      -8.916   8.197  68.580  1.00  0.00    -0.137 C  
HETATM   20  F   UNL     1     -10.706   7.471  67.173  1.00  0.00    -0.336 F  
HETATM   21  C   UNL     1      -8.023   8.719  67.443  1.00  0.00    -0.098 C  
HETATM   22  C   UNL     1      -7.300   7.585  66.740  1.00  0.00    -0.092 C  
HETATM   23  C   UNL     1      -8.321   6.669  66.101  1.00  0.00    -0.130 C  
HETATM   24  C   UNL     1      -8.088   6.216  64.853  1.00  0.00    -0.132 C  
HETATM   25  C   UNL     1      -7.118   5.089  65.098  1.00  0.00    -0.063 C  
ENDROOT
BRANCH   4  26
HETATM   26  C   UNL     1     -10.466   8.013  72.391  1.00  0.00    -0.301 C  
HETATM   27  O   UNL     1     -11.595   7.964  72.910  1.00  0.00    -0.383 OA 
BRANCH  26  28
HETATM   28  C   UNL     1      -9.310   7.820  73.374  1.00  0.00    -0.285 C  
HETATM   29  O   UNL     1      -8.384   6.848  72.860  1.00  0.00    -0.108 OA 
HETATM   30  H   UNL     1      -7.666   6.729  73.470  1.00  0.00     0.000 HD 
ENDBRANCH  26  28
ENDBRANCH   4  26
TORSDOF 2
ENDMDL
MODEL       68
REMARK 921   NORMALIZED FREE ENERGY PREDICTED BY IDOCK:   -4.57 KCAL/MOL
REMARK 922        TOTAL FREE ENERGY PREDICTED BY IDOCK:   -4.41 KCAL/MOL
REMARK 923 INTER-LIGAND FREE ENERGY PREDICTED BY IDOCK:   -5.12 KCAL/MOL
REMARK 924 INTRA-LIGAND FREE ENERGY PREDICTED BY IDOCK:    0.71 KCAL/MOL
REMARK 927      BINDING AFFINITY PREDICTED BY RF-SCORE:    0.00 PKD
ROOT
HETATM    1  C   UNL     1      -8.072  16.381  66.812  1.00  0.00    -0.287 C  
HETATM    2  C   UNL     1      -8.575  16.095  65.519  1.00  0.00     1.005 C  
HETATM    3  C   UNL     1      -9.474  16.970  66.323  1.00  0.00    -0.281 C  
HETATM    4  C   UNL     1      -8.780  17.687  68.133  1.00  0.00    -0.265 C  
HETATM    5  O   UNL     1      -7.338  17.573  68.487  1.00  0.00    -0.223 OA 
HETATM    6  C   UNL     1     -12.640  13.862  67.772  1.00  0.00     0.482 C  
HETATM    7  C   UNL     1      -8.828  18.176  66.876  1.00  0.00    -0.273 C  
HETATM    8  C   UNL     1     -10.683  18.234  67.452  1.00  0.00    -0.377 C  
HETATM    9  C   UNL     1      -8.028  19.217  66.103  1.00  0.00    -0.291 C  
HETATM   10  C   UNL     1     -11.243  13.882  68.508  1.00  0.00    -0.298 C  
HETATM   11  C   UNL     1     -11.555  13.581  70.000  1.00  0.00    -0.234 C  
HETATM   12  H   UNL     1      -7.019  17.903  69.320  1.00  0.00     0.000 HD 
HETATM   13  C   UNL     1     -11.126  16.722  68.352  1.00  0.00    -0.266 C  
HETATM   14  C   UNL     1     -11.975  12.071  70.232  1.00  0.00    -0.398 C  
HETATM   15  O   UNL     1     -10.924   9.920  69.757  1.00  0.00    -0.241 OA 
HETATM   16  O   UNL     1     -10.882  17.002  69.745  1.00  0.00    -0.389 OA 
HETATM   17  C   UNL     1     -10.487  15.183  67.944  1.00  0.00    -0.245 C  
HETATM   18  H   UNL     1     -11.114  16.211  70.216  1.00  0.00     0.000 HD 
HETATM   19  C   UNL     1      -8.838  15.206  67.950  1.00  0.00    -0.166 C  
HETATM   20  F   UNL     1     -10.786  14.912  66.598  1.00  0.00    -0.288 F  
HETATM   21  C   UNL     1      -8.238  13.820  67.667  1.00  0.00    -0.180 C  
HETATM   22  C   UNL     1      -8.916  12.744  68.495  1.00  0.00    -0.046 C  
HETATM   23  C   UNL     1     -10.377  12.668  68.108  1.00  0.00    -0.238 C  
HETATM   24  C   UNL     1     -10.940  11.454  67.951  1.00  0.00    -0.295 C  
HETATM   25  C   UNL     1     -11.218  11.045  69.374  1.00  0.00    -0.268 C  
ENDROOT
BRANCH   4  26
HETATM   26  C   UNL     1      -8.816  19.225  68.856  1.00  0.00    -0.296 C  
HETATM   27  O   UNL     1      -9.808  19.826  69.305  1.00  0.00    -0.385 OA 
BRANCH  26  28
HETATM   28  C   UNL     1      -7.514  20.025  68.908  1.00  0.00    -0.111 C  
HETATM   29  O   UNL     1      -6.898  19.879  70.198  1.00  0.00    -0.263 OA 
HETATM   30  H   UNL     1      -6.089  20.376  70.230  1.00  0.00     0.000 HD 
ENDBRANCH  26  28
ENDBRANCH   4  26
TORSDOF 2
ENDMDL
MODEL       69
REMARK 921   NORMALIZED FREE ENERGY PREDICTED BY IDOCK:   -4.50 KCAL/MOL
REMARK 922        TOTAL FREE ENERGY PREDICTED BY IDOCK:   -4.34 KCAL/MOL
REMARK 923 INTER-LIGAND FREE ENERGY PREDICTED BY IDOCK:   -5.13 KCAL/MOL
REMARK 924 INTRA-LIGAND FREE ENERGY PREDICTED BY IDOCK:    0.79 KCAL/MOL
REMARK 927      BINDING AFFINITY PREDICTED BY RF-SCORE:    0.00 PKD
ROOT
HETATM    1  C   UNL     1      -9.981   7.568  68.286  1.00  0.00    -0.193 C  
HETATM    2  C   UNL     1     -10.804   7.120  67.224  1.00  0.00    -0.382 C  
HETATM    3  C   UNL     1      -9.380   7.307  66.829  1.00  0.00    -0.203 C  
HETATM    4  C   UNL     1      -7.998   7.715  68.311  1.00  0.00    -0.123 C  
HETATM    5  O   UNL     1      -8.357   7.544  69.746  1.00  0.00    -0.130 OA 
HETATM    6  C   UNL     1      -9.612  11.446  64.687  1.00  0.00    -0.228 C  
HETATM    7  C   UNL     1      -8.405   6.595  67.678  1.00  0.00    -0.122 C  
HETATM    8  C   UNL     1      -7.373   7.527  66.321  1.00  0.00    -0.082 C  
HETATM    9  C   UNL     1      -8.415   5.113  68.030  1.00  0.00    -0.100 C  
HETATM   10  C   UNL     1      -9.626  11.438  66.266  1.00  0.00    -0.237 C  
HETATM   11  C   UNL     1      -8.817  12.692  66.696  1.00  0.00    -0.129 C  
HETATM   12  H   UNL     1      -7.722   7.732  70.427  1.00  0.00     0.000 HD 
HETATM   13  C   UNL     1      -7.743   9.303  66.337  1.00  0.00    -0.093 C  
HETATM   14  C   UNL     1      -9.604  14.038  66.415  1.00  0.00    -0.299 C  
HETATM   15  O   UNL     1     -11.785  14.906  67.081  1.00  0.00    -0.356 OA 
HETATM   16  O   UNL     1      -6.773   9.904  67.218  1.00  0.00    -0.072 OA 
HETATM   17  C   UNL     1      -9.307   9.918  66.682  1.00  0.00    -0.157 C  
HETATM   18  H   UNL     1      -6.967  10.834  67.227  1.00  0.00     0.000 HD 
HETATM   19  C   UNL     1      -9.854   9.363  68.136  1.00  0.00    -0.183 C  
HETATM   20  F   UNL     1     -10.223   9.359  65.775  1.00  0.00    -0.371 F  
HETATM   21  C   UNL     1     -11.219   9.963  68.508  1.00  0.00    -0.129 C  
HETATM   22  C   UNL     1     -11.243  11.464  68.289  1.00  0.00    -0.326 C  
HETATM   23  C   UNL     1     -11.032  11.754  66.819  1.00  0.00    -0.336 C  
HETATM   24  C   UNL     1     -11.798  12.694  66.231  1.00  0.00    -0.471 C  
HETATM   25  C   UNL     1     -11.120  13.970  66.657  1.00  0.00    -0.309 C  
ENDROOT
BRANCH   4  26
HETATM   26  C   UNL     1      -6.449   7.102  68.646  1.00  0.00    -0.036 C  
HETATM   27  O   UNL     1      -5.494   6.988  67.858  1.00  0.00    -0.015 OA 
BRANCH  26  28
HETATM   28  C   UNL     1      -6.185   6.543  70.045  1.00  0.00    -0.035 C  
HETATM   29  O   UNL     1      -5.701   5.193  69.953  1.00  0.00    -0.014 OA 
HETATM   30  H   UNL     1      -5.537   4.846  70.821  1.00  0.00     0.000 HD 
ENDBRANCH  26  28
ENDBRANCH   4  26
TORSDOF 2
ENDMDL
MODEL       70
REMARK 921   NORMALIZED FREE ENERGY PREDICTED BY IDOCK:   -4.47 KCAL/MOL
REMARK 922        TOTAL FREE ENERGY PREDICTED BY IDOCK:   -4.30 KCAL/MOL
REMARK 923 INTER-LIGAND FREE ENERGY PREDICTED BY IDOCK:   -4.80 KCAL/MOL
REMARK 924 INTRA-LIGAND FREE ENERGY PREDICTED BY IDOCK:    0.50 KCAL/MOL
REMARK 927      BINDING AFFINITY PREDICTED BY RF-SCORE:    0.00 PKD
ROOT
HETATM    1  C   UNL     1     -10.328  10.371  64.728  1.00  0.00    -0.221 C  
HETATM    2  C   UNL     1     -10.090  11.212  63.613  1.00  0.00    -0.432 C  
HETATM    3  C   UNL     1      -8.863  10.919  64.406  1.00  0.00    -0.070 C  
HETATM    4  C   UNL     1      -8.985   9.513  65.915  1.00  0.00    -0.173 C  
HETATM    5  O   UNL     1     -10.171   8.618  66.021  1.00  0.00    -0.422 OA 
HETATM    6  C   UNL     1      -8.485  14.845  66.899  1.00  0.00    -0.255 C  
HETATM    7  C   UNL     1      -8.596   9.484  64.623  1.00  0.00    -0.207 C  
HETATM    8  C   UNL     1      -7.158  10.449  65.503  1.00  0.00    -0.133 C  
HETATM    9  C   UNL     1      -8.516   8.400  63.556  1.00  0.00     0.013 C  
HETATM   10  C   UNL     1      -9.562  13.786  67.360  1.00  0.00    -0.229 C  
HETATM   11  C   UNL     1      -9.560  13.841  68.913  1.00  0.00     0.055 C  
HETATM   12  H   UNL     1     -10.227   7.972  66.715  1.00  0.00     0.000 HD 
HETATM   13  C   UNL     1      -7.818  11.632  66.709  1.00  0.00    -0.130 C  
HETATM   14  C   UNL     1     -10.217  15.171  69.466  1.00  0.00    -0.241 C  
HETATM   15  O   UNL     1     -12.392  16.242  69.181  1.00  0.00     0.041 OA 
HETATM   16  O   UNL     1      -7.864  10.932  67.969  1.00  0.00    -0.102 OA 
HETATM   17  C   UNL     1      -9.285  12.484  66.459  1.00  0.00    -0.210 C  
HETATM   18  H   UNL     1      -8.210  11.552  68.600  1.00  0.00     0.000 HD 
HETATM   19  C   UNL     1     -10.532  11.445  66.166  1.00  0.00    -0.303 C  
HETATM   20  F   UNL     1      -9.193  13.200  65.253  1.00  0.00     0.112 F  
HETATM   21  C   UNL     1     -11.875  12.177  66.019  1.00  0.00    -0.328 C  
HETATM   22  C   UNL     1     -12.073  13.198  67.123  1.00  0.00    -0.343 C  
HETATM   23  C   UNL     1     -10.993  14.254  67.022  1.00  0.00    -0.305 C  
HETATM   24  C   UNL     1     -11.340  15.547  67.175  1.00  0.00    -0.135 C  
HETATM   25  C   UNL     1     -11.432  15.677  68.673  1.00  0.00    -0.375 C  
ENDROOT
BRANCH   4  26
HETATM   26  C   UNL     1      -7.988   8.211  66.364  1.00  0.00    -0.104 C  
HETATM   27  O   UNL     1      -6.965   7.807  65.784  1.00  0.00    -0.056 OA 
BRANCH  26  28
HETATM   28  C   UNL     1      -8.407   7.366  67.568  1.00  0.00    -0.113 C  
HETATM   29  O   UNL     1      -8.776   8.220  68.664  1.00  0.00    -0.132 OA 
HETATM   30  H   UNL     1      -9.037   7.695  69.411  1.00  0.00     0.000 HD 
ENDBRANCH  26  28
ENDBRANCH   4  26
TORSDOF 2
ENDMDL
MODEL       71
REMARK 921   NORMALIZED FREE ENERGY PREDICTED BY IDOCK:   -4.41 KCAL/MOL
REMARK 922        TOTAL FREE ENERGY PREDICTED BY IDOCK:   -4.23 KCAL/MOL
REMARK 923 INTER-LIGAND FREE ENERGY PREDICTED BY IDOCK:   -5.06 KCAL/MOL
REMARK 924 INTRA-LIGAND FREE ENERGY PREDICTED BY IDOCK:    0.84 KCAL/MOL
REMARK 927      BINDING AFFINITY PREDICTED BY RF-SCORE:    0.00 PKD
ROOT
HETATM    1  C   UNL     1      -9.982   8.344  71.197  1.00  0.00    -0.245 C  
HETATM    2  C   UNL     1      -9.079   8.712  72.224  1.00  0.00    -0.267 C  
HETATM    3  C   UNL     1      -8.409   8.119  71.032  1.00  0.00    -0.129 C  
HETATM    4  C   UNL     1      -9.550   7.757  69.347  1.00  0.00    -0.156 C  
HETATM    5  O   UNL     1     -10.919   8.330  69.224  1.00  0.00    -0.416 OA 
HETATM    6  C   UNL     1      -7.666   3.764  72.535  1.00  0.00    -0.068 C  
HETATM    7  C   UNL     1      -8.747   8.765  69.749  1.00  0.00    -0.133 C  
HETATM    8  C   UNL     1      -7.499   7.336  69.332  1.00  0.00    -0.092 C  
HETATM    9  C   UNL     1      -8.653  10.250  69.424  1.00  0.00    -0.167 C  
HETATM   10  C   UNL     1      -9.128   4.138  72.069  1.00  0.00    -0.160 C  
HETATM   11  C   UNL     1      -9.680   2.865  71.371  1.00  0.00    -0.222 C  
HETATM   12  H   UNL     1     -11.443   8.163  68.449  1.00  0.00     0.000 HD 
HETATM   13  C   UNL     1      -8.113   5.744  69.949  1.00  0.00    -0.107 C  
HETATM   14  C   UNL     1     -10.000   1.707  72.403  1.00  0.00    -0.197 C  
HETATM   15  O   UNL     1     -11.412   1.537  74.387  1.00  0.00    -0.053 OA 
HETATM   16  O   UNL     1      -8.855   5.155  68.862  1.00  0.00    -0.092 OA 
HETATM   17  C   UNL     1      -8.999   5.598  71.410  1.00  0.00    -0.140 C  
HETATM   18  H   UNL     1      -9.176   4.322  69.184  1.00  0.00     0.000 HD 
HETATM   19  C   UNL     1     -10.323   6.582  71.399  1.00  0.00    -0.234 C  
HETATM   20  F   UNL     1      -8.231   6.129  72.460  1.00  0.00    -0.107 F  
HETATM   21  C   UNL     1     -11.181   6.412  72.662  1.00  0.00    -0.290 C  
HETATM   22  C   UNL     1     -11.413   4.947  72.981  1.00  0.00    -0.327 C  
HETATM   23  C   UNL     1     -10.083   4.287  73.273  1.00  0.00    -0.199 C  
HETATM   24  C   UNL     1      -9.999   3.437  74.316  1.00  0.00    -0.176 C  
HETATM   25  C   UNL     1     -10.587   2.173  73.745  1.00  0.00    -0.139 C  
ENDROOT
BRANCH   4  26
HETATM   26  C   UNL     1      -9.296   8.060  67.694  1.00  0.00    -0.143 C  
HETATM   27  O   UNL     1      -8.215   8.038  67.078  1.00  0.00    -0.113 OA 
BRANCH  26  28
HETATM   28  C   UNL     1     -10.496   8.490  66.849  1.00  0.00    -0.275 C  
HETATM   29  O   UNL     1     -10.047   9.150  65.654  1.00  0.00    -0.416 OA 
HETATM   30  H   UNL     1     -10.793   9.416  65.130  1.00  0.00     0.000 HD 
ENDBRANCH  26  28
ENDBRANCH   4  26
TORSDOF 2
ENDMDL
MODEL       72
REMARK 921   NORMALIZED FREE ENERGY PREDICTED BY IDOCK:   -4.40 KCAL/MOL
REMARK 922        TOTAL FREE ENERGY PREDICTED BY IDOCK:   -4.22 KCAL/MOL
REMARK 923 INTER-LIGAND FREE ENERGY PREDICTED BY IDOCK:   -6.22 KCAL/MOL
REMARK 924 INTRA-LIGAND FREE ENERGY PREDICTED BY IDOCK:    2.00 KCAL/MOL
REMARK 927      BINDING AFFINITY PREDICTED BY RF-SCORE:    0.00 PKD
ROOT
HETATM    1  C   UNL     1      -8.063  13.560  67.288  1.00  0.00    -0.141 C  
HETATM    2  C   UNL     1      -7.401  13.622  68.539  1.00  0.00    -0.114 C  
HETATM    3  C   UNL     1      -8.876  13.453  68.659  1.00  0.00     0.020 C  
HETATM    4  C   UNL     1      -9.964  13.097  66.938  1.00  0.00    -0.245 C  
HETATM    5  O   UNL     1      -9.274  12.734  65.670  1.00  0.00    -0.446 OA 
HETATM    6  C   UNL     1     -10.172  17.833  69.618  1.00  0.00     0.287 C  
HETATM    7  C   UNL     1      -9.432  12.315  67.901  1.00  0.00    -0.200 C  
HETATM    8  C   UNL     1     -10.934  13.165  68.793  1.00  0.00    -0.298 C  
HETATM    9  C   UNL     1      -8.969  10.865  67.966  1.00  0.00    -0.145 C  
HETATM   10  C   UNL     1      -9.817  17.486  68.119  1.00  0.00    -0.306 C  
HETATM   11  C   UNL     1     -10.807  18.315  67.255  1.00  0.00    -0.269 C  
HETATM   12  H   UNL     1      -9.774  12.570  64.879  1.00  0.00     0.000 HD 
HETATM   13  C   UNL     1     -11.033  14.922  68.354  1.00  0.00    -0.261 C  
HETATM   14  C   UNL     1     -10.469  19.862  67.275  1.00  0.00    -0.557 C  
HETATM   15  O   UNL     1      -8.490  21.179  66.722  1.00  0.00     0.235 OA 
HETATM   16  O   UNL     1     -11.912  14.998  67.213  1.00  0.00    -0.356 OA 
HETATM   17  C   UNL     1      -9.642  15.889  68.086  1.00  0.00    -0.208 C  
HETATM   18  H   UNL     1     -11.965  15.918  66.983  1.00  0.00     0.000 HD 
HETATM   19  C   UNL     1      -8.673  15.222  66.930  1.00  0.00    -0.288 C  
HETATM   20  F   UNL     1      -8.830  15.841  69.232  1.00  0.00    -0.204 F  
HETATM   21  C   UNL     1      -7.458  16.109  66.611  1.00  0.00    -0.200 C  
HETATM   22  C   UNL     1      -7.865  17.557  66.419  1.00  0.00    -0.329 C  
HETATM   23  C   UNL     1      -8.453  18.082  67.710  1.00  0.00    -0.247 C  
HETATM   24  C   UNL     1      -8.097  19.313  68.128  1.00  0.00    -0.349 C  
HETATM   25  C   UNL     1      -8.970  20.202  67.281  1.00  0.00    -0.356 C  
ENDROOT
BRANCH   4  26
HETATM   26  C   UNL     1     -11.197  11.988  66.561  1.00  0.00    -0.334 C  
HETATM   27  O   UNL     1     -12.408  12.226  66.411  1.00  0.00    -0.531 OA 
BRANCH  26  28
HETATM   28  C   UNL     1     -10.827  10.508  66.463  1.00  0.00    -0.058 C  
HETATM   29  O   UNL     1     -11.537   9.756  67.461  1.00  0.00    -0.319 OA 
HETATM   30  H   UNL     1     -11.307   8.836  67.400  1.00  0.00     0.000 HD 
ENDBRANCH  26  28
ENDBRANCH   4  26
TORSDOF 2
ENDMDL
MODEL       73
REMARK 921   NORMALIZED FREE ENERGY PREDICTED BY IDOCK:   -4.39 KCAL/MOL
REMARK 922        TOTAL FREE ENERGY PREDICTED BY IDOCK:   -4.21 KCAL/MOL
REMARK 923 INTER-LIGAND FREE ENERGY PREDICTED BY IDOCK:   -5.00 KCAL/MOL
REMARK 924 INTRA-LIGAND FREE ENERGY PREDICTED BY IDOCK:    0.78 KCAL/MOL
REMARK 927      BINDING AFFINITY PREDICTED BY RF-SCORE:    0.00 PKD
ROOT
HETATM    1  C   UNL     1      -8.535  12.810  67.266  1.00  0.00    -0.194 C  
HETATM    2  C   UNL     1      -8.036  11.895  68.225  1.00  0.00    -0.148 C  
HETATM    3  C   UNL     1      -9.313  11.455  67.597  1.00  0.00    -0.159 C  
HETATM    4  C   UNL     1     -10.048  12.547  66.003  1.00  0.00    -0.253 C  
HETATM    5  O   UNL     1      -9.193  13.559  65.323  1.00  0.00    -0.168 OA 
HETATM    6  C   UNL     1     -12.363  12.618  70.932  1.00  0.00    -0.352 C  
HETATM    7  C   UNL     1      -9.300  11.430  66.121  1.00  0.00    -0.232 C  
HETATM    8  C   UNL     1     -11.071  10.843  66.663  1.00  0.00    -0.155 C  
HETATM    9  C   UNL     1      -8.284  10.726  65.231  1.00  0.00    -0.052 C  
HETATM   10  C   UNL     1     -11.805  13.776  70.014  1.00  0.00    -0.377 C  
HETATM   11  C   UNL     1     -12.994  14.755  69.811  1.00  0.00     0.233 C  
HETATM   12  H   UNL     1      -9.531  14.061  64.590  1.00  0.00     0.000 HD 
HETATM   13  C   UNL     1     -11.862  12.081  67.728  1.00  0.00    -0.238 C  
HETATM   14  C   UNL     1     -13.329  15.573  71.125  1.00  0.00    -0.553 C  
HETATM   15  O   UNL     1     -12.043  17.043  72.589  1.00  0.00     0.073 OA 
HETATM   16  O   UNL     1     -12.621  12.935  66.848  1.00  0.00    -0.170 OA 
HETATM   17  C   UNL     1     -10.982  13.032  68.851  1.00  0.00    -0.230 C  
HETATM   18  H   UNL     1     -13.036  13.583  67.405  1.00  0.00     0.000 HD 
HETATM   19  C   UNL     1      -9.755  13.844  68.106  1.00  0.00    -0.222 C  
HETATM   20  F   UNL     1     -10.296  12.176  69.729  1.00  0.00     0.225 F  
HETATM   21  C   UNL     1      -8.999  14.767  69.074  1.00  0.00    -0.135 C  
HETATM   22  C   UNL     1      -9.957  15.588  69.918  1.00  0.00    -0.243 C  
HETATM   23  C   UNL     1     -10.788  14.656  70.772  1.00  0.00     0.241 C  
HETATM   24  C   UNL     1     -11.000  14.981  72.063  1.00  0.00     0.322 C  
HETATM   25  C   UNL     1     -12.109  15.996  71.958  1.00  0.00    -0.525 C  
ENDROOT
BRANCH   4  26
HETATM   26  C   UNL     1     -10.686  12.099  64.492  1.00  0.00    -0.310 C  
HETATM   27  O   UNL     1     -10.556  11.008  63.910  1.00  0.00    -0.369 OA 
BRANCH  26  28
HETATM   28  C   UNL     1     -11.446  13.157  63.691  1.00  0.00    -0.323 C  
HETATM   29  O   UNL     1     -12.860  12.923  63.784  1.00  0.00    -0.683 OA 
HETATM   30  H   UNL     1     -13.332  13.580  63.286  1.00  0.00     0.000 HD 
ENDBRANCH  26  28
ENDBRANCH   4  26
TORSDOF 2
ENDMDL
MODEL       74
REMARK 921   NORMALIZED FREE ENERGY PREDICTED BY IDOCK:   -4.37 KCAL/MOL
REMARK 922        TOTAL FREE ENERGY PREDICTED BY IDOCK:   -4.19 KCAL/MOL
REMARK 923 INTER-LIGAND FREE ENERGY PREDICTED BY IDOCK:   -4.82 KCAL/MOL
REMARK 924 INTRA-LIGAND FREE ENERGY PREDICTED BY IDOCK:    0.63 KCAL/MOL
REMARK 927      BINDING AFFINITY PREDICTED BY RF-SCORE:    0.00 PKD
ROOT
HETATM    1  C   UNL     1     -12.209   9.540  71.538  1.00  0.00    -0.468 C  
HETATM    2  C   UNL     1     -13.380   9.310  70.774  1.00  0.00     0.127 C  
HETATM    3  C   UNL     1     -12.143   8.777  70.136  1.00  0.00     0.481 C  
HETATM    4  C   UNL     1     -10.388   8.806  71.227  1.00  0.00    -0.261 C  
HETATM    5  O   UNL     1     -10.413   9.079  72.691  1.00  0.00     0.098 OA 
HETATM    6  C   UNL     1     -11.275  12.123  67.000  1.00  0.00    -0.370 C  
HETATM    7  C   UNL     1     -11.343   7.881  70.993  1.00  0.00    -0.292 C  
HETATM    8  C   UNL     1     -10.405   7.998  69.296  1.00  0.00    -0.224 C  
HETATM    9  C   UNL     1     -11.839   6.647  71.735  1.00  0.00    -0.380 C  
HETATM   10  C   UNL     1     -10.896  12.414  68.505  1.00  0.00    -0.270 C  
HETATM   11  C   UNL     1      -9.583  13.243  68.450  1.00  0.00    -0.185 C  
HETATM   12  H   UNL     1      -9.607   9.093  73.193  1.00  0.00     0.000 HD 
HETATM   13  C   UNL     1     -10.039   9.725  68.879  1.00  0.00    -0.183 C  
HETATM   14  C   UNL     1      -9.828  14.719  67.930  1.00  0.00    -0.212 C  
HETATM   15  O   UNL     1     -11.258  16.562  68.649  1.00  0.00    -0.353 OA 
HETATM   16  O   UNL     1      -8.724   9.992  69.408  1.00  0.00    -0.160 OA 
HETATM   17  C   UNL     1     -11.100  11.015  69.270  1.00  0.00    -0.254 C  
HETATM   18  H   UNL     1      -8.532  10.897  69.189  1.00  0.00     0.000 HD 
HETATM   19  C   UNL     1     -11.436  11.036  70.884  1.00  0.00     0.155 C  
HETATM   20  F   UNL     1     -12.357  10.756  68.697  1.00  0.00    -0.281 F  
HETATM   21  C   UNL     1     -12.320  12.231  71.276  1.00  0.00    -0.161 C  
HETATM   22  C   UNL     1     -11.813  13.521  70.660  1.00  0.00    -0.200 C  
HETATM   23  C   UNL     1     -11.881  13.411  69.152  1.00  0.00    -0.383 C  
HETATM   24  C   UNL     1     -12.342  14.464  68.449  1.00  0.00    -0.028 C  
HETATM   25  C   UNL     1     -11.138  15.369  68.404  1.00  0.00    -0.301 C  
ENDROOT
BRANCH   4  26
HETATM   26  C   UNL     1      -9.169   7.650  71.484  1.00  0.00    -0.135 C  
HETATM   27  O   UNL     1      -9.160   6.464  71.110  1.00  0.00    -0.149 OA 
BRANCH  26  28
HETATM   28  C   UNL     1      -7.964   8.053  72.337  1.00  0.00    -0.128 C  
HETATM   29  O   UNL     1      -7.248   9.124  71.701  1.00  0.00    -0.299 OA 
HETATM   30  H   UNL     1      -6.500   9.375  72.231  1.00  0.00     0.000 HD 
ENDBRANCH  26  28
ENDBRANCH   4  26
TORSDOF 2
ENDMDL
MODEL       75
REMARK 921   NORMALIZED FREE ENERGY PREDICTED BY IDOCK:   -4.36 KCAL/MOL
REMARK 922        TOTAL FREE ENERGY PREDICTED BY IDOCK:   -4.18 KCAL/MOL
REMARK 923 INTER-LIGAND FREE ENERGY PREDICTED BY IDOCK:   -4.90 KCAL/MOL
REMARK 924 INTRA-LIGAND FREE ENERGY PREDICTED BY IDOCK:    0.72 KCAL/MOL
REMARK 927      BINDING AFFINITY PREDICTED BY RF-SCORE:    0.00 PKD
ROOT
HETATM    1  C   UNL     1     -10.106   8.241  68.029  1.00  0.00    -0.243 C  
HETATM    2  C   UNL     1      -9.312   7.480  67.136  1.00  0.00    -0.174 C  
HETATM    3  C   UNL     1      -8.975   7.251  68.570  1.00  0.00    -0.130 C  
HETATM    4  C   UNL     1     -10.199   8.089  70.009  1.00  0.00    -0.205 C  
HETATM    5  O   UNL     1     -11.525   8.656  69.636  1.00  0.00    -0.434 OA 
HETATM    6  C   UNL     1      -5.169   9.915  69.004  1.00  0.00    -0.036 C  
HETATM    7  C   UNL     1     -10.122   6.876  69.421  1.00  0.00    -0.176 C  
HETATM    8  C   UNL     1      -8.565   6.912  70.582  1.00  0.00    -0.141 C  
HETATM    9  C   UNL     1     -11.110   5.745  69.171  1.00  0.00    -0.218 C  
HETATM   10  C   UNL     1      -6.572  10.639  68.998  1.00  0.00    -0.062 C  
HETATM   11  C   UNL     1      -6.437  11.815  70.004  1.00  0.00    -0.022 C  
HETATM   12  H   UNL     1     -12.088   9.041  70.298  1.00  0.00     0.000 HD 
HETATM   13  C   UNL     1      -7.742   8.527  70.507  1.00  0.00    -0.084 C  
HETATM   14  C   UNL     1      -5.517  12.978  69.446  1.00  0.00    -0.080 C  
HETATM   15  O   UNL     1      -5.559  14.367  67.440  1.00  0.00    -0.341 OA 
HETATM   16  O   UNL     1      -8.316   9.316  71.568  1.00  0.00    -0.323 OA 
HETATM   17  C   UNL     1      -7.657   9.455  69.067  1.00  0.00    -0.074 C  
HETATM   18  H   UNL     1      -7.885  10.162  71.529  1.00  0.00     0.000 HD 
HETATM   19  C   UNL     1      -9.161   9.723  68.447  1.00  0.00    -0.130 C  
HETATM   20  F   UNL     1      -7.044   8.682  68.066  1.00  0.00    -0.075 F  
HETATM   21  C   UNL     1      -9.122  10.621  67.200  1.00  0.00    -0.154 C  
HETATM   22  C   UNL     1      -8.241  11.836  67.420  1.00  0.00    -0.160 C  
HETATM   23  C   UNL     1      -6.820  11.378  67.666  1.00  0.00    -0.080 C  
HETATM   24  C   UNL     1      -5.815  12.042  67.061  1.00  0.00    -0.131 C  
HETATM   25  C   UNL     1      -5.657  13.255  67.941  1.00  0.00    -0.125 C  
ENDROOT
BRANCH   4  26
HETATM   26  C   UNL     1     -10.885   7.478  71.439  1.00  0.00    -0.229 C  
HETATM   27  O   UNL     1     -10.432   6.583  72.174  1.00  0.00    -0.201 OA 
BRANCH  26  28
HETATM   28  C   UNL     1     -12.255   8.010  71.864  1.00  0.00    -0.319 C  
HETATM   29  O   UNL     1     -13.294   7.326  71.144  1.00  0.00    -0.552 OA 
HETATM   30  H   UNL     1     -14.144   7.656  71.407  1.00  0.00     0.000 HD 
ENDBRANCH  26  28
ENDBRANCH   4  26
TORSDOF 2
ENDMDL
MODEL       76
REMARK 921   NORMALIZED FREE ENERGY PREDICTED BY IDOCK:   -4.30 KCAL/MOL
REMARK 922        TOTAL FREE ENERGY PREDICTED BY IDOCK:   -4.11 KCAL/MOL
REMARK 923 INTER-LIGAND FREE ENERGY PREDICTED BY IDOCK:   -4.80 KCAL/MOL
REMARK 924 INTRA-LIGAND FREE ENERGY PREDICTED BY IDOCK:    0.68 KCAL/MOL
REMARK 927      BINDING AFFINITY PREDICTED BY RF-SCORE:    0.00 PKD
ROOT
HETATM    1  C   UNL     1      -8.393  10.249  65.059  1.00  0.00    -0.169 C  
HETATM    2  C   UNL     1      -9.208   9.615  64.090  1.00  0.00    -0.218 C  
HETATM    3  C   UNL     1      -9.979  10.182  65.233  1.00  0.00    -0.381 C  
HETATM    4  C   UNL     1      -8.974  11.355  66.606  1.00  0.00    -0.181 C  
HETATM    5  O   UNL     1      -7.601  11.853  66.313  1.00  0.00    -0.369 OA 
HETATM    6  C   UNL     1     -10.738   6.334  67.762  1.00  0.00    -0.383 C  
HETATM    7  C   UNL     1      -9.716  11.608  65.507  1.00  0.00    -0.259 C  
HETATM    8  C   UNL     1     -11.032  11.031  66.815  1.00  0.00    -0.279 C  
HETATM    9  C   UNL     1      -9.791  12.757  64.510  1.00  0.00    -0.052 C  
HETATM   10  C   UNL     1      -9.303   6.990  67.839  1.00  0.00    -0.123 C  
HETATM   11  C   UNL     1      -8.839   6.803  69.310  1.00  0.00    -0.137 C  
HETATM   12  H   UNL     1      -7.139  12.392  66.944  1.00  0.00     0.000 HD 
HETATM   13  C   UNL     1     -10.421   9.607  67.758  1.00  0.00    -0.256 C  
HETATM   14  C   UNL     1      -8.479   5.296  69.638  1.00  0.00    -0.098 C  
HETATM   15  O   UNL     1      -6.934   3.668  68.680  1.00  0.00    -0.048 OA 
HETATM   16  O   UNL     1      -9.777  10.150  68.928  1.00  0.00    -0.169 OA 
HETATM   17  C   UNL     1      -9.437   8.389  67.059  1.00  0.00    -0.174 C  
HETATM   18  H   UNL     1      -9.457   9.404  69.422  1.00  0.00     0.000 HD 
HETATM   19  C   UNL     1      -8.089   9.042  66.368  1.00  0.00    -0.110 C  
HETATM   20  F   UNL     1     -10.112   7.839  65.956  1.00  0.00    -0.159 F  
HETATM   21  C   UNL     1      -7.148   7.966  65.805  1.00  0.00    -0.060 C  
HETATM   22  C   UNL     1      -6.936   6.840  66.799  1.00  0.00    -0.067 C  
HETATM   23  C   UNL     1      -8.260   6.157  67.063  1.00  0.00    -0.106 C  
HETATM   24  C   UNL     1      -8.294   4.811  67.112  1.00  0.00    -0.106 C  
HETATM   25  C   UNL     1      -7.785   4.529  68.502  1.00  0.00    -0.075 C  
ENDROOT
BRANCH   4  26
HETATM   26  C   UNL     1      -9.337  12.847  67.336  1.00  0.00    -0.194 C  
HETATM   27  O   UNL     1     -10.462  13.345  67.520  1.00  0.00    -0.234 OA 
BRANCH  26  28
HETATM   28  C   UNL     1      -8.172  13.743  67.757  1.00  0.00    -0.174 C  
HETATM   29  O   UNL     1      -7.712  14.513  66.634  1.00  0.00    -0.216 OA 
HETATM   30  H   UNL     1      -6.988  15.070  66.896  1.00  0.00     0.000 HD 
ENDBRANCH  26  28
ENDBRANCH   4  26
TORSDOF 2
ENDMDL
MODEL       77
REMARK 921   NORMALIZED FREE ENERGY PREDICTED BY IDOCK:   -4.05 KCAL/MOL
REMARK 922        TOTAL FREE ENERGY PREDICTED BY IDOCK:   -3.83 KCAL/MOL
REMARK 923 INTER-LIGAND FREE ENERGY PREDICTED BY IDOCK:   -4.60 KCAL/MOL
REMARK 924 INTRA-LIGAND FREE ENERGY PREDICTED BY IDOCK:    0.77 KCAL/MOL
REMARK 927      BINDING AFFINITY PREDICTED BY RF-SCORE:    0.00 PKD
ROOT
HETATM    1  C   UNL     1      -9.616  16.155  68.085  1.00  0.00    -0.217 C  
HETATM    2  C   UNL     1     -10.047  15.807  69.389  1.00  0.00    -0.268 C  
HETATM    3  C   UNL     1      -8.639  16.291  69.342  1.00  0.00    -0.037 C  
HETATM    4  C   UNL     1      -7.931  17.073  67.564  1.00  0.00    -0.175 C  
HETATM    5  O   UNL     1      -8.872  17.407  66.459  1.00  0.00    -0.247 OA 
HETATM    6  C   UNL     1      -6.326  12.240  69.495  1.00  0.00    -0.121 C  
HETATM    7  C   UNL     1      -8.458  17.602  68.689  1.00  0.00    -0.266 C  
HETATM    8  C   UNL     1      -6.691  17.020  69.251  1.00  0.00    -0.234 C  
HETATM    9  C   UNL     1      -9.196  18.893  69.018  1.00  0.00    -0.224 C  
HETATM   10  C   UNL     1      -6.976  12.661  68.118  1.00  0.00    -0.096 C  
HETATM   11  C   UNL     1      -5.982  12.178  67.025  1.00  0.00    -0.095 C  
HETATM   12  H   UNL     1      -8.546  17.767  65.642  1.00  0.00     0.000 HD 
HETATM   13  C   UNL     1      -6.298  15.391  68.557  1.00  0.00    -0.097 C  
HETATM   14  C   UNL     1      -5.984  10.602  66.868  1.00  0.00    -0.063 C  
HETATM   15  O   UNL     1      -7.707   8.941  66.392  1.00  0.00    -0.093 OA 
HETATM   16  O   UNL     1      -5.612  15.643  67.314  1.00  0.00    -0.332 OA 
HETATM   17  C   UNL     1      -7.482  14.171  68.335  1.00  0.00    -0.124 C  
HETATM   18  H   UNL     1      -5.406  14.790  66.950  1.00  0.00     0.000 HD 
HETATM   19  C   UNL     1      -8.738  14.724  67.419  1.00  0.00    -0.210 C  
HETATM   20  F   UNL     1      -8.097  13.906  69.571  1.00  0.00     0.160 F  
HETATM   21  C   UNL     1      -9.776  13.626  67.136  1.00  0.00    -0.245 C  
HETATM   22  C   UNL     1      -9.112  12.338  66.689  1.00  0.00    -0.203 C  
HETATM   23  C   UNL     1      -8.232  11.820  67.807  1.00  0.00    -0.144 C  
HETATM   24  C   UNL     1      -8.255  10.502  68.088  1.00  0.00    -0.114 C  
HETATM   25  C   UNL     1      -7.360   9.933  67.018  1.00  0.00    -0.091 C  
ENDROOT
BRANCH   4  26
HETATM   26  C   UNL     1      -7.031  18.466  67.193  1.00  0.00    -0.198 C  
HETATM   27  O   UNL     1      -6.712  19.388  67.964  1.00  0.00    -0.232 OA 
BRANCH  26  28
HETATM   28  C   UNL     1      -6.614  18.685  65.738  1.00  0.00    -0.269 C  
HETATM   29  O   UNL     1      -7.400  19.737  65.154  1.00  0.00    -0.363 OA 
HETATM   30  H   UNL     1      -7.141  19.873  64.250  1.00  0.00     0.000 HD 
ENDBRANCH  26  28
ENDBRANCH   4  26
TORSDOF 2
ENDMDL
MODEL       78
REMARK 921   NORMALIZED FREE ENERGY PREDICTED BY IDOCK:   -4.04 KCAL/MOL
REMARK 922        TOTAL FREE ENERGY PREDICTED BY IDOCK:   -3.82 KCAL/MOL
REMARK 923 INTER-LIGAND FREE ENERGY PREDICTED BY IDOCK:   -4.45 KCAL/MOL
REMARK 924 INTRA-LIGAND FREE ENERGY PREDICTED BY IDOCK:    0.64 KCAL/MOL
REMARK 927      BINDING AFFINITY PREDICTED BY RF-SCORE:    0.00 PKD
ROOT
HETATM    1  C   UNL     1      -9.376   5.068  66.907  1.00  0.00    -0.134 C  
HETATM    2  C   UNL     1     -10.692   5.440  66.538  1.00  0.00    -0.309 C  
HETATM    3  C   UNL     1      -9.698   6.538  66.371  1.00  0.00    -0.133 C  
HETATM    4  C   UNL     1      -7.696   6.094  66.626  1.00  0.00    -0.103 C  
HETATM    5  O   UNL     1      -7.239   4.678  66.688  1.00  0.00    -0.077 OA 
HETATM    6  C   UNL     1     -10.530   9.050  70.215  1.00  0.00    -0.248 C  
HETATM    7  C   UNL     1      -8.518   6.184  65.559  1.00  0.00    -0.149 C  
HETATM    8  C   UNL     1      -8.278   8.035  66.100  1.00  0.00    -0.116 C  
HETATM    9  C   UNL     1      -8.522   5.584  64.159  1.00  0.00    -0.053 C  
HETATM   10  C   UNL     1      -9.688   7.723  70.376  1.00  0.00    -0.179 C  
HETATM   11  C   UNL     1      -8.625   8.035  71.465  1.00  0.00    -0.157 C  
HETATM   12  H   UNL     1      -6.318   4.473  66.805  1.00  0.00     0.000 HD 
HETATM   13  C   UNL     1      -8.353   8.194  67.905  1.00  0.00    -0.129 C  
HETATM   14  C   UNL     1      -9.262   8.141  72.911  1.00  0.00    -0.343 C  
HETATM   15  O   UNL     1     -10.605   6.644  74.293  1.00  0.00    -0.271 OA 
HETATM   16  O   UNL     1      -6.994   8.079  68.372  1.00  0.00    -0.069 OA 
HETATM   17  C   UNL     1      -9.389   7.230  68.875  1.00  0.00    -0.144 C  
HETATM   18  H   UNL     1      -7.033   8.163  69.318  1.00  0.00     0.000 HD 
HETATM   19  C   UNL     1      -9.126   5.625  68.607  1.00  0.00    -0.124 C  
HETATM   20  F   UNL     1     -10.712   7.403  68.434  1.00  0.00    -0.218 F  
HETATM   21  C   UNL     1      -9.983   4.736  69.522  1.00  0.00    -0.287 C  
HETATM   22  C   UNL     1      -9.932   5.213  70.962  1.00  0.00    -0.274 C  
HETATM   23  C   UNL     1     -10.517   6.606  71.043  1.00  0.00    -0.246 C  
HETATM   24  C   UNL     1     -11.354   6.896  72.060  1.00  0.00    -0.301 C  
HETATM   25  C   UNL     1     -10.398   7.148  73.197  1.00  0.00    -0.295 C  
ENDROOT
BRANCH   4  26
HETATM   26  C   UNL     1      -6.304   6.483  65.732  1.00  0.00    -0.039 C  
HETATM   27  O   UNL     1      -6.120   7.483  65.015  1.00  0.00    -0.037 OA 
BRANCH  26  28
HETATM   28  C   UNL     1      -5.153   5.476  65.718  1.00  0.00    -0.009 C  
HETATM   29  O   UNL     1      -5.316   4.558  64.624  1.00  0.00    -0.012 OA 
HETATM   30  H   UNL     1      -4.602   3.932  64.615  1.00  0.00     0.000 HD 
ENDBRANCH  26  28
ENDBRANCH   4  26
TORSDOF 2
ENDMDL
MODEL       79
REMARK 921   NORMALIZED FREE ENERGY PREDICTED BY IDOCK:   -3.94 KCAL/MOL
REMARK 922        TOTAL FREE ENERGY PREDICTED BY IDOCK:   -3.71 KCAL/MOL
REMARK 923 INTER-LIGAND FREE ENERGY PREDICTED BY IDOCK:   -4.69 KCAL/MOL
REMARK 924 INTRA-LIGAND FREE ENERGY PREDICTED BY IDOCK:    0.98 KCAL/MOL
REMARK 927      BINDING AFFINITY PREDICTED BY RF-SCORE:    0.00 PKD
ROOT
HETATM    1  C   UNL     1     -10.618  11.304  67.838  1.00  0.00    -0.231 C  
HETATM    2  C   UNL     1     -10.339  12.266  68.840  1.00  0.00    -0.085 C  
HETATM    3  C   UNL     1      -9.168  11.961  67.969  1.00  0.00    -0.190 C  
HETATM    4  C   UNL     1      -9.468  10.770  66.307  1.00  0.00    -0.181 C  
HETATM    5  O   UNL     1     -10.847  10.465  65.835  1.00  0.00    -0.028 OA 
HETATM    6  C   UNL     1      -6.783   9.040  70.717  1.00  0.00    -0.067 C  
HETATM    7  C   UNL     1      -9.422  12.102  66.522  1.00  0.00    -0.235 C  
HETATM    8  C   UNL     1      -7.567  11.553  66.703  1.00  0.00    -0.088 C  
HETATM    9  C   UNL     1     -10.000  13.319  65.812  1.00  0.00    -0.261 C  
HETATM   10  C   UNL     1      -8.045   8.467  69.962  1.00  0.00    -0.111 C  
HETATM   11  C   UNL     1      -7.673   7.009  69.575  1.00  0.00    -0.107 C  
HETATM   12  H   UNL     1     -10.985   9.917  65.071  1.00  0.00     0.000 HD 
HETATM   13  C   UNL     1      -7.441  10.008  67.645  1.00  0.00    -0.090 C  
HETATM   14  C   UNL     1      -7.635   6.047  70.833  1.00  0.00    -0.096 C  
HETATM   15  O   UNL     1      -9.248   5.443  72.562  1.00  0.00    -0.136 OA 
HETATM   16  O   UNL     1      -7.462   8.945  66.671  1.00  0.00    -0.084 OA 
HETATM   17  C   UNL     1      -8.492   9.630  68.946  1.00  0.00    -0.125 C  
HETATM   18  H   UNL     1      -7.396   8.135  67.164  1.00  0.00     0.000 HD 
HETATM   19  C   UNL     1     -10.070   9.704  68.473  1.00  0.00    -0.195 C  
HETATM   20  F   UNL     1      -8.411  10.654  69.905  1.00  0.00    -0.101 F  
HETATM   21  C   UNL     1     -11.033   9.292  69.598  1.00  0.00    -0.192 C  
HETATM   22  C   UNL     1     -10.576   8.014  70.276  1.00  0.00    -0.231 C  
HETATM   23  C   UNL     1      -9.231   8.253  70.927  1.00  0.00    -0.182 C  
HETATM   24  C   UNL     1      -9.018   7.768  72.167  1.00  0.00    -0.182 C  
HETATM   25  C   UNL     1      -8.714   6.318  71.893  1.00  0.00    -0.136 C  
ENDROOT
BRANCH   4  26
HETATM   26  C   UNL     1      -8.964  10.897  64.689  1.00  0.00    -0.132 C  
HETATM   27  O   UNL     1      -7.860  10.579  64.213  1.00  0.00    -0.099 OA 
BRANCH  26  28
HETATM   28  C   UNL     1      -9.921  11.545  63.687  1.00  0.00    -0.376 C  
HETATM   29  O   UNL     1     -10.179  10.644  62.598  1.00  0.00    -0.751 OA 
HETATM   30  H   UNL     1     -10.773  11.046  61.976  1.00  0.00     0.000 HD 
ENDBRANCH  26  28
ENDBRANCH   4  26
TORSDOF 2
ENDMDL
MODEL       80
REMARK 921   NORMALIZED FREE ENERGY PREDICTED BY IDOCK:   -3.89 KCAL/MOL
REMARK 922        TOTAL FREE ENERGY PREDICTED BY IDOCK:   -3.65 KCAL/MOL
REMARK 923 INTER-LIGAND FREE ENERGY PREDICTED BY IDOCK:   -4.50 KCAL/MOL
REMARK 924 INTRA-LIGAND FREE ENERGY PREDICTED BY IDOCK:    0.85 KCAL/MOL
REMARK 927      BINDING AFFINITY PREDICTED BY RF-SCORE:    0.00 PKD
ROOT
HETATM    1  C   UNL     1      -6.843  11.628  67.799  1.00  0.00    -0.079 C  
HETATM    2  C   UNL     1      -6.912  11.270  69.167  1.00  0.00    -0.114 C  
HETATM    3  C   UNL     1      -7.999  10.670  68.343  1.00  0.00    -0.120 C  
HETATM    4  C   UNL     1      -7.904  10.885  66.290  1.00  0.00    -0.158 C  
HETATM    5  O   UNL     1      -6.655  11.368  65.638  1.00  0.00    -0.332 OA 
HETATM    6  C   UNL     1     -11.540  13.535  69.358  1.00  0.00    -0.369 C  
HETATM    7  C   UNL     1      -7.534   9.921  67.159  1.00  0.00    -0.091 C  
HETATM    8  C   UNL     1      -9.474   9.804  67.156  1.00  0.00    -0.189 C  
HETATM    9  C   UNL     1      -6.503   8.801  67.137  1.00  0.00    -0.061 C  
HETATM   10  C   UNL     1     -10.453  14.049  68.334  1.00  0.00    -0.254 C  
HETATM   11  C   UNL     1     -11.234  14.882  67.281  1.00  0.00    -0.348 C  
HETATM   12  H   UNL     1      -6.611  11.468  64.694  1.00  0.00     0.000 HD 
HETATM   13  C   UNL     1     -10.219  11.457  67.179  1.00  0.00    -0.202 C  
HETATM   14  C   UNL     1     -11.744  16.262  67.867  1.00  0.00     0.201 C  
HETATM   15  O   UNL     1     -10.652  18.167  68.932  1.00  0.00    -0.174 OA 
HETATM   16  O   UNL     1     -10.428  11.819  65.800  1.00  0.00    -0.243 OA 
HETATM   17  C   UNL     1      -9.523  12.773  68.031  1.00  0.00    -0.213 C  
HETATM   18  H   UNL     1     -10.819  12.685  65.811  1.00  0.00     0.000 HD 
HETATM   19  C   UNL     1      -7.963  13.024  67.559  1.00  0.00    -0.177 C  
HETATM   20  F   UNL     1      -9.381  12.414  69.382  1.00  0.00     0.375 F  
HETATM   21  C   UNL     1      -7.340  14.249  68.247  1.00  0.00    -0.124 C  
HETATM   22  C   UNL     1      -8.274  15.444  68.204  1.00  0.00    -0.144 C  
HETATM   23  C   UNL     1      -9.535  15.113  68.973  1.00  0.00    -0.221 C  
HETATM   24  C   UNL     1     -10.049  16.046  69.799  1.00  0.00    -0.212 C  
HETATM   25  C   UNL     1     -10.778  16.953  68.843  1.00  0.00    -0.321 C  
ENDROOT
BRANCH   4  26
HETATM   26  C   UNL     1      -8.131   9.798  65.003  1.00  0.00    -0.134 C  
HETATM   27  O   UNL     1      -7.921   8.573  65.002  1.00  0.00    -0.114 OA 
BRANCH  26  28
HETATM   28  C   UNL     1      -8.568  10.366  63.652  1.00  0.00    -0.186 C  
HETATM   29  O   UNL     1      -9.948  10.049  63.408  1.00  0.00    -0.494 OA 
HETATM   30  H   UNL     1     -10.219  10.401  62.568  1.00  0.00     0.000 HD 
ENDBRANCH  26  28
ENDBRANCH   4  26
TORSDOF 2
ENDMDL
MODEL       81
REMARK 921   NORMALIZED FREE ENERGY PREDICTED BY IDOCK:   -3.85 KCAL/MOL
REMARK 922        TOTAL FREE ENERGY PREDICTED BY IDOCK:   -3.60 KCAL/MOL
REMARK 923 INTER-LIGAND FREE ENERGY PREDICTED BY IDOCK:   -4.29 KCAL/MOL
REMARK 924 INTRA-LIGAND FREE ENERGY PREDICTED BY IDOCK:    0.69 KCAL/MOL
REMARK 927      BINDING AFFINITY PREDICTED BY RF-SCORE:    0.00 PKD
ROOT
HETATM    1  C   UNL     1      -8.103   5.945  69.730  1.00  0.00    -0.105 C  
HETATM    2  C   UNL     1      -6.974   6.649  69.243  1.00  0.00    -0.074 C  
HETATM    3  C   UNL     1      -8.265   7.339  68.968  1.00  0.00    -0.125 C  
HETATM    4  C   UNL     1      -9.985   6.577  69.825  1.00  0.00    -0.166 C  
HETATM    5  O   UNL     1      -9.902   5.554  70.904  1.00  0.00    -0.169 OA 
HETATM    6  C   UNL     1      -8.931   6.185  64.496  1.00  0.00     0.524 C  
HETATM    7  C   UNL     1      -9.115   7.555  70.156  1.00  0.00    -0.147 C  
HETATM    8  C   UNL     1     -10.081   8.306  68.646  1.00  0.00    -0.212 C  
HETATM    9  C   UNL     1      -8.704   8.221  71.462  1.00  0.00    -0.208 C  
HETATM   10  C   UNL     1      -9.249   5.090  65.590  1.00  0.00    -0.161 C  
HETATM   11  C   UNL     1     -10.491   4.321  65.060  1.00  0.00    -0.189 C  
HETATM   12  H   UNL     1     -10.693   5.204  71.297  1.00  0.00     0.000 HD 
HETATM   13  C   UNL     1     -10.314   7.061  67.347  1.00  0.00    -0.244 C  
HETATM   14  C   UNL     1     -10.138   3.393  63.826  1.00  0.00    -0.193 C  
HETATM   15  O   UNL     1      -8.546   1.580  63.460  1.00  0.00    -0.075 OA 
HETATM   16  O   UNL     1     -11.590   6.443  67.612  1.00  0.00    -0.640 OA 
HETATM   17  C   UNL     1      -9.142   5.859  66.998  1.00  0.00    -0.116 C  
HETATM   18  H   UNL     1     -11.712   5.791  66.932  1.00  0.00     0.000 HD 
HETATM   19  C   UNL     1      -8.767   4.989  68.348  1.00  0.00    -0.107 C  
HETATM   20  F   UNL     1      -7.925   6.489  66.690  1.00  0.00    -0.101 F  
HETATM   21  C   UNL     1      -7.778   3.851  68.047  1.00  0.00    -0.066 C  
HETATM   22  C   UNL     1      -8.194   3.068  66.816  1.00  0.00    -0.089 C  
HETATM   23  C   UNL     1      -8.170   3.987  65.614  1.00  0.00    -0.105 C  
HETATM   24  C   UNL     1      -7.642   3.528  64.461  1.00  0.00    -0.076 C  
HETATM   25  C   UNL     1      -8.769   2.699  63.902  1.00  0.00    -0.086 C  
ENDROOT
BRANCH   4  26
HETATM   26  C   UNL     1     -11.288   7.303  70.640  1.00  0.00    -0.284 C  
HETATM   27  O   UNL     1     -11.726   8.457  70.491  1.00  0.00    -0.208 OA 
BRANCH  26  28
HETATM   28  C   UNL     1     -11.978   6.503  71.747  1.00  0.00    -0.344 C  
HETATM   29  O   UNL     1     -11.787   7.152  73.015  1.00  0.00    -0.522 OA 
HETATM   30  H   UNL     1     -12.215   6.656  73.702  1.00  0.00     0.000 HD 
ENDBRANCH  26  28
ENDBRANCH   4  26
TORSDOF 2
ENDMDL
MODEL       82
REMARK 921   NORMALIZED FREE ENERGY PREDICTED BY IDOCK:   -3.82 KCAL/MOL
REMARK 922        TOTAL FREE ENERGY PREDICTED BY IDOCK:   -3.57 KCAL/MOL
REMARK 923 INTER-LIGAND FREE ENERGY PREDICTED BY IDOCK:   -4.36 KCAL/MOL
REMARK 924 INTRA-LIGAND FREE ENERGY PREDICTED BY IDOCK:    0.78 KCAL/MOL
REMARK 927      BINDING AFFINITY PREDICTED BY RF-SCORE:    0.00 PKD
ROOT
HETATM    1  C   UNL     1      -8.631   9.606  69.788  1.00  0.00    -0.211 C  
HETATM    2  C   UNL     1      -7.397   9.746  70.470  1.00  0.00    -0.126 C  
HETATM    3  C   UNL     1      -7.320   8.843  69.288  1.00  0.00    -0.070 C  
HETATM    4  C   UNL     1      -8.961   8.722  68.038  1.00  0.00    -0.140 C  
HETATM    5  O   UNL     1     -10.069   9.712  68.148  1.00  0.00    -0.161 OA 
HETATM    6  C   UNL     1      -7.501   4.671  71.371  1.00  0.00    -0.076 C  
HETATM    7  C   UNL     1      -7.813   9.432  68.028  1.00  0.00    -0.091 C  
HETATM    8  C   UNL     1      -7.231   7.628  67.599  1.00  0.00    -0.087 C  
HETATM    9  C   UNL     1      -7.380  10.754  67.409  1.00  0.00    -0.094 C  
HETATM   10  C   UNL     1      -8.854   5.472  71.217  1.00  0.00    -0.142 C  
HETATM   11  C   UNL     1      -9.942   4.400  70.936  1.00  0.00    -0.242 C  
HETATM   12  H   UNL     1     -10.824   9.657  67.574  1.00  0.00     0.000 HD 
HETATM   13  C   UNL     1      -8.081   6.412  68.643  1.00  0.00    -0.113 C  
HETATM   14  C   UNL     1     -10.273   3.531  72.218  1.00  0.00    -0.180 C  
HETATM   15  O   UNL     1     -11.017   4.054  74.483  1.00  0.00    -0.151 OA 
HETATM   16  O   UNL     1      -9.252   6.005  67.907  1.00  0.00    -0.114 OA 
HETATM   17  C   UNL     1      -8.496   6.726  70.277  1.00  0.00    -0.135 C  
HETATM   18  H   UNL     1      -9.697   5.368  68.454  1.00  0.00     0.000 HD 
HETATM   19  C   UNL     1      -9.407   8.095  70.404  1.00  0.00    -0.158 C  
HETATM   20  F   UNL     1      -7.330   7.066  70.983  1.00  0.00    -0.071 F  
HETATM   21  C   UNL     1      -9.862   8.357  71.848  1.00  0.00    -0.328 C  
HETATM   22  C   UNL     1     -10.415   7.099  72.491  1.00  0.00    -0.254 C  
HETATM   23  C   UNL     1      -9.319   6.058  72.567  1.00  0.00    -0.143 C  
HETATM   24  C   UNL     1      -9.188   5.341  73.701  1.00  0.00    -0.129 C  
HETATM   25  C   UNL     1     -10.268   4.302  73.547  1.00  0.00    -0.160 C  
ENDROOT
BRANCH   4  26
HETATM   26  C   UNL     1      -9.130   8.752  66.347  1.00  0.00    -0.177 C  
HETATM   27  O   UNL     1      -8.502   8.077  65.512  1.00  0.00    -0.140 OA 
BRANCH  26  28
HETATM   28  C   UNL     1     -10.098   9.768  65.739  1.00  0.00    -0.238 C  
HETATM   29  O   UNL     1      -9.946   9.800  64.310  1.00  0.00    -0.425 OA 
HETATM   30  H   UNL     1     -10.547  10.431  63.933  1.00  0.00     0.000 HD 
ENDBRANCH  26  28
ENDBRANCH   4  26
TORSDOF 2
ENDMDL
MODEL       83
REMARK 921   NORMALIZED FREE ENERGY PREDICTED BY IDOCK:   -3.82 KCAL/MOL
REMARK 922        TOTAL FREE ENERGY PREDICTED BY IDOCK:   -3.57 KCAL/MOL
REMARK 923 INTER-LIGAND FREE ENERGY PREDICTED BY IDOCK:   -4.44 KCAL/MOL
REMARK 924 INTRA-LIGAND FREE ENERGY PREDICTED BY IDOCK:    0.87 KCAL/MOL
REMARK 927      BINDING AFFINITY PREDICTED BY RF-SCORE:    0.00 PKD
ROOT
HETATM    1  C   UNL     1     -10.244   9.189  66.929  1.00  0.00    -0.336 C  
HETATM    2  C   UNL     1     -11.179   9.745  67.836  1.00  0.00    -0.036 C  
HETATM    3  C   UNL     1      -9.772  10.153  68.112  1.00  0.00    -0.155 C  
HETATM    4  C   UNL     1      -8.316   9.634  66.741  1.00  0.00    -0.117 C  
HETATM    5  O   UNL     1      -8.694   9.127  65.392  1.00  0.00    -0.163 OA 
HETATM    6  C   UNL     1      -8.714   7.283  71.636  1.00  0.00    -0.122 C  
HETATM    7  C   UNL     1      -9.061  10.738  66.958  1.00  0.00    -0.155 C  
HETATM    8  C   UNL     1      -7.804  10.746  68.439  1.00  0.00    -0.120 C  
HETATM    9  C   UNL     1      -9.533  11.897  66.090  1.00  0.00    -0.243 C  
HETATM   10  C   UNL     1      -8.713   6.681  70.176  1.00  0.00    -0.141 C  
HETATM   11  C   UNL     1      -7.545   5.656  70.151  1.00  0.00    -0.085 C  
HETATM   12  H   UNL     1      -8.024   8.889  64.762  1.00  0.00     0.000 HD 
HETATM   13  C   UNL     1      -7.596   9.077  69.118  1.00  0.00    -0.073 C  
HETATM   14  C   UNL     1      -7.872   4.355  70.992  1.00  0.00    -0.068 C  
HETATM   15  O   UNL     1      -9.662   2.697  70.937  1.00  0.00    -0.146 OA 
HETATM   16  O   UNL     1      -6.476   8.499  68.418  1.00  0.00    -0.053 OA 
HETATM   17  C   UNL     1      -8.883   7.945  69.199  1.00  0.00    -0.142 C  
HETATM   18  H   UNL     1      -6.367   7.624  68.773  1.00  0.00     0.000 HD 
HETATM   19  C   UNL     1      -9.560   7.712  67.713  1.00  0.00    -0.169 C  
HETATM   20  F   UNL     1      -9.939   8.513  69.932  1.00  0.00    -0.179 F  
HETATM   21  C   UNL     1     -10.663   6.642  67.741  1.00  0.00    -0.352 C  
HETATM   22  C   UNL     1     -10.216   5.405  68.497  1.00  0.00    -0.237 C  
HETATM   23  C   UNL     1      -9.941   5.778  69.938  1.00  0.00    -0.254 C  
HETATM   24  C   UNL     1     -10.379   4.955  70.911  1.00  0.00    -0.225 C  
HETATM   25  C   UNL     1      -9.329   3.874  70.911  1.00  0.00    -0.152 C  
ENDROOT
BRANCH   4  26
HETATM   26  C   UNL     1      -7.034  10.499  66.034  1.00  0.00    -0.134 C  
HETATM   27  O   UNL     1      -6.472  11.516  66.478  1.00  0.00    -0.121 OA 
BRANCH  26  28
HETATM   28  C   UNL     1      -6.540  10.054  64.657  1.00  0.00    -0.128 C  
HETATM   29  O   UNL     1      -5.837  11.130  64.014  1.00  0.00    -0.337 OA 
HETATM   30  H   UNL     1      -5.530  10.854  63.159  1.00  0.00     0.000 HD 
ENDBRANCH  26  28
ENDBRANCH   4  26
TORSDOF 2
ENDMDL
MODEL       84
REMARK 921   NORMALIZED FREE ENERGY PREDICTED BY IDOCK:   -3.77 KCAL/MOL
REMARK 922        TOTAL FREE ENERGY PREDICTED BY IDOCK:   -3.52 KCAL/MOL
REMARK 923 INTER-LIGAND FREE ENERGY PREDICTED BY IDOCK:   -5.01 KCAL/MOL
REMARK 924 INTRA-LIGAND FREE ENERGY PREDICTED BY IDOCK:    1.49 KCAL/MOL
REMARK 927      BINDING AFFINITY PREDICTED BY RF-SCORE:    0.00 PKD
ROOT
HETATM    1  C   UNL     1      -7.626   9.489  69.254  1.00  0.00    -0.084 C  
HETATM    2  C   UNL     1      -7.793   9.802  70.625  1.00  0.00     0.021 C  
HETATM    3  C   UNL     1      -8.929   9.026  70.053  1.00  0.00    -0.184 C  
HETATM    4  C   UNL     1      -8.735   8.274  68.138  1.00  0.00    -0.136 C  
HETATM    5  O   UNL     1      -7.408   8.258  67.463  1.00  0.00    -0.089 OA 
HETATM    6  C   UNL     1     -12.035  12.435  69.343  1.00  0.00    -0.319 C  
HETATM    7  C   UNL     1      -8.542   7.773  69.376  1.00  0.00    -0.135 C  
HETATM    8  C   UNL     1     -10.476   7.896  69.239  1.00  0.00    -0.221 C  
HETATM    9  C   UNL     1      -7.688   6.651  69.953  1.00  0.00    -0.109 C  
HETATM   10  C   UNL     1     -10.851  12.296  68.307  1.00  0.00    -0.254 C  
HETATM   11  C   UNL     1     -11.465  12.647  66.924  1.00  0.00    -0.402 C  
HETATM   12  H   UNL     1      -7.319   7.912  66.583  1.00  0.00     0.000 HD 
HETATM   13  C   UNL     1     -10.968   9.455  68.453  1.00  0.00    -0.030 C  
HETATM   14  C   UNL     1     -11.783  14.192  66.784  1.00  0.00    -0.432 C  
HETATM   15  O   UNL     1     -10.455  16.229  66.991  1.00  0.00    -0.306 OA 
HETATM   16  O   UNL     1     -11.076   9.174  67.043  1.00  0.00    -0.219 OA 
HETATM   17  C   UNL     1     -10.112  10.922  68.694  1.00  0.00    -0.191 C  
HETATM   18  H   UNL     1     -11.333   9.990  66.631  1.00  0.00     0.000 HD 
HETATM   19  C   UNL     1      -8.517  10.746  68.312  1.00  0.00    -0.130 C  
HETATM   20  F   UNL     1     -10.070  11.200  70.070  1.00  0.00     0.069 F  
HETATM   21  C   UNL     1      -7.742  12.066  68.441  1.00  0.00    -0.138 C  
HETATM   22  C   UNL     1      -8.486  13.212  67.782  1.00  0.00    -0.185 C  
HETATM   23  C   UNL     1      -9.807  13.418  68.491  1.00  0.00    -0.178 C  
HETATM   24  C   UNL     1     -10.203  14.677  68.764  1.00  0.00    -0.242 C  
HETATM   25  C   UNL     1     -10.758  15.131  67.439  1.00  0.00    -0.286 C  
ENDROOT
BRANCH   4  26
HETATM   26  C   UNL     1      -9.079   6.757  67.453  1.00  0.00    -0.117 C  
HETATM   27  O   UNL     1      -8.622   5.652  67.794  1.00  0.00    -0.103 OA 
BRANCH  26  28
HETATM   28  C   UNL     1      -9.990   6.713  66.225  1.00  0.00     0.088 C  
HETATM   29  O   UNL     1     -11.351   6.487  66.629  1.00  0.00    -0.699 OA 
HETATM   30  H   UNL     1     -11.916   6.460  65.866  1.00  0.00     0.000 HD 
ENDBRANCH  26  28
ENDBRANCH   4  26
TORSDOF 2
ENDMDL
MODEL       85
REMARK 921   NORMALIZED FREE ENERGY PREDICTED BY IDOCK:   -3.76 KCAL/MOL
REMARK 922        TOTAL FREE ENERGY PREDICTED BY IDOCK:   -3.50 KCAL/MOL
REMARK 923 INTER-LIGAND FREE ENERGY PREDICTED BY IDOCK:   -4.00 KCAL/MOL
REMARK 924 INTRA-LIGAND FREE ENERGY PREDICTED BY IDOCK:    0.49 KCAL/MOL
REMARK 927      BINDING AFFINITY PREDICTED BY RF-SCORE:    0.00 PKD
ROOT
HETATM    1  C   UNL     1      -8.349   5.999  68.203  1.00  0.00    -0.113 C  
HETATM    2  C   UNL     1      -7.586   6.001  67.010  1.00  0.00    -0.096 C  
HETATM    3  C   UNL     1      -6.908   6.686  68.146  1.00  0.00    -0.074 C  
HETATM    4  C   UNL     1      -7.768   6.558  70.021  1.00  0.00    -0.102 C  
HETATM    5  O   UNL     1      -8.863   5.583  70.284  1.00  0.00    -0.126 OA 
HETATM    6  C   UNL     1      -7.760  11.153  67.098  1.00  0.00    -0.136 C  
HETATM    7  C   UNL     1      -6.797   5.878  69.376  1.00  0.00    -0.062 C  
HETATM    8  C   UNL     1      -5.964   7.590  69.767  1.00  0.00    -0.024 C  
HETATM    9  C   UNL     1      -6.215   4.476  69.496  1.00  0.00    -0.027 C  
HETATM   10  C   UNL     1      -8.935  10.314  67.737  1.00  0.00    -0.135 C  
HETATM   11  C   UNL     1      -9.694  11.302  68.665  1.00  0.00    -0.200 C  
HETATM   12  H   UNL     1      -9.259   5.524  71.146  1.00  0.00     0.000 HD 
HETATM   13  C   UNL     1      -7.119   8.954  69.456  1.00  0.00    -0.059 C  
HETATM   14  C   UNL     1     -10.525  12.374  67.848  1.00  0.00    -0.227 C  
HETATM   15  O   UNL     1     -12.269  12.240  66.146  1.00  0.00    -0.647 OA 
HETATM   16  O   UNL     1      -7.784   9.206  70.711  1.00  0.00    -0.117 OA 
HETATM   17  C   UNL     1      -8.266   8.922  68.182  1.00  0.00    -0.114 C  
HETATM   18  H   UNL     1      -8.388   9.920  70.548  1.00  0.00     0.000 HD 
HETATM   19  C   UNL     1      -9.220   7.580  68.278  1.00  0.00    -0.138 C  
HETATM   20  F   UNL     1      -7.587   8.730  66.966  1.00  0.00    -0.084 F  
HETATM   21  C   UNL     1     -10.310   7.566  67.195  1.00  0.00    -0.384 C  
HETATM   22  C   UNL     1     -11.014   8.906  67.100  1.00  0.00     0.119 C  
HETATM   23  C   UNL     1     -10.012   9.963  66.688  1.00  0.00    -0.277 C  
HETATM   24  C   UNL     1     -10.376  10.869  65.759  1.00  0.00    -0.303 C  
HETATM   25  C   UNL     1     -11.189  11.847  66.567  1.00  0.00    -0.327 C  
ENDROOT
BRANCH   4  26
HETATM   26  C   UNL     1      -7.133   6.231  71.563  1.00  0.00    -0.078 C  
HETATM   27  O   UNL     1      -5.974   5.881  71.845  1.00  0.00    -0.033 OA 
BRANCH  26  28
HETATM   28  C   UNL     1      -8.085   6.288  72.759  1.00  0.00    -0.105 C  
HETATM   29  O   UNL     1      -8.995   7.390  72.612  1.00  0.00    -0.130 OA 
HETATM   30  H   UNL     1      -9.586   7.424  73.355  1.00  0.00     0.000 HD 
ENDBRANCH  26  28
ENDBRANCH   4  26
TORSDOF 2
ENDMDL
MODEL       86
REMARK 921   NORMALIZED FREE ENERGY PREDICTED BY IDOCK:   -3.73 KCAL/MOL
REMARK 922        TOTAL FREE ENERGY PREDICTED BY IDOCK:   -3.48 KCAL/MOL
REMARK 923 INTER-LIGAND FREE ENERGY PREDICTED BY IDOCK:   -4.09 KCAL/MOL
REMARK 924 INTRA-LIGAND FREE ENERGY PREDICTED BY IDOCK:    0.62 KCAL/MOL
REMARK 927      BINDING AFFINITY PREDICTED BY RF-SCORE:    0.00 PKD
ROOT
HETATM    1  C   UNL     1      -6.966   5.898  66.013  1.00  0.00    -0.062 C  
HETATM    2  C   UNL     1      -5.734   5.801  66.705  1.00  0.00    -0.017 C  
HETATM    3  C   UNL     1      -6.505   4.526  66.688  1.00  0.00    -0.041 C  
HETATM    4  C   UNL     1      -8.202   4.424  65.513  1.00  0.00    -0.110 C  
HETATM    5  O   UNL     1      -8.485   5.479  64.501  1.00  0.00    -0.160 OA 
HETATM    6  C   UNL     1      -8.400   4.601  70.952  1.00  0.00    -0.097 C  
HETATM    7  C   UNL     1      -6.911   4.068  65.345  1.00  0.00    -0.057 C  
HETATM    8  C   UNL     1      -7.581   2.746  66.601  1.00  0.00    -0.075 C  
HETATM    9  C   UNL     1      -6.004   3.874  64.136  1.00  0.00    -0.014 C  
HETATM   10  C   UNL     1      -9.053   5.517  69.844  1.00  0.00    -0.159 C  
HETATM   11  C   UNL     1     -10.581   5.483  70.124  1.00  0.00    -0.367 C  
HETATM   12  H   UNL     1      -9.265   5.432  63.960  1.00  0.00     0.000 HD 
HETATM   13  C   UNL     1      -8.636   3.525  67.854  1.00  0.00    -0.099 C  
HETATM   14  C   UNL     1     -10.970   6.294  71.427  1.00  0.00    -0.327 C  
HETATM   15  O   UNL     1     -10.634   8.596  72.163  1.00  0.00    -0.321 OA 
HETATM   16  O   UNL     1      -9.983   3.446  67.345  1.00  0.00    -0.239 OA 
HETATM   17  C   UNL     1      -8.333   5.096  68.470  1.00  0.00    -0.089 C  
HETATM   18  H   UNL     1     -10.536   3.854  68.002  1.00  0.00     0.000 HD 
HETATM   19  C   UNL     1      -8.246   6.203  67.250  1.00  0.00    -0.106 C  
HETATM   20  F   UNL     1      -7.036   5.129  69.009  1.00  0.00    -0.049 F  
HETATM   21  C   UNL     1      -8.056   7.634  67.779  1.00  0.00    -0.118 C  
HETATM   22  C   UNL     1      -9.014   7.935  68.917  1.00  0.00    -0.141 C  
HETATM   23  C   UNL     1      -8.716   7.006  70.073  1.00  0.00    -0.142 C  
HETATM   24  C   UNL     1      -8.701   7.515  71.322  1.00  0.00    -0.127 C  
HETATM   25  C   UNL     1     -10.168   7.585  71.656  1.00  0.00    -0.184 C  
ENDROOT
BRANCH   4  26
HETATM   26  C   UNL     1      -8.785   3.254  64.426  1.00  0.00    -0.094 C  
HETATM   27  O   UNL     1      -8.121   2.424  63.779  1.00  0.00    -0.079 OA 
BRANCH  26  28
HETATM   28  C   UNL     1     -10.284   3.240  64.121  1.00  0.00    -0.170 C  
HETATM   29  O   UNL     1     -10.934   4.326  64.800  1.00  0.00    -0.649 OA 
HETATM   30  H   UNL     1     -11.865   4.318  64.611  1.00  0.00     0.000 HD 
ENDBRANCH  26  28
ENDBRANCH   4  26
TORSDOF 2
ENDMDL
MODEL       87
REMARK 921   NORMALIZED FREE ENERGY PREDICTED BY IDOCK:   -3.63 KCAL/MOL
REMARK 922        TOTAL FREE ENERGY PREDICTED BY IDOCK:   -3.36 KCAL/MOL
REMARK 923 INTER-LIGAND FREE ENERGY PREDICTED BY IDOCK:   -4.21 KCAL/MOL
REMARK 924 INTRA-LIGAND FREE ENERGY PREDICTED BY IDOCK:    0.84 KCAL/MOL
REMARK 927      BINDING AFFINITY PREDICTED BY RF-SCORE:    0.00 PKD
ROOT
HETATM    1  C   UNL     1     -11.239  12.643  67.942  1.00  0.00    -0.310 C  
HETATM    2  C   UNL     1     -11.150  12.424  69.339  1.00  0.00    -0.149 C  
HETATM    3  C   UNL     1     -10.211  13.469  68.843  1.00  0.00    -0.069 C  
HETATM    4  C   UNL     1     -10.382  14.088  66.879  1.00  0.00    -0.269 C  
HETATM    5  O   UNL     1     -11.578  13.718  66.072  1.00  0.00    -0.326 OA 
HETATM    6  C   UNL     1      -6.234  11.035  68.647  1.00  0.00    -0.043 C  
HETATM    7  C   UNL     1     -10.844  14.548  68.061  1.00  0.00    -0.249 C  
HETATM    8  C   UNL     1      -8.947  14.961  68.129  1.00  0.00    -0.176 C  
HETATM    9  C   UNL     1     -12.031  15.404  68.484  1.00  0.00    -0.205 C  
HETATM   10  C   UNL     1      -7.286  10.813  67.490  1.00  0.00    -0.090 C  
HETATM   11  C   UNL     1      -6.446  10.611  66.198  1.00  0.00    -0.131 C  
HETATM   12  H   UNL     1     -11.657  14.003  65.169  1.00  0.00     0.000 HD 
HETATM   13  C   UNL     1      -7.963  13.579  67.487  1.00  0.00    -0.181 C  
HETATM   14  C   UNL     1      -5.706   9.211  66.178  1.00  0.00    -0.053 C  
HETATM   15  O   UNL     1      -6.444   6.892  66.363  1.00  0.00    -0.047 OA 
HETATM   16  O   UNL     1      -7.777  13.842  66.081  1.00  0.00     0.902 OA 
HETATM   17  C   UNL     1      -8.409  11.939  67.720  1.00  0.00    -0.149 C  
HETATM   18  H   UNL     1      -7.261  13.119  65.745  1.00  0.00     0.000 HD 
HETATM   19  C   UNL     1      -9.938  11.657  67.168  1.00  0.00    -0.219 C  
HETATM   20  F   UNL     1      -8.531  11.696  69.099  1.00  0.00    -0.056 F  
HETATM   21  C   UNL     1     -10.334  10.178  67.291  1.00  0.00    -0.291 C  
HETATM   22  C   UNL     1      -9.236   9.265  66.777  1.00  0.00    -0.185 C  
HETATM   23  C   UNL     1      -7.999   9.452  67.629  1.00  0.00    -0.099 C  
HETATM   24  C   UNL     1      -7.309   8.359  68.011  1.00  0.00    -0.096 C  
HETATM   25  C   UNL     1      -6.504   8.042  66.776  1.00  0.00    -0.056 C  
ENDROOT
BRANCH   4  26
HETATM   26  C   UNL     1     -10.389  15.623  66.148  1.00  0.00    -0.316 C  
HETATM   27  O   UNL     1      -9.733  16.624  66.486  1.00  0.00    -0.247 OA 
BRANCH  26  28
HETATM   28  C   UNL     1     -11.356  15.863  64.989  1.00  0.00    -0.193 C  
HETATM   29  O   UNL     1     -11.388  17.260  64.654  1.00  0.00    -0.905 OA 
HETATM   30  H   UNL     1     -11.989  17.409  63.934  1.00  0.00     0.000 HD 
ENDBRANCH  26  28
ENDBRANCH   4  26
TORSDOF 2
ENDMDL
MODEL       88
REMARK 921   NORMALIZED FREE ENERGY PREDICTED BY IDOCK:   -3.62 KCAL/MOL
REMARK 922        TOTAL FREE ENERGY PREDICTED BY IDOCK:   -3.35 KCAL/MOL
REMARK 923 INTER-LIGAND FREE ENERGY PREDICTED BY IDOCK:   -3.93 KCAL/MOL
REMARK 924 INTRA-LIGAND FREE ENERGY PREDICTED BY IDOCK:    0.58 KCAL/MOL
REMARK 927      BINDING AFFINITY PREDICTED BY RF-SCORE:    0.00 PKD
ROOT
HETATM    1  C   UNL     1     -10.455   6.222  67.885  1.00  0.00    -0.285 C  
HETATM    2  C   UNL     1     -10.650   5.931  66.513  1.00  0.00    -0.266 C  
HETATM    3  C   UNL     1      -9.229   5.814  66.946  1.00  0.00    -0.124 C  
HETATM    4  C   UNL     1      -8.805   5.960  68.963  1.00  0.00    -0.119 C  
HETATM    5  O   UNL     1      -9.899   5.895  69.972  1.00  0.00    -0.164 OA 
HETATM    6  C   UNL     1      -7.515   9.869  65.399  1.00  0.00    -0.132 C  
HETATM    7  C   UNL     1      -9.009   4.934  68.110  1.00  0.00    -0.123 C  
HETATM    8  C   UNL     1      -7.261   5.608  67.593  1.00  0.00    -0.076 C  
HETATM    9  C   UNL     1      -9.478   3.493  68.264  1.00  0.00    -0.210 C  
HETATM   10  C   UNL     1      -8.372   9.895  66.725  1.00  0.00    -0.125 C  
HETATM   11  C   UNL     1      -7.703  10.965  67.632  1.00  0.00    -0.108 C  
HETATM   12  H   UNL     1      -9.704   5.962  70.899  1.00  0.00     0.000 HD 
HETATM   13  C   UNL     1      -7.249   7.421  67.577  1.00  0.00    -0.094 C  
HETATM   14  C   UNL     1      -7.954  12.438  67.105  1.00  0.00    -0.153 C  
HETATM   15  O   UNL     1      -9.950  13.748  66.601  1.00  0.00    -0.264 OA 
HETATM   16  O   UNL     1      -6.808   7.828  68.888  1.00  0.00    -0.055 OA 
HETATM   17  C   UNL     1      -8.610   8.351  67.103  1.00  0.00    -0.123 C  
HETATM   18  H   UNL     1      -6.801   8.778  68.880  1.00  0.00     0.000 HD 
HETATM   19  C   UNL     1      -9.939   7.950  67.993  1.00  0.00    -0.213 C  
HETATM   20  F   UNL     1      -8.985   7.974  65.803  1.00  0.00    -0.181 F  
HETATM   21  C   UNL     1     -11.155   8.824  67.645  1.00  0.00     0.288 C  
HETATM   22  C   UNL     1     -10.781  10.293  67.588  1.00  0.00    -0.339 C  
HETATM   23  C   UNL     1      -9.769  10.504  66.483  1.00  0.00    -0.237 C  
HETATM   24  C   UNL     1      -9.914  11.570  65.670  1.00  0.00    -0.275 C  
HETATM   25  C   UNL     1      -9.347  12.688  66.506  1.00  0.00    -0.228 C  
ENDROOT
BRANCH   4  26
HETATM   26  C   UNL     1      -7.818   5.048  70.005  1.00  0.00    -0.070 C  
HETATM   27  O   UNL     1      -7.103   4.075  69.709  1.00  0.00    -0.041 OA 
BRANCH  26  28
HETATM   28  C   UNL     1      -7.847   5.382  71.497  1.00  0.00    -0.110 C  
HETATM   29  O   UNL     1      -7.977   6.801  71.682  1.00  0.00    -0.101 OA 
HETATM   30  H   UNL     1      -7.995   7.008  72.608  1.00  0.00     0.000 HD 
ENDBRANCH  26  28
ENDBRANCH   4  26
TORSDOF 2
ENDMDL
MODEL       89
REMARK 921   NORMALIZED FREE ENERGY PREDICTED BY IDOCK:   -3.60 KCAL/MOL
REMARK 922        TOTAL FREE ENERGY PREDICTED BY IDOCK:   -3.33 KCAL/MOL
REMARK 923 INTER-LIGAND FREE ENERGY PREDICTED BY IDOCK:   -4.19 KCAL/MOL
REMARK 924 INTRA-LIGAND FREE ENERGY PREDICTED BY IDOCK:    0.86 KCAL/MOL
REMARK 927      BINDING AFFINITY PREDICTED BY RF-SCORE:    0.00 PKD
ROOT
HETATM    1  C   UNL     1     -10.072   6.546  70.991  1.00  0.00    -0.208 C  
HETATM    2  C   UNL     1     -11.244   6.104  70.330  1.00  0.00    -0.439 C  
HETATM    3  C   UNL     1     -10.053   6.175  69.438  1.00  0.00    -0.230 C  
HETATM    4  C   UNL     1      -8.211   6.560  70.292  1.00  0.00    -0.126 C  
HETATM    5  O   UNL     1      -8.033   6.483  71.769  1.00  0.00    -0.103 OA 
HETATM    6  C   UNL     1     -10.855  10.211  67.238  1.00  0.00    -0.295 C  
HETATM    7  C   UNL     1      -8.871   5.440  69.928  1.00  0.00    -0.140 C  
HETATM    8  C   UNL     1      -8.359   6.233  68.230  1.00  0.00    -0.115 C  
HETATM    9  C   UNL     1      -8.820   3.981  70.362  1.00  0.00    -0.137 C  
HETATM   10  C   UNL     1     -10.296  10.280  68.713  1.00  0.00    -0.211 C  
HETATM   11  C   UNL     1      -9.330  11.496  68.736  1.00  0.00    -0.088 C  
HETATM   12  H   UNL     1      -7.186   6.660  72.162  1.00  0.00     0.000 HD 
HETATM   13  C   UNL     1      -8.616   8.028  68.253  1.00  0.00    -0.130 C  
HETATM   14  C   UNL     1     -10.102  12.877  68.662  1.00  0.00    -0.136 C  
HETATM   15  O   UNL     1     -11.851  13.923  70.004  1.00  0.00    -0.291 OA 
HETATM   16  O   UNL     1      -7.366   8.604  68.683  1.00  0.00    -0.078 OA 
HETATM   17  C   UNL     1      -9.918   8.765  69.092  1.00  0.00    -0.191 C  
HETATM   18  H   UNL     1      -7.500   9.544  68.695  1.00  0.00     0.000 HD 
HETATM   19  C   UNL     1      -9.926   8.320  70.680  1.00  0.00    -0.204 C  
HETATM   20  F   UNL     1     -11.125   8.225  68.616  1.00  0.00    -0.075 F  
HETATM   21  C   UNL     1     -11.034   9.028  71.475  1.00  0.00    -0.418 C  
HETATM   22  C   UNL     1     -11.067  10.515  71.175  1.00  0.00     0.404 C  
HETATM   23  C   UNL     1     -11.390  10.718  69.711  1.00  0.00    -0.372 C  
HETATM   24  C   UNL     1     -12.273  11.679  69.372  1.00  0.00    -0.246 C  
HETATM   25  C   UNL     1     -11.428  12.925  69.437  1.00  0.00    -0.260 C  
ENDROOT
BRANCH   4  26
HETATM   26  C   UNL     1      -6.675   5.859  70.091  1.00  0.00    -0.048 C  
HETATM   27  O   UNL     1      -5.848   6.094  69.193  1.00  0.00    -0.018 OA 
BRANCH  26  28
HETATM   28  C   UNL     1      -6.258   4.751  71.060  1.00  0.00    -0.019 C  
HETATM   29  O   UNL     1      -5.550   5.314  72.176  1.00  0.00    -0.015 OA 
HETATM   30  H   UNL     1      -5.291   4.627  72.778  1.00  0.00     0.000 HD 
ENDBRANCH  26  28
ENDBRANCH   4  26
TORSDOF 2
ENDMDL
MODEL       90
REMARK 921   NORMALIZED FREE ENERGY PREDICTED BY IDOCK:   -3.46 KCAL/MOL
REMARK 922        TOTAL FREE ENERGY PREDICTED BY IDOCK:   -3.17 KCAL/MOL
REMARK 923 INTER-LIGAND FREE ENERGY PREDICTED BY IDOCK:   -4.92 KCAL/MOL
REMARK 924 INTRA-LIGAND FREE ENERGY PREDICTED BY IDOCK:    1.74 KCAL/MOL
REMARK 927      BINDING AFFINITY PREDICTED BY RF-SCORE:    0.00 PKD
ROOT
HETATM    1  C   UNL     1     -10.235   8.938  71.138  1.00  0.00    -0.336 C  
HETATM    2  C   UNL     1     -11.571   8.662  70.756  1.00  0.00    -0.273 C  
HETATM    3  C   UNL     1     -10.721   7.442  70.860  1.00  0.00    -0.248 C  
HETATM    4  C   UNL     1      -8.819   7.638  71.645  1.00  0.00    -0.116 C  
HETATM    5  O   UNL     1      -8.417   8.889  72.347  1.00  0.00    -0.396 OA 
HETATM    6  C   UNL     1      -9.732   6.689  66.361  1.00  0.00    -0.128 C  
HETATM    7  C   UNL     1     -10.021   7.286  72.149  1.00  0.00    -0.191 C  
HETATM    8  C   UNL     1      -9.522   5.753  71.065  1.00  0.00    -0.195 C  
HETATM    9  C   UNL     1     -10.649   7.319  73.537  1.00  0.00    -0.408 C  
HETATM   10  C   UNL     1      -8.939   7.835  67.103  1.00  0.00    -0.138 C  
HETATM   11  C   UNL     1      -7.500   7.790  66.519  1.00  0.00    -0.088 C  
HETATM   12  H   UNL     1      -7.543   8.979  72.708  1.00  0.00     0.000 HD 
HETATM   13  C   UNL     1      -8.800   6.287  69.488  1.00  0.00    -0.135 C  
HETATM   14  C   UNL     1      -7.441   8.325  65.029  1.00  0.00    -0.090 C  
HETATM   15  O   UNL     1      -8.087  10.414  63.944  1.00  0.00    -0.155 OA 
HETATM   16  O   UNL     1      -7.376   6.357  69.705  1.00  0.00    -0.075 OA 
HETATM   17  C   UNL     1      -9.335   7.687  68.654  1.00  0.00    -0.147 C  
HETATM   18  H   UNL     1      -6.998   6.636  68.880  1.00  0.00     0.000 HD 
HETATM   19  C   UNL     1      -9.256   9.019  69.623  1.00  0.00    -0.160 C  
HETATM   20  F   UNL     1     -10.713   7.567  68.407  1.00  0.00    -0.217 F  
HETATM   21  C   UNL     1      -9.652  10.302  68.876  1.00  0.00    -0.193 C  
HETATM   22  C   UNL     1      -8.968  10.391  67.525  1.00  0.00    -0.138 C  
HETATM   23  C   UNL     1      -9.423   9.233  66.663  1.00  0.00    -0.246 C  
HETATM   24  C   UNL     1      -9.727   9.471  65.371  1.00  0.00    -0.314 C  
HETATM   25  C   UNL     1      -8.365   9.515  64.727  1.00  0.00    -0.150 C  
ENDROOT
BRANCH   4  26
HETATM   26  C   UNL     1      -7.945   6.738  72.792  1.00  0.00    -0.099 C  
HETATM   27  O   UNL     1      -7.051   7.147  73.553  1.00  0.00    -0.072 OA 
BRANCH  26  28
HETATM   28  C   UNL     1      -8.205   5.233  72.873  1.00  0.00    -0.109 C  
HETATM   29  O   UNL     1      -8.002   4.770  74.218  1.00  0.00    -0.098 OA 
HETATM   30  H   UNL     1      -8.163   3.835  74.269  1.00  0.00     0.000 HD 
ENDBRANCH  26  28
ENDBRANCH   4  26
TORSDOF 2
ENDMDL
MODEL       91
REMARK 921   NORMALIZED FREE ENERGY PREDICTED BY IDOCK:   -3.38 KCAL/MOL
REMARK 922        TOTAL FREE ENERGY PREDICTED BY IDOCK:   -3.08 KCAL/MOL
REMARK 923 INTER-LIGAND FREE ENERGY PREDICTED BY IDOCK:   -3.95 KCAL/MOL
REMARK 924 INTRA-LIGAND FREE ENERGY PREDICTED BY IDOCK:    0.87 KCAL/MOL
REMARK 927      BINDING AFFINITY PREDICTED BY RF-SCORE:    0.00 PKD
ROOT
HETATM    1  C   UNL     1     -10.198  13.227  67.398  1.00  0.00    -0.229 C  
HETATM    2  C   UNL     1      -9.808  13.690  66.117  1.00  0.00    -0.304 C  
HETATM    3  C   UNL     1      -8.956  12.580  66.630  1.00  0.00    -0.174 C  
HETATM    4  C   UNL     1      -9.536  11.622  68.367  1.00  0.00    -0.195 C  
HETATM    5  O   UNL     1     -10.899  11.835  68.928  1.00  0.00    -0.216 OA 
HETATM    6  C   UNL     1      -5.244  14.966  68.148  1.00  0.00    -0.119 C  
HETATM    7  C   UNL     1      -9.698  11.375  67.050  1.00  0.00    -0.210 C  
HETATM    8  C   UNL     1      -7.817  10.993  67.351  1.00  0.00    -0.118 C  
HETATM    9  C   UNL     1     -10.718  10.600  66.226  1.00  0.00    -0.172 C  
HETATM   10  C   UNL     1      -6.538  14.972  69.053  1.00  0.00    -0.109 C  
HETATM   11  C   UNL     1      -6.022  14.949  70.517  1.00  0.00    -0.134 C  
HETATM   12  H   UNL     1     -11.166  11.395  69.727  1.00  0.00     0.000 HD 
HETATM   13  C   UNL     1      -7.069  12.246  68.428  1.00  0.00    -0.094 C  
HETATM   14  C   UNL     1      -5.371  16.328  70.946  1.00  0.00    -0.080 C  
HETATM   15  O   UNL     1      -6.156  18.638  70.994  1.00  0.00     0.194 OA 
HETATM   16  O   UNL     1      -7.192  11.739  69.772  1.00  0.00    -0.340 OA 
HETATM   17  C   UNL     1      -7.527  13.898  68.381  1.00  0.00    -0.117 C  
HETATM   18  H   UNL     1      -6.800  12.395  70.337  1.00  0.00     0.000 HD 
HETATM   19  C   UNL     1      -9.152  14.068  68.607  1.00  0.00    -0.107 C  
HETATM   20  F   UNL     1      -7.346  14.381  67.074  1.00  0.00    -0.184 F  
HETATM   21  C   UNL     1      -9.579  15.544  68.650  1.00  0.00    -0.203 C  
HETATM   22  C   UNL     1      -8.669  16.358  69.551  1.00  0.00     0.177 C  
HETATM   23  C   UNL     1      -7.265  16.333  68.988  1.00  0.00    -0.204 C  
HETATM   24  C   UNL     1      -6.558  17.480  68.967  1.00  0.00    -0.243 C  
HETATM   25  C   UNL     1      -6.068  17.579  70.388  1.00  0.00     0.244 C  
ENDROOT
BRANCH   4  26
HETATM   26  C   UNL     1      -9.635   9.982  68.804  1.00  0.00    -0.168 C  
HETATM   27  O   UNL     1      -9.265   8.999  68.139  1.00  0.00    -0.136 OA 
BRANCH  26  28
HETATM   28  C   UNL     1     -10.323   9.630  70.124  1.00  0.00    -0.266 C  
HETATM   29  O   UNL     1     -11.374   8.678  69.893  1.00  0.00    -0.444 OA 
HETATM   30  H   UNL     1     -11.801   8.460  70.713  1.00  0.00     0.000 HD 
ENDBRANCH  26  28
ENDBRANCH   4  26
TORSDOF 2
ENDMDL
MODEL       92
REMARK 921   NORMALIZED FREE ENERGY PREDICTED BY IDOCK:   -3.12 KCAL/MOL
REMARK 922        TOTAL FREE ENERGY PREDICTED BY IDOCK:   -2.79 KCAL/MOL
REMARK 923 INTER-LIGAND FREE ENERGY PREDICTED BY IDOCK:   -3.44 KCAL/MOL
REMARK 924 INTRA-LIGAND FREE ENERGY PREDICTED BY IDOCK:    0.65 KCAL/MOL
REMARK 927      BINDING AFFINITY PREDICTED BY RF-SCORE:    0.00 PKD
ROOT
HETATM    1  C   UNL     1      -7.646  16.897  67.060  1.00  0.00    -0.230 C  
HETATM    2  C   UNL     1      -8.258  16.379  65.892  1.00  0.00     0.179 C  
HETATM    3  C   UNL     1      -8.815  17.694  66.319  1.00  0.00    -0.209 C  
HETATM    4  C   UNL     1      -7.871  18.705  67.854  1.00  0.00    -0.257 C  
HETATM    5  O   UNL     1      -6.522  18.281  68.321  1.00  0.00    -0.193 OA 
HETATM    6  C   UNL     1     -12.730  16.321  68.456  1.00  0.00     1.985 C  
HETATM    7  C   UNL     1      -7.811  18.759  66.506  1.00  0.00    -0.286 C  
HETATM    8  C   UNL     1      -9.536  19.555  66.910  1.00  0.00    -0.440 C  
HETATM    9  C   UNL     1      -6.757  19.205  65.501  1.00  0.00    -0.300 C  
HETATM   10  C   UNL     1     -11.370  16.152  69.241  1.00  0.00    -0.328 C  
HETATM   11  C   UNL     1     -11.707  16.452  70.727  1.00  0.00    -0.077 C  
HETATM   12  H   UNL     1      -6.088  18.746  69.027  1.00  0.00     0.000 HD 
HETATM   13  C   UNL     1     -10.390  18.618  68.208  1.00  0.00    -0.344 C  
HETATM   14  C   UNL     1     -12.562  15.297  71.393  1.00  0.00    -0.444 C  
HETATM   15  O   UNL     1     -12.241  12.896  71.689  1.00  0.00     0.074 OA 
HETATM   16  O   UNL     1     -10.024  19.240  69.456  1.00  0.00    -0.412 OA 
HETATM   17  C   UNL     1     -10.271  16.913  68.348  1.00  0.00    -0.322 C  
HETATM   18  H   UNL     1     -10.471  18.750  70.135  1.00  0.00     0.000 HD 
HETATM   19  C   UNL     1      -8.695  16.437  68.456  1.00  0.00    -0.223 C  
HETATM   20  F   UNL     1     -10.686  16.329  67.138  1.00  0.00    -0.308 F  
HETATM   21  C   UNL     1      -8.561  14.920  68.663  1.00  0.00    -0.168 C  
HETATM   22  C   UNL     1      -9.507  14.423  69.740  1.00  0.00     0.657 C  
HETATM   23  C   UNL     1     -10.933  14.672  69.300  1.00  0.00    -0.278 C  
HETATM   24  C   UNL     1     -11.848  13.702  69.495  1.00  0.00    -0.394 C  
HETATM   25  C   UNL     1     -12.188  13.873  70.953  1.00  0.00    -0.361 C  
ENDROOT
BRANCH   4  26
HETATM   26  C   UNL     1      -7.407  20.329  68.053  1.00  0.00    -0.250 C  
HETATM   27  O   UNL     1      -7.652  21.284  67.296  1.00  0.00    -0.408 OA 
BRANCH  26  28
HETATM   28  C   UNL     1      -6.520  20.681  69.249  1.00  0.00    -0.016 C  
HETATM   29  O   UNL     1      -6.937  19.939  70.407  1.00  0.00    -0.091 OA 
HETATM   30  H   UNL     1      -6.386  20.158  71.149  1.00  0.00     0.000 HD 
ENDBRANCH  26  28
ENDBRANCH   4  26
TORSDOF 2
ENDMDL
MODEL       93
REMARK 921   NORMALIZED FREE ENERGY PREDICTED BY IDOCK:   -3.05 KCAL/MOL
REMARK 922        TOTAL FREE ENERGY PREDICTED BY IDOCK:   -2.71 KCAL/MOL
REMARK 923 INTER-LIGAND FREE ENERGY PREDICTED BY IDOCK:   -3.29 KCAL/MOL
REMARK 924 INTRA-LIGAND FREE ENERGY PREDICTED BY IDOCK:    0.58 KCAL/MOL
REMARK 927      BINDING AFFINITY PREDICTED BY RF-SCORE:    0.00 PKD
ROOT
HETATM    1  C   UNL     1      -7.349   8.159  67.960  1.00  0.00    -0.096 C  
HETATM    2  C   UNL     1      -7.821   8.840  66.811  1.00  0.00    -0.097 C  
HETATM    3  C   UNL     1      -8.912   8.371  67.710  1.00  0.00    -0.140 C  
HETATM    4  C   UNL     1      -8.396   7.583  69.549  1.00  0.00    -0.131 C  
HETATM    5  O   UNL     1      -7.012   7.740  70.077  1.00  0.00    -0.049 OA 
HETATM    6  C   UNL     1     -10.291   4.519  65.466  1.00  0.00    -0.254 C  
HETATM    7  C   UNL     1      -8.782   8.801  69.116  1.00  0.00    -0.136 C  
HETATM    8  C   UNL     1     -10.413   7.751  69.013  1.00  0.00    -0.215 C  
HETATM    9  C   UNL     1      -8.585  10.226  69.618  1.00  0.00    -0.126 C  
HETATM   10  C   UNL     1      -8.963   4.435  66.316  1.00  0.00    -0.120 C  
HETATM   11  C   UNL     1      -8.956   3.011  66.936  1.00  0.00    -0.178 C  
HETATM   12  H   UNL     1      -6.774   7.378  70.922  1.00  0.00     0.000 HD 
HETATM   13  C   UNL     1     -10.075   6.101  68.340  1.00  0.00    -0.158 C  
HETATM   14  C   UNL     1      -8.671   1.888  65.856  1.00  0.00    -0.116 C  
HETATM   15  O   UNL     1      -6.868   1.477  64.264  1.00  0.00    -0.028 OA 
HETATM   16  O   UNL     1      -9.824   5.250  69.477  1.00  0.00    -0.163 OA 
HETATM   17  C   UNL     1      -8.894   5.821  67.128  1.00  0.00    -0.107 C  
HETATM   18  H   UNL     1      -9.647   4.386  69.125  1.00  0.00     0.000 HD 
HETATM   19  C   UNL     1      -7.419   6.392  67.596  1.00  0.00    -0.093 C  
HETATM   20  F   UNL     1      -9.194   6.620  66.012  1.00  0.00    -0.169 F  
HETATM   21  C   UNL     1      -6.324   6.082  66.563  1.00  0.00    -0.045 C  
HETATM   22  C   UNL     1      -6.390   4.638  66.102  1.00  0.00    -0.036 C  
HETATM   23  C   UNL     1      -7.715   4.399  65.410  1.00  0.00    -0.086 C  
HETATM   24  C   UNL     1      -7.725   3.686  64.266  1.00  0.00    -0.080 C  
HETATM   25  C   UNL     1      -7.649   2.269  64.774  1.00  0.00    -0.068 C  
ENDROOT
BRANCH   4  26
HETATM   26  C   UNL     1      -9.000   7.823  71.120  1.00  0.00    -0.138 C  
HETATM   27  O   UNL     1      -9.650   8.797  71.539  1.00  0.00    -0.231 OA 
BRANCH  26  28
HETATM   28  C   UNL     1      -8.659   6.783  72.188  1.00  0.00    -0.117 C  
HETATM   29  O   UNL     1      -7.978   5.668  71.590  1.00  0.00    -0.112 OA 
HETATM   30  H   UNL     1      -7.766   5.022  72.253  1.00  0.00     0.000 HD 
ENDBRANCH  26  28
ENDBRANCH   4  26
TORSDOF 2
ENDMDL
MODEL       94
REMARK 921   NORMALIZED FREE ENERGY PREDICTED BY IDOCK:   -2.58 KCAL/MOL
REMARK 922        TOTAL FREE ENERGY PREDICTED BY IDOCK:   -2.19 KCAL/MOL
REMARK 923 INTER-LIGAND FREE ENERGY PREDICTED BY IDOCK:   -4.15 KCAL/MOL
REMARK 924 INTRA-LIGAND FREE ENERGY PREDICTED BY IDOCK:    1.95 KCAL/MOL
REMARK 927      BINDING AFFINITY PREDICTED BY RF-SCORE:    0.00 PKD
ROOT
HETATM    1  C   UNL     1      -9.224   9.035  69.000  1.00  0.00    -0.140 C  
HETATM    2  C   UNL     1     -10.565   8.625  69.199  1.00  0.00    -0.193 C  
HETATM    3  C   UNL     1      -9.999   8.184  67.893  1.00  0.00    -0.225 C  
HETATM    4  C   UNL     1      -7.983   8.482  67.549  1.00  0.00    -0.106 C  
HETATM    5  O   UNL     1      -7.073   8.856  68.667  1.00  0.00    -0.069 OA 
HETATM    6  C   UNL     1     -11.852  11.368  65.028  1.00  0.00     0.327 C  
HETATM    7  C   UNL     1      -8.726   7.444  67.990  1.00  0.00    -0.124 C  
HETATM    8  C   UNL     1      -9.164   7.538  66.099  1.00  0.00    -0.156 C  
HETATM    9  C   UNL     1      -8.446   6.221  68.853  1.00  0.00    -0.120 C  
HETATM   10  C   UNL     1     -10.618  11.807  65.909  1.00  0.00    -0.314 C  
HETATM   11  C   UNL     1      -9.787  12.766  65.013  1.00  0.00    -0.077 C  
HETATM   12  H   UNL     1      -6.146   8.992  68.509  1.00  0.00     0.000 HD 
HETATM   13  C   UNL     1      -9.389   9.260  65.575  1.00  0.00    -0.238 C  
HETATM   14  C   UNL     1     -10.502  14.165  64.811  1.00  0.00    -0.432 C  
HETATM   15  O   UNL     1     -11.326  15.890  66.328  1.00  0.00    -0.005 OA 
HETATM   16  O   UNL     1      -8.101   9.705  65.104  1.00  0.00    -0.115 OA 
HETATM   17  C   UNL     1     -10.085  10.453  66.592  1.00  0.00    -0.224 C  
HETATM   18  H   UNL     1      -8.219  10.606  64.829  1.00  0.00     0.000 HD 
HETATM   19  C   UNL     1      -9.274  10.554  68.025  1.00  0.00    -0.143 C  
HETATM   20  F   UNL     1     -11.361  10.019  66.991  1.00  0.00    -0.230 F  
HETATM   21  C   UNL     1      -9.826  11.672  68.924  1.00  0.00    -0.057 C  
HETATM   22  C   UNL     1     -10.021  12.961  68.149  1.00  0.00    -0.234 C  
HETATM   23  C   UNL     1     -11.050  12.735  67.063  1.00  0.00    -0.316 C  
HETATM   24  C   UNL     1     -11.991  13.679  66.860  1.00  0.00    -0.454 C  
HETATM   25  C   UNL     1     -11.244  14.703  66.044  1.00  0.00    -0.342 C  
ENDROOT
BRANCH   4  26
HETATM   26  C   UNL     1      -6.761   7.485  66.914  1.00  0.00    -0.066 C  
HETATM   27  O   UNL     1      -5.746   7.068  67.498  1.00  0.00    -0.022 OA 
BRANCH  26  28
HETATM   28  C   UNL     1      -6.843   7.100  65.436  1.00  0.00    -0.052 C  
HETATM   29  O   UNL     1      -5.680   6.346  65.058  1.00  0.00    -0.021 OA 
HETATM   30  H   UNL     1      -5.731   6.106  64.141  1.00  0.00     0.000 HD 
ENDBRANCH  26  28
ENDBRANCH   4  26
TORSDOF 2
ENDMDL
MODEL       95
REMARK 921   NORMALIZED FREE ENERGY PREDICTED BY IDOCK:   -2.27 KCAL/MOL
REMARK 922        TOTAL FREE ENERGY PREDICTED BY IDOCK:   -1.85 KCAL/MOL
REMARK 923 INTER-LIGAND FREE ENERGY PREDICTED BY IDOCK:   -3.55 KCAL/MOL
REMARK 924 INTRA-LIGAND FREE ENERGY PREDICTED BY IDOCK:    1.70 KCAL/MOL
REMARK 927      BINDING AFFINITY PREDICTED BY RF-SCORE:    0.00 PKD
ROOT
HETATM    1  C   UNL     1     -10.710   9.494  68.903  1.00  0.00    -0.220 C  
HETATM    2  C   UNL     1     -10.225   9.925  70.162  1.00  0.00    -0.326 C  
HETATM    3  C   UNL     1      -9.651  10.684  69.015  1.00  0.00    -0.207 C  
HETATM    4  C   UNL     1     -10.434  10.354  67.132  1.00  0.00    -0.256 C  
HETATM    5  O   UNL     1     -11.711   9.605  66.965  1.00  0.00     0.522 OA 
HETATM    6  C   UNL     1      -5.488   8.616  68.604  1.00  0.00    -0.037 C  
HETATM    7  C   UNL     1     -10.650  11.269  68.100  1.00  0.00    -0.225 C  
HETATM    8  C   UNL     1      -8.907  11.761  67.397  1.00  0.00    -0.164 C  
HETATM    9  C   UNL     1     -11.821  12.164  68.482  1.00  0.00    -0.365 C  
HETATM   10  C   UNL     1      -6.745   7.851  68.032  1.00  0.00    -0.067 C  
HETATM   11  C   UNL     1      -6.246   7.135  66.746  1.00  0.00    -0.039 C  
HETATM   12  H   UNL     1     -12.071   9.453  66.099  1.00  0.00     0.000 HD 
HETATM   13  C   UNL     1      -7.890  10.288  67.106  1.00  0.00    -0.110 C  
HETATM   14  C   UNL     1      -5.295   5.911  67.072  1.00  0.00    -0.005 C  
HETATM   15  O   UNL     1      -5.528   3.885  68.412  1.00  0.00    -0.012 OA 
HETATM   16  O   UNL     1      -8.124   9.906  65.736  1.00  0.00    -0.116 OA 
HETATM   17  C   UNL     1      -7.955   8.905  68.118  1.00  0.00    -0.102 C  
HETATM   18  H   UNL     1      -7.591   9.134  65.583  1.00  0.00     0.000 HD 
HETATM   19  C   UNL     1      -9.497   8.332  68.238  1.00  0.00    -0.146 C  
HETATM   20  F   UNL     1      -7.669   9.296  69.438  1.00  0.00    -0.072 F  
HETATM   21  C   UNL     1      -9.573   7.045  69.074  1.00  0.00    -0.141 C  
HETATM   22  C   UNL     1      -8.500   6.054  68.665  1.00  0.00    -0.113 C  
HETATM   23  C   UNL     1      -7.139   6.661  68.932  1.00  0.00    -0.085 C  
HETATM   24  C   UNL     1      -6.187   5.888  69.492  1.00  0.00    -0.030 C  
HETATM   25  C   UNL     1      -5.686   5.094  68.314  1.00  0.00    -0.016 C  
ENDROOT
BRANCH   4  26
HETATM   26  C   UNL     1     -10.907  11.399  65.878  1.00  0.00    -0.234 C  
HETATM   27  O   UNL     1     -10.479  11.423  64.711  1.00  0.00    -0.276 OA 
BRANCH  26  28
HETATM   28  C   UNL     1     -11.916  12.502  66.204  1.00  0.00    -0.366 C  
HETATM   29  O   UNL     1     -11.995  13.435  65.114  1.00  0.00    -0.343 OA 
HETATM   30  H   UNL     1     -12.621  14.120  65.316  1.00  0.00     0.000 HD 
ENDBRANCH  26  28
ENDBRANCH   4  26
TORSDOF 2
ENDMDL
MODEL       96
REMARK 921   NORMALIZED FREE ENERGY PREDICTED BY IDOCK:   -2.24 KCAL/MOL
REMARK 922        TOTAL FREE ENERGY PREDICTED BY IDOCK:   -1.81 KCAL/MOL
REMARK 923 INTER-LIGAND FREE ENERGY PREDICTED BY IDOCK:   -3.49 KCAL/MOL
REMARK 924 INTRA-LIGAND FREE ENERGY PREDICTED BY IDOCK:    1.68 KCAL/MOL
REMARK 927      BINDING AFFINITY PREDICTED BY RF-SCORE:    0.00 PKD
ROOT
HETATM    1  C   UNL     1      -6.640   5.435  69.107  1.00  0.00    -0.051 C  
HETATM    2  C   UNL     1      -5.472   6.216  69.288  1.00  0.00    -0.012 C  
HETATM    3  C   UNL     1      -6.584   6.594  70.205  1.00  0.00    -0.045 C  
HETATM    4  C   UNL     1      -8.269   5.398  70.246  1.00  0.00    -0.101 C  
HETATM    5  O   UNL     1      -8.257   4.054  69.603  1.00  0.00    -0.058 OA 
HETATM    6  C   UNL     1      -8.251  10.373  68.032  1.00  0.00    -0.114 C  
HETATM    7  C   UNL     1      -7.145   5.477  70.989  1.00  0.00    -0.069 C  
HETATM    8  C   UNL     1      -8.138   7.064  71.508  1.00  0.00    -0.104 C  
HETATM    9  C   UNL     1      -6.370   4.498  71.863  1.00  0.00    -0.022 C  
HETATM   10  C   UNL     1      -8.637   8.960  67.443  1.00  0.00    -0.119 C  
HETATM   11  C   UNL     1     -10.098   9.105  66.937  1.00  0.00    -0.328 C  
HETATM   12  H   UNL     1      -9.031   3.504  69.622  1.00  0.00     0.000 HD 
HETATM   13  C   UNL     1      -8.881   7.861  70.058  1.00  0.00    -0.141 C  
HETATM   14  C   UNL     1     -10.194   9.993  65.629  1.00  0.00    -0.258 C  
HETATM   15  O   UNL     1      -9.174   9.877  63.415  1.00  0.00    -0.260 OA 
HETATM   16  O   UNL     1     -10.205   7.305  69.932  1.00  0.00    -0.197 OA 
HETATM   17  C   UNL     1      -8.112   7.894  68.525  1.00  0.00    -0.123 C  
HETATM   18  H   UNL     1     -10.595   7.722  69.173  1.00  0.00     0.000 HD 
HETATM   19  C   UNL     1      -7.738   6.370  68.019  1.00  0.00    -0.104 C  
HETATM   20  F   UNL     1      -6.847   8.490  68.666  1.00  0.00    -0.058 F  
HETATM   21  C   UNL     1      -7.120   6.363  66.611  1.00  0.00    -0.069 C  
HETATM   22  C   UNL     1      -7.914   7.232  65.654  1.00  0.00    -0.123 C  
HETATM   23  C   UNL     1      -7.870   8.666  66.136  1.00  0.00    -0.098 C  
HETATM   24  C   UNL     1      -7.670   9.645  65.231  1.00  0.00    -0.115 C  
HETATM   25  C   UNL     1      -9.042   9.808  64.629  1.00  0.00    -0.245 C  
ENDROOT
BRANCH   4  26
HETATM   26  C   UNL     1      -9.201   4.760  71.516  1.00  0.00    -0.142 C  
HETATM   27  O   UNL     1      -9.647   3.604  71.620  1.00  0.00    -0.135 OA 
BRANCH  26  28
HETATM   28  C   UNL     1      -9.626   5.705  72.641  1.00  0.00    -0.150 C  
HETATM   29  O   UNL     1     -11.056   5.845  72.651  1.00  0.00    -0.249 OA 
HETATM   30  H   UNL     1     -11.321   6.432  73.350  1.00  0.00     0.000 HD 
ENDBRANCH  26  28
ENDBRANCH   4  26
TORSDOF 2
ENDMDL
MODEL       97
REMARK 921   NORMALIZED FREE ENERGY PREDICTED BY IDOCK:   -2.04 KCAL/MOL
REMARK 922        TOTAL FREE ENERGY PREDICTED BY IDOCK:   -1.59 KCAL/MOL
REMARK 923 INTER-LIGAND FREE ENERGY PREDICTED BY IDOCK:   -2.75 KCAL/MOL
REMARK 924 INTRA-LIGAND FREE ENERGY PREDICTED BY IDOCK:    1.16 KCAL/MOL
REMARK 927      BINDING AFFINITY PREDICTED BY RF-SCORE:    0.00 PKD
ROOT
HETATM    1  C   UNL     1     -10.686  15.695  67.135  1.00  0.00    -0.314 C  
HETATM    2  C   UNL     1      -9.957  16.629  66.359  1.00  0.00    -0.316 C  
HETATM    3  C   UNL     1      -9.790  15.220  65.901  1.00  0.00    -0.385 C  
HETATM    4  C   UNL     1     -10.976  13.764  66.763  1.00  0.00    -0.304 C  
HETATM    5  O   UNL     1     -12.150  14.142  67.598  1.00  0.00    -0.481 OA 
HETATM    6  C   UNL     1      -5.641  14.187  67.771  1.00  0.00    -0.049 C  
HETATM    7  C   UNL     1     -11.053  14.503  65.637  1.00  0.00    -0.327 C  
HETATM    8  C   UNL     1      -9.619  13.249  65.254  1.00  0.00     0.138 C  
HETATM    9  C   UNL     1     -12.192  14.966  64.738  1.00  0.00    -0.291 C  
HETATM   10  C   UNL     1      -6.897  14.186  68.729  1.00  0.00    -0.101 C  
HETATM   11  C   UNL     1      -6.653  13.025  69.732  1.00  0.00     0.069 C  
HETATM   12  H   UNL     1     -12.695  13.472  67.995  1.00  0.00     0.000 HD 
HETATM   13  C   UNL     1      -8.533  13.053  66.693  1.00  0.00     0.106 C  
HETATM   14  C   UNL     1      -5.506  13.361  70.771  1.00  0.00    -0.166 C  
HETATM   15  O   UNL     1      -5.138  15.160  72.378  1.00  0.00    -0.177 OA 
HETATM   16  O   UNL     1      -9.056  11.935  67.437  1.00  0.00    -0.170 OA 
HETATM   17  C   UNL     1      -8.168  14.347  67.758  1.00  0.00    -0.168 C  
HETATM   18  H   UNL     1      -8.487  11.832  68.191  1.00  0.00     0.000 HD 
HETATM   19  C   UNL     1      -9.546  15.022  68.363  1.00  0.00    -0.212 C  
HETATM   20  F   UNL     1      -7.609  15.401  67.016  1.00  0.00    -0.208 F  
HETATM   21  C   UNL     1      -9.247  16.131  69.384  1.00  0.00    -0.170 C  
HETATM   22  C   UNL     1      -8.196  15.693  70.387  1.00  0.00     1.316 C  
HETATM   23  C   UNL     1      -6.899  15.419  69.657  1.00  0.00    -0.185 C  
HETATM   24  C   UNL     1      -5.748  15.864  70.199  1.00  0.00    -0.166 C  
HETATM   25  C   UNL     1      -5.466  14.821  71.249  1.00  0.00    -0.100 C  
ENDROOT
BRANCH   4  26
HETATM   26  C   UNL     1     -11.877  12.476  66.116  1.00  0.00    -0.397 C  
HETATM   27  O   UNL     1     -12.520  12.462  65.052  1.00  0.00    -0.549 OA 
BRANCH  26  28
HETATM   28  C   UNL     1     -11.999  11.196  66.945  1.00  0.00     1.016 C  
HETATM   29  O   UNL     1     -10.886  10.328  66.677  1.00  0.00    -0.159 OA 
HETATM   30  H   UNL     1     -10.961   9.533  67.192  1.00  0.00     0.000 HD 
ENDBRANCH  26  28
ENDBRANCH   4  26
TORSDOF 2
ENDMDL
MODEL       98
REMARK 921   NORMALIZED FREE ENERGY PREDICTED BY IDOCK:   -1.72 KCAL/MOL
REMARK 922        TOTAL FREE ENERGY PREDICTED BY IDOCK:   -1.23 KCAL/MOL
REMARK 923 INTER-LIGAND FREE ENERGY PREDICTED BY IDOCK:   -2.23 KCAL/MOL
REMARK 924 INTRA-LIGAND FREE ENERGY PREDICTED BY IDOCK:    1.00 KCAL/MOL
REMARK 927      BINDING AFFINITY PREDICTED BY RF-SCORE:    0.00 PKD
ROOT
HETATM    1  C   UNL     1      -8.305  15.309  67.904  1.00  0.00    -0.152 C  
HETATM    2  C   UNL     1      -9.364  15.679  68.768  1.00  0.00    -0.213 C  
HETATM    3  C   UNL     1      -8.865  14.295  69.004  1.00  0.00     0.062 C  
HETATM    4  C   UNL     1      -7.163  13.684  68.004  1.00  0.00    -0.130 C  
HETATM    5  O   UNL     1      -6.305  14.676  67.298  1.00  0.00    -0.303 OA 
HETATM    6  C   UNL     1     -12.126  11.807  66.779  1.00  0.00     0.419 C  
HETATM    7  C   UNL     1      -7.410  14.194  69.229  1.00  0.00    -0.016 C  
HETATM    8  C   UNL     1      -8.111  12.385  69.345  1.00  0.00     0.880 C  
HETATM    9  C   UNL     1      -6.589  14.974  70.247  1.00  0.00    -0.068 C  
HETATM   10  C   UNL     1     -11.025  12.521  65.901  1.00  0.00    -0.314 C  
HETATM   11  C   UNL     1     -10.733  11.547  64.727  1.00  0.00    -0.366 C  
HETATM   12  H   UNL     1      -5.522  14.395  66.838  1.00  0.00     0.000 HD 
HETATM   13  C   UNL     1      -9.016  11.947  67.836  1.00  0.00    -0.179 C  
HETATM   14  C   UNL     1     -11.926  11.486  63.688  1.00  0.00    -0.203 C  
HETATM   15  O   UNL     1     -13.100  13.152  62.345  1.00  0.00     1.040 OA 
HETATM   16  O   UNL     1      -8.056  11.316  66.965  1.00  0.00    -0.136 OA 
HETATM   17  C   UNL     1      -9.948  13.085  66.953  1.00  0.00    -0.243 C  
HETATM   18  H   UNL     1      -8.530  11.086  66.174  1.00  0.00     0.000 HD 
HETATM   19  C   UNL     1      -9.038  14.394  66.530  1.00  0.00    -0.233 C  
HETATM   20  F   UNL     1     -10.910  13.644  67.811  1.00  0.00    -0.241 F  
HETATM   21  C   UNL     1      -9.826  15.393  65.668  1.00  0.00    -0.387 C  
HETATM   22  C   UNL     1     -10.581  14.690  64.556  1.00  0.00    -0.090 C  
HETATM   23  C   UNL     1     -11.599  13.751  65.166  1.00  0.00    -0.341 C  
HETATM   24  C   UNL     1     -12.837  13.707  64.633  1.00  0.00    -0.090 C  
HETATM   25  C   UNL     1     -12.633  12.825  63.428  1.00  0.00    -0.212 C  
ENDROOT
BRANCH   4  26
HETATM   26  C   UNL     1      -5.764  12.858  68.503  1.00  0.00    -0.067 C  
HETATM   27  O   UNL     1      -5.125  13.021  69.558  1.00  0.00    -0.075 OA 
BRANCH  26  28
HETATM   28  C   UNL     1      -5.144  11.846  67.538  1.00  0.00    -0.076 C  
HETATM   29  O   UNL     1      -5.725  11.992  66.232  1.00  0.00    -0.493 OA 
HETATM   30  H   UNL     1      -5.339  11.364  65.632  1.00  0.00     0.000 HD 
ENDBRANCH  26  28
ENDBRANCH   4  26
TORSDOF 2
ENDMDL
MODEL       99
REMARK 921   NORMALIZED FREE ENERGY PREDICTED BY IDOCK:   -1.37 KCAL/MOL
REMARK 922        TOTAL FREE ENERGY PREDICTED BY IDOCK:   -0.84 KCAL/MOL
REMARK 923 INTER-LIGAND FREE ENERGY PREDICTED BY IDOCK:   -1.66 KCAL/MOL
REMARK 924 INTRA-LIGAND FREE ENERGY PREDICTED BY IDOCK:    0.82 KCAL/MOL
REMARK 927      BINDING AFFINITY PREDICTED BY RF-SCORE:    0.00 PKD
ROOT
HETATM    1  C   UNL     1     -12.032  13.803  69.162  1.00  0.00    -0.403 C  
HETATM    2  C   UNL     1     -12.560  14.205  67.911  1.00  0.00     0.500 C  
HETATM    3  C   UNL     1     -11.491  13.173  67.798  1.00  0.00    -0.352 C  
HETATM    4  C   UNL     1     -10.788  12.297  69.532  1.00  0.00     0.149 C  
HETATM    5  O   UNL     1     -11.519  12.475  70.818  1.00  0.00    -0.112 OA 
HETATM    6  C   UNL     1      -7.841  15.835  66.625  1.00  0.00    -0.192 C  
HETATM    7  C   UNL     1     -11.714  11.961  68.609  1.00  0.00    -0.380 C  
HETATM    8  C   UNL     1     -10.031  11.694  67.676  1.00  0.00    -0.201 C  
HETATM    9  C   UNL     1     -12.960  11.085  68.615  1.00  0.00     2.557 C  
HETATM   10  C   UNL     1      -8.288  15.831  68.140  1.00  0.00    -0.160 C  
HETATM   11  C   UNL     1      -6.973  15.925  68.962  1.00  0.00    -0.156 C  
HETATM   12  H   UNL     1     -11.196  12.072  71.616  1.00  0.00     0.000 HD 
HETATM   13  C   UNL     1      -8.877  13.048  68.029  1.00  0.00    -0.191 C  
HETATM   14  C   UNL     1      -6.308  17.359  68.867  1.00  0.00    -0.202 C  
HETATM   15  O   UNL     1      -7.071  19.625  69.357  1.00  0.00    -0.357 OA 
HETATM   16  O   UNL     1      -8.097  12.620  69.164  1.00  0.00    -0.313 OA 
HETATM   17  C   UNL     1      -9.392  14.668  68.251  1.00  0.00    -0.199 C  
HETATM   18  H   UNL     1      -7.492  13.329  69.349  1.00  0.00     0.000 HD 
HETATM   19  C   UNL     1     -10.532  14.769  69.439  1.00  0.00    -0.210 C  
HETATM   20  F   UNL     1     -10.102  15.078  67.109  1.00  0.00    -0.233 F  
HETATM   21  C   UNL     1     -10.954  16.221  69.715  1.00  0.00    -0.354 C  
HETATM   22  C   UNL     1      -9.748  17.134  69.837  1.00  0.00     0.785 C  
HETATM   23  C   UNL     1      -9.002  17.146  68.521  1.00  0.00    -0.265 C  
HETATM   24  C   UNL     1      -8.554  18.325  68.044  1.00  0.00    -0.280 C  
HETATM   25  C   UNL     1      -7.296  18.536  68.846  1.00  0.00    -0.266 C  
ENDROOT
BRANCH   4  26
HETATM   26  C   UNL     1     -10.465  10.684  69.962  1.00  0.00    -0.009 C  
HETATM   27  O   UNL     1      -9.613   9.926  69.469  1.00  0.00    -0.199 OA 
BRANCH  26  28
HETATM   28  C   UNL     1     -11.357  10.030  71.019  1.00  0.00    -0.357 C  
HETATM   29  O   UNL     1     -11.389   8.607  70.824  1.00  0.00    -0.261 OA 
HETATM   30  H   UNL     1     -11.943   8.200  71.480  1.00  0.00     0.000 HD 
ENDBRANCH  26  28
ENDBRANCH   4  26
TORSDOF 2
ENDMDL
MODEL      100
REMARK 921   NORMALIZED FREE ENERGY PREDICTED BY IDOCK:   -1.18 KCAL/MOL
REMARK 922        TOTAL FREE ENERGY PREDICTED BY IDOCK:   -0.63 KCAL/MOL
REMARK 923 INTER-LIGAND FREE ENERGY PREDICTED BY IDOCK:   -1.65 KCAL/MOL
REMARK 924 INTRA-LIGAND FREE ENERGY PREDICTED BY IDOCK:    1.02 KCAL/MOL
REMARK 927      BINDING AFFINITY PREDICTED BY RF-SCORE:    0.00 PKD
ROOT
HETATM    1  C   UNL     1      -8.006  15.520  68.225  1.00  0.00    -0.132 C  
HETATM    2  C   UNL     1      -7.286  15.271  67.030  1.00  0.00    -0.072 C  
HETATM    3  C   UNL     1      -8.680  14.744  67.001  1.00  0.00    -0.258 C  
HETATM    4  C   UNL     1      -9.945  15.236  68.559  1.00  0.00    -0.222 C  
HETATM    5  O   UNL     1      -9.574  16.308  69.524  1.00  0.00    -0.216 OA 
HETATM    6  C   UNL     1      -7.917  10.227  67.891  1.00  0.00    -0.102 C  
HETATM    7  C   UNL     1      -9.722  15.737  67.326  1.00  0.00    -0.223 C  
HETATM    8  C   UNL     1     -10.648  14.066  66.971  1.00  0.00    -0.279 C  
HETATM    9  C   UNL     1      -9.916  17.101  66.675  1.00  0.00    -0.298 C  
HETATM   10  C   UNL     1      -7.859  11.232  69.108  1.00  0.00    -0.020 C  
HETATM   11  C   UNL     1      -8.467  10.463  70.313  1.00  0.00     0.623 C  
HETATM   12  H   UNL     1     -10.156  16.534  70.241  1.00  0.00     0.000 HD 
HETATM   13  C   UNL     1     -10.026  12.744  68.047  1.00  0.00    -0.225 C  
HETATM   14  C   UNL     1      -7.504   9.323  70.843  1.00  0.00    -0.123 C  
HETATM   15  O   UNL     1      -5.202   9.280  71.653  1.00  0.00    -0.045 OA 
HETATM   16  O   UNL     1     -10.875  12.747  69.212  1.00  0.00    -0.423 OA 
HETATM   17  C   UNL     1      -8.381  12.635  68.520  1.00  0.00    -0.060 C  
HETATM   18  H   UNL     1     -10.549  12.055  69.776  1.00  0.00     0.000 HD 
HETATM   19  C   UNL     1      -7.879  14.031  69.240  1.00  0.00     0.202 C  
HETATM   20  F   UNL     1      -7.581  12.578  67.366  1.00  0.00    -0.123 F  
HETATM   21  C   UNL     1      -6.431  13.932  69.747  1.00  0.00    -0.095 C  
HETATM   22  C   UNL     1      -6.198  12.641  70.509  1.00  0.00     0.211 C  
HETATM   23  C   UNL     1      -6.407  11.470  69.574  1.00  0.00    -0.116 C  
HETATM   24  C   UNL     1      -5.531  10.446  69.617  1.00  0.00    -0.038 C  
HETATM   25  C   UNL     1      -6.007   9.670  70.818  1.00  0.00    -0.077 C  
ENDROOT
BRANCH   4  26
HETATM   26  C   UNL     1     -11.557  15.775  68.612  1.00  0.00    -0.386 C  
HETATM   27  O   UNL     1     -12.229  16.241  67.675  1.00  0.00     0.760 OA 
BRANCH  26  28
HETATM   28  C   UNL     1     -12.270  15.776  69.964  1.00  0.00    -0.285 C  
HETATM   29  O   UNL     1     -13.649  16.142  69.793  1.00  0.00     0.370 OA 
HETATM   30  H   UNL     1     -14.093  16.143  70.633  1.00  0.00     0.000 HD 
ENDBRANCH  26  28
ENDBRANCH   4  26
TORSDOF 2
ENDMDL
MODEL      101
REMARK 921   NORMALIZED FREE ENERGY PREDICTED BY IDOCK:   -0.88 KCAL/MOL
REMARK 922        TOTAL FREE ENERGY PREDICTED BY IDOCK:   -0.29 KCAL/MOL
REMARK 923 INTER-LIGAND FREE ENERGY PREDICTED BY IDOCK:   -1.09 KCAL/MOL
REMARK 924 INTRA-LIGAND FREE ENERGY PREDICTED BY IDOCK:    0.79 KCAL/MOL
REMARK 927      BINDING AFFINITY PREDICTED BY RF-SCORE:    0.00 PKD
ROOT
HETATM    1  C   UNL     1      -8.345  15.522  67.988  1.00  0.00    -0.142 C  
HETATM    2  C   UNL     1      -7.804  16.338  66.964  1.00  0.00    -0.253 C  
HETATM    3  C   UNL     1      -9.234  16.634  67.263  1.00  0.00    -0.228 C  
HETATM    4  C   UNL     1     -10.105  15.710  68.894  1.00  0.00    -0.217 C  
HETATM    5  O   UNL     1      -9.264  15.003  69.900  1.00  0.00    -0.460 OA 
HETATM    6  C   UNL     1     -11.336  14.380  63.759  1.00  0.00     0.595 C  
HETATM    7  C   UNL     1      -9.523  16.910  68.683  1.00  0.00    -0.268 C  
HETATM    8  C   UNL     1     -11.215  17.059  67.740  1.00  0.00     0.049 C  
HETATM    9  C   UNL     1      -8.825  17.929  69.574  1.00  0.00     0.689 C  
HETATM   10  C   UNL     1     -10.809  13.518  64.972  1.00  0.00    -0.348 C  
HETATM   11  C   UNL     1     -11.855  12.385  65.162  1.00  0.00    -0.437 C  
HETATM   12  H   UNL     1      -9.665  14.579  70.649  1.00  0.00     0.000 HD 
HETATM   13  C   UNL     1     -11.580  15.535  66.827  1.00  0.00     0.132 C  
HETATM   14  C   UNL     1     -11.791  11.309  64.002  1.00  0.00     0.278 C  
HETATM   15  O   UNL     1     -10.031   9.876  63.105  1.00  0.00     0.249 OA 
HETATM   16  O   UNL     1     -12.366  14.717  67.717  1.00  0.00    -0.602 OA 
HETATM   17  C   UNL     1     -10.359  14.587  66.085  1.00  0.00    -0.297 C  
HETATM   18  H   UNL     1     -12.558  13.919  67.239  1.00  0.00     0.000 HD 
HETATM   19  C   UNL     1      -9.202  14.153  67.177  1.00  0.00    -0.237 C  
HETATM   20  F   UNL     1      -9.645  15.394  65.183  1.00  0.00    -0.287 F  
HETATM   21  C   UNL     1      -8.136  13.235  66.557  1.00  0.00     0.620 C  
HETATM   22  C   UNL     1      -8.770  12.121  65.745  1.00  0.00     0.367 C  
HETATM   23  C   UNL     1      -9.540  12.726  64.592  1.00  0.00     0.239 C  
HETATM   24  C   UNL     1      -9.436  12.153  63.376  1.00  0.00     0.200 C  
HETATM   25  C   UNL     1     -10.379  10.984  63.492  1.00  0.00    -0.340 C  
ENDROOT
BRANCH   4  26
HETATM   26  C   UNL     1     -11.095  16.282  70.152  1.00  0.00    -0.341 C  
HETATM   27  O   UNL     1     -10.973  17.344  70.787  1.00  0.00     0.645 OA 
BRANCH  26  28
HETATM   28  C   UNL     1     -12.228  15.379  70.641  1.00  0.00    -0.385 C  
HETATM   29  O   UNL     1     -11.918  14.004  70.362  1.00  0.00    -0.305 OA 
HETATM   30  H   UNL     1     -12.622  13.443  70.666  1.00  0.00     0.000 HD 
ENDBRANCH  26  28
ENDBRANCH   4  26
TORSDOF 2
ENDMDL
MODEL      102
REMARK 921   NORMALIZED FREE ENERGY PREDICTED BY IDOCK:    1.02 KCAL/MOL
REMARK 922        TOTAL FREE ENERGY PREDICTED BY IDOCK:    1.83 KCAL/MOL
REMARK 923 INTER-LIGAND FREE ENERGY PREDICTED BY IDOCK:   -0.11 KCAL/MOL
REMARK 924 INTRA-LIGAND FREE ENERGY PREDICTED BY IDOCK:    1.94 KCAL/MOL
REMARK 927      BINDING AFFINITY PREDICTED BY RF-SCORE:    0.00 PKD
ROOT
HETATM    1  C   UNL     1     -10.862  15.155  66.009  1.00  0.00    -0.335 C  
HETATM    2  C   UNL     1      -9.535  15.399  66.441  1.00  0.00    -0.325 C  
HETATM    3  C   UNL     1      -9.884  13.951  66.387  1.00  0.00    -0.304 C  
HETATM    4  C   UNL     1     -11.691  13.409  65.543  1.00  0.00    -0.340 C  
HETATM    5  O   UNL     1     -12.485  14.396  64.760  1.00  0.00    -0.532 OA 
HETATM    6  C   UNL     1     -10.735  13.096  70.895  1.00  0.00     3.570 C  
HETATM    7  C   UNL     1     -10.422  13.493  65.091  1.00  0.00    -0.375 C  
HETATM    8  C   UNL     1     -10.383  11.934  66.251  1.00  0.00    -0.259 C  
HETATM    9  C   UNL     1      -9.786  13.688  63.721  1.00  0.00     2.316 C  
HETATM   10  C   UNL     1     -11.854  13.842  70.068  1.00  0.00    -0.377 C  
HETATM   11  C   UNL     1     -13.205  13.306  70.617  1.00  0.00     0.229 C  
HETATM   12  H   UNL     1     -13.315  14.147  64.372  1.00  0.00     0.000 HD 
HETATM   13  C   UNL     1     -11.319  12.242  67.775  1.00  0.00    -0.301 C  
HETATM   14  C   UNL     1     -13.519  13.850  72.071  1.00  0.00    -0.543 C  
HETATM   15  O   UNL     1     -13.718  16.077  73.048  1.00  0.00    -0.590 OA 
HETATM   16  O   UNL     1     -12.661  11.782  67.518  1.00  0.00     0.458 OA 
HETATM   17  C   UNL     1     -11.362  13.776  68.539  1.00  0.00    -0.285 C  
HETATM   18  H   UNL     1     -13.151  11.942  68.315  1.00  0.00     0.000 HD 
HETATM   19  C   UNL     1     -11.872  14.944  67.492  1.00  0.00    -0.256 C  
HETATM   20  F   UNL     1     -10.046  14.175  68.828  1.00  0.00    -0.220 F  
HETATM   21  C   UNL     1     -11.998  16.317  68.172  1.00  0.00     0.459 C  
HETATM   22  C   UNL     1     -12.728  16.213  69.498  1.00  0.00     1.015 C  
HETATM   23  C   UNL     1     -11.926  15.339  70.438  1.00  0.00    -0.374 C  
HETATM   24  C   UNL     1     -11.787  15.729  71.720  1.00  0.00    -0.549 C  
HETATM   25  C   UNL     1     -13.100  15.306  72.327  1.00  0.00    -0.382 C  
ENDROOT
BRANCH   4  26
HETATM   26  C   UNL     1     -12.129  12.202  64.429  1.00  0.00    -0.357 C  
HETATM   27  O   UNL     1     -13.228  12.057  63.865  1.00  0.00    -0.705 OA 
BRANCH  26  28
HETATM   28  C   UNL     1     -11.109  11.105  64.119  1.00  0.00    -0.100 C  
HETATM   29  O   UNL     1     -11.078  10.847  62.706  1.00  0.00    -0.644 OA 
HETATM   30  H   UNL     1     -10.444  10.166  62.514  1.00  0.00     0.000 HD 
ENDBRANCH  26  28
ENDBRANCH   4  26
TORSDOF 2
ENDMDL
MODEL      103
REMARK 921   NORMALIZED FREE ENERGY PREDICTED BY IDOCK:    1.42 KCAL/MOL
REMARK 922        TOTAL FREE ENERGY PREDICTED BY IDOCK:    2.28 KCAL/MOL
REMARK 923 INTER-LIGAND FREE ENERGY PREDICTED BY IDOCK:    1.32 KCAL/MOL
REMARK 924 INTRA-LIGAND FREE ENERGY PREDICTED BY IDOCK:    0.96 KCAL/MOL
REMARK 927      BINDING AFFINITY PREDICTED BY RF-SCORE:    0.00 PKD
ROOT
HETATM    1  C   UNL     1     -10.387  12.196  66.161  1.00  0.00    -0.264 C  
HETATM    2  C   UNL     1     -10.027  13.106  65.137  1.00  0.00    -0.170 C  
HETATM    3  C   UNL     1      -9.167  11.889  65.177  1.00  0.00     0.133 C  
HETATM    4  C   UNL     1      -9.708  10.349  66.445  1.00  0.00    -0.201 C  
HETATM    5  O   UNL     1     -11.056  10.330  67.078  1.00  0.00    -0.189 OA 
HETATM    6  C   UNL     1      -5.409  13.557  67.384  1.00  0.00     0.221 C  
HETATM    7  C   UNL     1      -9.904  10.611  65.135  1.00  0.00    -0.344 C  
HETATM    8  C   UNL     1      -8.017  10.154  65.225  1.00  0.00    -0.145 C  
HETATM    9  C   UNL     1     -10.946  10.193  64.106  1.00  0.00     2.254 C  
HETATM   10  C   UNL     1      -6.680  13.218  68.257  1.00  0.00    -0.103 C  
HETATM   11  C   UNL     1      -6.128  12.652  69.594  1.00  0.00    -0.128 C  
HETATM   12  H   UNL     1     -11.305   9.622  67.661  1.00  0.00     0.000 HD 
HETATM   13  C   UNL     1      -7.238  10.919  66.673  1.00  0.00    -0.139 C  
HETATM   14  C   UNL     1      -5.461  13.776  70.490  1.00  0.00    -0.136 C  
HETATM   15  O   UNL     1      -6.235  15.896  71.417  1.00  0.00     0.863 OA 
HETATM   16  O   UNL     1      -7.329   9.947  67.734  1.00  0.00    -0.088 OA 
HETATM   17  C   UNL     1      -7.690  12.467  67.258  1.00  0.00    -0.158 C  
HETATM   18  H   UNL     1      -6.920  10.347  68.493  1.00  0.00     0.000 HD 
HETATM   19  C   UNL     1      -9.308  12.531  67.570  1.00  0.00    -0.187 C  
HETATM   20  F   UNL     1      -7.540  13.403  66.221  1.00  0.00     0.750 F  
HETATM   21  C   UNL     1      -9.728  13.882  68.172  1.00  0.00    -0.222 C  
HETATM   22  C   UNL     1      -8.793  14.306  69.288  1.00  0.00     0.277 C  
HETATM   23  C   UNL     1      -7.403  14.500  68.722  1.00  0.00    -0.129 C  
HETATM   24  C   UNL     1      -6.692  15.577  69.114  1.00  0.00    -0.145 C  
HETATM   25  C   UNL     1      -6.167  15.140  70.457  1.00  0.00    -0.012 C  
ENDROOT
BRANCH   4  26
HETATM   26  C   UNL     1      -9.803   8.664  66.240  1.00  0.00    -0.249 C  
HETATM   27  O   UNL     1      -9.655   8.021  65.186  1.00  0.00     0.668 OA 
BRANCH  26  28
HETATM   28  C   UNL     1     -10.189   7.814  67.451  1.00  0.00    -0.251 C  
HETATM   29  O   UNL     1     -11.221   6.882  67.090  1.00  0.00    -0.583 OA 
HETATM   30  H   UNL     1     -11.461   6.354  67.842  1.00  0.00     0.000 HD 
ENDBRANCH  26  28
ENDBRANCH   4  26
TORSDOF 2
ENDMDL
MODEL      104
REMARK 921   NORMALIZED FREE ENERGY PREDICTED BY IDOCK:    1.45 KCAL/MOL
REMARK 922        TOTAL FREE ENERGY PREDICTED BY IDOCK:    2.31 KCAL/MOL
REMARK 923 INTER-LIGAND FREE ENERGY PREDICTED BY IDOCK:    0.41 KCAL/MOL
REMARK 924 INTRA-LIGAND FREE ENERGY PREDICTED BY IDOCK:    1.90 KCAL/MOL
REMARK 927      BINDING AFFINITY PREDICTED BY RF-SCORE:    0.00 PKD
ROOT
HETATM    1  C   UNL     1      -9.562  16.275  69.205  1.00  0.00    -0.251 C  
HETATM    2  C   UNL     1      -8.377  15.620  69.620  1.00  0.00    -0.070 C  
HETATM    3  C   UNL     1      -8.716  15.379  68.189  1.00  0.00    -0.161 C  
HETATM    4  C   UNL     1     -10.270  16.456  67.356  1.00  0.00    -0.281 C  
HETATM    5  O   UNL     1     -10.842  17.632  68.069  1.00  0.00    -0.369 OA 
HETATM    6  C   UNL     1     -10.640  11.136  68.457  1.00  0.00    -0.219 C  
HETATM    7  C   UNL     1      -8.929  16.601  67.391  1.00  0.00    -0.204 C  
HETATM    8  C   UNL     1      -9.186  15.104  66.180  1.00  0.00    -0.318 C  
HETATM    9  C   UNL     1      -7.979  17.786  67.267  1.00  0.00    -0.223 C  
HETATM   10  C   UNL     1     -11.519  12.368  68.909  1.00  0.00    -0.355 C  
HETATM   11  C   UNL     1     -12.967  12.033  68.457  1.00  0.00     2.736 C  
HETATM   12  H   UNL     1     -11.556  18.127  67.686  1.00  0.00     0.000 HD 
HETATM   13  C   UNL     1     -10.459  13.976  66.812  1.00  0.00    -0.277 C  
HETATM   14  C   UNL     1     -13.618  10.886  69.333  1.00  0.00     3.018 C  
HETATM   15  O   UNL     1     -14.026  10.592  71.721  1.00  0.00     0.159 OA 
HETATM   16  O   UNL     1     -11.704  14.415  66.231  1.00  0.00    -0.370 OA 
HETATM   17  C   UNL     1     -10.672  13.667  68.485  1.00  0.00    -0.255 C  
HETATM   18  H   UNL     1     -12.371  13.825  66.561  1.00  0.00     0.000 HD 
HETATM   19  C   UNL     1     -10.902  15.069  69.322  1.00  0.00    -0.263 C  
HETATM   20  F   UNL     1      -9.461  13.189  69.014  1.00  0.00    -0.015 F  
HETATM   21  C   UNL     1     -11.176  14.816  70.813  1.00  0.00    -0.154 C  
HETATM   22  C   UNL     1     -12.206  13.719  71.008  1.00  0.00    -0.401 C  
HETATM   23  C   UNL     1     -11.663  12.424  70.444  1.00  0.00    -0.113 C  
HETATM   24  C   UNL     1     -11.835  11.290  71.153  1.00  0.00     0.092 C  
HETATM   25  C   UNL     1     -13.259  10.923  70.827  1.00  0.00     0.032 C  
ENDROOT
BRANCH   4  26
HETATM   26  C   UNL     1     -10.438  17.292  65.885  1.00  0.00    -0.262 C  
HETATM   27  O   UNL     1     -10.640  18.508  65.725  1.00  0.00    -0.575 OA 
BRANCH  26  28
HETATM   28  C   UNL     1     -10.422  16.477  64.590  1.00  0.00     0.633 C  
HETATM   29  O   UNL     1     -11.529  16.858  63.756  1.00  0.00    -1.130 OA 
HETATM   30  H   UNL     1     -11.519  16.353  62.952  1.00  0.00     0.000 HD 
ENDBRANCH  26  28
ENDBRANCH   4  26
TORSDOF 2
ENDMDL
MODEL      105
REMARK 921   NORMALIZED FREE ENERGY PREDICTED BY IDOCK:    1.59 KCAL/MOL
REMARK 922        TOTAL FREE ENERGY PREDICTED BY IDOCK:    2.47 KCAL/MOL
REMARK 923 INTER-LIGAND FREE ENERGY PREDICTED BY IDOCK:    0.70 KCAL/MOL
REMARK 924 INTRA-LIGAND FREE ENERGY PREDICTED BY IDOCK:    1.77 KCAL/MOL
REMARK 927      BINDING AFFINITY PREDICTED BY RF-SCORE:    0.00 PKD
ROOT
HETATM    1  C   UNL     1     -11.034   6.822  71.790  1.00  0.00    -0.266 C  
HETATM    2  C   UNL     1     -12.019   7.124  70.818  1.00  0.00    -0.352 C  
HETATM    3  C   UNL     1     -11.518   5.723  70.738  1.00  0.00     0.031 C  
HETATM    4  C   UNL     1     -10.264   5.044  72.234  1.00  0.00    -0.201 C  
HETATM    5  O   UNL     1     -10.098   5.824  73.492  1.00  0.00    -0.170 OA 
HETATM    6  C   UNL     1      -8.518   6.078  67.181  1.00  0.00    -0.104 C  
HETATM    7  C   UNL     1     -11.592   4.967  72.003  1.00  0.00     0.444 C  
HETATM    8  C   UNL     1     -10.836   3.757  70.685  1.00  0.00     2.186 C  
HETATM    9  C   UNL     1     -12.821   4.784  72.885  1.00  0.00     1.108 C  
HETATM   10  C   UNL     1      -8.053   6.625  68.588  1.00  0.00    -0.119 C  
HETATM   11  C   UNL     1      -6.538   6.292  68.684  1.00  0.00    -0.055 C  
HETATM   12  H   UNL     1      -9.522   5.512  74.180  1.00  0.00     0.000 HD 
HETATM   13  C   UNL     1      -9.353   4.474  69.927  1.00  0.00    -0.148 C  
HETATM   14  C   UNL     1      -5.664   7.200  67.725  1.00  0.00    -0.028 C  
HETATM   15  O   UNL     1      -5.375   9.609  67.459  1.00  0.00    -0.036 OA 
HETATM   16  O   UNL     1      -8.238   4.009  70.714  1.00  0.00    -0.065 OA 
HETATM   17  C   UNL     1      -9.192   6.154  69.620  1.00  0.00    -0.143 C  
HETATM   18  H   UNL     1      -7.461   4.385  70.317  1.00  0.00     0.000 HD 
HETATM   19  C   UNL     1      -9.425   7.032  70.997  1.00  0.00    -0.159 C  
HETATM   20  F   UNL     1     -10.260   6.569  68.806  1.00  0.00    -0.145 F  
HETATM   21  C   UNL     1      -9.207   8.536  70.768  1.00  0.00    -0.204 C  
HETATM   22  C   UNL     1      -7.931   8.799  69.990  1.00  0.00    -0.108 C  
HETATM   23  C   UNL     1      -8.048   8.168  68.620  1.00  0.00    -0.124 C  
HETATM   24  C   UNL     1      -7.624   8.868  67.549  1.00  0.00    -0.093 C  
HETATM   25  C   UNL     1      -6.132   8.659  67.602  1.00  0.00    -0.048 C  
ENDROOT
BRANCH   4  26
HETATM   26  C   UNL     1     -10.223   3.608  73.143  1.00  0.00    -0.155 C  
HETATM   27  O   UNL     1     -10.983   3.277  74.070  1.00  0.00    -0.205 OA 
BRANCH  26  28
HETATM   28  C   UNL     1      -9.088   2.619  72.872  1.00  0.00    -0.085 C  
HETATM   29  O   UNL     1      -8.724   1.943  74.087  1.00  0.00    -0.057 OA 
HETATM   30  H   UNL     1      -8.019   1.329  73.919  1.00  0.00     0.000 HD 
ENDBRANCH  26  28
ENDBRANCH   4  26
TORSDOF 2
ENDMDL
MODEL      106
REMARK 921   NORMALIZED FREE ENERGY PREDICTED BY IDOCK:    1.65 KCAL/MOL
REMARK 922        TOTAL FREE ENERGY PREDICTED BY IDOCK:    2.54 KCAL/MOL
REMARK 923 INTER-LIGAND FREE ENERGY PREDICTED BY IDOCK:    1.88 KCAL/MOL
REMARK 924 INTRA-LIGAND FREE ENERGY PREDICTED BY IDOCK:    0.66 KCAL/MOL
REMARK 927      BINDING AFFINITY PREDICTED BY RF-SCORE:    0.00 PKD
ROOT
HETATM    1  C   UNL     1      -6.791   6.944  67.045  1.00  0.00    -0.065 C  
HETATM    2  C   UNL     1      -7.722   7.973  66.763  1.00  0.00    -0.098 C  
HETATM    3  C   UNL     1      -8.058   7.190  67.986  1.00  0.00    -0.120 C  
HETATM    4  C   UNL     1      -6.677   5.818  68.680  1.00  0.00    -0.060 C  
HETATM    5  O   UNL     1      -5.284   5.815  68.153  1.00  0.00    -0.003 OA 
HETATM    6  C   UNL     1     -11.354   4.341  66.313  1.00  0.00     2.614 C  
HETATM    7  C   UNL     1      -6.971   7.101  68.980  1.00  0.00    -0.075 C  
HETATM    8  C   UNL     1      -8.472   6.113  69.719  1.00  0.00    -0.128 C  
HETATM    9  C   UNL     1      -6.192   8.262  69.585  1.00  0.00    -0.032 C  
HETATM   10  C   UNL     1      -9.849   3.997  65.978  1.00  0.00    -0.177 C  
HETATM   11  C   UNL     1      -9.762   2.446  66.004  1.00  0.00     0.457 C  
HETATM   12  H   UNL     1      -4.650   5.184  68.472  1.00  0.00     0.000 HD 
HETATM   13  C   UNL     1      -9.014   4.814  68.574  1.00  0.00    -0.111 C  
HETATM   14  C   UNL     1     -10.487   1.783  64.762  1.00  0.00     0.915 C  
HETATM   15  O   UNL     1     -10.260   2.005  62.342  1.00  0.00    -0.093 OA 
HETATM   16  O   UNL     1      -8.291   3.625  68.949  1.00  0.00    -0.070 OA 
HETATM   17  C   UNL     1      -8.976   5.009  66.870  1.00  0.00    -0.112 C  
HETATM   18  H   UNL     1      -8.575   2.945  68.350  1.00  0.00     0.000 HD 
HETATM   19  C   UNL     1      -7.464   5.416  66.355  1.00  0.00    -0.087 C  
HETATM   20  F   UNL     1      -9.734   6.142  66.528  1.00  0.00    -0.164 F  
HETATM   21  C   UNL     1      -7.382   5.518  64.823  1.00  0.00    -0.064 C  
HETATM   22  C   UNL     1      -8.041   4.328  64.153  1.00  0.00    -0.092 C  
HETATM   23  C   UNL     1      -9.513   4.314  64.505  1.00  0.00    -0.156 C  
HETATM   24  C   UNL     1     -10.407   4.049  63.532  1.00  0.00    -0.135 C  
HETATM   25  C   UNL     1     -10.338   2.546  63.437  1.00  0.00    -0.173 C  
ENDROOT
BRANCH   4  26
HETATM   26  C   UNL     1      -6.070   5.475  70.230  1.00  0.00    -0.025 C  
HETATM   27  O   UNL     1      -5.978   6.252  71.196  1.00  0.00    -0.029 OA 
BRANCH  26  28
HETATM   28  C   UNL     1      -5.487   4.083  70.482  1.00  0.00    -0.012 C  
HETATM   29  O   UNL     1      -5.665   3.257  69.319  1.00  0.00    -0.020 OA 
HETATM   30  H   UNL     1      -5.304   2.393  69.475  1.00  0.00     0.000 HD 
ENDBRANCH  26  28
ENDBRANCH   4  26
TORSDOF 2
ENDMDL
MODEL      107
REMARK 921   NORMALIZED FREE ENERGY PREDICTED BY IDOCK:    1.92 KCAL/MOL
REMARK 922        TOTAL FREE ENERGY PREDICTED BY IDOCK:    2.84 KCAL/MOL
REMARK 923 INTER-LIGAND FREE ENERGY PREDICTED BY IDOCK:    0.87 KCAL/MOL
REMARK 924 INTRA-LIGAND FREE ENERGY PREDICTED BY IDOCK:    1.98 KCAL/MOL
REMARK 927      BINDING AFFINITY PREDICTED BY RF-SCORE:    0.00 PKD
ROOT
HETATM    1  C   UNL     1      -8.910   9.774  70.005  1.00  0.00    -0.245 C  
HETATM    2  C   UNL     1      -8.534   9.384  71.314  1.00  0.00     0.187 C  
HETATM    3  C   UNL     1      -7.372   9.647  70.419  1.00  0.00    -0.156 C  
HETATM    4  C   UNL     1      -7.737  10.463  68.556  1.00  0.00    -0.101 C  
HETATM    5  O   UNL     1      -9.073  11.035  68.230  1.00  0.00    -0.145 OA 
HETATM    6  C   UNL     1      -6.180   5.291  69.245  1.00  0.00    -0.033 C  
HETATM    7  C   UNL     1      -7.388  10.967  69.759  1.00  0.00    -0.016 C  
HETATM    8  C   UNL     1      -5.770  10.073  69.160  1.00  0.00    -0.034 C  
HETATM    9  C   UNL     1      -7.544  12.322  70.435  1.00  0.00     3.239 C  
HETATM   10  C   UNL     1      -7.434   5.926  68.525  1.00  0.00    -0.086 C  
HETATM   11  C   UNL     1      -7.389   5.393  67.066  1.00  0.00    -0.083 C  
HETATM   12  H   UNL     1      -9.241  11.410  67.373  1.00  0.00     0.000 HD 
HETATM   13  C   UNL     1      -6.161   8.470  68.406  1.00  0.00    -0.054 C  
HETATM   14  C   UNL     1      -7.761   3.856  66.977  1.00  0.00    -0.084 C  
HETATM   15  O   UNL     1      -9.688   2.529  67.670  1.00  0.00    -0.058 OA 
HETATM   16  O   UNL     1      -6.318   8.721  66.995  1.00  0.00    -0.058 OA 
HETATM   17  C   UNL     1      -7.437   7.471  68.968  1.00  0.00    -0.096 C  
HETATM   18  H   UNL     1      -6.522   7.881  66.600  1.00  0.00     0.000 HD 
HETATM   19  C   UNL     1      -8.869   8.289  68.978  1.00  0.00    -0.143 C  
HETATM   20  F   UNL     1      -7.230   7.197  70.331  1.00  0.00    -0.064 F  
HETATM   21  C   UNL     1     -10.044   7.394  69.400  1.00  0.00    -0.185 C  
HETATM   22  C   UNL     1     -10.016   6.062  68.674  1.00  0.00    -0.183 C  
HETATM   23  C   UNL     1      -8.752   5.320  69.051  1.00  0.00    -0.104 C  
HETATM   24  C   UNL     1      -8.835   4.001  69.318  1.00  0.00    -0.143 C  
HETATM   25  C   UNL     1      -8.869   3.397  67.938  1.00  0.00    -0.123 C  
ENDROOT
BRANCH   4  26
HETATM   26  C   UNL     1      -7.006  11.728  67.686  1.00  0.00    -0.103 C  
HETATM   27  O   UNL     1      -7.498  12.835  67.403  1.00  0.00    -0.150 OA 
BRANCH  26  28
HETATM   28  C   UNL     1      -5.614  11.487  67.101  1.00  0.00    -0.099 C  
HETATM   29  O   UNL     1      -5.192  12.635  66.346  1.00  0.00    -0.014 OA 
HETATM   30  H   UNL     1      -4.327  12.485  65.982  1.00  0.00     0.000 HD 
ENDBRANCH  26  28
ENDBRANCH   4  26
TORSDOF 2
ENDMDL
MODEL      108
REMARK 921   NORMALIZED FREE ENERGY PREDICTED BY IDOCK:    3.93 KCAL/MOL
REMARK 922        TOTAL FREE ENERGY PREDICTED BY IDOCK:    5.08 KCAL/MOL
REMARK 923 INTER-LIGAND FREE ENERGY PREDICTED BY IDOCK:   -1.14 KCAL/MOL
REMARK 924 INTRA-LIGAND FREE ENERGY PREDICTED BY IDOCK:    6.22 KCAL/MOL
REMARK 927      BINDING AFFINITY PREDICTED BY RF-SCORE:    0.00 PKD
ROOT
HETATM    1  C   UNL     1      -7.749  10.467  68.498  1.00  0.00    -0.101 C  
HETATM    2  C   UNL     1      -6.374  10.758  68.671  1.00  0.00    -0.050 C  
HETATM    3  C   UNL     1      -6.992  11.481  67.524  1.00  0.00    -0.102 C  
HETATM    4  C   UNL     1      -9.041  11.365  67.283  1.00  0.00    -0.162 C  
HETATM    5  O   UNL     1      -9.900  10.822  68.371  1.00  0.00    -0.157 OA 
HETATM    6  C   UNL     1      -5.543   8.845  63.955  1.00  0.00    -0.069 C  
HETATM    7  C   UNL     1      -8.204  12.252  67.861  1.00  0.00    -0.161 C  
HETATM    8  C   UNL     1      -7.897  12.517  65.961  1.00  0.00     1.368 C  
HETATM    9  C   UNL     1      -8.346  13.290  68.967  1.00  0.00     0.373 C  
HETATM   10  C   UNL     1      -6.745   8.304  64.825  1.00  0.00    -0.067 C  
HETATM   11  C   UNL     1      -7.693   7.588  63.823  1.00  0.00    -0.126 C  
HETATM   12  H   UNL     1     -10.842  10.768  68.261  1.00  0.00     0.000 HD 
HETATM   13  C   UNL     1      -7.820  10.926  65.093  1.00  0.00     0.173 C  
HETATM   14  C   UNL     1      -7.088   6.223  63.297  1.00  0.00    -0.053 C  
HETATM   15  O   UNL     1      -6.284   4.188  64.378  1.00  0.00    -0.025 OA 
HETATM   16  O   UNL     1      -9.163  10.653  64.644  1.00  0.00    -0.201 OA 
HETATM   17  C   UNL     1      -7.141   9.519  65.799  1.00  0.00    -0.096 C  
HETATM   18  H   UNL     1      -9.123   9.820  64.189  1.00  0.00     0.000 HD 
HETATM   19  C   UNL     1      -7.863   9.174  67.242  1.00  0.00    -0.099 C  
HETATM   20  F   UNL     1      -5.816   9.796  66.177  1.00  0.00    -0.055 F  
HETATM   21  C   UNL     1      -7.330   7.872  67.859  1.00  0.00    -0.092 C  
HETATM   22  C   UNL     1      -7.271   6.755  66.833  1.00  0.00    -0.081 C  
HETATM   23  C   UNL     1      -6.301   7.141  65.738  1.00  0.00    -0.044 C  
HETATM   24  C   UNL     1      -5.440   6.209  65.281  1.00  0.00    -0.017 C  
HETATM   25  C   UNL     1      -6.305   5.411  64.340  1.00  0.00    -0.026 C  
ENDROOT
BRANCH   4  26
HETATM   26  C   UNL     1     -10.233  12.531  66.951  1.00  0.00    -0.226 C  
HETATM   27  O   UNL     1     -11.435  12.495  67.269  1.00  0.00    -0.310 OA 
BRANCH  26  28
HETATM   28  C   UNL     1      -9.839  13.739  66.100  1.00  0.00    -0.297 C  
HETATM   29  O   UNL     1      -8.541  14.215  66.492  1.00  0.00    -0.438 OA 
HETATM   30  H   UNL     1      -8.296  14.965  65.963  1.00  0.00     0.000 HD 
ENDBRANCH  26  28
ENDBRANCH   4  26
TORSDOF 2
ENDMDL
MODEL      109
REMARK 921   NORMALIZED FREE ENERGY PREDICTED BY IDOCK:    5.12 KCAL/MOL
REMARK 922        TOTAL FREE ENERGY PREDICTED BY IDOCK:    6.41 KCAL/MOL
REMARK 923 INTER-LIGAND FREE ENERGY PREDICTED BY IDOCK:    4.27 KCAL/MOL
REMARK 924 INTRA-LIGAND FREE ENERGY PREDICTED BY IDOCK:    2.14 KCAL/MOL
REMARK 927      BINDING AFFINITY PREDICTED BY RF-SCORE:    0.00 PKD
ROOT
HETATM    1  C   UNL     1     -10.419  12.766  65.462  1.00  0.00    -0.306 C  
HETATM    2  C   UNL     1     -10.009  12.914  64.114  1.00  0.00    -0.087 C  
HETATM    3  C   UNL     1      -8.871  12.791  65.068  1.00  0.00     1.548 C  
HETATM    4  C   UNL     1      -9.290  12.320  67.036  1.00  0.00    -0.205 C  
HETATM    5  O   UNL     1     -10.644  11.839  67.426  1.00  0.00    -0.212 OA 
HETATM    6  C   UNL     1      -7.607  17.263  65.491  1.00  0.00     0.913 C  
HETATM    7  C   UNL     1      -8.929  11.607  65.948  1.00  0.00    -0.111 C  
HETATM    8  C   UNL     1      -7.304  12.563  66.419  1.00  0.00     0.966 C  
HETATM    9  C   UNL     1      -9.101  10.157  65.515  1.00  0.00    -0.216 C  
HETATM   10  C   UNL     1      -8.888  16.787  66.281  1.00  0.00    -0.334 C  
HETATM   11  C   UNL     1      -8.861  17.565  67.625  1.00  0.00    -0.228 C  
HETATM   12  H   UNL     1     -10.837  11.622  68.331  1.00  0.00     0.000 HD 
HETATM   13  C   UNL     1      -7.674  14.280  66.871  1.00  0.00     0.334 C  
HETATM   14  C   UNL     1      -9.201  19.100  67.435  1.00  0.00    -0.344 C  
HETATM   15  O   UNL     1     -11.085  20.321  66.477  1.00  0.00     0.128 OA 
HETATM   16  O   UNL     1      -7.864  14.283  68.301  1.00  0.00    -0.123 OA 
HETATM   17  C   UNL     1      -8.917  15.188  66.114  1.00  0.00    -0.166 C  
HETATM   18  H   UNL     1      -8.058  15.182  68.538  1.00  0.00     0.000 HD 
HETATM   19  C   UNL     1     -10.366  14.407  66.215  1.00  0.00    -0.300 C  
HETATM   20  F   UNL     1      -8.677  15.216  64.730  1.00  0.00     1.727 F  
HETATM   21  C   UNL     1     -11.513  15.235  65.615  1.00  0.00    -0.123 C  
HETATM   22  C   UNL     1     -11.470  16.673  66.099  1.00  0.00     0.907 C  
HETATM   23  C   UNL     1     -10.183  17.315  65.627  1.00  0.00    -0.141 C  
HETATM   24  C   UNL     1     -10.231  18.567  65.131  1.00  0.00     1.305 C  
HETATM   25  C   UNL     1     -10.279  19.404  66.383  1.00  0.00    -0.465 C  
ENDROOT
BRANCH   4  26
HETATM   26  C   UNL     1      -8.604  11.214  68.130  1.00  0.00    -0.140 C  
HETATM   27  O   UNL     1      -8.746  11.184  69.365  1.00  0.00     0.082 OA 
BRANCH  26  28
HETATM   28  C   UNL     1      -7.633  10.168  67.580  1.00  0.00    -0.091 C  
HETATM   29  O   UNL     1      -6.409  10.188  68.333  1.00  0.00    -0.049 OA 
HETATM   30  H   UNL     1      -5.806   9.538  67.991  1.00  0.00     0.000 HD 
ENDBRANCH  26  28
ENDBRANCH   4  26
TORSDOF 2
ENDMDL
MODEL      110
REMARK 921   NORMALIZED FREE ENERGY PREDICTED BY IDOCK:    5.64 KCAL/MOL
REMARK 922        TOTAL FREE ENERGY PREDICTED BY IDOCK:    7.00 KCAL/MOL
REMARK 923 INTER-LIGAND FREE ENERGY PREDICTED BY IDOCK:    6.46 KCAL/MOL
REMARK 924 INTRA-LIGAND FREE ENERGY PREDICTED BY IDOCK:    0.54 KCAL/MOL
REMARK 927      BINDING AFFINITY PREDICTED BY RF-SCORE:    0.00 PKD
ROOT
HETATM    1  C   UNL     1     -11.585  12.673  65.462  1.00  0.00    -0.409 C  
HETATM    2  C   UNL     1     -11.888  13.827  64.699  1.00  0.00    -0.427 C  
HETATM    3  C   UNL     1     -10.586  13.202  64.333  1.00  0.00    -0.441 C  
HETATM    4  C   UNL     1     -10.107  11.375  65.172  1.00  0.00    -0.271 C  
HETATM    5  O   UNL     1     -11.143  10.577  65.887  1.00  0.00     0.120 OA 
HETATM    6  C   UNL     1      -7.614  16.003  66.591  1.00  0.00    -0.200 C  
HETATM    7  C   UNL     1     -10.662  11.765  64.005  1.00  0.00    -0.434 C  
HETATM    8  C   UNL     1      -8.798  12.274  63.809  1.00  0.00     1.436 C  
HETATM    9  C   UNL     1     -11.592  11.110  62.993  1.00  0.00     0.720 C  
HETATM   10  C   UNL     1      -8.390  14.923  67.441  1.00  0.00    -0.213 C  
HETATM   11  C   UNL     1      -7.383  14.442  68.521  1.00  0.00    -0.122 C  
HETATM   12  H   UNL     1     -10.923   9.737  66.272  1.00  0.00     0.000 HD 
HETATM   13  C   UNL     1      -8.167  13.013  65.341  1.00  0.00     3.057 C  
HETATM   14  C   UNL     1      -7.124  15.541  69.631  1.00  0.00    -0.170 C  
HETATM   15  O   UNL     1      -8.560  16.784  71.164  1.00  0.00     5.344 OA 
HETATM   16  O   UNL     1      -7.594  11.929  66.099  1.00  0.00    -0.346 OA 
HETATM   17  C   UNL     1      -9.136  13.993  66.362  1.00  0.00    -0.093 C  
HETATM   18  H   UNL     1      -7.263  12.315  66.901  1.00  0.00     0.000 HD 
HETATM   19  C   UNL     1     -10.509  13.200  66.814  1.00  0.00    -0.262 C  
HETATM   20  F   UNL     1      -9.636  15.071  65.612  1.00  0.00    -0.334 F  
HETATM   21  C   UNL     1     -11.358  14.024  67.795  1.00  0.00    -0.328 C  
HETATM   22  C   UNL     1     -10.506  14.615  68.903  1.00  0.00    -0.248 C  
HETATM   23  C   UNL     1      -9.499  15.570  68.298  1.00  0.00    -0.200 C  
HETATM   24  C   UNL     1      -9.284  16.752  68.908  1.00  0.00    -0.234 C  
HETATM   25  C   UNL     1      -8.357  16.367  70.032  1.00  0.00     1.270 C  
ENDROOT
BRANCH   4  26
HETATM   26  C   UNL     1      -9.476   9.936  64.523  1.00  0.00    -0.264 C  
HETATM   27  O   UNL     1      -9.258   9.678  63.327  1.00  0.00    -0.244 OA 
BRANCH  26  28
HETATM   28  C   UNL     1      -9.205   8.774  65.481  1.00  0.00    -0.137 C  
HETATM   29  O   UNL     1      -8.371   9.214  66.565  1.00  0.00    -0.116 OA 
HETATM   30  H   UNL     1      -8.203   8.492  67.160  1.00  0.00     0.000 HD 
ENDBRANCH  26  28
ENDBRANCH   4  26
TORSDOF 2
ENDMDL
MODEL      111
REMARK 921   NORMALIZED FREE ENERGY PREDICTED BY IDOCK:    8.79 KCAL/MOL
REMARK 922        TOTAL FREE ENERGY PREDICTED BY IDOCK:   10.51 KCAL/MOL
REMARK 923 INTER-LIGAND FREE ENERGY PREDICTED BY IDOCK:    8.18 KCAL/MOL
REMARK 924 INTRA-LIGAND FREE ENERGY PREDICTED BY IDOCK:    2.33 KCAL/MOL
REMARK 927      BINDING AFFINITY PREDICTED BY RF-SCORE:    0.00 PKD
ROOT
HETATM    1  C   UNL     1     -11.110   6.888  71.812  1.00  0.00    -0.275 C  
HETATM    2  C   UNL     1     -11.939   7.407  70.787  1.00  0.00    -0.261 C  
HETATM    3  C   UNL     1     -11.037   6.315  70.323  1.00  0.00    -0.430 C  
HETATM    4  C   UNL     1      -9.942   5.281  71.738  1.00  0.00    -0.190 C  
HETATM    5  O   UNL     1     -10.255   5.423  73.187  1.00  0.00    -0.174 OA 
HETATM    6  C   UNL     1      -7.669   8.795  68.254  1.00  0.00    -0.100 C  
HETATM    7  C   UNL     1     -11.119   5.070  71.110  1.00  0.00     0.330 C  
HETATM    8  C   UNL     1      -9.804   4.752  69.716  1.00  0.00    -0.288 C  
HETATM    9  C   UNL     1     -12.380   4.282  71.442  1.00  0.00     6.334 C  
HETATM   10  C   UNL     1      -7.660   8.722  69.831  1.00  0.00    -0.065 C  
HETATM   11  C   UNL     1      -6.162   8.672  70.237  1.00  0.00    -0.037 C  
HETATM   12  H   UNL     1      -9.752   4.947  73.837  1.00  0.00     0.000 HD 
HETATM   13  C   UNL     1      -8.487   5.998  69.776  1.00  0.00    -0.126 C  
HETATM   14  C   UNL     1      -5.434  10.061  70.015  1.00  0.00    -0.039 C  
HETATM   15  O   UNL     1      -5.831  12.336  70.804  1.00  0.00    -0.284 OA 
HETATM   16  O   UNL     1      -7.453   5.445  70.615  1.00  0.00    -0.075 OA 
HETATM   17  C   UNL     1      -8.779   7.632  70.209  1.00  0.00    -0.144 C  
HETATM   18  H   UNL     1      -6.763   6.097  70.646  1.00  0.00     0.000 HD 
HETATM   19  C   UNL     1      -9.517   7.731  71.681  1.00  0.00    -0.179 C  
HETATM   20  F   UNL     1      -9.750   8.162  69.342  1.00  0.00    -0.164 F  
HETATM   21  C   UNL     1      -9.719   9.187  72.130  1.00  0.00     0.207 C  
HETATM   22  C   UNL     1      -8.457  10.007  71.935  1.00  0.00     3.565 C  
HETATM   23  C   UNL     1      -8.122  10.054  70.460  1.00  0.00     0.276 C  
HETATM   24  C   UNL     1      -7.732  11.229  69.925  1.00  0.00     0.747 C  
HETATM   25  C   UNL     1      -6.284  11.301  70.334  1.00  0.00    -0.066 C  
ENDROOT
BRANCH   4  26
HETATM   26  C   UNL     1      -9.646   3.625  71.985  1.00  0.00    -0.144 C  
HETATM   27  O   UNL     1     -10.430   2.776  72.443  1.00  0.00    -0.132 OA 
BRANCH  26  28
HETATM   28  C   UNL     1      -8.240   3.096  71.696  1.00  0.00    -0.061 C  
HETATM   29  O   UNL     1      -8.115   2.766  70.303  1.00  0.00    -0.042 OA 
HETATM   30  H   UNL     1      -7.242   2.438  70.124  1.00  0.00     0.000 HD 
ENDBRANCH  26  28
ENDBRANCH   4  26
TORSDOF 2
ENDMDL
MODEL      112
REMARK 921   NORMALIZED FREE ENERGY PREDICTED BY IDOCK:    9.18 KCAL/MOL
REMARK 922        TOTAL FREE ENERGY PREDICTED BY IDOCK:   10.94 KCAL/MOL
REMARK 923 INTER-LIGAND FREE ENERGY PREDICTED BY IDOCK:   10.05 KCAL/MOL
REMARK 924 INTRA-LIGAND FREE ENERGY PREDICTED BY IDOCK:    0.89 KCAL/MOL
REMARK 927      BINDING AFFINITY PREDICTED BY RF-SCORE:    0.00 PKD
ROOT
HETATM    1  C   UNL     1     -10.571  14.941  64.835  1.00  0.00    -0.417 C  
HETATM    2  C   UNL     1      -9.212  15.313  64.694  1.00  0.00     3.094 C  
HETATM    3  C   UNL     1      -9.397  13.986  65.347  1.00  0.00     0.445 C  
HETATM    4  C   UNL     1     -11.299  13.181  65.406  1.00  0.00    -0.297 C  
HETATM    5  O   UNL     1     -12.392  13.763  64.578  1.00  0.00    -0.508 OA 
HETATM    6  C   UNL     1      -8.797  15.136  69.829  1.00  0.00     0.051 C  
HETATM    7  C   UNL     1     -10.234  13.037  64.589  1.00  0.00    -0.324 C  
HETATM    8  C   UNL     1      -9.686  12.113  66.208  1.00  0.00    -0.251 C  
HETATM    9  C   UNL     1     -10.052  12.620  63.135  1.00  0.00     0.769 C  
HETATM   10  C   UNL     1     -10.184  15.488  69.163  1.00  0.00    -0.240 C  
HETATM   11  C   UNL     1     -11.248  15.266  70.274  1.00  0.00    -0.320 C  
HETATM   12  H   UNL     1     -13.267  13.392  64.605  1.00  0.00     0.000 HD 
HETATM   13  C   UNL     1     -10.165  13.057  67.681  1.00  0.00    -0.216 C  
HETATM   14  C   UNL     1     -11.183  16.380  71.397  1.00  0.00     0.007 C  
HETATM   15  O   UNL     1     -11.336  18.816  71.389  1.00  0.00     3.605 OA 
HETATM   16  O   UNL     1     -11.464  12.563  68.066  1.00  0.00    -0.272 OA 
HETATM   17  C   UNL     1     -10.155  14.772  67.724  1.00  0.00    -0.224 C  
HETATM   18  H   UNL     1     -11.715  13.057  68.838  1.00  0.00     0.000 HD 
HETATM   19  C   UNL     1     -11.075  15.400  66.508  1.00  0.00    -0.227 C  
HETATM   20  F   UNL     1      -8.865  15.225  67.400  1.00  0.00    -0.159 F  
HETATM   21  C   UNL     1     -11.150  16.933  66.571  1.00  0.00     0.337 C  
HETATM   22  C   UNL     1     -11.445  17.416  67.979  1.00  0.00     0.572 C  
HETATM   23  C   UNL     1     -10.312  17.002  68.892  1.00  0.00    -0.337 C  
HETATM   24  C   UNL     1      -9.849  17.895  69.790  1.00  0.00     0.615 C  
HETATM   25  C   UNL     1     -10.873  17.798  70.892  1.00  0.00     2.085 C  
ENDROOT
BRANCH   4  26
HETATM   26  C   UNL     1     -11.906  11.627  65.079  1.00  0.00     0.091 C  
HETATM   27  O   UNL     1     -11.549  10.552  65.592  1.00  0.00     0.730 OA 
BRANCH  26  28
HETATM   28  C   UNL     1     -12.957  11.483  63.977  1.00  0.00     0.515 C  
HETATM   29  O   UNL     1     -14.205  12.047  64.411  1.00  0.00     0.931 OA 
HETATM   30  H   UNL     1     -14.858  11.958  63.726  1.00  0.00     0.000 HD 
ENDBRANCH  26  28
ENDBRANCH   4  26
TORSDOF 2
ENDMDL
MODEL      113
REMARK 921   NORMALIZED FREE ENERGY PREDICTED BY IDOCK:    9.78 KCAL/MOL
REMARK 922        TOTAL FREE ENERGY PREDICTED BY IDOCK:   11.62 KCAL/MOL
REMARK 923 INTER-LIGAND FREE ENERGY PREDICTED BY IDOCK:   10.83 KCAL/MOL
REMARK 924 INTRA-LIGAND FREE ENERGY PREDICTED BY IDOCK:    0.79 KCAL/MOL
REMARK 927      BINDING AFFINITY PREDICTED BY RF-SCORE:    0.00 PKD
ROOT
HETATM    1  C   UNL     1     -10.625   7.145  68.714  1.00  0.00    -0.219 C  
HETATM    2  C   UNL     1     -10.646   6.160  67.696  1.00  0.00    -0.340 C  
HETATM    3  C   UNL     1      -9.289   6.723  67.946  1.00  0.00    -0.113 C  
HETATM    4  C   UNL     1      -9.035   7.986  69.562  1.00  0.00    -0.148 C  
HETATM    5  O   UNL     1     -10.093   8.101  70.604  1.00  0.00    -0.192 OA 
HETATM    6  C   UNL     1      -8.942   9.750  64.411  1.00  0.00    -0.284 C  
HETATM    7  C   UNL     1      -8.847   6.666  69.353  1.00  0.00    -0.134 C  
HETATM    8  C   UNL     1      -7.398   7.490  68.355  1.00  0.00    -0.099 C  
HETATM    9  C   UNL     1      -8.818   5.435  70.250  1.00  0.00    -0.143 C  
HETATM   10  C   UNL     1      -9.822  10.172  65.653  1.00  0.00    -0.347 C  
HETATM   11  C   UNL     1      -9.590  11.698  65.827  1.00  0.00    -0.255 C  
HETATM   12  H   UNL     1      -9.976   8.682  71.347  1.00  0.00     0.000 HD 
HETATM   13  C   UNL     1      -7.986   8.950  67.454  1.00  0.00    -0.101 C  
HETATM   14  C   UNL     1     -10.288  12.545  64.685  1.00  0.00    -0.341 C  
HETATM   15  O   UNL     1     -12.579  12.732  63.865  1.00  0.00    -0.638 OA 
HETATM   16  O   UNL     1      -7.768  10.074  68.330  1.00  0.00    -0.083 OA 
HETATM   17  C   UNL     1      -9.553   9.042  66.764  1.00  0.00    -0.200 C  
HETATM   18  H   UNL     1      -8.075  10.839  67.859  1.00  0.00     0.000 HD 
HETATM   19  C   UNL     1     -10.716   8.753  67.897  1.00  0.00    -0.171 C  
HETATM   20  F   UNL     1      -9.719   7.967  65.873  1.00  0.00    -0.211 F  
HETATM   21  C   UNL     1     -12.134   8.908  67.325  1.00  0.00     5.659 C  
HETATM   22  C   UNL     1     -12.266  10.181  66.510  1.00  0.00     5.265 C  
HETATM   23  C   UNL     1     -11.329  10.109  65.324  1.00  0.00     2.063 C  
HETATM   24  C   UNL     1     -11.779  10.516  64.120  1.00  0.00     2.806 C  
HETATM   25  C   UNL     1     -11.655  12.015  64.224  1.00  0.00    -0.358 C  
ENDROOT
BRANCH   4  26
HETATM   26  C   UNL     1      -7.853   8.078  70.781  1.00  0.00    -0.091 C  
HETATM   27  O   UNL     1      -6.703   8.541  70.686  1.00  0.00    -0.036 OA 
BRANCH  26  28
HETATM   28  C   UNL     1      -8.176   7.461  72.143  1.00  0.00    -0.098 C  
HETATM   29  O   UNL     1      -8.526   8.493  73.080  1.00  0.00    -0.365 OA 
HETATM   30  H   UNL     1      -8.727   8.109  73.926  1.00  0.00     0.000 HD 
ENDBRANCH  26  28
ENDBRANCH   4  26
TORSDOF 2
ENDMDL
MODEL      114
REMARK 921   NORMALIZED FREE ENERGY PREDICTED BY IDOCK:   10.10 KCAL/MOL
REMARK 922        TOTAL FREE ENERGY PREDICTED BY IDOCK:   11.97 KCAL/MOL
REMARK 923 INTER-LIGAND FREE ENERGY PREDICTED BY IDOCK:   10.66 KCAL/MOL
REMARK 924 INTRA-LIGAND FREE ENERGY PREDICTED BY IDOCK:    1.31 KCAL/MOL
REMARK 927      BINDING AFFINITY PREDICTED BY RF-SCORE:    0.00 PKD
ROOT
HETATM    1  C   UNL     1      -7.264   8.923  72.973  1.00  0.00     0.279 C  
HETATM    2  C   UNL     1      -6.107   8.109  73.040  1.00  0.00    -0.072 C  
HETATM    3  C   UNL     1      -6.618   8.297  71.653  1.00  0.00    -0.061 C  
HETATM    4  C   UNL     1      -8.147   9.654  71.349  1.00  0.00     0.897 C  
HETATM    5  O   UNL     1      -8.526  10.617  72.420  1.00  0.00     6.731 OA 
HETATM    6  C   UNL     1      -8.888   4.270  71.014  1.00  0.00    -0.148 C  
HETATM    7  C   UNL     1      -6.801   9.704  71.248  1.00  0.00     0.140 C  
HETATM    8  C   UNL     1      -7.326   8.621  69.723  1.00  0.00    -0.052 C  
HETATM    9  C   UNL     1      -5.765  10.817  71.327  1.00  0.00     0.112 C  
HETATM   10  C   UNL     1      -9.595   5.377  71.891  1.00  0.00    -0.188 C  
HETATM   11  C   UNL     1     -11.108   5.269  71.557  1.00  0.00    -0.017 C  
HETATM   12  H   UNL     1      -9.229  11.241  72.280  1.00  0.00     0.000 HD 
HETATM   13  C   UNL     1      -8.623   7.440  70.186  1.00  0.00    -0.139 C  
HETATM   14  C   UNL     1     -11.764   3.963  72.168  1.00  0.00     1.887 C  
HETATM   15  O   UNL     1     -11.939   3.041  74.420  1.00  0.00     1.185 OA 
HETATM   16  O   UNL     1      -9.876   8.097  69.911  1.00  0.00    -0.182 OA 
HETATM   17  C   UNL     1      -8.681   6.690  71.727  1.00  0.00    -0.129 C  
HETATM   18  H   UNL     1     -10.556   7.479  70.153  1.00  0.00     0.000 HD 
HETATM   19  C   UNL     1      -8.689   7.815  72.933  1.00  0.00    -0.220 C  
HETATM   20  F   UNL     1      -7.470   6.012  71.947  1.00  0.00    -0.087 F  
HETATM   21  C   UNL     1      -8.823   7.173  74.323  1.00  0.00    -0.248 C  
HETATM   22  C   UNL     1      -9.924   6.129  74.347  1.00  0.00    -0.321 C  
HETATM   23  C   UNL     1      -9.567   5.012  73.390  1.00  0.00    -0.147 C  
HETATM   24  C   UNL     1      -9.766   3.738  73.783  1.00  0.00    -0.141 C  
HETATM   25  C   UNL     1     -11.245   3.562  73.557  1.00  0.00    -0.181 C  
ENDROOT
BRANCH   4  26
HETATM   26  C   UNL     1      -8.393  10.875  70.192  1.00  0.00     1.325 C  
HETATM   27  O   UNL     1      -7.648  11.838  69.938  1.00  0.00     0.576 OA 
BRANCH  26  28
HETATM   28  C   UNL     1      -9.707  10.868  69.409  1.00  0.00     0.009 C  
HETATM   29  O   UNL     1      -9.466  10.481  68.046  1.00  0.00    -0.145 OA 
HETATM   30  H   UNL     1     -10.281  10.476  67.560  1.00  0.00     0.000 HD 
ENDBRANCH  26  28
ENDBRANCH   4  26
TORSDOF 2
ENDMDL
MODEL      115
REMARK 921   NORMALIZED FREE ENERGY PREDICTED BY IDOCK:   11.64 KCAL/MOL
REMARK 922        TOTAL FREE ENERGY PREDICTED BY IDOCK:   13.70 KCAL/MOL
REMARK 923 INTER-LIGAND FREE ENERGY PREDICTED BY IDOCK:   12.40 KCAL/MOL
REMARK 924 INTRA-LIGAND FREE ENERGY PREDICTED BY IDOCK:    1.30 KCAL/MOL
REMARK 927      BINDING AFFINITY PREDICTED BY RF-SCORE:    0.00 PKD
ROOT
HETATM    1  C   UNL     1      -9.006  16.436  66.172  1.00  0.00    -0.367 C  
HETATM    2  C   UNL     1     -10.205  16.699  65.466  1.00  0.00    -0.227 C  
HETATM    3  C   UNL     1     -10.427  16.342  66.896  1.00  0.00    -0.302 C  
HETATM    4  C   UNL     1      -8.778  16.170  68.129  1.00  0.00    -0.175 C  
HETATM    5  O   UNL     1      -7.446  16.665  67.683  1.00  0.00    -0.142 OA 
HETATM    6  C   UNL     1     -11.678  11.865  66.484  1.00  0.00    -0.247 C  
HETATM    7  C   UNL     1      -9.662  17.154  67.861  1.00  0.00    -0.270 C  
HETATM    8  C   UNL     1     -10.701  15.891  68.909  1.00  0.00    -0.254 C  
HETATM    9  C   UNL     1      -9.626  18.675  67.946  1.00  0.00    -0.340 C  
HETATM   10  C   UNL     1     -10.142  12.210  66.357  1.00  0.00    -0.242 C  
HETATM   11  C   UNL     1      -9.393  11.027  67.029  1.00  0.00    -0.186 C  
HETATM   12  H   UNL     1      -6.688  16.586  68.250  1.00  0.00     0.000 HD 
HETATM   13  C   UNL     1     -10.350  14.186  68.396  1.00  0.00    -0.249 C  
HETATM   14  C   UNL     1      -9.458   9.705  66.158  1.00  0.00    -0.274 C  
HETATM   15  O   UNL     1      -8.820   9.140  63.872  1.00  0.00    -0.182 OA 
HETATM   16  O   UNL     1      -9.283  13.725  69.249  1.00  0.00    -0.281 OA 
HETATM   17  C   UNL     1     -10.024  13.760  66.767  1.00  0.00    -0.270 C  
HETATM   18  H   UNL     1      -9.099  12.833  68.981  1.00  0.00     0.000 HD 
HETATM   19  C   UNL     1      -8.770  14.645  66.164  1.00  0.00     0.284 C  
HETATM   20  F   UNL     1     -11.103  14.171  65.967  1.00  0.00    -0.302 F  
HETATM   21  C   UNL     1      -8.402  14.227  64.732  1.00  0.00     6.993 C  
HETATM   22  C   UNL     1      -8.306  12.718  64.602  1.00  0.00     3.804 C  
HETATM   23  C   UNL     1      -9.661  12.110  64.894  1.00  0.00     0.000 C  
HETATM   24  C   UNL     1     -10.107  11.117  64.099  1.00  0.00    -0.388 C  
HETATM   25  C   UNL     1      -9.368   9.920  64.639  1.00  0.00    -0.277 C  
ENDROOT
BRANCH   4  26
HETATM   26  C   UNL     1      -8.443  16.741  69.695  1.00  0.00     0.669 C  
HETATM   27  O   UNL     1      -8.663  17.877  70.149  1.00  0.00     1.865 OA 
BRANCH  26  28
HETATM   28  C   UNL     1      -7.717  15.803  70.661  1.00  0.00     1.911 C  
HETATM   29  O   UNL     1      -6.560  16.459  71.207  1.00  0.00     1.849 OA 
HETATM   30  H   UNL     1      -6.109  15.877  71.807  1.00  0.00     0.000 HD 
ENDBRANCH  26  28
ENDBRANCH   4  26
TORSDOF 2
ENDMDL
MODEL      116
REMARK 921   NORMALIZED FREE ENERGY PREDICTED BY IDOCK:   13.74 KCAL/MOL
REMARK 922        TOTAL FREE ENERGY PREDICTED BY IDOCK:   16.04 KCAL/MOL
REMARK 923 INTER-LIGAND FREE ENERGY PREDICTED BY IDOCK:   15.02 KCAL/MOL
REMARK 924 INTRA-LIGAND FREE ENERGY PREDICTED BY IDOCK:    1.02 KCAL/MOL
REMARK 927      BINDING AFFINITY PREDICTED BY RF-SCORE:    0.00 PKD
ROOT
HETATM    1  C   UNL     1     -10.772  14.529  68.929  1.00  0.00    -0.259 C  
HETATM    2  C   UNL     1     -10.136  15.515  68.136  1.00  0.00    -0.218 C  
HETATM    3  C   UNL     1      -9.842  14.122  67.696  1.00  0.00    -0.229 C  
HETATM    4  C   UNL     1     -10.883  12.574  68.584  1.00  0.00    -0.248 C  
HETATM    5  O   UNL     1     -12.083  12.853  69.421  1.00  0.00    -0.275 OA 
HETATM    6  C   UNL     1      -5.606  13.504  69.555  1.00  0.00    -0.092 C  
HETATM    7  C   UNL     1     -11.034  13.288  67.448  1.00  0.00    -0.287 C  
HETATM    8  C   UNL     1      -9.492  12.167  67.073  1.00  0.00    -0.201 C  
HETATM    9  C   UNL     1     -12.215  13.631  66.551  1.00  0.00    -0.454 C  
HETATM   10  C   UNL     1      -6.852  13.399  70.520  1.00  0.00     0.996 C  
HETATM   11  C   UNL     1      -6.497  12.279  71.537  1.00  0.00     2.925 C  
HETATM   12  H   UNL     1     -12.562  12.141  69.829  1.00  0.00     0.000 HD 
HETATM   13  C   UNL     1      -8.385  12.092  68.509  1.00  0.00    -0.093 C  
HETATM   14  C   UNL     1      -5.381  12.734  72.564  1.00  0.00     0.390 C  
HETATM   15  O   UNL     1      -5.174  14.582  74.145  1.00  0.00    -0.009 OA 
HETATM   16  O   UNL     1      -8.799  10.941  69.271  1.00  0.00    -0.351 OA 
HETATM   17  C   UNL     1      -8.137  13.428  69.555  1.00  0.00     1.003 C  
HETATM   18  H   UNL     1      -8.219  10.901  70.022  1.00  0.00     0.000 HD 
HETATM   19  C   UNL     1      -9.568  13.981  70.159  1.00  0.00     1.930 C  
HETATM   20  F   UNL     1      -7.682  14.520  68.795  1.00  0.00    -0.116 F  
HETATM   21  C   UNL     1      -9.369  15.127  71.163  1.00  0.00     2.487 C  
HETATM   22  C   UNL     1      -8.278  14.802  72.166  1.00  0.00     6.003 C  
HETATM   23  C   UNL     1      -6.964  14.640  71.432  1.00  0.00     1.473 C  
HETATM   24  C   UNL     1      -5.857  15.197  71.961  1.00  0.00     0.613 C  
HETATM   25  C   UNL     1      -5.474  14.198  73.023  1.00  0.00    -0.158 C  
ENDROOT
BRANCH   4  26
HETATM   26  C   UNL     1     -11.664  11.199  67.959  1.00  0.00    -0.212 C  
HETATM   27  O   UNL     1     -12.400  11.137  66.959  1.00  0.00     0.685 OA 
BRANCH  26  28
HETATM   28  C   UNL     1     -11.533   9.885  68.731  1.00  0.00     0.100 C  
HETATM   29  O   UNL     1     -10.678   8.978  68.017  1.00  0.00    -0.385 OA 
HETATM   30  H   UNL     1     -10.597   8.162  68.497  1.00  0.00     0.000 HD 
ENDBRANCH  26  28
ENDBRANCH   4  26
TORSDOF 2
ENDMDL
