MODEL        1
REMARK 921   NORMALIZED FREE ENERGY PREDICTED BY IDOCK:   -5.38 KCAL/MOL
REMARK 922        TOTAL FREE ENERGY PREDICTED BY IDOCK:   -6.88 KCAL/MOL
REMARK 923 INTER-LIGAND FREE ENERGY PREDICTED BY IDOCK:   -6.64 KCAL/MOL
REMARK 924 INTRA-LIGAND FREE ENERGY PREDICTED BY IDOCK:   -0.24 KCAL/MOL
REMARK 927      BINDING AFFINITY PREDICTED BY RF-SCORE:    0.00 PKD
ROOT
HETATM    1  C   UNL     1      -9.210  10.558  62.759  1.00  0.00    -0.309 C  
HETATM    2  C   UNL     1      -9.989  11.263  63.844  1.00  0.00    -0.321 C  
HETATM    3  O   UNL     1      -8.052  10.862  62.465  1.00  0.00    -0.178 OA 
HETATM    4  F   UNL     1     -10.515  10.389  64.743  1.00  0.00    -0.406 F  
ENDROOT
BRANCH   2   5
HETATM    5  C   UNL     1     -11.100  12.163  63.292  1.00  0.00    -0.332 C  
HETATM    6  O   UNL     1     -12.270  11.401  62.923  1.00  0.00    -0.940 OA 
HETATM    7  H   UNL     1     -12.959  11.959  62.581  1.00  0.00     0.000 HD 
BRANCH   5   8
HETATM    8  C   UNL     1     -11.604  13.303  64.205  1.00  0.00    -0.400 C  
HETATM    9  O   UNL     1     -12.635  13.997  63.452  1.00  0.00    -1.056 OA 
HETATM   10  H   UNL     1     -12.945  14.699  64.014  1.00  0.00     0.000 HD 
BRANCH   8  11
HETATM   11  C   UNL     1     -10.570  14.339  64.705  1.00  0.00    -0.412 C  
HETATM   12  H   UNL     1      -9.372  14.501  66.252  1.00  0.00     0.000 HD 
HETATM   13  O   UNL     1     -10.007  13.864  65.946  1.00  0.00    -0.299 OA 
BRANCH  11  14
HETATM   14  C   UNL     1     -11.117  15.753  64.952  1.00  0.00    -0.399 C  
HETATM   15  O   UNL     1     -11.473  16.397  63.728  1.00  0.00    -1.590 OA 
HETATM   16  H   UNL     1     -11.812  17.272  63.881  1.00  0.00     0.000 HD 
ENDBRANCH  11  14
ENDBRANCH   8  11
ENDBRANCH   5   8
ENDBRANCH   2   5
TORSDOF 4
ENDMDL
MODEL        2
REMARK 921   NORMALIZED FREE ENERGY PREDICTED BY IDOCK:   -5.30 KCAL/MOL
REMARK 922        TOTAL FREE ENERGY PREDICTED BY IDOCK:   -6.77 KCAL/MOL
REMARK 923 INTER-LIGAND FREE ENERGY PREDICTED BY IDOCK:   -6.52 KCAL/MOL
REMARK 924 INTRA-LIGAND FREE ENERGY PREDICTED BY IDOCK:   -0.25 KCAL/MOL
REMARK 927      BINDING AFFINITY PREDICTED BY RF-SCORE:    0.00 PKD
ROOT
HETATM    1  C   UNL     1      -9.969  10.978  64.804  1.00  0.00    -0.294 C  
HETATM    2  C   UNL     1     -11.136  11.505  64.002  1.00  0.00    -0.365 C  
HETATM    3  O   UNL     1      -9.826   9.782  65.065  1.00  0.00    -0.306 OA 
HETATM    4  F   UNL     1     -10.730  12.278  62.960  1.00  0.00    -0.433 F  
ENDROOT
BRANCH   2   5
HETATM    5  C   UNL     1     -12.143  12.282  64.856  1.00  0.00    -0.356 C  
HETATM    6  O   UNL     1     -11.993  11.985  66.262  1.00  0.00    -0.596 OA 
HETATM    7  H   UNL     1     -12.618  12.467  66.791  1.00  0.00     0.000 HD 
BRANCH   5   8
HETATM    8  C   UNL     1     -12.126  13.823  64.741  1.00  0.00    -0.410 C  
HETATM    9  O   UNL     1     -12.478  14.129  63.364  1.00  0.00    -1.122 OA 
HETATM   10  H   UNL     1     -12.468  15.076  63.293  1.00  0.00     0.000 HD 
BRANCH   8  11
HETATM   11  C   UNL     1     -10.814  14.560  65.094  1.00  0.00    -0.395 C  
HETATM   12  H   UNL     1      -9.563  14.563  66.608  1.00  0.00     0.000 HD 
HETATM   13  O   UNL     1     -10.369  14.111  66.391  1.00  0.00    -0.277 OA 
BRANCH  11  14
HETATM   14  C   UNL     1     -10.907  16.093  65.139  1.00  0.00    -0.361 C  
HETATM   15  O   UNL     1     -11.448  16.619  63.926  1.00  0.00    -1.604 OA 
HETATM   16  H   UNL     1     -11.506  17.567  63.954  1.00  0.00     0.000 HD 
ENDBRANCH  11  14
ENDBRANCH   8  11
ENDBRANCH   5   8
ENDBRANCH   2   5
TORSDOF 4
ENDMDL
MODEL        3
REMARK 921   NORMALIZED FREE ENERGY PREDICTED BY IDOCK:   -5.24 KCAL/MOL
REMARK 922        TOTAL FREE ENERGY PREDICTED BY IDOCK:   -6.71 KCAL/MOL
REMARK 923 INTER-LIGAND FREE ENERGY PREDICTED BY IDOCK:   -6.24 KCAL/MOL
REMARK 924 INTRA-LIGAND FREE ENERGY PREDICTED BY IDOCK:   -0.47 KCAL/MOL
REMARK 927      BINDING AFFINITY PREDICTED BY RF-SCORE:    0.00 PKD
ROOT
HETATM    1  C   UNL     1     -11.786  12.477  66.406  1.00  0.00    -0.397 C  
HETATM    2  C   UNL     1     -12.614  13.164  65.346  1.00  0.00    -0.454 C  
HETATM    3  O   UNL     1     -11.871  12.757  67.603  1.00  0.00    -0.356 OA 
HETATM    4  F   UNL     1     -13.271  12.274  64.556  1.00  0.00    -0.514 F  
ENDROOT
BRANCH   2   5
HETATM    5  C   UNL     1     -11.792  14.117  64.472  1.00  0.00    -0.436 C  
HETATM    6  O   UNL     1     -12.318  14.198  63.129  1.00  0.00    -1.125 OA 
HETATM    7  H   UNL     1     -11.809  14.789  62.587  1.00  0.00     0.000 HD 
BRANCH   5   8
HETATM    8  C   UNL     1     -11.646  15.576  64.961  1.00  0.00    -0.133 C  
HETATM    9  O   UNL     1     -11.736  16.411  63.774  1.00  0.00    -1.553 OA 
HETATM   10  H   UNL     1     -11.646  17.307  64.075  1.00  0.00     0.000 HD 
BRANCH   8  11
HETATM   11  C   UNL     1     -10.364  15.952  65.739  1.00  0.00    -0.376 C  
HETATM   12  H   UNL     1      -8.698  15.039  66.235  1.00  0.00     0.000 HD 
HETATM   13  O   UNL     1      -9.485  14.808  65.758  1.00  0.00    -0.290 OA 
BRANCH  11  14
HETATM   14  C   UNL     1     -10.579  16.398  67.193  1.00  0.00    -0.276 C  
HETATM   15  O   UNL     1     -11.308  15.420  67.937  1.00  0.00    -0.327 OA 
HETATM   16  H   UNL     1     -11.441  15.697  68.837  1.00  0.00     0.000 HD 
ENDBRANCH  11  14
ENDBRANCH   8  11
ENDBRANCH   5   8
ENDBRANCH   2   5
TORSDOF 4
ENDMDL
MODEL        4
REMARK 921   NORMALIZED FREE ENERGY PREDICTED BY IDOCK:   -5.05 KCAL/MOL
REMARK 922        TOTAL FREE ENERGY PREDICTED BY IDOCK:   -6.47 KCAL/MOL
REMARK 923 INTER-LIGAND FREE ENERGY PREDICTED BY IDOCK:   -6.10 KCAL/MOL
REMARK 924 INTRA-LIGAND FREE ENERGY PREDICTED BY IDOCK:   -0.37 KCAL/MOL
REMARK 927      BINDING AFFINITY PREDICTED BY RF-SCORE:    0.00 PKD
ROOT
HETATM    1  C   UNL     1     -10.297  13.234  67.175  1.00  0.00    -0.248 C  
HETATM    2  C   UNL     1     -11.601  13.978  67.011  1.00  0.00    -0.371 C  
HETATM    3  O   UNL     1      -9.200  13.767  67.000  1.00  0.00    -0.232 OA 
HETATM    4  F   UNL     1     -12.403  13.849  68.102  1.00  0.00    -0.390 F  
ENDROOT
BRANCH   2   5
HETATM    5  C   UNL     1     -12.373  13.560  65.754  1.00  0.00    -0.468 C  
HETATM    6  O   UNL     1     -13.659  14.214  65.676  1.00  0.00    -0.671 OA 
HETATM    7  H   UNL     1     -14.137  13.955  64.897  1.00  0.00     0.000 HD 
BRANCH   5   8
HETATM    8  C   UNL     1     -11.687  13.802  64.391  1.00  0.00    -0.408 C  
HETATM    9  O   UNL     1     -12.308  14.991  63.832  1.00  0.00    -0.977 OA 
HETATM   10  H   UNL     1     -11.886  15.140  62.994  1.00  0.00     0.000 HD 
BRANCH   8  11
HETATM   11  C   UNL     1     -11.746  12.669  63.341  1.00  0.00    -0.498 C  
HETATM   12  H   UNL     1     -13.052  11.298  62.819  1.00  0.00     0.000 HD 
HETATM   13  O   UNL     1     -13.015  11.995  63.464  1.00  0.00    -0.774 OA 
BRANCH  11  14
HETATM   14  C   UNL     1     -10.641  11.607  63.452  1.00  0.00    -0.409 C  
HETATM   15  O   UNL     1      -9.342  12.194  63.377  1.00  0.00    -0.651 OA 
HETATM   16  H   UNL     1      -8.659  11.537  63.445  1.00  0.00     0.000 HD 
ENDBRANCH  11  14
ENDBRANCH   8  11
ENDBRANCH   5   8
ENDBRANCH   2   5
TORSDOF 4
ENDMDL
MODEL        5
REMARK 921   NORMALIZED FREE ENERGY PREDICTED BY IDOCK:   -5.05 KCAL/MOL
REMARK 922        TOTAL FREE ENERGY PREDICTED BY IDOCK:   -6.47 KCAL/MOL
REMARK 923 INTER-LIGAND FREE ENERGY PREDICTED BY IDOCK:   -6.26 KCAL/MOL
REMARK 924 INTRA-LIGAND FREE ENERGY PREDICTED BY IDOCK:   -0.21 KCAL/MOL
REMARK 927      BINDING AFFINITY PREDICTED BY RF-SCORE:    0.00 PKD
ROOT
HETATM    1  C   UNL     1     -10.609  16.487  67.445  1.00  0.00    -0.300 C  
HETATM    2  C   UNL     1     -10.461  16.630  65.949  1.00  0.00    -0.313 C  
HETATM    3  O   UNL     1      -9.809  15.852  68.136  1.00  0.00    -0.212 OA 
HETATM    4  F   UNL     1     -10.512  17.930  65.553  1.00  0.00    -0.341 F  
ENDROOT
BRANCH   2   5
HETATM    5  C   UNL     1     -11.497  15.815  65.167  1.00  0.00    -0.048 C  
HETATM    6  O   UNL     1     -11.624  16.279  63.805  1.00  0.00    -1.539 OA 
HETATM    7  H   UNL     1     -12.266  15.773  63.320  1.00  0.00     0.000 HD 
BRANCH   5   8
HETATM    8  C   UNL     1     -11.273  14.288  65.079  1.00  0.00    -0.364 C  
HETATM    9  O   UNL     1      -9.866  14.104  64.765  1.00  0.00    -0.552 OA 
HETATM   10  H   UNL     1      -9.729  13.165  64.711  1.00  0.00     0.000 HD 
BRANCH   8  11
HETATM   11  C   UNL     1     -12.119  13.492  64.059  1.00  0.00    -0.441 C  
HETATM   12  H   UNL     1     -13.763  12.420  64.123  1.00  0.00     0.000 HD 
HETATM   13  O   UNL     1     -13.244  12.909  64.750  1.00  0.00    -0.764 OA 
BRANCH  11  14
HETATM   14  C   UNL     1     -11.382  12.358  63.330  1.00  0.00    -0.433 C  
HETATM   15  O   UNL     1     -12.288  11.353  62.874  1.00  0.00    -0.954 OA 
HETATM   16  H   UNL     1     -11.832  10.651  62.423  1.00  0.00     0.000 HD 
ENDBRANCH  11  14
ENDBRANCH   8  11
ENDBRANCH   5   8
ENDBRANCH   2   5
TORSDOF 4
ENDMDL
MODEL        6
REMARK 921   NORMALIZED FREE ENERGY PREDICTED BY IDOCK:   -5.04 KCAL/MOL
REMARK 922        TOTAL FREE ENERGY PREDICTED BY IDOCK:   -6.46 KCAL/MOL
REMARK 923 INTER-LIGAND FREE ENERGY PREDICTED BY IDOCK:   -5.72 KCAL/MOL
REMARK 924 INTRA-LIGAND FREE ENERGY PREDICTED BY IDOCK:   -0.74 KCAL/MOL
REMARK 927      BINDING AFFINITY PREDICTED BY RF-SCORE:    0.00 PKD
ROOT
HETATM    1  C   UNL     1     -10.681  16.661  64.972  1.00  0.00    -0.152 C  
HETATM    2  C   UNL     1     -10.759  15.875  66.260  1.00  0.00    -0.261 C  
HETATM    3  O   UNL     1     -11.582  16.654  64.131  1.00  0.00    -1.102 OA 
HETATM    4  F   UNL     1     -10.516  16.653  67.347  1.00  0.00    -0.292 F  
ENDROOT
BRANCH   2   5
HETATM    5  C   UNL     1      -9.823  14.662  66.276  1.00  0.00    -0.300 C  
HETATM    6  O   UNL     1      -9.530  14.232  67.623  1.00  0.00    -0.203 OA 
HETATM    7  H   UNL     1      -8.949  13.480  67.634  1.00  0.00     0.000 HD 
BRANCH   5   8
HETATM    8  C   UNL     1     -10.288  13.400  65.516  1.00  0.00    -0.295 C  
HETATM    9  O   UNL     1      -9.855  13.575  64.139  1.00  0.00    -0.727 OA 
HETATM   10  H   UNL     1     -10.141  12.799  63.672  1.00  0.00     0.000 HD 
BRANCH   8  11
HETATM   11  C   UNL     1     -11.798  13.067  65.524  1.00  0.00    -0.395 C  
HETATM   12  H   UNL     1     -12.935  11.697  66.351  1.00  0.00     0.000 HD 
HETATM   13  O   UNL     1     -12.008  11.901  66.346  1.00  0.00    -0.572 OA 
BRANCH  11  14
HETATM   14  C   UNL     1     -12.421  12.786  64.148  1.00  0.00    -0.369 C  
HETATM   15  O   UNL     1     -12.553  13.982  63.379  1.00  0.00    -1.056 OA 
HETATM   16  H   UNL     1     -12.938  13.808  62.528  1.00  0.00     0.000 HD 
ENDBRANCH  11  14
ENDBRANCH   8  11
ENDBRANCH   5   8
ENDBRANCH   2   5
TORSDOF 4
ENDMDL
MODEL        7
REMARK 921   NORMALIZED FREE ENERGY PREDICTED BY IDOCK:   -5.03 KCAL/MOL
REMARK 922        TOTAL FREE ENERGY PREDICTED BY IDOCK:   -6.44 KCAL/MOL
REMARK 923 INTER-LIGAND FREE ENERGY PREDICTED BY IDOCK:   -6.16 KCAL/MOL
REMARK 924 INTRA-LIGAND FREE ENERGY PREDICTED BY IDOCK:   -0.28 KCAL/MOL
REMARK 927      BINDING AFFINITY PREDICTED BY RF-SCORE:    0.00 PKD
ROOT
HETATM    1  C   UNL     1     -11.885  12.163  66.128  1.00  0.00    -0.254 C  
HETATM    2  C   UNL     1     -12.728  12.965  65.166  1.00  0.00    -0.374 C  
HETATM    3  O   UNL     1     -11.964  12.293  67.351  1.00  0.00    -0.530 OA 
HETATM    4  F   UNL     1     -13.380  12.171  64.276  1.00  0.00    -0.469 F  
ENDROOT
BRANCH   2   5
HETATM    5  C   UNL     1     -11.922  14.028  64.411  1.00  0.00    -0.454 C  
HETATM    6  O   UNL     1     -12.411  14.212  63.064  1.00  0.00    -1.070 OA 
HETATM    7  H   UNL     1     -11.912  14.871  62.596  1.00  0.00     0.000 HD 
BRANCH   5   8
HETATM    8  C   UNL     1     -11.854  15.440  65.037  1.00  0.00    -0.019 C  
HETATM    9  O   UNL     1     -11.653  16.362  63.931  1.00  0.00    -1.564 OA 
HETATM   10  H   UNL     1     -11.611  17.230  64.316  1.00  0.00     0.000 HD 
BRANCH   8  11
HETATM   11  C   UNL     1     -10.772  15.704  66.109  1.00  0.00    -0.303 C  
HETATM   12  H   UNL     1     -10.710  15.734  68.071  1.00  0.00     0.000 HD 
HETATM   13  O   UNL     1     -11.375  15.573  67.412  1.00  0.00    -0.302 OA 
BRANCH  11  14
HETATM   14  C   UNL     1     -10.099  17.083  66.043  1.00  0.00    -0.302 C  
HETATM   15  O   UNL     1      -8.681  16.967  65.913  1.00  0.00    -0.524 OA 
HETATM   16  H   UNL     1      -8.265  17.820  65.872  1.00  0.00     0.000 HD 
ENDBRANCH  11  14
ENDBRANCH   8  11
ENDBRANCH   5   8
ENDBRANCH   2   5
TORSDOF 4
ENDMDL
MODEL        8
REMARK 921   NORMALIZED FREE ENERGY PREDICTED BY IDOCK:   -5.00 KCAL/MOL
REMARK 922        TOTAL FREE ENERGY PREDICTED BY IDOCK:   -6.40 KCAL/MOL
REMARK 923 INTER-LIGAND FREE ENERGY PREDICTED BY IDOCK:   -6.08 KCAL/MOL
REMARK 924 INTRA-LIGAND FREE ENERGY PREDICTED BY IDOCK:   -0.32 KCAL/MOL
REMARK 927      BINDING AFFINITY PREDICTED BY RF-SCORE:    0.00 PKD
ROOT
HETATM    1  C   UNL     1      -9.531  10.776  64.731  1.00  0.00    -0.247 C  
HETATM    2  C   UNL     1     -10.142  11.303  63.454  1.00  0.00    -0.400 C  
HETATM    3  O   UNL     1      -9.914   9.737  65.273  1.00  0.00    -0.318 OA 
HETATM    4  F   UNL     1      -9.201  11.560  62.507  1.00  0.00    -0.370 F  
ENDROOT
BRANCH   2   5
HETATM    5  C   UNL     1     -11.002  12.553  63.676  1.00  0.00    -0.456 C  
HETATM    6  O   UNL     1     -12.318  12.404  63.100  1.00  0.00    -0.668 OA 
HETATM    7  H   UNL     1     -12.851  13.178  63.237  1.00  0.00     0.000 HD 
BRANCH   5   8
HETATM    8  C   UNL     1     -11.223  13.008  65.136  1.00  0.00    -0.293 C  
HETATM    9  O   UNL     1     -12.158  12.059  65.717  1.00  0.00    -0.536 OA 
HETATM   10  H   UNL     1     -12.294  12.339  66.615  1.00  0.00     0.000 HD 
BRANCH   8  11
HETATM   11  C   UNL     1     -11.755  14.440  65.373  1.00  0.00    -0.362 C  
HETATM   12  H   UNL     1     -13.423  15.405  64.995  1.00  0.00     0.000 HD 
HETATM   13  O   UNL     1     -13.096  14.525  64.849  1.00  0.00    -0.515 OA 
BRANCH  11  14
HETATM   14  C   UNL     1     -10.931  15.566  64.731  1.00  0.00    -0.399 C  
HETATM   15  O   UNL     1     -11.671  16.241  63.713  1.00  0.00    -1.511 OA 
HETATM   16  H   UNL     1     -11.161  16.938  63.316  1.00  0.00     0.000 HD 
ENDBRANCH  11  14
ENDBRANCH   8  11
ENDBRANCH   5   8
ENDBRANCH   2   5
TORSDOF 4
ENDMDL
MODEL        9
REMARK 921   NORMALIZED FREE ENERGY PREDICTED BY IDOCK:   -4.89 KCAL/MOL
REMARK 922        TOTAL FREE ENERGY PREDICTED BY IDOCK:   -6.27 KCAL/MOL
REMARK 923 INTER-LIGAND FREE ENERGY PREDICTED BY IDOCK:   -5.80 KCAL/MOL
REMARK 924 INTRA-LIGAND FREE ENERGY PREDICTED BY IDOCK:   -0.47 KCAL/MOL
REMARK 927      BINDING AFFINITY PREDICTED BY RF-SCORE:    0.00 PKD
ROOT
HETATM    1  C   UNL     1     -12.535  12.953  63.685  1.00  0.00    -0.348 C  
HETATM    2  C   UNL     1     -12.276  13.410  65.101  1.00  0.00    -0.434 C  
HETATM    3  O   UNL     1     -12.350  11.792  63.316  1.00  0.00    -0.518 OA 
HETATM    4  F   UNL     1     -13.350  14.051  65.634  1.00  0.00    -0.522 F  
ENDROOT
BRANCH   2   5
HETATM    5  C   UNL     1     -11.035  14.301  65.222  1.00  0.00    -0.343 C  
HETATM    6  O   UNL     1     -10.116  14.089  64.128  1.00  0.00    -0.617 OA 
HETATM    7  H   UNL     1      -9.347  14.641  64.203  1.00  0.00     0.000 HD 
BRANCH   5   8
HETATM    8  C   UNL     1     -11.266  15.828  65.295  1.00  0.00    -0.190 C  
HETATM    9  O   UNL     1     -11.329  16.292  63.920  1.00  0.00    -1.415 OA 
HETATM   10  H   UNL     1     -11.472  17.231  63.964  1.00  0.00     0.000 HD 
BRANCH   8  11
HETATM   11  C   UNL     1     -10.228  16.679  66.061  1.00  0.00    -0.351 C  
HETATM   12  H   UNL     1      -8.365  16.449  66.637  1.00  0.00     0.000 HD 
HETATM   13  O   UNL     1      -9.002  15.926  66.166  1.00  0.00    -0.317 OA 
BRANCH  11  14
HETATM   14  C   UNL     1     -10.638  17.103  67.480  1.00  0.00    -0.323 C  
HETATM   15  O   UNL     1     -10.773  18.521  67.585  1.00  0.00    -0.423 OA 
HETATM   16  H   UNL     1     -11.026  18.782  68.462  1.00  0.00     0.000 HD 
ENDBRANCH  11  14
ENDBRANCH   8  11
ENDBRANCH   5   8
ENDBRANCH   2   5
TORSDOF 4
ENDMDL
MODEL       10
REMARK 921   NORMALIZED FREE ENERGY PREDICTED BY IDOCK:   -4.85 KCAL/MOL
REMARK 922        TOTAL FREE ENERGY PREDICTED BY IDOCK:   -6.22 KCAL/MOL
REMARK 923 INTER-LIGAND FREE ENERGY PREDICTED BY IDOCK:   -5.61 KCAL/MOL
REMARK 924 INTRA-LIGAND FREE ENERGY PREDICTED BY IDOCK:   -0.60 KCAL/MOL
REMARK 927      BINDING AFFINITY PREDICTED BY RF-SCORE:    0.00 PKD
ROOT
HETATM    1  C   UNL     1     -12.002  12.742  63.469  1.00  0.00    -0.555 C  
HETATM    2  C   UNL     1     -10.544  12.855  63.850  1.00  0.00    -0.336 C  
HETATM    3  O   UNL     1     -12.656  13.696  63.046  1.00  0.00    -0.729 OA 
HETATM    4  F   UNL     1      -9.782  11.912  63.235  1.00  0.00    -0.350 F  
ENDROOT
BRANCH   2   5
HETATM    5  C   UNL     1     -10.317  12.793  65.364  1.00  0.00    -0.293 C  
HETATM    6  O   UNL     1      -9.112  12.068  65.693  1.00  0.00    -0.421 OA 
HETATM    7  H   UNL     1      -8.970  12.030  66.632  1.00  0.00     0.000 HD 
BRANCH   5   8
HETATM    8  C   UNL     1     -10.226  14.138  66.120  1.00  0.00    -0.304 C  
HETATM    9  O   UNL     1     -11.485  14.286  66.833  1.00  0.00    -0.331 OA 
HETATM   10  H   UNL     1     -11.429  15.112  67.298  1.00  0.00     0.000 HD 
BRANCH   8  11
HETATM   11  C   UNL     1      -9.971  15.418  65.291  1.00  0.00    -0.270 C  
HETATM   12  H   UNL     1      -8.760  16.959  65.413  1.00  0.00     0.000 HD 
HETATM   13  O   UNL     1      -8.917  16.173  65.923  1.00  0.00    -0.351 OA 
BRANCH  11  14
HETATM   14  C   UNL     1     -11.180  16.352  65.127  1.00  0.00    -0.067 C  
HETATM   15  O   UNL     1     -11.623  16.400  63.770  1.00  0.00    -1.605 OA 
HETATM   16  H   UNL     1     -12.371  16.978  63.669  1.00  0.00     0.000 HD 
ENDBRANCH  11  14
ENDBRANCH   8  11
ENDBRANCH   5   8
ENDBRANCH   2   5
TORSDOF 4
ENDMDL
MODEL       11
REMARK 921   NORMALIZED FREE ENERGY PREDICTED BY IDOCK:   -4.84 KCAL/MOL
REMARK 922        TOTAL FREE ENERGY PREDICTED BY IDOCK:   -6.21 KCAL/MOL
REMARK 923 INTER-LIGAND FREE ENERGY PREDICTED BY IDOCK:   -5.85 KCAL/MOL
REMARK 924 INTRA-LIGAND FREE ENERGY PREDICTED BY IDOCK:   -0.36 KCAL/MOL
REMARK 927      BINDING AFFINITY PREDICTED BY RF-SCORE:    0.00 PKD
ROOT
HETATM    1  C   UNL     1     -10.361  11.391  63.256  1.00  0.00    -0.367 C  
HETATM    2  C   UNL     1     -11.662  11.895  63.832  1.00  0.00    -0.415 C  
HETATM    3  O   UNL     1      -9.602  10.644  63.876  1.00  0.00    -0.253 OA 
HETATM    4  F   UNL     1     -12.712  11.663  63.000  1.00  0.00    -0.677 F  
ENDROOT
BRANCH   2   5
HETATM    5  C   UNL     1     -11.616  13.382  64.199  1.00  0.00    -0.398 C  
HETATM    6  O   UNL     1     -12.409  14.180  63.293  1.00  0.00    -1.140 OA 
HETATM    7  H   UNL     1     -12.380  15.102  63.520  1.00  0.00     0.000 HD 
BRANCH   5   8
HETATM    8  C   UNL     1     -12.073  13.773  65.623  1.00  0.00    -0.418 C  
HETATM    9  O   UNL     1     -13.476  14.137  65.511  1.00  0.00    -0.710 OA 
HETATM   10  H   UNL     1     -13.757  14.377  66.386  1.00  0.00     0.000 HD 
BRANCH   8  11
HETATM   11  C   UNL     1     -11.317  14.918  66.335  1.00  0.00    -0.308 C  
HETATM   12  H   UNL     1      -9.445  15.489  66.489  1.00  0.00     0.000 HD 
HETATM   13  O   UNL     1      -9.909  14.786  66.051  1.00  0.00    -0.290 OA 
BRANCH  11  14
HETATM   14  C   UNL     1     -11.482  14.970  67.862  1.00  0.00    -0.340 C  
HETATM   15  O   UNL     1     -12.399  13.977  68.323  1.00  0.00    -0.537 OA 
HETATM   16  H   UNL     1     -12.501  14.009  69.267  1.00  0.00     0.000 HD 
ENDBRANCH  11  14
ENDBRANCH   8  11
ENDBRANCH   5   8
ENDBRANCH   2   5
TORSDOF 4
ENDMDL
MODEL       12
REMARK 921   NORMALIZED FREE ENERGY PREDICTED BY IDOCK:   -4.82 KCAL/MOL
REMARK 922        TOTAL FREE ENERGY PREDICTED BY IDOCK:   -6.19 KCAL/MOL
REMARK 923 INTER-LIGAND FREE ENERGY PREDICTED BY IDOCK:   -5.73 KCAL/MOL
REMARK 924 INTRA-LIGAND FREE ENERGY PREDICTED BY IDOCK:   -0.46 KCAL/MOL
REMARK 927      BINDING AFFINITY PREDICTED BY RF-SCORE:    0.00 PKD
ROOT
HETATM    1  C   UNL     1     -11.084  15.568  64.955  1.00  0.00    -0.416 C  
HETATM    2  C   UNL     1     -12.253  14.632  65.148  1.00  0.00    -0.282 C  
HETATM    3  O   UNL     1     -11.166  16.611  64.303  1.00  0.00    -1.098 OA 
HETATM    4  F   UNL     1     -12.463  14.343  66.460  1.00  0.00    -0.457 F  
ENDROOT
BRANCH   2   5
HETATM    5  C   UNL     1     -12.114  13.331  64.351  1.00  0.00    -0.415 C  
HETATM    6  O   UNL     1     -12.436  13.521  62.956  1.00  0.00    -0.950 OA 
HETATM    7  H   UNL     1     -12.350  12.715  62.462  1.00  0.00     0.000 HD 
BRANCH   5   8
HETATM    8  C   UNL     1     -10.736  12.630  64.379  1.00  0.00    -0.359 C  
HETATM    9  O   UNL     1     -10.547  12.059  63.055  1.00  0.00    -0.640 OA 
HETATM   10  H   UNL     1      -9.701  11.629  63.073  1.00  0.00     0.000 HD 
BRANCH   8  11
HETATM   11  C   UNL     1     -10.510  11.524  65.435  1.00  0.00    -0.281 C  
HETATM   12  H   UNL     1     -10.215  11.467  67.376  1.00  0.00     0.000 HD 
HETATM   13  O   UNL     1     -10.354  12.146  66.727  1.00  0.00    -0.211 OA 
BRANCH  11  14
HETATM   14  C   UNL     1      -9.286  10.625  65.200  1.00  0.00    -0.212 C  
HETATM   15  O   UNL     1      -9.512   9.702  64.133  1.00  0.00    -0.409 OA 
HETATM   16  H   UNL     1      -8.755   9.147  63.988  1.00  0.00     0.000 HD 
ENDBRANCH  11  14
ENDBRANCH   8  11
ENDBRANCH   5   8
ENDBRANCH   2   5
TORSDOF 4
ENDMDL
MODEL       13
REMARK 921   NORMALIZED FREE ENERGY PREDICTED BY IDOCK:   -4.78 KCAL/MOL
REMARK 922        TOTAL FREE ENERGY PREDICTED BY IDOCK:   -6.13 KCAL/MOL
REMARK 923 INTER-LIGAND FREE ENERGY PREDICTED BY IDOCK:   -5.70 KCAL/MOL
REMARK 924 INTRA-LIGAND FREE ENERGY PREDICTED BY IDOCK:   -0.43 KCAL/MOL
REMARK 927      BINDING AFFINITY PREDICTED BY RF-SCORE:    0.00 PKD
ROOT
HETATM    1  C   UNL     1     -12.490  14.273  64.807  1.00  0.00    -0.374 C  
HETATM    2  C   UNL     1     -11.176  14.548  65.499  1.00  0.00    -0.335 C  
HETATM    3  O   UNL     1     -12.608  13.438  63.908  1.00  0.00    -0.673 OA 
HETATM    4  F   UNL     1     -11.287  14.472  66.852  1.00  0.00    -0.305 F  
ENDROOT
BRANCH   2   5
HETATM    5  C   UNL     1     -10.567  15.899  65.108  1.00  0.00    -0.397 C  
HETATM    6  O   UNL     1     -11.266  16.498  63.995  1.00  0.00    -1.409 OA 
HETATM    7  H   UNL     1     -10.888  17.335  63.753  1.00  0.00     0.000 HD 
BRANCH   5   8
HETATM    8  C   UNL     1     -10.498  16.986  66.205  1.00  0.00    -0.271 C  
HETATM    9  O   UNL     1     -10.746  18.251  65.534  1.00  0.00    -0.596 OA 
HETATM   10  H   UNL     1     -10.704  18.920  66.208  1.00  0.00     0.000 HD 
BRANCH   8  11
HETATM   11  C   UNL     1      -9.193  17.104  67.025  1.00  0.00    -0.241 C  
HETATM   12  H   UNL     1      -8.365  18.469  68.168  1.00  0.00     0.000 HD 
HETATM   13  O   UNL     1      -9.167  18.396  67.664  1.00  0.00    -0.264 OA 
BRANCH  11  14
HETATM   14  C   UNL     1      -7.892  16.955  66.221  1.00  0.00    -0.311 C  
HETATM   15  O   UNL     1      -7.561  18.163  65.533  1.00  0.00    -0.527 OA 
HETATM   16  H   UNL     1      -6.757  18.071  65.036  1.00  0.00     0.000 HD 
ENDBRANCH  11  14
ENDBRANCH   8  11
ENDBRANCH   5   8
ENDBRANCH   2   5
TORSDOF 4
ENDMDL
MODEL       14
REMARK 921   NORMALIZED FREE ENERGY PREDICTED BY IDOCK:   -4.76 KCAL/MOL
REMARK 922        TOTAL FREE ENERGY PREDICTED BY IDOCK:   -6.11 KCAL/MOL
REMARK 923 INTER-LIGAND FREE ENERGY PREDICTED BY IDOCK:   -5.72 KCAL/MOL
REMARK 924 INTRA-LIGAND FREE ENERGY PREDICTED BY IDOCK:   -0.39 KCAL/MOL
REMARK 927      BINDING AFFINITY PREDICTED BY RF-SCORE:    0.00 PKD
ROOT
HETATM    1  C   UNL     1     -10.932  15.023  67.096  1.00  0.00    -0.329 C  
HETATM    2  C   UNL     1     -10.770  15.460  65.659  1.00  0.00    -0.369 C  
HETATM    3  O   UNL     1     -10.183  14.204  67.631  1.00  0.00    -0.237 OA 
HETATM    4  F   UNL     1     -10.726  16.814  65.540  1.00  0.00    -0.357 F  
ENDROOT
BRANCH   2   5
HETATM    5  C   UNL     1     -11.860  14.899  64.739  1.00  0.00    -0.384 C  
HETATM    6  O   UNL     1     -12.260  15.860  63.738  1.00  0.00    -1.213 OA 
HETATM    7  H   UNL     1     -12.936  15.513  63.167  1.00  0.00     0.000 HD 
BRANCH   5   8
HETATM    8  C   UNL     1     -11.538  13.595  63.975  1.00  0.00    -0.317 C  
HETATM    9  O   UNL     1     -12.324  13.638  62.754  1.00  0.00    -0.858 OA 
HETATM   10  H   UNL     1     -12.126  12.836  62.284  1.00  0.00     0.000 HD 
BRANCH   8  11
HETATM   11  C   UNL     1     -11.805  12.253  64.693  1.00  0.00    -0.367 C  
HETATM   12  H   UNL     1     -12.638  11.699  66.383  1.00  0.00     0.000 HD 
HETATM   13  O   UNL     1     -12.473  12.524  65.942  1.00  0.00    -0.596 OA 
BRANCH  11  14
HETATM   14  C   UNL     1     -10.559  11.410  65.005  1.00  0.00    -0.299 C  
HETATM   15  O   UNL     1      -9.509  12.210  65.550  1.00  0.00    -0.390 OA 
HETATM   16  H   UNL     1      -8.738  11.689  65.743  1.00  0.00     0.000 HD 
ENDBRANCH  11  14
ENDBRANCH   8  11
ENDBRANCH   5   8
ENDBRANCH   2   5
TORSDOF 4
ENDMDL
MODEL       15
REMARK 921   NORMALIZED FREE ENERGY PREDICTED BY IDOCK:   -4.75 KCAL/MOL
REMARK 922        TOTAL FREE ENERGY PREDICTED BY IDOCK:   -6.10 KCAL/MOL
REMARK 923 INTER-LIGAND FREE ENERGY PREDICTED BY IDOCK:   -5.80 KCAL/MOL
REMARK 924 INTRA-LIGAND FREE ENERGY PREDICTED BY IDOCK:   -0.30 KCAL/MOL
REMARK 927      BINDING AFFINITY PREDICTED BY RF-SCORE:    0.00 PKD
ROOT
HETATM    1  C   UNL     1     -11.164  15.034  68.992  1.00  0.00    -0.268 C  
HETATM    2  C   UNL     1     -12.013  13.855  68.580  1.00  0.00    -0.366 C  
HETATM    3  O   UNL     1     -11.553  16.200  68.901  1.00  0.00    -0.357 OA 
HETATM    4  F   UNL     1     -12.105  12.924  69.566  1.00  0.00    -0.333 F  
ENDROOT
BRANCH   2   5
HETATM    5  C   UNL     1     -11.523  13.189  67.290  1.00  0.00    -0.331 C  
HETATM    6  O   UNL     1     -11.952  11.813  67.203  1.00  0.00    -0.617 OA 
HETATM    7  H   UNL     1     -11.649  11.400  66.403  1.00  0.00     0.000 HD 
BRANCH   5   8
HETATM    8  C   UNL     1     -11.935  13.849  65.954  1.00  0.00    -0.407 C  
HETATM    9  O   UNL     1     -12.474  12.783  65.126  1.00  0.00    -0.491 OA 
HETATM   10  H   UNL     1     -12.727  13.189  64.306  1.00  0.00     0.000 HD 
BRANCH   8  11
HETATM   11  C   UNL     1     -10.846  14.599  65.153  1.00  0.00    -0.401 C  
HETATM   12  H   UNL     1      -8.898  14.815  65.282  1.00  0.00     0.000 HD 
HETATM   13  O   UNL     1      -9.567  14.354  65.775  1.00  0.00    -0.273 OA 
BRANCH  11  14
HETATM   14  C   UNL     1     -11.030  16.121  65.050  1.00  0.00    -0.344 C  
HETATM   15  O   UNL     1     -11.564  16.497  63.780  1.00  0.00    -1.617 OA 
HETATM   16  H   UNL     1     -11.678  17.439  63.716  1.00  0.00     0.000 HD 
ENDBRANCH  11  14
ENDBRANCH   8  11
ENDBRANCH   5   8
ENDBRANCH   2   5
TORSDOF 4
ENDMDL
MODEL       16
REMARK 921   NORMALIZED FREE ENERGY PREDICTED BY IDOCK:   -4.75 KCAL/MOL
REMARK 922        TOTAL FREE ENERGY PREDICTED BY IDOCK:   -6.10 KCAL/MOL
REMARK 923 INTER-LIGAND FREE ENERGY PREDICTED BY IDOCK:   -5.52 KCAL/MOL
REMARK 924 INTRA-LIGAND FREE ENERGY PREDICTED BY IDOCK:   -0.58 KCAL/MOL
REMARK 927      BINDING AFFINITY PREDICTED BY RF-SCORE:    0.00 PKD
ROOT
HETATM    1  C   UNL     1     -10.641  11.535  63.232  1.00  0.00    -0.338 C  
HETATM    2  C   UNL     1     -11.858  12.071  63.949  1.00  0.00    -0.448 C  
HETATM    3  O   UNL     1      -9.780  10.859  63.797  1.00  0.00    -0.249 OA 
HETATM    4  F   UNL     1     -13.012  11.749  63.306  1.00  0.00    -0.701 F  
ENDROOT
BRANCH   2   5
HETATM    5  C   UNL     1     -11.800  13.587  64.171  1.00  0.00    -0.437 C  
HETATM    6  O   UNL     1     -12.993  14.077  64.821  1.00  0.00    -0.686 OA 
HETATM    7  H   UNL     1     -12.958  15.016  64.958  1.00  0.00     0.000 HD 
BRANCH   5   8
HETATM    8  C   UNL     1     -10.611  14.135  64.991  1.00  0.00    -0.419 C  
HETATM    9  O   UNL     1     -10.521  13.301  66.178  1.00  0.00    -0.283 OA 
HETATM   10  H   UNL     1      -9.789  13.638  66.682  1.00  0.00     0.000 HD 
BRANCH   8  11
HETATM   11  C   UNL     1     -10.657  15.618  65.427  1.00  0.00    -0.415 C  
HETATM   12  H   UNL     1     -11.099  17.327  64.567  1.00  0.00     0.000 HD 
HETATM   13  O   UNL     1     -11.070  16.416  64.299  1.00  0.00    -0.845 OA 
BRANCH  11  14
HETATM   14  C   UNL     1      -9.331  16.196  65.946  1.00  0.00    -0.281 C  
HETATM   15  O   UNL     1      -8.412  15.161  66.297  1.00  0.00    -0.416 OA 
HETATM   16  H   UNL     1      -7.592  15.519  66.618  1.00  0.00     0.000 HD 
ENDBRANCH  11  14
ENDBRANCH   8  11
ENDBRANCH   5   8
ENDBRANCH   2   5
TORSDOF 4
ENDMDL
MODEL       17
REMARK 921   NORMALIZED FREE ENERGY PREDICTED BY IDOCK:   -4.75 KCAL/MOL
REMARK 922        TOTAL FREE ENERGY PREDICTED BY IDOCK:   -6.09 KCAL/MOL
REMARK 923 INTER-LIGAND FREE ENERGY PREDICTED BY IDOCK:   -5.71 KCAL/MOL
REMARK 924 INTRA-LIGAND FREE ENERGY PREDICTED BY IDOCK:   -0.38 KCAL/MOL
REMARK 927      BINDING AFFINITY PREDICTED BY RF-SCORE:    0.00 PKD
ROOT
HETATM    1  C   UNL     1      -8.864  17.731  68.332  1.00  0.00    -0.285 C  
HETATM    2  C   UNL     1     -10.222  17.290  67.840  1.00  0.00    -0.332 C  
HETATM    3  O   UNL     1      -8.625  18.888  68.683  1.00  0.00    -0.342 OA 
HETATM    4  F   UNL     1     -10.676  16.197  68.509  1.00  0.00    -0.245 F  
ENDROOT
BRANCH   2   5
HETATM    5  C   UNL     1     -10.250  17.018  66.332  1.00  0.00    -0.326 C  
HETATM    6  O   UNL     1      -9.024  17.433  65.692  1.00  0.00    -0.449 OA 
HETATM    7  H   UNL     1      -9.041  17.265  64.757  1.00  0.00     0.000 HD 
BRANCH   5   8
HETATM    8  C   UNL     1     -10.495  15.560  65.882  1.00  0.00    -0.342 C  
HETATM    9  O   UNL     1      -9.198  14.906  65.911  1.00  0.00    -0.479 OA 
HETATM   10  H   UNL     1      -9.348  14.009  65.635  1.00  0.00     0.000 HD 
BRANCH   8  11
HETATM   11  C   UNL     1     -11.137  15.331  64.494  1.00  0.00    -0.245 C  
HETATM   12  H   UNL     1     -12.026  16.452  63.149  1.00  0.00     0.000 HD 
HETATM   13  O   UNL     1     -11.632  16.593  64.002  1.00  0.00    -1.197 OA 
BRANCH  11  14
HETATM   14  C   UNL     1     -12.302  14.330  64.462  1.00  0.00    -0.410 C  
HETATM   15  O   UNL     1     -12.577  13.890  63.132  1.00  0.00    -1.057 OA 
HETATM   16  H   UNL     1     -13.298  13.271  63.112  1.00  0.00     0.000 HD 
ENDBRANCH  11  14
ENDBRANCH   8  11
ENDBRANCH   5   8
ENDBRANCH   2   5
TORSDOF 4
ENDMDL
MODEL       18
REMARK 921   NORMALIZED FREE ENERGY PREDICTED BY IDOCK:   -4.74 KCAL/MOL
REMARK 922        TOTAL FREE ENERGY PREDICTED BY IDOCK:   -6.08 KCAL/MOL
REMARK 923 INTER-LIGAND FREE ENERGY PREDICTED BY IDOCK:   -5.65 KCAL/MOL
REMARK 924 INTRA-LIGAND FREE ENERGY PREDICTED BY IDOCK:   -0.43 KCAL/MOL
REMARK 927      BINDING AFFINITY PREDICTED BY RF-SCORE:    0.00 PKD
ROOT
HETATM    1  C   UNL     1      -8.813  11.269  66.006  1.00  0.00    -0.184 C  
HETATM    2  C   UNL     1      -9.804  10.666  65.039  1.00  0.00    -0.293 C  
HETATM    3  O   UNL     1      -9.157  11.897  67.008  1.00  0.00    -0.179 OA 
HETATM    4  F   UNL     1      -9.559   9.348  64.813  1.00  0.00    -0.314 F  
ENDROOT
BRANCH   2   5
HETATM    5  C   UNL     1      -9.864  11.414  63.702  1.00  0.00    -0.348 C  
HETATM    6  O   UNL     1     -10.320  10.558  62.632  1.00  0.00    -0.715 OA 
HETATM    7  H   UNL     1     -10.357  11.021  61.803  1.00  0.00     0.000 HD 
BRANCH   5   8
HETATM    8  C   UNL     1     -10.746  12.681  63.641  1.00  0.00    -0.372 C  
HETATM    9  O   UNL     1      -9.916  13.774  64.120  1.00  0.00    -0.704 OA 
HETATM   10  H   UNL     1     -10.458  14.553  64.082  1.00  0.00     0.000 HD 
BRANCH   8  11
HETATM   11  C   UNL     1     -12.072  12.677  64.436  1.00  0.00    -0.415 C  
HETATM   12  H   UNL     1     -13.950  12.256  64.043  1.00  0.00     0.000 HD 
HETATM   13  O   UNL     1     -13.135  12.258  63.555  1.00  0.00    -0.766 OA 
BRANCH  11  14
HETATM   14  C   UNL     1     -12.480  14.026  65.048  1.00  0.00    -0.425 C  
HETATM   15  O   UNL     1     -12.482  15.066  64.069  1.00  0.00    -0.931 OA 
HETATM   16  H   UNL     1     -12.734  15.900  64.448  1.00  0.00     0.000 HD 
ENDBRANCH  11  14
ENDBRANCH   8  11
ENDBRANCH   5   8
ENDBRANCH   2   5
TORSDOF 4
ENDMDL
MODEL       19
REMARK 921   NORMALIZED FREE ENERGY PREDICTED BY IDOCK:   -4.70 KCAL/MOL
REMARK 922        TOTAL FREE ENERGY PREDICTED BY IDOCK:   -6.04 KCAL/MOL
REMARK 923 INTER-LIGAND FREE ENERGY PREDICTED BY IDOCK:   -5.29 KCAL/MOL
REMARK 924 INTRA-LIGAND FREE ENERGY PREDICTED BY IDOCK:   -0.75 KCAL/MOL
REMARK 927      BINDING AFFINITY PREDICTED BY RF-SCORE:    0.00 PKD
ROOT
HETATM    1  C   UNL     1     -10.474  15.733  67.226  1.00  0.00    -0.308 C  
HETATM    2  C   UNL     1     -10.271  15.636  65.732  1.00  0.00    -0.367 C  
HETATM    3  O   UNL     1     -10.228  14.800  67.993  1.00  0.00    -0.223 OA 
HETATM    4  F   UNL     1      -9.517  16.661  65.252  1.00  0.00    -0.026 F  
ENDROOT
BRANCH   2   5
HETATM    5  C   UNL     1     -11.590  15.561  64.955  1.00  0.00    -0.201 C  
HETATM    6  O   UNL     1     -11.562  16.394  63.775  1.00  0.00    -1.605 OA 
HETATM    7  H   UNL     1     -12.380  16.348  63.293  1.00  0.00     0.000 HD 
BRANCH   5   8
HETATM    8  C   UNL     1     -12.051  14.164  64.481  1.00  0.00    -0.468 C  
HETATM    9  O   UNL     1     -13.181  13.806  65.322  1.00  0.00    -0.755 OA 
HETATM   10  H   UNL     1     -13.465  12.947  65.030  1.00  0.00     0.000 HD 
BRANCH   8  11
HETATM   11  C   UNL     1     -11.021  13.013  64.514  1.00  0.00    -0.358 C  
HETATM   12  H   UNL     1     -10.347  11.686  63.232  1.00  0.00     0.000 HD 
HETATM   13  O   UNL     1     -10.981  12.393  63.211  1.00  0.00    -0.438 OA 
BRANCH  11  14
HETATM   14  C   UNL     1     -11.295  11.909  65.546  1.00  0.00    -0.277 C  
HETATM   15  O   UNL     1     -11.143  12.392  66.882  1.00  0.00    -0.260 OA 
HETATM   16  H   UNL     1     -11.313  11.709  67.520  1.00  0.00     0.000 HD 
ENDBRANCH  11  14
ENDBRANCH   8  11
ENDBRANCH   5   8
ENDBRANCH   2   5
TORSDOF 4
ENDMDL
MODEL       20
REMARK 921   NORMALIZED FREE ENERGY PREDICTED BY IDOCK:   -4.66 KCAL/MOL
REMARK 922        TOTAL FREE ENERGY PREDICTED BY IDOCK:   -5.98 KCAL/MOL
REMARK 923 INTER-LIGAND FREE ENERGY PREDICTED BY IDOCK:   -5.66 KCAL/MOL
REMARK 924 INTRA-LIGAND FREE ENERGY PREDICTED BY IDOCK:   -0.32 KCAL/MOL
REMARK 927      BINDING AFFINITY PREDICTED BY RF-SCORE:    0.00 PKD
ROOT
HETATM    1  C   UNL     1     -11.507  15.506  64.678  1.00  0.00    -0.324 C  
HETATM    2  C   UNL     1     -12.449  14.337  64.846  1.00  0.00    -0.390 C  
HETATM    3  O   UNL     1     -11.660  16.365  63.808  1.00  0.00    -1.055 OA 
HETATM    4  F   UNL     1     -12.901  14.226  66.124  1.00  0.00    -0.488 F  
ENDROOT
BRANCH   2   5
HETATM    5  C   UNL     1     -11.834  13.006  64.400  1.00  0.00    -0.386 C  
HETATM    6  O   UNL     1     -11.963  12.809  62.975  1.00  0.00    -0.731 OA 
HETATM    7  H   UNL     1     -11.581  11.984  62.699  1.00  0.00     0.000 HD 
BRANCH   5   8
HETATM    8  C   UNL     1     -10.343  12.772  64.731  1.00  0.00    -0.322 C  
HETATM    9  O   UNL     1      -9.715  12.355  63.489  1.00  0.00    -0.653 OA 
HETATM   10  H   UNL     1      -8.798  12.211  63.692  1.00  0.00     0.000 HD 
BRANCH   8  11
HETATM   11  C   UNL     1     -10.000  11.742  65.832  1.00  0.00    -0.236 C  
HETATM   12  H   UNL     1     -10.185   9.800  66.053  1.00  0.00     0.000 HD 
HETATM   13  O   UNL     1     -10.396  10.433  65.376  1.00  0.00    -0.275 OA 
BRANCH  11  14
HETATM   14  C   UNL     1     -10.670  11.983  67.194  1.00  0.00    -0.239 C  
HETATM   15  O   UNL     1     -11.675  11.005  67.463  1.00  0.00    -0.565 OA 
HETATM   16  H   UNL     1     -12.089  11.154  68.305  1.00  0.00     0.000 HD 
ENDBRANCH  11  14
ENDBRANCH   8  11
ENDBRANCH   5   8
ENDBRANCH   2   5
TORSDOF 4
ENDMDL
MODEL       21
REMARK 921   NORMALIZED FREE ENERGY PREDICTED BY IDOCK:   -4.64 KCAL/MOL
REMARK 922        TOTAL FREE ENERGY PREDICTED BY IDOCK:   -5.96 KCAL/MOL
REMARK 923 INTER-LIGAND FREE ENERGY PREDICTED BY IDOCK:   -5.69 KCAL/MOL
REMARK 924 INTRA-LIGAND FREE ENERGY PREDICTED BY IDOCK:   -0.26 KCAL/MOL
REMARK 927      BINDING AFFINITY PREDICTED BY RF-SCORE:    0.00 PKD
ROOT
HETATM    1  C   UNL     1      -9.459  16.964  66.128  1.00  0.00    -0.245 C  
HETATM    2  C   UNL     1     -10.778  16.327  66.498  1.00  0.00    -0.187 C  
HETATM    3  O   UNL     1      -9.336  18.174  65.932  1.00  0.00    -0.517 OA 
HETATM    4  F   UNL     1     -10.677  15.557  67.614  1.00  0.00    -0.271 F  
ENDROOT
BRANCH   2   5
HETATM    5  C   UNL     1     -11.382  15.501  65.357  1.00  0.00    -0.141 C  
HETATM    6  O   UNL     1     -11.142  16.112  64.071  1.00  0.00    -1.137 OA 
HETATM    7  H   UNL     1     -11.517  15.600  63.363  1.00  0.00     0.000 HD 
BRANCH   5   8
HETATM    8  C   UNL     1     -10.919  14.033  65.226  1.00  0.00    -0.334 C  
HETATM    9  O   UNL     1      -9.995  14.000  64.104  1.00  0.00    -0.569 OA 
HETATM   10  H   UNL     1      -9.710  13.098  64.023  1.00  0.00     0.000 HD 
BRANCH   8  11
HETATM   11  C   UNL     1     -12.001  12.950  65.012  1.00  0.00    -0.405 C  
HETATM   12  H   UNL     1     -12.838  11.556  66.113  1.00  0.00     0.000 HD 
HETATM   13  O   UNL     1     -12.173  12.221  66.245  1.00  0.00    -0.628 OA 
BRANCH  11  14
HETATM   14  C   UNL     1     -11.704  11.928  63.904  1.00  0.00    -0.415 C  
HETATM   15  O   UNL     1     -12.796  11.815  62.990  1.00  0.00    -0.844 OA 
HETATM   16  H   UNL     1     -12.612  11.183  62.305  1.00  0.00     0.000 HD 
ENDBRANCH  11  14
ENDBRANCH   8  11
ENDBRANCH   5   8
ENDBRANCH   2   5
TORSDOF 4
ENDMDL
MODEL       22
REMARK 921   NORMALIZED FREE ENERGY PREDICTED BY IDOCK:   -4.64 KCAL/MOL
REMARK 922        TOTAL FREE ENERGY PREDICTED BY IDOCK:   -5.96 KCAL/MOL
REMARK 923 INTER-LIGAND FREE ENERGY PREDICTED BY IDOCK:   -5.72 KCAL/MOL
REMARK 924 INTRA-LIGAND FREE ENERGY PREDICTED BY IDOCK:   -0.23 KCAL/MOL
REMARK 927      BINDING AFFINITY PREDICTED BY RF-SCORE:    0.00 PKD
ROOT
HETATM    1  C   UNL     1     -12.540  14.944  73.816  1.00  0.00    -0.446 C  
HETATM    2  C   UNL     1     -13.457  14.461  72.718  1.00  0.00    -0.485 C  
HETATM    3  O   UNL     1     -12.807  15.914  74.528  1.00  0.00    -0.586 OA 
HETATM    4  F   UNL     1     -13.726  13.133  72.826  1.00  0.00    -0.609 F  
ENDROOT
BRANCH   2   5
HETATM    5  C   UNL     1     -12.919  14.763  71.315  1.00  0.00    -0.346 C  
HETATM    6  O   UNL     1     -13.762  15.699  70.609  1.00  0.00    -0.847 OA 
HETATM    7  H   UNL     1     -13.429  15.886  69.740  1.00  0.00     0.000 HD 
BRANCH   5   8
HETATM    8  C   UNL     1     -11.482  15.324  71.216  1.00  0.00    -0.380 C  
HETATM    9  O   UNL     1     -11.543  16.682  71.729  1.00  0.00    -0.590 OA 
HETATM   10  H   UNL     1     -10.660  17.027  71.668  1.00  0.00     0.000 HD 
BRANCH   8  11
HETATM   11  C   UNL     1     -10.810  15.347  69.824  1.00  0.00    -0.288 C  
HETATM   12  H   UNL     1     -10.711  16.616  68.328  1.00  0.00     0.000 HD 
HETATM   13  O   UNL     1     -11.124  16.601  69.183  1.00  0.00    -0.296 OA 
BRANCH  11  14
HETATM   14  C   UNL     1     -11.229  14.219  68.868  1.00  0.00    -0.264 C  
HETATM   15  O   UNL     1     -12.275  14.638  67.991  1.00  0.00    -0.585 OA 
HETATM   16  H   UNL     1     -12.534  13.940  67.400  1.00  0.00     0.000 HD 
ENDBRANCH  11  14
ENDBRANCH   8  11
ENDBRANCH   5   8
ENDBRANCH   2   5
TORSDOF 4
ENDMDL
MODEL       23
REMARK 921   NORMALIZED FREE ENERGY PREDICTED BY IDOCK:   -4.61 KCAL/MOL
REMARK 922        TOTAL FREE ENERGY PREDICTED BY IDOCK:   -5.92 KCAL/MOL
REMARK 923 INTER-LIGAND FREE ENERGY PREDICTED BY IDOCK:   -5.66 KCAL/MOL
REMARK 924 INTRA-LIGAND FREE ENERGY PREDICTED BY IDOCK:   -0.26 KCAL/MOL
REMARK 927      BINDING AFFINITY PREDICTED BY RF-SCORE:    0.00 PKD
ROOT
HETATM    1  C   UNL     1     -11.820  10.684  70.667  1.00  0.00    -0.363 C  
HETATM    2  C   UNL     1     -13.052  10.421  71.500  1.00  0.00    -0.431 C  
HETATM    3  O   UNL     1     -11.822  10.616  69.436  1.00  0.00    -0.283 OA 
HETATM    4  F   UNL     1     -13.306  11.434  72.370  1.00  0.00    -0.573 F  
ENDROOT
BRANCH   2   5
HETATM    5  C   UNL     1     -12.983   9.094  72.264  1.00  0.00    -0.420 C  
HETATM    6  O   UNL     1     -14.056   8.974  73.224  1.00  0.00    -1.218 OA 
HETATM    7  H   UNL     1     -14.013   8.151  73.698  1.00  0.00     0.000 HD 
BRANCH   5   8
HETATM    8  C   UNL     1     -13.011   7.795  71.427  1.00  0.00    -0.288 C  
HETATM    9  O   UNL     1     -13.958   6.911  72.086  1.00  0.00    -0.566 OA 
HETATM   10  H   UNL     1     -13.976   6.112  71.572  1.00  0.00     0.000 HD 
BRANCH   8  11
HETATM   11  C   UNL     1     -11.679   7.036  71.226  1.00  0.00    -0.317 C  
HETATM   12  H   UNL     1     -10.907   5.889  69.832  1.00  0.00     0.000 HD 
HETATM   13  O   UNL     1     -11.725   6.355  69.956  1.00  0.00    -0.429 OA 
BRANCH  11  14
HETATM   14  C   UNL     1     -11.343   5.993  72.303  1.00  0.00    -0.303 C  
HETATM   15  O   UNL     1     -10.955   6.613  73.529  1.00  0.00    -0.471 OA 
HETATM   16  H   UNL     1     -10.748   5.967  74.195  1.00  0.00     0.000 HD 
ENDBRANCH  11  14
ENDBRANCH   8  11
ENDBRANCH   5   8
ENDBRANCH   2   5
TORSDOF 4
ENDMDL
MODEL       24
REMARK 921   NORMALIZED FREE ENERGY PREDICTED BY IDOCK:   -4.59 KCAL/MOL
REMARK 922        TOTAL FREE ENERGY PREDICTED BY IDOCK:   -5.90 KCAL/MOL
REMARK 923 INTER-LIGAND FREE ENERGY PREDICTED BY IDOCK:   -5.35 KCAL/MOL
REMARK 924 INTRA-LIGAND FREE ENERGY PREDICTED BY IDOCK:   -0.55 KCAL/MOL
REMARK 927      BINDING AFFINITY PREDICTED BY RF-SCORE:    0.00 PKD
ROOT
HETATM    1  C   UNL     1     -12.931  15.218  73.345  1.00  0.00    -0.531 C  
HETATM    2  C   UNL     1     -13.893  14.562  72.383  1.00  0.00    -0.483 C  
HETATM    3  O   UNL     1     -13.148  16.318  73.857  1.00  0.00    -0.693 OA 
HETATM    4  F   UNL     1     -14.201  13.292  72.757  1.00  0.00    -0.569 F  
ENDROOT
BRANCH   2   5
HETATM    5  C   UNL     1     -13.382  14.562  70.937  1.00  0.00    -0.265 C  
HETATM    6  O   UNL     1     -13.039  15.892  70.492  1.00  0.00    -0.714 OA 
HETATM    7  H   UNL     1     -12.723  15.892  69.596  1.00  0.00     0.000 HD 
BRANCH   5   8
HETATM    8  C   UNL     1     -12.155  13.676  70.622  1.00  0.00    -0.323 C  
HETATM    9  O   UNL     1     -11.025  14.581  70.501  1.00  0.00    -0.486 OA 
HETATM   10  H   UNL     1     -10.271  14.037  70.307  1.00  0.00     0.000 HD 
BRANCH   8  11
HETATM   11  C   UNL     1     -12.215  12.782  69.362  1.00  0.00    -0.077 C  
HETATM   12  H   UNL     1     -11.461  11.050  68.826  1.00  0.00     0.000 HD 
HETATM   13  O   UNL     1     -11.425  11.599  69.600  1.00  0.00    -0.277 OA 
BRANCH  11  14
HETATM   14  C   UNL     1     -11.703  13.431  68.066  1.00  0.00    -0.356 C  
HETATM   15  O   UNL     1     -12.419  14.630  67.764  1.00  0.00    -0.575 OA 
HETATM   16  H   UNL     1     -12.102  15.031  66.963  1.00  0.00     0.000 HD 
ENDBRANCH  11  14
ENDBRANCH   8  11
ENDBRANCH   5   8
ENDBRANCH   2   5
TORSDOF 4
ENDMDL
MODEL       25
REMARK 921   NORMALIZED FREE ENERGY PREDICTED BY IDOCK:   -4.58 KCAL/MOL
REMARK 922        TOTAL FREE ENERGY PREDICTED BY IDOCK:   -5.88 KCAL/MOL
REMARK 923 INTER-LIGAND FREE ENERGY PREDICTED BY IDOCK:   -5.33 KCAL/MOL
REMARK 924 INTRA-LIGAND FREE ENERGY PREDICTED BY IDOCK:   -0.55 KCAL/MOL
REMARK 927      BINDING AFFINITY PREDICTED BY RF-SCORE:    0.00 PKD
ROOT
HETATM    1  C   UNL     1     -12.206  13.041  63.426  1.00  0.00    -0.472 C  
HETATM    2  C   UNL     1     -11.949  13.900  64.641  1.00  0.00    -0.419 C  
HETATM    3  O   UNL     1     -11.712  11.920  63.287  1.00  0.00    -0.400 OA 
HETATM    4  F   UNL     1     -13.104  14.337  65.210  1.00  0.00    -0.476 F  
ENDROOT
BRANCH   2   5
HETATM    5  C   UNL     1     -11.038  15.097  64.343  1.00  0.00    -0.107 C  
HETATM    6  O   UNL     1     -11.784  16.217  63.819  1.00  0.00    -1.511 OA 
HETATM    7  H   UNL     1     -11.220  16.959  63.634  1.00  0.00     0.000 HD 
BRANCH   5   8
HETATM    8  C   UNL     1     -10.198  15.654  65.514  1.00  0.00    -0.385 C  
HETATM    9  O   UNL     1     -10.088  14.574  66.481  1.00  0.00    -0.259 OA 
HETATM   10  H   UNL     1      -9.571  14.916  67.201  1.00  0.00     0.000 HD 
BRANCH   8  11
HETATM   11  C   UNL     1     -10.715  16.918  66.237  1.00  0.00    -0.096 C  
HETATM   12  H   UNL     1     -10.412  18.853  66.084  1.00  0.00     0.000 HD 
HETATM   13  O   UNL     1     -10.095  18.075  65.640  1.00  0.00    -0.551 OA 
BRANCH  11  14
HETATM   14  C   UNL     1     -10.444  16.973  67.749  1.00  0.00    -0.349 C  
HETATM   15  O   UNL     1     -11.547  16.457  68.496  1.00  0.00    -0.302 OA 
HETATM   16  H   UNL     1     -11.379  16.491  69.431  1.00  0.00     0.000 HD 
ENDBRANCH  11  14
ENDBRANCH   8  11
ENDBRANCH   5   8
ENDBRANCH   2   5
TORSDOF 4
ENDMDL
MODEL       26
REMARK 921   NORMALIZED FREE ENERGY PREDICTED BY IDOCK:   -4.57 KCAL/MOL
REMARK 922        TOTAL FREE ENERGY PREDICTED BY IDOCK:   -5.87 KCAL/MOL
REMARK 923 INTER-LIGAND FREE ENERGY PREDICTED BY IDOCK:   -5.44 KCAL/MOL
REMARK 924 INTRA-LIGAND FREE ENERGY PREDICTED BY IDOCK:   -0.43 KCAL/MOL
REMARK 927      BINDING AFFINITY PREDICTED BY RF-SCORE:    0.00 PKD
ROOT
HETATM    1  C   UNL     1     -10.644  16.288  64.871  1.00  0.00    -0.133 C  
HETATM    2  C   UNL     1     -11.009  15.627  66.179  1.00  0.00    -0.206 C  
HETATM    3  O   UNL     1     -11.480  16.820  64.138  1.00  0.00    -1.171 OA 
HETATM    4  F   UNL     1     -10.258  16.092  67.213  1.00  0.00    -0.253 F  
ENDROOT
BRANCH   2   5
HETATM    5  C   UNL     1     -10.914  14.099  66.122  1.00  0.00    -0.309 C  
HETATM    6  O   UNL     1     -10.749  13.524  67.437  1.00  0.00    -0.259 OA 
HETATM    7  H   UNL     1     -10.690  12.576  67.401  1.00  0.00     0.000 HD 
BRANCH   5   8
HETATM    8  C   UNL     1     -12.092  13.341  65.469  1.00  0.00    -0.435 C  
HETATM    9  O   UNL     1     -12.275  12.129  66.250  1.00  0.00    -0.604 OA 
HETATM   10  H   UNL     1     -13.000  11.664  65.849  1.00  0.00     0.000 HD 
BRANCH   8  11
HETATM   11  C   UNL     1     -11.967  12.958  63.977  1.00  0.00    -0.451 C  
HETATM   12  H   UNL     1     -13.038  11.931  62.690  1.00  0.00     0.000 HD 
HETATM   13  O   UNL     1     -13.115  12.167  63.607  1.00  0.00    -0.787 OA 
BRANCH  11  14
HETATM   14  C   UNL     1     -10.710  12.157  63.603  1.00  0.00    -0.467 C  
HETATM   15  O   UNL     1     -10.651  10.917  64.311  1.00  0.00    -0.368 OA 
HETATM   16  H   UNL     1      -9.873  10.422  64.080  1.00  0.00     0.000 HD 
ENDBRANCH  11  14
ENDBRANCH   8  11
ENDBRANCH   5   8
ENDBRANCH   2   5
TORSDOF 4
ENDMDL
MODEL       27
REMARK 921   NORMALIZED FREE ENERGY PREDICTED BY IDOCK:   -4.56 KCAL/MOL
REMARK 922        TOTAL FREE ENERGY PREDICTED BY IDOCK:   -5.87 KCAL/MOL
REMARK 923 INTER-LIGAND FREE ENERGY PREDICTED BY IDOCK:   -5.57 KCAL/MOL
REMARK 924 INTRA-LIGAND FREE ENERGY PREDICTED BY IDOCK:   -0.30 KCAL/MOL
REMARK 927      BINDING AFFINITY PREDICTED BY RF-SCORE:    0.00 PKD
ROOT
HETATM    1  C   UNL     1     -10.892  13.061  67.261  1.00  0.00    -0.252 C  
HETATM    2  C   UNL     1     -11.830  13.485  66.156  1.00  0.00    -0.389 C  
HETATM    3  O   UNL     1     -10.940  13.539  68.396  1.00  0.00    -0.247 OA 
HETATM    4  F   UNL     1     -12.446  12.423  65.573  1.00  0.00    -0.492 F  
ENDROOT
BRANCH   2   5
HETATM    5  C   UNL     1     -11.140  14.331  65.080  1.00  0.00    -0.373 C  
HETATM    6  O   UNL     1     -11.592  13.980  63.754  1.00  0.00    -0.623 OA 
HETATM    7  H   UNL     1     -11.164  14.505  63.087  1.00  0.00     0.000 HD 
BRANCH   5   8
HETATM    8  C   UNL     1     -11.284  15.866  65.188  1.00  0.00    -0.224 C  
HETATM    9  O   UNL     1     -11.412  16.356  63.826  1.00  0.00    -1.590 OA 
HETATM   10  H   UNL     1     -11.501  17.300  63.892  1.00  0.00     0.000 HD 
BRANCH   8  11
HETATM   11  C   UNL     1     -10.154  16.650  65.895  1.00  0.00    -0.320 C  
HETATM   12  H   UNL     1      -8.321  16.259  66.482  1.00  0.00     0.000 HD 
HETATM   13  O   UNL     1      -9.016  15.777  66.048  1.00  0.00    -0.333 OA 
BRANCH  11  14
HETATM   14  C   UNL     1     -10.504  17.206  67.284  1.00  0.00    -0.313 C  
HETATM   15  O   UNL     1     -10.558  18.633  67.277  1.00  0.00    -0.410 OA 
HETATM   16  H   UNL     1     -10.775  18.977  68.136  1.00  0.00     0.000 HD 
ENDBRANCH  11  14
ENDBRANCH   8  11
ENDBRANCH   5   8
ENDBRANCH   2   5
TORSDOF 4
ENDMDL
MODEL       28
REMARK 921   NORMALIZED FREE ENERGY PREDICTED BY IDOCK:   -4.55 KCAL/MOL
REMARK 922        TOTAL FREE ENERGY PREDICTED BY IDOCK:   -5.85 KCAL/MOL
REMARK 923 INTER-LIGAND FREE ENERGY PREDICTED BY IDOCK:   -5.41 KCAL/MOL
REMARK 924 INTRA-LIGAND FREE ENERGY PREDICTED BY IDOCK:   -0.44 KCAL/MOL
REMARK 927      BINDING AFFINITY PREDICTED BY RF-SCORE:    0.00 PKD
ROOT
HETATM    1  C   UNL     1      -9.916  17.698  67.539  1.00  0.00    -0.322 C  
HETATM    2  C   UNL     1     -10.043  16.202  67.376  1.00  0.00    -0.257 C  
HETATM    3  O   UNL     1     -10.891  18.452  67.550  1.00  0.00    -0.408 OA 
HETATM    4  F   UNL     1      -9.387  15.525  68.356  1.00  0.00    -0.181 F  
ENDROOT
BRANCH   2   5
HETATM    5  C   UNL     1      -9.568  15.709  66.005  1.00  0.00    -0.351 C  
HETATM    6  O   UNL     1      -8.593  14.650  66.127  1.00  0.00    -0.385 OA 
HETATM    7  H   UNL     1      -8.299  14.344  65.277  1.00  0.00     0.000 HD 
BRANCH   5   8
HETATM    8  C   UNL     1     -10.647  15.186  65.030  1.00  0.00    -0.413 C  
HETATM    9  O   UNL     1     -11.151  16.352  64.323  1.00  0.00    -1.168 OA 
HETATM   10  H   UNL     1     -11.814  16.031  63.723  1.00  0.00     0.000 HD 
BRANCH   8  11
HETATM   11  C   UNL     1     -11.844  14.410  65.625  1.00  0.00    -0.355 C  
HETATM   12  H   UNL     1     -12.082  13.011  66.984  1.00  0.00     0.000 HD 
HETATM   13  O   UNL     1     -11.347  13.488  66.617  1.00  0.00    -0.305 OA 
BRANCH  11  14
HETATM   14  C   UNL     1     -12.677  13.604  64.617  1.00  0.00    -0.149 C  
HETATM   15  O   UNL     1     -12.351  13.954  63.271  1.00  0.00    -1.115 OA 
HETATM   16  H   UNL     1     -12.866  13.455  62.648  1.00  0.00     0.000 HD 
ENDBRANCH  11  14
ENDBRANCH   8  11
ENDBRANCH   5   8
ENDBRANCH   2   5
TORSDOF 4
ENDMDL
MODEL       29
REMARK 921   NORMALIZED FREE ENERGY PREDICTED BY IDOCK:   -4.52 KCAL/MOL
REMARK 922        TOTAL FREE ENERGY PREDICTED BY IDOCK:   -5.82 KCAL/MOL
REMARK 923 INTER-LIGAND FREE ENERGY PREDICTED BY IDOCK:   -5.59 KCAL/MOL
REMARK 924 INTRA-LIGAND FREE ENERGY PREDICTED BY IDOCK:   -0.22 KCAL/MOL
REMARK 927      BINDING AFFINITY PREDICTED BY RF-SCORE:    0.00 PKD
ROOT
HETATM    1  C   UNL     1     -10.752  15.295  67.671  1.00  0.00    -0.282 C  
HETATM    2  C   UNL     1     -10.572  14.455  66.428  1.00  0.00    -0.297 C  
HETATM    3  O   UNL     1     -11.052  14.811  68.764  1.00  0.00    -0.243 OA 
HETATM    4  F   UNL     1      -9.380  14.695  65.819  1.00  0.00    -0.307 F  
ENDROOT
BRANCH   2   5
HETATM    5  C   UNL     1     -11.710  14.633  65.418  1.00  0.00    -0.330 C  
HETATM    6  O   UNL     1     -11.271  15.342  64.238  1.00  0.00    -0.669 OA 
HETATM    7  H   UNL     1     -11.977  15.452  63.612  1.00  0.00     0.000 HD 
BRANCH   5   8
HETATM    8  C   UNL     1     -12.411  13.352  64.910  1.00  0.00    -0.412 C  
HETATM    9  O   UNL     1     -12.194  12.342  65.932  1.00  0.00    -0.634 OA 
HETATM   10  H   UNL     1     -12.624  11.554  65.621  1.00  0.00     0.000 HD 
BRANCH   8  11
HETATM   11  C   UNL     1     -11.970  12.781  63.543  1.00  0.00    -0.555 C  
HETATM   12  H   UNL     1     -12.700  11.494  62.252  1.00  0.00     0.000 HD 
HETATM   13  O   UNL     1     -12.970  11.845  63.092  1.00  0.00    -0.640 OA 
BRANCH  11  14
HETATM   14  C   UNL     1     -10.616  12.055  63.536  1.00  0.00    -0.465 C  
HETATM   15  O   UNL     1     -10.624  10.943  62.639  1.00  0.00    -0.761 OA 
HETATM   16  H   UNL     1      -9.786  10.494  62.635  1.00  0.00     0.000 HD 
ENDBRANCH  11  14
ENDBRANCH   8  11
ENDBRANCH   5   8
ENDBRANCH   2   5
TORSDOF 4
ENDMDL
MODEL       30
REMARK 921   NORMALIZED FREE ENERGY PREDICTED BY IDOCK:   -4.50 KCAL/MOL
REMARK 922        TOTAL FREE ENERGY PREDICTED BY IDOCK:   -5.79 KCAL/MOL
REMARK 923 INTER-LIGAND FREE ENERGY PREDICTED BY IDOCK:   -5.34 KCAL/MOL
REMARK 924 INTRA-LIGAND FREE ENERGY PREDICTED BY IDOCK:   -0.45 KCAL/MOL
REMARK 927      BINDING AFFINITY PREDICTED BY RF-SCORE:    0.00 PKD
ROOT
HETATM    1  C   UNL     1     -11.243  14.135  68.151  1.00  0.00    -0.276 C  
HETATM    2  C   UNL     1     -10.315  14.728  67.118  1.00  0.00    -0.255 C  
HETATM    3  O   UNL     1     -11.595  12.954  68.131  1.00  0.00    -0.293 OA 
HETATM    4  F   UNL     1      -9.260  15.369  67.689  1.00  0.00    -0.182 F  
ENDROOT
BRANCH   2   5
HETATM    5  C   UNL     1     -11.028  15.676  66.149  1.00  0.00    -0.206 C  
HETATM    6  O   UNL     1     -10.427  16.989  66.147  1.00  0.00    -0.324 OA 
HETATM    7  H   UNL     1     -10.869  17.578  65.546  1.00  0.00     0.000 HD 
BRANCH   5   8
HETATM    8  C   UNL     1     -11.111  15.242  64.668  1.00  0.00    -0.332 C  
HETATM    9  O   UNL     1     -11.380  16.451  63.907  1.00  0.00    -1.510 OA 
HETATM   10  H   UNL     1     -11.431  16.184  62.997  1.00  0.00     0.000 HD 
BRANCH   8  11
HETATM   11  C   UNL     1     -12.158  14.170  64.287  1.00  0.00    -0.444 C  
HETATM   12  H   UNL     1     -13.760  13.404  65.125  1.00  0.00     0.000 HD 
HETATM   13  O   UNL     1     -13.117  14.063  65.359  1.00  0.00    -0.763 OA 
BRANCH  11  14
HETATM   14  C   UNL     1     -11.599  12.765  64.019  1.00  0.00    -0.424 C  
HETATM   15  O   UNL     1     -11.373  12.051  65.236  1.00  0.00    -0.325 OA 
HETATM   16  H   UNL     1     -11.027  11.182  65.070  1.00  0.00     0.000 HD 
ENDBRANCH  11  14
ENDBRANCH   8  11
ENDBRANCH   5   8
ENDBRANCH   2   5
TORSDOF 4
ENDMDL
MODEL       31
REMARK 921   NORMALIZED FREE ENERGY PREDICTED BY IDOCK:   -4.48 KCAL/MOL
REMARK 922        TOTAL FREE ENERGY PREDICTED BY IDOCK:   -5.76 KCAL/MOL
REMARK 923 INTER-LIGAND FREE ENERGY PREDICTED BY IDOCK:   -5.13 KCAL/MOL
REMARK 924 INTRA-LIGAND FREE ENERGY PREDICTED BY IDOCK:   -0.63 KCAL/MOL
REMARK 927      BINDING AFFINITY PREDICTED BY RF-SCORE:    0.00 PKD
ROOT
HETATM    1  C   UNL     1     -12.242  13.019  63.684  1.00  0.00    -0.491 C  
HETATM    2  C   UNL     1     -12.039  14.046  64.773  1.00  0.00    -0.437 C  
HETATM    3  O   UNL     1     -13.171  12.210  63.697  1.00  0.00    -0.770 OA 
HETATM    4  F   UNL     1     -11.915  15.304  64.271  1.00  0.00    -0.435 F  
ENDROOT
BRANCH   2   5
HETATM    5  C   UNL     1     -10.839  13.732  65.673  1.00  0.00    -0.287 C  
HETATM    6  O   UNL     1      -9.657  14.452  65.257  1.00  0.00    -0.533 OA 
HETATM    7  H   UNL     1      -8.913  14.257  65.815  1.00  0.00     0.000 HD 
BRANCH   5   8
HETATM    8  C   UNL     1     -10.998  14.010  67.185  1.00  0.00    -0.296 C  
HETATM    9  O   UNL     1     -11.900  12.988  67.689  1.00  0.00    -0.353 OA 
HETATM   10  H   UNL     1     -11.998  13.159  68.619  1.00  0.00     0.000 HD 
BRANCH   8  11
HETATM   11  C   UNL     1     -11.528  15.398  67.613  1.00  0.00    -0.251 C  
HETATM   12  H   UNL     1     -10.982  17.263  67.330  1.00  0.00     0.000 HD 
HETATM   13  O   UNL     1     -10.657  16.410  67.067  1.00  0.00    -0.305 OA 
BRANCH  11  14
HETATM   14  C   UNL     1     -11.622  15.631  69.128  1.00  0.00    -0.383 C  
HETATM   15  O   UNL     1     -12.805  15.047  69.675  1.00  0.00    -0.585 OA 
HETATM   16  H   UNL     1     -12.863  15.192  70.612  1.00  0.00     0.000 HD 
ENDBRANCH  11  14
ENDBRANCH   8  11
ENDBRANCH   5   8
ENDBRANCH   2   5
TORSDOF 4
ENDMDL
MODEL       32
REMARK 921   NORMALIZED FREE ENERGY PREDICTED BY IDOCK:   -4.48 KCAL/MOL
REMARK 922        TOTAL FREE ENERGY PREDICTED BY IDOCK:   -5.76 KCAL/MOL
REMARK 923 INTER-LIGAND FREE ENERGY PREDICTED BY IDOCK:   -5.44 KCAL/MOL
REMARK 924 INTRA-LIGAND FREE ENERGY PREDICTED BY IDOCK:   -0.32 KCAL/MOL
REMARK 927      BINDING AFFINITY PREDICTED BY RF-SCORE:    0.00 PKD
ROOT
HETATM    1  C   UNL     1     -11.368  15.686  64.871  1.00  0.00    -0.315 C  
HETATM    2  C   UNL     1     -11.950  14.331  64.544  1.00  0.00    -0.462 C  
HETATM    3  O   UNL     1     -11.067  16.509  64.004  1.00  0.00    -0.829 OA 
HETATM    4  F   UNL     1     -13.097  14.090  65.232  1.00  0.00    -0.482 F  
ENDROOT
BRANCH   2   5
HETATM    5  C   UNL     1     -10.960  13.185  64.779  1.00  0.00    -0.336 C  
HETATM    6  O   UNL     1      -9.990  13.090  63.713  1.00  0.00    -0.744 OA 
HETATM    7  H   UNL     1      -9.377  12.379  63.858  1.00  0.00     0.000 HD 
BRANCH   5   8
HETATM    8  C   UNL     1     -10.148  13.210  66.094  1.00  0.00    -0.291 C  
HETATM    9  O   UNL     1      -9.026  12.309  65.892  1.00  0.00    -0.424 OA 
HETATM   10  H   UNL     1      -8.526  12.325  66.700  1.00  0.00     0.000 HD 
BRANCH   8  11
HETATM   11  C   UNL     1     -10.876  12.814  67.399  1.00  0.00    -0.240 C  
HETATM   12  H   UNL     1     -12.416  11.691  67.870  1.00  0.00     0.000 HD 
HETATM   13  O   UNL     1     -11.969  11.934  67.068  1.00  0.00    -0.615 OA 
BRANCH  11  14
HETATM   14  C   UNL     1     -11.449  13.982  68.217  1.00  0.00    -0.304 C  
HETATM   15  O   UNL     1     -11.245  13.788  69.618  1.00  0.00    -0.398 OA 
HETATM   16  H   UNL     1     -11.600  14.511  70.123  1.00  0.00     0.000 HD 
ENDBRANCH  11  14
ENDBRANCH   8  11
ENDBRANCH   5   8
ENDBRANCH   2   5
TORSDOF 4
ENDMDL
MODEL       33
REMARK 921   NORMALIZED FREE ENERGY PREDICTED BY IDOCK:   -4.47 KCAL/MOL
REMARK 922        TOTAL FREE ENERGY PREDICTED BY IDOCK:   -5.75 KCAL/MOL
REMARK 923 INTER-LIGAND FREE ENERGY PREDICTED BY IDOCK:   -5.39 KCAL/MOL
REMARK 924 INTRA-LIGAND FREE ENERGY PREDICTED BY IDOCK:   -0.37 KCAL/MOL
REMARK 927      BINDING AFFINITY PREDICTED BY RF-SCORE:    0.00 PKD
ROOT
HETATM    1  C   UNL     1     -10.179   9.523  66.562  1.00  0.00    -0.237 C  
HETATM    2  C   UNL     1     -10.038  11.027  66.577  1.00  0.00    -0.226 C  
HETATM    3  O   UNL     1      -9.536   8.801  65.797  1.00  0.00    -0.229 OA 
HETATM    4  F   UNL     1      -9.790  11.503  67.826  1.00  0.00    -0.167 F  
ENDROOT
BRANCH   2   5
HETATM    5  C   UNL     1     -11.256  11.745  65.985  1.00  0.00    -0.296 C  
HETATM    6  O   UNL     1     -12.140  12.235  67.017  1.00  0.00    -0.575 OA 
HETATM    7  H   UNL     1     -12.895  12.680  66.651  1.00  0.00     0.000 HD 
BRANCH   5   8
HETATM    8  C   UNL     1     -10.982  12.947  65.052  1.00  0.00    -0.297 C  
HETATM    9  O   UNL     1      -9.544  13.159  65.079  1.00  0.00    -0.512 OA 
HETATM   10  H   UNL     1      -9.376  13.897  64.505  1.00  0.00     0.000 HD 
BRANCH   8  11
HETATM   11  C   UNL     1     -11.689  14.285  65.371  1.00  0.00    -0.354 C  
HETATM   12  H   UNL     1     -13.482  15.033  65.091  1.00  0.00     0.000 HD 
HETATM   13  O   UNL     1     -13.048  14.211  64.895  1.00  0.00    -0.677 OA 
BRANCH  11  14
HETATM   14  C   UNL     1     -11.045  15.536  64.753  1.00  0.00    -0.407 C  
HETATM   15  O   UNL     1     -11.901  16.137  63.781  1.00  0.00    -1.408 OA 
HETATM   16  H   UNL     1     -11.503  16.911  63.399  1.00  0.00     0.000 HD 
ENDBRANCH  11  14
ENDBRANCH   8  11
ENDBRANCH   5   8
ENDBRANCH   2   5
TORSDOF 4
ENDMDL
MODEL       34
REMARK 921   NORMALIZED FREE ENERGY PREDICTED BY IDOCK:   -4.47 KCAL/MOL
REMARK 922        TOTAL FREE ENERGY PREDICTED BY IDOCK:   -5.75 KCAL/MOL
REMARK 923 INTER-LIGAND FREE ENERGY PREDICTED BY IDOCK:   -5.31 KCAL/MOL
REMARK 924 INTRA-LIGAND FREE ENERGY PREDICTED BY IDOCK:   -0.43 KCAL/MOL
REMARK 927      BINDING AFFINITY PREDICTED BY RF-SCORE:    0.00 PKD
ROOT
HETATM    1  C   UNL     1     -10.449  16.430  65.669  1.00  0.00    -0.347 C  
HETATM    2  C   UNL     1     -11.143  15.439  64.765  1.00  0.00    -0.403 C  
HETATM    3  O   UNL     1      -9.242  16.667  65.595  1.00  0.00    -0.491 OA 
HETATM    4  F   UNL     1     -12.231  15.980  64.155  1.00  0.00    -0.406 F  
ENDROOT
BRANCH   2   5
HETATM    5  C   UNL     1     -11.550  14.152  65.492  1.00  0.00    -0.337 C  
HETATM    6  O   UNL     1     -12.956  13.867  65.325  1.00  0.00    -0.747 OA 
HETATM    7  H   UNL     1     -13.208  13.069  65.776  1.00  0.00     0.000 HD 
BRANCH   5   8
HETATM    8  C   UNL     1     -10.802  12.856  65.107  1.00  0.00    -0.296 C  
HETATM    9  O   UNL     1      -9.409  13.075  65.457  1.00  0.00    -0.456 OA 
HETATM   10  H   UNL     1      -8.949  12.278  65.220  1.00  0.00     0.000 HD 
BRANCH   8  11
HETATM   11  C   UNL     1     -10.877  12.390  63.635  1.00  0.00    -0.462 C  
HETATM   12  H   UNL     1     -12.284  11.724  62.437  1.00  0.00     0.000 HD 
HETATM   13  O   UNL     1     -12.238  12.011  63.342  1.00  0.00    -0.538 OA 
BRANCH  11  14
HETATM   14  C   UNL     1      -9.974  11.201  63.271  1.00  0.00    -0.379 C  
HETATM   15  O   UNL     1      -8.929  11.592  62.380  1.00  0.00    -0.453 OA 
HETATM   16  H   UNL     1      -8.370  10.857  62.155  1.00  0.00     0.000 HD 
ENDBRANCH  11  14
ENDBRANCH   8  11
ENDBRANCH   5   8
ENDBRANCH   2   5
TORSDOF 4
ENDMDL
MODEL       35
REMARK 921   NORMALIZED FREE ENERGY PREDICTED BY IDOCK:   -4.47 KCAL/MOL
REMARK 922        TOTAL FREE ENERGY PREDICTED BY IDOCK:   -5.75 KCAL/MOL
REMARK 923 INTER-LIGAND FREE ENERGY PREDICTED BY IDOCK:   -5.44 KCAL/MOL
REMARK 924 INTRA-LIGAND FREE ENERGY PREDICTED BY IDOCK:   -0.31 KCAL/MOL
REMARK 927      BINDING AFFINITY PREDICTED BY RF-SCORE:    0.00 PKD
ROOT
HETATM    1  C   UNL     1     -11.694  15.598  64.096  1.00  0.00    -0.075 C  
HETATM    2  C   UNL     1     -11.157  14.492  64.972  1.00  0.00    -0.387 C  
HETATM    3  O   UNL     1     -11.395  16.783  64.259  1.00  0.00    -1.170 OA 
HETATM    4  F   UNL     1     -10.598  13.490  64.243  1.00  0.00    -0.394 F  
ENDROOT
BRANCH   2   5
HETATM    5  C   UNL     1     -12.215  13.911  65.916  1.00  0.00    -0.467 C  
HETATM    6  O   UNL     1     -12.441  12.507  65.666  1.00  0.00    -0.648 OA 
HETATM    7  H   UNL     1     -13.097  12.147  66.251  1.00  0.00     0.000 HD 
BRANCH   5   8
HETATM    8  C   UNL     1     -11.954  14.038  67.434  1.00  0.00    -0.404 C  
HETATM    9  O   UNL     1     -11.379  15.358  67.635  1.00  0.00    -0.331 OA 
HETATM   10  H   UNL     1     -11.218  15.436  68.569  1.00  0.00     0.000 HD 
BRANCH   8  11
HETATM   11  C   UNL     1     -11.035  12.988  68.099  1.00  0.00    -0.244 C  
HETATM   12  H   UNL     1      -9.642  11.745  67.489  1.00  0.00     0.000 HD 
HETATM   13  O   UNL     1     -10.207  12.391  67.080  1.00  0.00    -0.215 OA 
BRANCH  11  14
HETATM   14  C   UNL     1     -11.757  11.851  68.838  1.00  0.00    -0.323 C  
HETATM   15  O   UNL     1     -12.021  10.748  67.970  1.00  0.00    -0.780 OA 
HETATM   16  H   UNL     1     -12.467  10.044  68.427  1.00  0.00     0.000 HD 
ENDBRANCH  11  14
ENDBRANCH   8  11
ENDBRANCH   5   8
ENDBRANCH   2   5
TORSDOF 4
ENDMDL
MODEL       36
REMARK 921   NORMALIZED FREE ENERGY PREDICTED BY IDOCK:   -4.47 KCAL/MOL
REMARK 922        TOTAL FREE ENERGY PREDICTED BY IDOCK:   -5.74 KCAL/MOL
REMARK 923 INTER-LIGAND FREE ENERGY PREDICTED BY IDOCK:   -5.15 KCAL/MOL
REMARK 924 INTRA-LIGAND FREE ENERGY PREDICTED BY IDOCK:   -0.60 KCAL/MOL
REMARK 927      BINDING AFFINITY PREDICTED BY RF-SCORE:    0.00 PKD
ROOT
HETATM    1  C   UNL     1     -12.216  12.999  63.577  1.00  0.00    -0.501 C  
HETATM    2  C   UNL     1     -12.085  14.133  64.567  1.00  0.00    -0.468 C  
HETATM    3  O   UNL     1     -12.926  12.013  63.784  1.00  0.00    -0.709 OA 
HETATM    4  F   UNL     1     -12.327  15.341  63.993  1.00  0.00    -0.487 F  
ENDROOT
BRANCH   2   5
HETATM    5  C   UNL     1     -10.721  14.160  65.265  1.00  0.00    -0.364 C  
HETATM    6  O   UNL     1     -10.324  15.505  65.609  1.00  0.00    -0.328 OA 
HETATM    7  H   UNL     1      -9.479  15.522  66.042  1.00  0.00     0.000 HD 
BRANCH   5   8
HETATM    8  C   UNL     1     -10.574  13.327  66.559  1.00  0.00    -0.286 C  
HETATM    9  O   UNL     1     -10.258  11.973  66.134  1.00  0.00    -0.216 OA 
HETATM   10  H   UNL     1     -10.167  11.462  66.929  1.00  0.00     0.000 HD 
BRANCH   8  11
HETATM   11  C   UNL     1     -11.778  13.277  67.527  1.00  0.00    -0.366 C  
HETATM   12  H   UNL     1     -12.652  14.534  68.756  1.00  0.00     0.000 HD 
HETATM   13  O   UNL     1     -11.912  14.565  68.161  1.00  0.00    -0.316 OA 
BRANCH  11  14
HETATM   14  C   UNL     1     -11.690  12.218  68.637  1.00  0.00    -0.328 C  
HETATM   15  O   UNL     1     -12.166  10.948  68.188  1.00  0.00    -0.781 OA 
HETATM   16  H   UNL     1     -12.112  10.294  68.874  1.00  0.00     0.000 HD 
ENDBRANCH  11  14
ENDBRANCH   8  11
ENDBRANCH   5   8
ENDBRANCH   2   5
TORSDOF 4
ENDMDL
MODEL       37
REMARK 921   NORMALIZED FREE ENERGY PREDICTED BY IDOCK:   -4.45 KCAL/MOL
REMARK 922        TOTAL FREE ENERGY PREDICTED BY IDOCK:   -5.73 KCAL/MOL
REMARK 923 INTER-LIGAND FREE ENERGY PREDICTED BY IDOCK:   -5.45 KCAL/MOL
REMARK 924 INTRA-LIGAND FREE ENERGY PREDICTED BY IDOCK:   -0.27 KCAL/MOL
REMARK 927      BINDING AFFINITY PREDICTED BY RF-SCORE:    0.00 PKD
ROOT
HETATM    1  C   UNL     1     -11.778  12.713  65.153  1.00  0.00    -0.367 C  
HETATM    2  C   UNL     1     -12.235  13.984  64.477  1.00  0.00    -0.434 C  
HETATM    3  O   UNL     1     -12.223  12.339  66.240  1.00  0.00    -0.628 OA 
HETATM    4  F   UNL     1     -12.626  13.767  63.194  1.00  0.00    -0.458 F  
ENDROOT
BRANCH   2   5
HETATM    5  C   UNL     1     -11.176  15.092  64.511  1.00  0.00    -0.265 C  
HETATM    6  O   UNL     1     -11.580  16.240  63.734  1.00  0.00    -1.539 OA 
HETATM    7  H   UNL     1     -10.924  16.927  63.754  1.00  0.00     0.000 HD 
BRANCH   5   8
HETATM    8  C   UNL     1     -10.767  15.636  65.898  1.00  0.00    -0.329 C  
HETATM    9  O   UNL     1     -10.417  17.032  65.696  1.00  0.00    -0.519 OA 
HETATM   10  H   UNL     1     -10.165  17.367  66.549  1.00  0.00     0.000 HD 
BRANCH   8  11
HETATM   11  C   UNL     1      -9.605  14.933  66.636  1.00  0.00    -0.266 C  
HETATM   12  H   UNL     1      -9.436  13.752  68.196  1.00  0.00     0.000 HD 
HETATM   13  O   UNL     1     -10.150  14.184  67.742  1.00  0.00    -0.233 OA 
BRANCH  11  14
HETATM   14  C   UNL     1      -8.517  15.863  67.194  1.00  0.00    -0.199 C  
HETATM   15  O   UNL     1      -7.680  16.372  66.154  1.00  0.00    -0.216 OA 
HETATM   16  H   UNL     1      -7.007  16.947  66.500  1.00  0.00     0.000 HD 
ENDBRANCH  11  14
ENDBRANCH   8  11
ENDBRANCH   5   8
ENDBRANCH   2   5
TORSDOF 4
ENDMDL
MODEL       38
REMARK 921   NORMALIZED FREE ENERGY PREDICTED BY IDOCK:   -4.45 KCAL/MOL
REMARK 922        TOTAL FREE ENERGY PREDICTED BY IDOCK:   -5.72 KCAL/MOL
REMARK 923 INTER-LIGAND FREE ENERGY PREDICTED BY IDOCK:   -5.32 KCAL/MOL
REMARK 924 INTRA-LIGAND FREE ENERGY PREDICTED BY IDOCK:   -0.40 KCAL/MOL
REMARK 927      BINDING AFFINITY PREDICTED BY RF-SCORE:    0.00 PKD
ROOT
HETATM    1  C   UNL     1     -11.326  12.959  68.746  1.00  0.00    -0.290 C  
HETATM    2  C   UNL     1     -11.682  11.790  67.858  1.00  0.00    -0.276 C  
HETATM    3  O   UNL     1     -11.968  14.011  68.753  1.00  0.00    -0.338 OA 
HETATM    4  F   UNL     1     -11.798  10.632  68.561  1.00  0.00    -0.353 F  
ENDROOT
BRANCH   2   5
HETATM    5  C   UNL     1     -10.692  11.594  66.705  1.00  0.00    -0.270 C  
HETATM    6  O   UNL     1     -10.303  10.210  66.565  1.00  0.00    -0.231 OA 
HETATM    7  H   UNL     1      -9.689  10.089  65.850  1.00  0.00     0.000 HD 
BRANCH   5   8
HETATM    8  C   UNL     1     -11.144  12.055  65.300  1.00  0.00    -0.317 C  
HETATM    9  O   UNL     1     -10.048  12.843  64.762  1.00  0.00    -0.452 OA 
HETATM   10  H   UNL     1     -10.325  13.126  63.899  1.00  0.00     0.000 HD 
BRANCH   8  11
HETATM   11  C   UNL     1     -12.448  12.879  65.195  1.00  0.00    -0.501 C  
HETATM   12  H   UNL     1     -14.144  12.715  64.218  1.00  0.00     0.000 HD 
HETATM   13  O   UNL     1     -13.343  12.209  64.283  1.00  0.00    -0.761 OA 
BRANCH  11  14
HETATM   14  C   UNL     1     -12.279  14.325  64.704  1.00  0.00    -0.454 C  
HETATM   15  O   UNL     1     -12.370  14.408  63.281  1.00  0.00    -1.079 OA 
HETATM   16  H   UNL     1     -12.265  15.302  62.977  1.00  0.00     0.000 HD 
ENDBRANCH  11  14
ENDBRANCH   8  11
ENDBRANCH   5   8
ENDBRANCH   2   5
TORSDOF 4
ENDMDL
MODEL       39
REMARK 921   NORMALIZED FREE ENERGY PREDICTED BY IDOCK:   -4.42 KCAL/MOL
REMARK 922        TOTAL FREE ENERGY PREDICTED BY IDOCK:   -5.69 KCAL/MOL
REMARK 923 INTER-LIGAND FREE ENERGY PREDICTED BY IDOCK:   -5.26 KCAL/MOL
REMARK 924 INTRA-LIGAND FREE ENERGY PREDICTED BY IDOCK:   -0.43 KCAL/MOL
REMARK 927      BINDING AFFINITY PREDICTED BY RF-SCORE:    0.00 PKD
ROOT
HETATM    1  C   UNL     1     -11.123   7.483  72.490  1.00  0.00    -0.321 C  
HETATM    2  C   UNL     1     -12.531   7.411  71.946  1.00  0.00    -0.302 C  
HETATM    3  O   UNL     1     -10.808   7.015  73.585  1.00  0.00    -0.336 OA 
HETATM    4  F   UNL     1     -12.567   6.887  70.693  1.00  0.00    -0.414 F  
ENDROOT
BRANCH   2   5
HETATM    5  C   UNL     1     -13.244   8.768  71.956  1.00  0.00    -0.395 C  
HETATM    6  O   UNL     1     -13.927   9.003  73.206  1.00  0.00    -1.205 OA 
HETATM    7  H   UNL     1     -14.370   9.844  73.213  1.00  0.00     0.000 HD 
BRANCH   5   8
HETATM    8  C   UNL     1     -12.378  10.023  71.700  1.00  0.00    -0.394 C  
HETATM    9  O   UNL     1     -13.187  11.160  72.105  1.00  0.00    -0.586 OA 
HETATM   10  H   UNL     1     -12.655  11.931  71.948  1.00  0.00     0.000 HD 
BRANCH   8  11
HETATM   11  C   UNL     1     -11.863  10.264  70.263  1.00  0.00    -0.288 C  
HETATM   12  H   UNL     1     -10.113  10.259  69.373  1.00  0.00     0.000 HD 
HETATM   13  O   UNL     1     -10.429  10.111  70.256  1.00  0.00    -0.281 OA 
BRANCH  11  14
HETATM   14  C   UNL     1     -12.187  11.643  69.667  1.00  0.00    -0.206 C  
HETATM   15  O   UNL     1     -11.609  12.695  70.441  1.00  0.00    -0.533 OA 
HETATM   16  H   UNL     1     -11.810  13.548  70.072  1.00  0.00     0.000 HD 
ENDBRANCH  11  14
ENDBRANCH   8  11
ENDBRANCH   5   8
ENDBRANCH   2   5
TORSDOF 4
ENDMDL
MODEL       40
REMARK 921   NORMALIZED FREE ENERGY PREDICTED BY IDOCK:   -4.42 KCAL/MOL
REMARK 922        TOTAL FREE ENERGY PREDICTED BY IDOCK:   -5.68 KCAL/MOL
REMARK 923 INTER-LIGAND FREE ENERGY PREDICTED BY IDOCK:   -5.43 KCAL/MOL
REMARK 924 INTRA-LIGAND FREE ENERGY PREDICTED BY IDOCK:   -0.25 KCAL/MOL
REMARK 927      BINDING AFFINITY PREDICTED BY RF-SCORE:    0.00 PKD
ROOT
HETATM    1  C   UNL     1      -9.312  12.189  68.299  1.00  0.00    -0.198 C  
HETATM    2  C   UNL     1     -10.416  13.021  67.692  1.00  0.00    -0.225 C  
HETATM    3  O   UNL     1      -8.130  12.537  68.285  1.00  0.00    -0.155 OA 
HETATM    4  F   UNL     1     -11.433  13.238  68.568  1.00  0.00    -0.267 F  
ENDROOT
BRANCH   2   5
HETATM    5  C   UNL     1     -10.973  12.420  66.397  1.00  0.00    -0.276 C  
HETATM    6  O   UNL     1     -12.379  12.110  66.514  1.00  0.00    -0.474 OA 
HETATM    7  H   UNL     1     -12.725  11.737  65.712  1.00  0.00     0.000 HD 
BRANCH   5   8
HETATM    8  C   UNL     1     -10.827  13.259  65.108  1.00  0.00    -0.310 C  
HETATM    9  O   UNL     1      -9.551  13.947  65.217  1.00  0.00    -0.556 OA 
HETATM   10  H   UNL     1      -9.461  14.463  64.424  1.00  0.00     0.000 HD 
BRANCH   8  11
HETATM   11  C   UNL     1     -11.928  14.298  64.793  1.00  0.00    -0.440 C  
HETATM   12  H   UNL     1     -13.094  14.697  63.264  1.00  0.00     0.000 HD 
HETATM   13  O   UNL     1     -12.417  14.059  63.457  1.00  0.00    -0.826 OA 
BRANCH  11  14
HETATM   14  C   UNL     1     -11.491  15.769  64.873  1.00  0.00    -0.193 C  
HETATM   15  O   UNL     1     -11.588  16.413  63.602  1.00  0.00    -1.514 OA 
HETATM   16  H   UNL     1     -11.318  17.323  63.651  1.00  0.00     0.000 HD 
ENDBRANCH  11  14
ENDBRANCH   8  11
ENDBRANCH   5   8
ENDBRANCH   2   5
TORSDOF 4
ENDMDL
MODEL       41
REMARK 921   NORMALIZED FREE ENERGY PREDICTED BY IDOCK:   -4.36 KCAL/MOL
REMARK 922        TOTAL FREE ENERGY PREDICTED BY IDOCK:   -5.61 KCAL/MOL
REMARK 923 INTER-LIGAND FREE ENERGY PREDICTED BY IDOCK:   -5.26 KCAL/MOL
REMARK 924 INTRA-LIGAND FREE ENERGY PREDICTED BY IDOCK:   -0.36 KCAL/MOL
REMARK 927      BINDING AFFINITY PREDICTED BY RF-SCORE:    0.00 PKD
ROOT
HETATM    1  C   UNL     1      -9.824  14.143  68.463  1.00  0.00    -0.230 C  
HETATM    2  C   UNL     1     -10.965  14.008  67.484  1.00  0.00    -0.277 C  
HETATM    3  O   UNL     1      -9.708  15.107  69.222  1.00  0.00    -0.222 OA 
HETATM    4  F   UNL     1     -11.599  12.810  67.601  1.00  0.00    -0.307 F  
ENDROOT
BRANCH   2   5
HETATM    5  C   UNL     1     -10.531  14.219  66.029  1.00  0.00    -0.301 C  
HETATM    6  O   UNL     1      -9.103  14.407  65.920  1.00  0.00    -0.499 OA 
HETATM    7  H   UNL     1      -8.834  14.538  65.018  1.00  0.00     0.000 HD 
BRANCH   5   8
HETATM    8  C   UNL     1     -10.895  13.111  65.016  1.00  0.00    -0.315 C  
HETATM    9  O   UNL     1      -9.752  12.985  64.128  1.00  0.00    -0.673 OA 
HETATM   10  H   UNL     1      -9.975  12.303  63.505  1.00  0.00     0.000 HD 
BRANCH   8  11
HETATM   11  C   UNL     1     -12.170  13.302  64.162  1.00  0.00    -0.401 C  
HETATM   12  H   UNL     1     -14.030  13.830  64.505  1.00  0.00     0.000 HD 
HETATM   13  O   UNL     1     -13.247  13.712  65.030  1.00  0.00    -0.729 OA 
BRANCH  11  14
HETATM   14  C   UNL     1     -12.641  12.061  63.389  1.00  0.00    -0.469 C  
HETATM   15  O   UNL     1     -11.537  11.325  62.859  1.00  0.00    -0.834 OA 
HETATM   16  H   UNL     1     -11.829  10.557  62.381  1.00  0.00     0.000 HD 
ENDBRANCH  11  14
ENDBRANCH   8  11
ENDBRANCH   5   8
ENDBRANCH   2   5
TORSDOF 4
ENDMDL
MODEL       42
REMARK 921   NORMALIZED FREE ENERGY PREDICTED BY IDOCK:   -4.34 KCAL/MOL
REMARK 922        TOTAL FREE ENERGY PREDICTED BY IDOCK:   -5.59 KCAL/MOL
REMARK 923 INTER-LIGAND FREE ENERGY PREDICTED BY IDOCK:   -5.19 KCAL/MOL
REMARK 924 INTRA-LIGAND FREE ENERGY PREDICTED BY IDOCK:   -0.40 KCAL/MOL
REMARK 927      BINDING AFFINITY PREDICTED BY RF-SCORE:    0.00 PKD
ROOT
HETATM    1  C   UNL     1     -12.092  12.427  64.167  1.00  0.00    -0.453 C  
HETATM    2  C   UNL     1     -10.778  13.166  64.258  1.00  0.00    -0.409 C  
HETATM    3  O   UNL     1     -12.533  11.981  63.106  1.00  0.00    -0.503 OA 
HETATM    4  F   UNL     1      -9.964  12.644  65.213  1.00  0.00    -0.272 F  
ENDROOT
BRANCH   2   5
HETATM    5  C   UNL     1     -10.956  14.669  64.501  1.00  0.00    -0.231 C  
HETATM    6  O   UNL     1     -12.227  15.143  64.006  1.00  0.00    -0.892 OA 
HETATM    7  H   UNL     1     -12.338  16.075  64.156  1.00  0.00     0.000 HD 
BRANCH   5   8
HETATM    8  C   UNL     1     -10.854  15.166  65.961  1.00  0.00    -0.335 C  
HETATM    9  O   UNL     1     -12.059  14.704  66.629  1.00  0.00    -0.347 OA 
HETATM   10  H   UNL     1     -11.997  15.009  67.527  1.00  0.00     0.000 HD 
BRANCH   8  11
HETATM   11  C   UNL     1     -10.705  16.686  66.198  1.00  0.00    -0.132 C  
HETATM   12  H   UNL     1     -10.835  18.305  65.094  1.00  0.00     0.000 HD 
HETATM   13  O   UNL     1     -10.927  17.370  64.948  1.00  0.00    -0.862 OA 
BRANCH  11  14
HETATM   14  C   UNL     1      -9.341  17.139  66.742  1.00  0.00    -0.254 C  
HETATM   15  O   UNL     1      -8.810  18.226  65.981  1.00  0.00    -0.502 OA 
HETATM   16  H   UNL     1      -7.966  18.506  66.317  1.00  0.00     0.000 HD 
ENDBRANCH  11  14
ENDBRANCH   8  11
ENDBRANCH   5   8
ENDBRANCH   2   5
TORSDOF 4
ENDMDL
MODEL       43
REMARK 921   NORMALIZED FREE ENERGY PREDICTED BY IDOCK:   -4.34 KCAL/MOL
REMARK 922        TOTAL FREE ENERGY PREDICTED BY IDOCK:   -5.59 KCAL/MOL
REMARK 923 INTER-LIGAND FREE ENERGY PREDICTED BY IDOCK:   -4.85 KCAL/MOL
REMARK 924 INTRA-LIGAND FREE ENERGY PREDICTED BY IDOCK:   -0.74 KCAL/MOL
REMARK 927      BINDING AFFINITY PREDICTED BY RF-SCORE:    0.00 PKD
ROOT
HETATM    1  C   UNL     1     -11.695  15.771  64.696  1.00  0.00    -0.147 C  
HETATM    2  C   UNL     1     -12.250  14.371  64.581  1.00  0.00    -0.464 C  
HETATM    3  O   UNL     1     -11.538  16.508  63.721  1.00  0.00    -1.109 OA 
HETATM    4  F   UNL     1     -13.295  14.166  65.426  1.00  0.00    -0.494 F  
ENDROOT
BRANCH   2   5
HETATM    5  C   UNL     1     -11.188  13.289  64.806  1.00  0.00    -0.331 C  
HETATM    6  O   UNL     1      -9.860  13.774  64.508  1.00  0.00    -0.624 OA 
HETATM    7  H   UNL     1      -9.202  13.103  64.647  1.00  0.00     0.000 HD 
BRANCH   5   8
HETATM    8  C   UNL     1     -11.107  12.660  66.215  1.00  0.00    -0.293 C  
HETATM    9  O   UNL     1     -10.358  13.598  67.033  1.00  0.00    -0.256 OA 
HETATM   10  H   UNL     1     -10.309  13.212  67.900  1.00  0.00     0.000 HD 
BRANCH   8  11
HETATM   11  C   UNL     1     -10.463  11.260  66.346  1.00  0.00    -0.257 C  
HETATM   12  H   UNL     1     -10.896   9.592  67.286  1.00  0.00     0.000 HD 
HETATM   13  O   UNL     1     -11.292  10.451  67.206  1.00  0.00    -0.327 OA 
BRANCH  11  14
HETATM   14  C   UNL     1      -9.038  11.240  66.919  1.00  0.00    -0.167 C  
HETATM   15  O   UNL     1      -8.128  11.955  66.082  1.00  0.00    -0.378 OA 
HETATM   16  H   UNL     1      -7.246  11.942  66.437  1.00  0.00     0.000 HD 
ENDBRANCH  11  14
ENDBRANCH   8  11
ENDBRANCH   5   8
ENDBRANCH   2   5
TORSDOF 4
ENDMDL
MODEL       44
REMARK 921   NORMALIZED FREE ENERGY PREDICTED BY IDOCK:   -4.33 KCAL/MOL
REMARK 922        TOTAL FREE ENERGY PREDICTED BY IDOCK:   -5.58 KCAL/MOL
REMARK 923 INTER-LIGAND FREE ENERGY PREDICTED BY IDOCK:   -5.30 KCAL/MOL
REMARK 924 INTRA-LIGAND FREE ENERGY PREDICTED BY IDOCK:   -0.28 KCAL/MOL
REMARK 927      BINDING AFFINITY PREDICTED BY RF-SCORE:    0.00 PKD
ROOT
HETATM    1  C   UNL     1     -11.557  11.727  68.750  1.00  0.00    -0.307 C  
HETATM    2  C   UNL     1     -11.438  12.184  67.315  1.00  0.00    -0.345 C  
HETATM    3  O   UNL     1     -12.462  10.988  69.140  1.00  0.00    -0.432 OA 
HETATM    4  F   UNL     1     -10.202  11.941  66.803  1.00  0.00    -0.213 F  
ENDROOT
BRANCH   2   5
HETATM    5  C   UNL     1     -11.788  13.665  67.130  1.00  0.00    -0.396 C  
HETATM    6  O   UNL     1     -12.405  14.219  68.312  1.00  0.00    -0.592 OA 
HETATM    7  H   UNL     1     -12.622  15.137  68.198  1.00  0.00     0.000 HD 
BRANCH   5   8
HETATM    8  C   UNL     1     -10.633  14.623  66.760  1.00  0.00    -0.288 C  
HETATM    9  O   UNL     1     -10.850  15.833  67.536  1.00  0.00    -0.313 OA 
HETATM   10  H   UNL     1     -10.140  16.422  67.309  1.00  0.00     0.000 HD 
BRANCH   8  11
HETATM   11  C   UNL     1     -10.463  15.009  65.273  1.00  0.00    -0.403 C  
HETATM   12  H   UNL     1     -10.133  16.668  64.276  1.00  0.00     0.000 HD 
HETATM   13  O   UNL     1     -10.238  16.431  65.190  1.00  0.00    -0.582 OA 
BRANCH  11  14
HETATM   14  C   UNL     1     -11.652  14.671  64.361  1.00  0.00    -0.305 C  
HETATM   15  O   UNL     1     -12.124  15.827  63.667  1.00  0.00    -1.126 OA 
HETATM   16  H   UNL     1     -12.860  15.618  63.103  1.00  0.00     0.000 HD 
ENDBRANCH  11  14
ENDBRANCH   8  11
ENDBRANCH   5   8
ENDBRANCH   2   5
TORSDOF 4
ENDMDL
MODEL       45
REMARK 921   NORMALIZED FREE ENERGY PREDICTED BY IDOCK:   -4.32 KCAL/MOL
REMARK 922        TOTAL FREE ENERGY PREDICTED BY IDOCK:   -5.57 KCAL/MOL
REMARK 923 INTER-LIGAND FREE ENERGY PREDICTED BY IDOCK:   -5.12 KCAL/MOL
REMARK 924 INTRA-LIGAND FREE ENERGY PREDICTED BY IDOCK:   -0.44 KCAL/MOL
REMARK 927      BINDING AFFINITY PREDICTED BY RF-SCORE:    0.00 PKD
ROOT
HETATM    1  C   UNL     1      -9.641  10.089  66.216  1.00  0.00    -0.202 C  
HETATM    2  C   UNL     1      -9.899  10.294  64.742  1.00  0.00    -0.334 C  
HETATM    3  O   UNL     1     -10.441   9.520  66.960  1.00  0.00    -0.249 OA 
HETATM    4  F   UNL     1      -8.869   9.846  63.977  1.00  0.00    -0.165 F  
ENDROOT
BRANCH   2   5
HETATM    5  C   UNL     1     -10.206  11.753  64.387  1.00  0.00    -0.289 C  
HETATM    6  O   UNL     1      -9.452  12.192  63.236  1.00  0.00    -0.664 OA 
HETATM    7  H   UNL     1      -9.642  13.097  63.016  1.00  0.00     0.000 HD 
BRANCH   5   8
HETATM    8  C   UNL     1     -11.680  12.114  64.096  1.00  0.00    -0.396 C  
HETATM    9  O   UNL     1     -11.663  12.952  62.908  1.00  0.00    -0.776 OA 
HETATM   10  H   UNL     1     -12.569  13.174  62.729  1.00  0.00     0.000 HD 
BRANCH   8  11
HETATM   11  C   UNL     1     -12.479  12.837  65.204  1.00  0.00    -0.501 C  
HETATM   12  H   UNL     1     -13.290  14.612  65.428  1.00  0.00     0.000 HD 
HETATM   13  O   UNL     1     -12.799  14.168  64.747  1.00  0.00    -0.677 OA 
BRANCH  11  14
HETATM   14  C   UNL     1     -11.763  12.969  66.557  1.00  0.00    -0.382 C  
HETATM   15  O   UNL     1     -12.252  12.017  67.503  1.00  0.00    -0.490 OA 
HETATM   16  H   UNL     1     -11.809  12.098  68.339  1.00  0.00     0.000 HD 
ENDBRANCH  11  14
ENDBRANCH   8  11
ENDBRANCH   5   8
ENDBRANCH   2   5
TORSDOF 4
ENDMDL
MODEL       46
REMARK 921   NORMALIZED FREE ENERGY PREDICTED BY IDOCK:   -4.31 KCAL/MOL
REMARK 922        TOTAL FREE ENERGY PREDICTED BY IDOCK:   -5.55 KCAL/MOL
REMARK 923 INTER-LIGAND FREE ENERGY PREDICTED BY IDOCK:   -5.09 KCAL/MOL
REMARK 924 INTRA-LIGAND FREE ENERGY PREDICTED BY IDOCK:   -0.46 KCAL/MOL
REMARK 927      BINDING AFFINITY PREDICTED BY RF-SCORE:    0.00 PKD
ROOT
HETATM    1  C   UNL     1      -9.559   6.803  70.447  1.00  0.00    -0.169 C  
HETATM    2  C   UNL     1     -10.780   5.917  70.517  1.00  0.00    -0.294 C  
HETATM    3  O   UNL     1      -8.501   6.526  71.015  1.00  0.00    -0.125 OA 
HETATM    4  F   UNL     1     -11.270   5.627  69.283  1.00  0.00    -0.400 F  
ENDROOT
BRANCH   2   5
HETATM    5  C   UNL     1     -11.895   6.506  71.387  1.00  0.00    -0.329 C  
HETATM    6  O   UNL     1     -12.089   5.741  72.597  1.00  0.00    -0.518 OA 
HETATM    7  H   UNL     1     -12.781   6.106  73.136  1.00  0.00     0.000 HD 
BRANCH   5   8
HETATM    8  C   UNL     1     -11.741   7.978  71.833  1.00  0.00    -0.303 C  
HETATM    9  O   UNL     1     -11.598   7.949  73.279  1.00  0.00    -0.610 OA 
HETATM   10  H   UNL     1     -11.503   8.853  73.553  1.00  0.00     0.000 HD 
BRANCH   8  11
HETATM   11  C   UNL     1     -12.870   8.967  71.464  1.00  0.00    -0.334 C  
HETATM   12  H   UNL     1     -13.178  10.895  71.669  1.00  0.00     0.000 HD 
HETATM   13  O   UNL     1     -12.484  10.288  71.896  1.00  0.00    -0.374 OA 
BRANCH  11  14
HETATM   14  C   UNL     1     -14.245   8.659  72.077  1.00  0.00    -0.443 C  
HETATM   15  O   UNL     1     -14.251   8.887  73.487  1.00  0.00    -1.194 OA 
HETATM   16  H   UNL     1     -15.102   8.697  73.866  1.00  0.00     0.000 HD 
ENDBRANCH  11  14
ENDBRANCH   8  11
ENDBRANCH   5   8
ENDBRANCH   2   5
TORSDOF 4
ENDMDL
MODEL       47
REMARK 921   NORMALIZED FREE ENERGY PREDICTED BY IDOCK:   -4.31 KCAL/MOL
REMARK 922        TOTAL FREE ENERGY PREDICTED BY IDOCK:   -5.55 KCAL/MOL
REMARK 923 INTER-LIGAND FREE ENERGY PREDICTED BY IDOCK:   -5.07 KCAL/MOL
REMARK 924 INTRA-LIGAND FREE ENERGY PREDICTED BY IDOCK:   -0.47 KCAL/MOL
REMARK 927      BINDING AFFINITY PREDICTED BY RF-SCORE:    0.00 PKD
ROOT
HETATM    1  C   UNL     1     -12.564  13.910  65.615  1.00  0.00    -0.517 C  
HETATM    2  C   UNL     1     -11.883  13.450  64.348  1.00  0.00    -0.408 C  
HETATM    3  O   UNL     1     -11.958  14.469  66.532  1.00  0.00    -0.397 OA 
HETATM    4  F   UNL     1     -12.509  13.916  63.235  1.00  0.00    -0.503 F  
ENDROOT
BRANCH   2   5
HETATM    5  C   UNL     1     -11.750  11.926  64.262  1.00  0.00    -0.303 C  
HETATM    6  O   UNL     1     -11.993  11.443  62.923  1.00  0.00    -0.898 OA 
HETATM    7  H   UNL     1     -11.911  10.498  62.869  1.00  0.00     0.000 HD 
BRANCH   5   8
HETATM    8  C   UNL     1     -10.402  11.308  64.700  1.00  0.00    -0.315 C  
HETATM    9  O   UNL     1     -10.243  10.092  63.920  1.00  0.00    -0.464 OA 
HETATM   10  H   UNL     1      -9.415   9.713  64.189  1.00  0.00     0.000 HD 
BRANCH   8  11
HETATM   11  C   UNL     1     -10.216  10.968  66.197  1.00  0.00    -0.247 C  
HETATM   12  H   UNL     1     -11.391  10.793  67.760  1.00  0.00     0.000 HD 
HETATM   13  O   UNL     1     -11.506  11.002  66.840  1.00  0.00    -0.384 OA 
BRANCH  11  14
HETATM   14  C   UNL     1      -9.281  11.906  66.976  1.00  0.00    -0.191 C  
HETATM   15  O   UNL     1      -9.018  13.106  66.248  1.00  0.00    -0.448 OA 
HETATM   16  H   UNL     1      -8.440  13.686  66.730  1.00  0.00     0.000 HD 
ENDBRANCH  11  14
ENDBRANCH   8  11
ENDBRANCH   5   8
ENDBRANCH   2   5
TORSDOF 4
ENDMDL
MODEL       48
REMARK 921   NORMALIZED FREE ENERGY PREDICTED BY IDOCK:   -4.30 KCAL/MOL
REMARK 922        TOTAL FREE ENERGY PREDICTED BY IDOCK:   -5.54 KCAL/MOL
REMARK 923 INTER-LIGAND FREE ENERGY PREDICTED BY IDOCK:   -5.12 KCAL/MOL
REMARK 924 INTRA-LIGAND FREE ENERGY PREDICTED BY IDOCK:   -0.43 KCAL/MOL
REMARK 927      BINDING AFFINITY PREDICTED BY RF-SCORE:    0.00 PKD
ROOT
HETATM    1  C   UNL     1     -12.170  12.113  63.569  1.00  0.00    -0.567 C  
HETATM    2  C   UNL     1     -10.683  11.849  63.550  1.00  0.00    -0.442 C  
HETATM    3  O   UNL     1     -12.653  13.219  63.321  1.00  0.00    -0.711 OA 
HETATM    4  F   UNL     1     -10.364  10.783  62.768  1.00  0.00    -0.283 F  
ENDROOT
BRANCH   2   5
HETATM    5  C   UNL     1     -10.094  11.653  64.951  1.00  0.00    -0.260 C  
HETATM    6  O   UNL     1      -8.716  11.223  64.896  1.00  0.00    -0.383 OA 
HETATM    7  H   UNL     1      -8.351  11.101  65.765  1.00  0.00     0.000 HD 
BRANCH   5   8
HETATM    8  C   UNL     1     -10.124  12.868  65.907  1.00  0.00    -0.289 C  
HETATM    9  O   UNL     1      -8.741  13.129  66.270  1.00  0.00    -0.418 OA 
HETATM   10  H   UNL     1      -8.760  13.876  66.857  1.00  0.00     0.000 HD 
BRANCH   8  11
HETATM   11  C   UNL     1     -10.965  12.750  67.198  1.00  0.00    -0.263 C  
HETATM   12  H   UNL     1     -12.337  11.521  67.880  1.00  0.00     0.000 HD 
HETATM   13  O   UNL     1     -11.821  11.594  67.086  1.00  0.00    -0.608 OA 
BRANCH  11  14
HETATM   14  C   UNL     1     -11.856  13.959  67.520  1.00  0.00    -0.396 C  
HETATM   15  O   UNL     1     -12.605  14.376  66.377  1.00  0.00    -0.496 OA 
HETATM   16  H   UNL     1     -13.156  15.124  66.576  1.00  0.00     0.000 HD 
ENDBRANCH  11  14
ENDBRANCH   8  11
ENDBRANCH   5   8
ENDBRANCH   2   5
TORSDOF 4
ENDMDL
MODEL       49
REMARK 921   NORMALIZED FREE ENERGY PREDICTED BY IDOCK:   -4.30 KCAL/MOL
REMARK 922        TOTAL FREE ENERGY PREDICTED BY IDOCK:   -5.54 KCAL/MOL
REMARK 923 INTER-LIGAND FREE ENERGY PREDICTED BY IDOCK:   -5.10 KCAL/MOL
REMARK 924 INTRA-LIGAND FREE ENERGY PREDICTED BY IDOCK:   -0.44 KCAL/MOL
REMARK 927      BINDING AFFINITY PREDICTED BY RF-SCORE:    0.00 PKD
ROOT
HETATM    1  C   UNL     1     -12.084  12.765  63.462  1.00  0.00    -0.559 C  
HETATM    2  C   UNL     1     -10.631  12.568  63.822  1.00  0.00    -0.436 C  
HETATM    3  O   UNL     1     -12.642  13.862  63.519  1.00  0.00    -0.842 OA 
HETATM    4  F   UNL     1      -9.944  11.929  62.837  1.00  0.00    -0.404 F  
ENDROOT
BRANCH   2   5
HETATM    5  C   UNL     1     -10.440  11.822  65.147  1.00  0.00    -0.283 C  
HETATM    6  O   UNL     1      -9.056  11.474  65.369  1.00  0.00    -0.355 OA 
HETATM    7  H   UNL     1      -8.937  11.012  66.191  1.00  0.00     0.000 HD 
BRANCH   5   8
HETATM    8  C   UNL     1     -10.912  12.537  66.434  1.00  0.00    -0.273 C  
HETATM    9  O   UNL     1     -12.361  12.423  66.450  1.00  0.00    -0.539 OA 
HETATM   10  H   UNL     1     -12.651  12.862  67.241  1.00  0.00     0.000 HD 
BRANCH   8  11
HETATM   11  C   UNL     1     -10.528  14.023  66.617  1.00  0.00    -0.272 C  
HETATM   12  H   UNL     1      -8.853  15.038  66.771  1.00  0.00     0.000 HD 
HETATM   13  O   UNL     1      -9.089  14.125  66.659  1.00  0.00    -0.257 OA 
BRANCH  11  14
HETATM   14  C   UNL     1     -11.079  14.698  67.882  1.00  0.00    -0.291 C  
HETATM   15  O   UNL     1     -12.508  14.703  67.892  1.00  0.00    -0.586 OA 
HETATM   16  H   UNL     1     -12.849  15.120  68.675  1.00  0.00     0.000 HD 
ENDBRANCH  11  14
ENDBRANCH   8  11
ENDBRANCH   5   8
ENDBRANCH   2   5
TORSDOF 4
ENDMDL
MODEL       50
REMARK 921   NORMALIZED FREE ENERGY PREDICTED BY IDOCK:   -4.29 KCAL/MOL
REMARK 922        TOTAL FREE ENERGY PREDICTED BY IDOCK:   -5.52 KCAL/MOL
REMARK 923 INTER-LIGAND FREE ENERGY PREDICTED BY IDOCK:   -5.11 KCAL/MOL
REMARK 924 INTRA-LIGAND FREE ENERGY PREDICTED BY IDOCK:   -0.42 KCAL/MOL
REMARK 927      BINDING AFFINITY PREDICTED BY RF-SCORE:    0.00 PKD
ROOT
HETATM    1  C   UNL     1     -13.054  10.682  71.212  1.00  0.00    -0.359 C  
HETATM    2  C   UNL     1     -11.890   9.784  71.559  1.00  0.00    -0.399 C  
HETATM    3  O   UNL     1     -13.228  11.781  71.742  1.00  0.00    -0.457 OA 
HETATM    4  F   UNL     1     -11.203   9.389  70.454  1.00  0.00    -0.248 F  
ENDROOT
BRANCH   2   5
HETATM    5  C   UNL     1     -12.308   8.552  72.370  1.00  0.00    -0.359 C  
HETATM    6  O   UNL     1     -13.447   8.831  73.214  1.00  0.00    -0.954 OA 
HETATM    7  H   UNL     1     -13.706   8.067  73.717  1.00  0.00     0.000 HD 
BRANCH   5   8
HETATM    8  C   UNL     1     -12.666   7.274  71.579  1.00  0.00    -0.384 C  
HETATM    9  O   UNL     1     -13.869   6.741  72.196  1.00  0.00    -0.545 OA 
HETATM   10  H   UNL     1     -14.089   5.955  71.710  1.00  0.00     0.000 HD 
BRANCH   8  11
HETATM   11  C   UNL     1     -11.606   6.151  71.503  1.00  0.00    -0.241 C  
HETATM   12  H   UNL     1      -9.986   5.672  72.504  1.00  0.00     0.000 HD 
HETATM   13  O   UNL     1     -10.637   6.362  72.551  1.00  0.00    -0.201 OA 
BRANCH  11  14
HETATM   14  C   UNL     1     -10.841   6.053  70.174  1.00  0.00    -0.339 C  
HETATM   15  O   UNL     1     -11.635   6.512  69.079  1.00  0.00    -0.619 OA 
HETATM   16  H   UNL     1     -11.161   6.451  68.257  1.00  0.00     0.000 HD 
ENDBRANCH  11  14
ENDBRANCH   8  11
ENDBRANCH   5   8
ENDBRANCH   2   5
TORSDOF 4
ENDMDL
MODEL       51
REMARK 921   NORMALIZED FREE ENERGY PREDICTED BY IDOCK:   -4.28 KCAL/MOL
REMARK 922        TOTAL FREE ENERGY PREDICTED BY IDOCK:   -5.52 KCAL/MOL
REMARK 923 INTER-LIGAND FREE ENERGY PREDICTED BY IDOCK:   -5.13 KCAL/MOL
REMARK 924 INTRA-LIGAND FREE ENERGY PREDICTED BY IDOCK:   -0.39 KCAL/MOL
REMARK 927      BINDING AFFINITY PREDICTED BY RF-SCORE:    0.00 PKD
ROOT
HETATM    1  C   UNL     1      -8.613  12.616  67.964  1.00  0.00    -0.189 C  
HETATM    2  C   UNL     1     -10.077  12.978  68.037  1.00  0.00    -0.235 C  
HETATM    3  O   UNL     1      -7.725  13.457  67.812  1.00  0.00    -0.130 OA 
HETATM    4  F   UNL     1     -10.677  12.455  69.140  1.00  0.00    -0.237 F  
ENDROOT
BRANCH   2   5
HETATM    5  C   UNL     1     -10.857  12.565  66.784  1.00  0.00    -0.249 C  
HETATM    6  O   UNL     1     -11.912  11.629  67.097  1.00  0.00    -0.614 OA 
HETATM    7  H   UNL     1     -12.396  11.373  66.320  1.00  0.00     0.000 HD 
BRANCH   5   8
HETATM    8  C   UNL     1     -11.518  13.693  65.960  1.00  0.00    -0.324 C  
HETATM    9  O   UNL     1     -12.619  14.190  66.767  1.00  0.00    -0.554 OA 
HETATM   10  H   UNL     1     -13.025  14.884  66.260  1.00  0.00     0.000 HD 
BRANCH   8  11
HETATM   11  C   UNL     1     -12.051  13.341  64.552  1.00  0.00    -0.408 C  
HETATM   12  H   UNL     1     -13.601  12.374  63.833  1.00  0.00     0.000 HD 
HETATM   13  O   UNL     1     -13.274  12.590  64.698  1.00  0.00    -0.848 OA 
BRANCH  11  14
HETATM   14  C   UNL     1     -11.099  12.516  63.671  1.00  0.00    -0.467 C  
HETATM   15  O   UNL     1     -11.767  11.397  63.087  1.00  0.00    -0.870 OA 
HETATM   16  H   UNL     1     -11.178  10.887  62.542  1.00  0.00     0.000 HD 
ENDBRANCH  11  14
ENDBRANCH   8  11
ENDBRANCH   5   8
ENDBRANCH   2   5
TORSDOF 4
ENDMDL
MODEL       52
REMARK 921   NORMALIZED FREE ENERGY PREDICTED BY IDOCK:   -4.28 KCAL/MOL
REMARK 922        TOTAL FREE ENERGY PREDICTED BY IDOCK:   -5.52 KCAL/MOL
REMARK 923 INTER-LIGAND FREE ENERGY PREDICTED BY IDOCK:   -5.15 KCAL/MOL
REMARK 924 INTRA-LIGAND FREE ENERGY PREDICTED BY IDOCK:   -0.37 KCAL/MOL
REMARK 927      BINDING AFFINITY PREDICTED BY RF-SCORE:    0.00 PKD
ROOT
HETATM    1  C   UNL     1     -11.688  15.578  69.265  1.00  0.00    -0.365 C  
HETATM    2  C   UNL     1     -10.702  15.467  68.127  1.00  0.00    -0.271 C  
HETATM    3  O   UNL     1     -11.341  15.620  70.446  1.00  0.00    -0.292 OA 
HETATM    4  F   UNL     1     -10.898  16.429  67.186  1.00  0.00    -0.321 F  
ENDROOT
BRANCH   2   5
HETATM    5  C   UNL     1     -10.713  14.087  67.460  1.00  0.00    -0.268 C  
HETATM    6  O   UNL     1     -10.786  13.024  68.435  1.00  0.00    -0.240 OA 
HETATM    7  H   UNL     1     -10.793  12.168  68.022  1.00  0.00     0.000 HD 
BRANCH   5   8
HETATM    8  C   UNL     1     -11.836  13.806  66.436  1.00  0.00    -0.404 C  
HETATM    9  O   UNL     1     -12.248  12.430  66.657  1.00  0.00    -0.562 OA 
HETATM   10  H   UNL     1     -12.939  12.257  66.028  1.00  0.00     0.000 HD 
BRANCH   8  11
HETATM   11  C   UNL     1     -11.511  13.995  64.937  1.00  0.00    -0.358 C  
HETATM   12  H   UNL     1      -9.919  14.466  63.888  1.00  0.00     0.000 HD 
HETATM   13  O   UNL     1     -10.119  14.350  64.810  1.00  0.00    -0.354 OA 
BRANCH  11  14
HETATM   14  C   UNL     1     -12.335  15.070  64.212  1.00  0.00    -0.226 C  
HETATM   15  O   UNL     1     -11.545  16.223  63.916  1.00  0.00    -1.489 OA 
HETATM   16  H   UNL     1     -12.055  16.887  63.468  1.00  0.00     0.000 HD 
ENDBRANCH  11  14
ENDBRANCH   8  11
ENDBRANCH   5   8
ENDBRANCH   2   5
TORSDOF 4
ENDMDL
MODEL       53
REMARK 921   NORMALIZED FREE ENERGY PREDICTED BY IDOCK:   -4.27 KCAL/MOL
REMARK 922        TOTAL FREE ENERGY PREDICTED BY IDOCK:   -5.50 KCAL/MOL
REMARK 923 INTER-LIGAND FREE ENERGY PREDICTED BY IDOCK:   -4.96 KCAL/MOL
REMARK 924 INTRA-LIGAND FREE ENERGY PREDICTED BY IDOCK:   -0.54 KCAL/MOL
REMARK 927      BINDING AFFINITY PREDICTED BY RF-SCORE:    0.00 PKD
ROOT
HETATM    1  C   UNL     1     -11.102  13.040  68.782  1.00  0.00    -0.270 C  
HETATM    2  C   UNL     1     -11.767  12.135  67.772  1.00  0.00    -0.320 C  
HETATM    3  O   UNL     1     -11.707  13.528  69.738  1.00  0.00    -0.293 OA 
HETATM    4  F   UNL     1     -11.086  10.970  67.605  1.00  0.00    -0.260 F  
ENDROOT
BRANCH   2   5
HETATM    5  C   UNL     1     -11.971  12.809  66.410  1.00  0.00    -0.375 C  
HETATM    6  O   UNL     1     -12.230  14.224  66.549  1.00  0.00    -0.441 OA 
HETATM    7  H   UNL     1     -12.357  14.642  65.705  1.00  0.00     0.000 HD 
BRANCH   5   8
HETATM    8  C   UNL     1     -10.826  12.684  65.381  1.00  0.00    -0.287 C  
HETATM    9  O   UNL     1     -10.462  14.042  65.014  1.00  0.00    -0.373 OA 
HETATM   10  H   UNL     1      -9.758  13.965  64.381  1.00  0.00     0.000 HD 
BRANCH   8  11
HETATM   11  C   UNL     1     -11.099  11.876  64.091  1.00  0.00    -0.375 C  
HETATM   12  H   UNL     1     -10.154  11.560  62.399  1.00  0.00     0.000 HD 
HETATM   13  O   UNL     1      -9.986  12.057  63.191  1.00  0.00    -0.407 OA 
BRANCH  11  14
HETATM   14  C   UNL     1     -12.379  12.255  63.332  1.00  0.00    -0.517 C  
HETATM   15  O   UNL     1     -12.384  13.637  62.972  1.00  0.00    -1.041 OA 
HETATM   16  H   UNL     1     -13.176  13.872  62.502  1.00  0.00     0.000 HD 
ENDBRANCH  11  14
ENDBRANCH   8  11
ENDBRANCH   5   8
ENDBRANCH   2   5
TORSDOF 4
ENDMDL
MODEL       54
REMARK 921   NORMALIZED FREE ENERGY PREDICTED BY IDOCK:   -4.25 KCAL/MOL
REMARK 922        TOTAL FREE ENERGY PREDICTED BY IDOCK:   -5.48 KCAL/MOL
REMARK 923 INTER-LIGAND FREE ENERGY PREDICTED BY IDOCK:   -5.05 KCAL/MOL
REMARK 924 INTRA-LIGAND FREE ENERGY PREDICTED BY IDOCK:   -0.43 KCAL/MOL
REMARK 927      BINDING AFFINITY PREDICTED BY RF-SCORE:    0.00 PKD
ROOT
HETATM    1  C   UNL     1     -11.900  13.434  68.398  1.00  0.00    -0.366 C  
HETATM    2  C   UNL     1     -11.293  14.637  67.716  1.00  0.00    -0.322 C  
HETATM    3  O   UNL     1     -11.226  12.478  68.785  1.00  0.00    -0.240 OA 
HETATM    4  F   UNL     1     -11.671  15.802  68.308  1.00  0.00    -0.356 F  
ENDROOT
BRANCH   2   5
HETATM    5  C   UNL     1     -11.609  14.697  66.218  1.00  0.00    -0.342 C  
HETATM    6  O   UNL     1     -10.838  15.719  65.550  1.00  0.00    -0.344 OA 
HETATM    7  H   UNL     1     -11.033  15.756  64.621  1.00  0.00     0.000 HD 
BRANCH   5   8
HETATM    8  C   UNL     1     -11.399  13.402  65.400  1.00  0.00    -0.291 C  
HETATM    9  O   UNL     1      -9.973  13.125  65.441  1.00  0.00    -0.404 OA 
HETATM   10  H   UNL     1      -9.844  12.329  64.939  1.00  0.00     0.000 HD 
BRANCH   8  11
HETATM   11  C   UNL     1     -11.866  13.394  63.927  1.00  0.00    -0.439 C  
HETATM   12  H   UNL     1     -13.084  14.474  62.828  1.00  0.00     0.000 HD 
HETATM   13  O   UNL     1     -12.797  14.478  63.734  1.00  0.00    -0.669 OA 
BRANCH  11  14
HETATM   14  C   UNL     1     -12.551  12.102  63.456  1.00  0.00    -0.506 C  
HETATM   15  O   UNL     1     -11.595  11.095  63.123  1.00  0.00    -0.776 OA 
HETATM   16  H   UNL     1     -12.019  10.295  62.832  1.00  0.00     0.000 HD 
ENDBRANCH  11  14
ENDBRANCH   8  11
ENDBRANCH   5   8
ENDBRANCH   2   5
TORSDOF 4
ENDMDL
MODEL       55
REMARK 921   NORMALIZED FREE ENERGY PREDICTED BY IDOCK:   -4.24 KCAL/MOL
REMARK 922        TOTAL FREE ENERGY PREDICTED BY IDOCK:   -5.46 KCAL/MOL
REMARK 923 INTER-LIGAND FREE ENERGY PREDICTED BY IDOCK:   -5.18 KCAL/MOL
REMARK 924 INTRA-LIGAND FREE ENERGY PREDICTED BY IDOCK:   -0.28 KCAL/MOL
REMARK 927      BINDING AFFINITY PREDICTED BY RF-SCORE:    0.00 PKD
ROOT
HETATM    1  C   UNL     1      -9.289  11.605  65.747  1.00  0.00    -0.205 C  
HETATM    2  C   UNL     1     -10.581  11.566  64.965  1.00  0.00    -0.297 C  
HETATM    3  O   UNL     1      -9.257  11.699  66.976  1.00  0.00    -0.175 OA 
HETATM    4  F   UNL     1     -10.633  10.502  64.120  1.00  0.00    -0.419 F  
ENDROOT
BRANCH   2   5
HETATM    5  C   UNL     1     -10.844  12.857  64.182  1.00  0.00    -0.416 C  
HETATM    6  O   UNL     1     -11.330  12.584  62.850  1.00  0.00    -0.677 OA 
HETATM    7  H   UNL     1     -11.493  13.384  62.364  1.00  0.00     0.000 HD 
BRANCH   5   8
HETATM    8  C   UNL     1     -11.836  13.868  64.800  1.00  0.00    -0.397 C  
HETATM    9  O   UNL     1     -12.461  14.554  63.682  1.00  0.00    -1.072 OA 
HETATM   10  H   UNL     1     -13.072  15.175  64.061  1.00  0.00     0.000 HD 
BRANCH   8  11
HETATM   11  C   UNL     1     -11.275  14.924  65.781  1.00  0.00    -0.334 C  
HETATM   12  H   UNL     1      -9.596  15.925  65.964  1.00  0.00     0.000 HD 
HETATM   13  O   UNL     1      -9.940  15.277  65.362  1.00  0.00    -0.347 OA 
BRANCH  11  14
HETATM   14  C   UNL     1     -11.201  14.486  67.252  1.00  0.00    -0.332 C  
HETATM   15  O   UNL     1     -12.287  15.020  68.010  1.00  0.00    -0.512 OA 
HETATM   16  H   UNL     1     -12.242  14.749  68.920  1.00  0.00     0.000 HD 
ENDBRANCH  11  14
ENDBRANCH   8  11
ENDBRANCH   5   8
ENDBRANCH   2   5
TORSDOF 4
ENDMDL
MODEL       56
REMARK 921   NORMALIZED FREE ENERGY PREDICTED BY IDOCK:   -4.24 KCAL/MOL
REMARK 922        TOTAL FREE ENERGY PREDICTED BY IDOCK:   -5.46 KCAL/MOL
REMARK 923 INTER-LIGAND FREE ENERGY PREDICTED BY IDOCK:   -5.27 KCAL/MOL
REMARK 924 INTRA-LIGAND FREE ENERGY PREDICTED BY IDOCK:   -0.19 KCAL/MOL
REMARK 927      BINDING AFFINITY PREDICTED BY RF-SCORE:    0.00 PKD
ROOT
HETATM    1  C   UNL     1     -12.692  15.947  73.039  1.00  0.00    -0.507 C  
HETATM    2  C   UNL     1     -11.781  15.651  71.871  1.00  0.00    -0.459 C  
HETATM    3  O   UNL     1     -12.531  15.445  74.153  1.00  0.00    -0.593 OA 
HETATM    4  F   UNL     1     -11.310  16.787  71.292  1.00  0.00    -0.351 F  
ENDROOT
BRANCH   2   5
HETATM    5  C   UNL     1     -12.444  14.769  70.807  1.00  0.00    -0.337 C  
HETATM    6  O   UNL     1     -13.757  15.255  70.453  1.00  0.00    -0.622 OA 
HETATM    7  H   UNL     1     -14.168  14.709  69.793  1.00  0.00     0.000 HD 
BRANCH   5   8
HETATM    8  C   UNL     1     -11.685  14.581  69.474  1.00  0.00    -0.314 C  
HETATM    9  O   UNL     1     -12.448  15.302  68.469  1.00  0.00    -0.494 OA 
HETATM   10  H   UNL     1     -11.982  15.186  67.650  1.00  0.00     0.000 HD 
BRANCH   8  11
HETATM   11  C   UNL     1     -11.446  13.136  68.976  1.00  0.00    -0.296 C  
HETATM   12  H   UNL     1     -11.829  12.130  67.334  1.00  0.00     0.000 HD 
HETATM   13  O   UNL     1     -11.976  13.017  67.640  1.00  0.00    -0.353 OA 
BRANCH  11  14
HETATM   14  C   UNL     1     -12.083  12.029  69.831  1.00  0.00    -0.263 C  
HETATM   15  O   UNL     1     -12.557  10.952  69.021  1.00  0.00    -0.683 OA 
HETATM   16  H   UNL     1     -12.951  10.268  69.550  1.00  0.00     0.000 HD 
ENDBRANCH  11  14
ENDBRANCH   8  11
ENDBRANCH   5   8
ENDBRANCH   2   5
TORSDOF 4
ENDMDL
MODEL       57
REMARK 921   NORMALIZED FREE ENERGY PREDICTED BY IDOCK:   -4.23 KCAL/MOL
REMARK 922        TOTAL FREE ENERGY PREDICTED BY IDOCK:   -5.45 KCAL/MOL
REMARK 923 INTER-LIGAND FREE ENERGY PREDICTED BY IDOCK:   -5.24 KCAL/MOL
REMARK 924 INTRA-LIGAND FREE ENERGY PREDICTED BY IDOCK:   -0.21 KCAL/MOL
REMARK 927      BINDING AFFINITY PREDICTED BY RF-SCORE:    0.00 PKD
ROOT
HETATM    1  C   UNL     1     -11.289   6.269  72.623  1.00  0.00    -0.247 C  
HETATM    2  C   UNL     1     -12.087   6.537  71.368  1.00  0.00    -0.287 C  
HETATM    3  O   UNL     1     -11.427   5.245  73.294  1.00  0.00    -0.294 OA 
HETATM    4  F   UNL     1     -11.288   6.850  70.313  1.00  0.00    -0.287 F  
ENDROOT
BRANCH   2   5
HETATM    5  C   UNL     1     -13.142   7.632  71.556  1.00  0.00    -0.338 C  
HETATM    6  O   UNL     1     -14.404   7.086  72.000  1.00  0.00    -0.592 OA 
HETATM    7  H   UNL     1     -15.059   7.765  72.116  1.00  0.00     0.000 HD 
BRANCH   5   8
HETATM    8  C   UNL     1     -12.804   8.779  72.535  1.00  0.00    -0.316 C  
HETATM    9  O   UNL     1     -14.037   9.080  73.244  1.00  0.00    -1.218 OA 
HETATM   10  H   UNL     1     -13.829   9.785  73.846  1.00  0.00     0.000 HD 
BRANCH   8  11
HETATM   11  C   UNL     1     -12.237  10.090  71.943  1.00  0.00    -0.185 C  
HETATM   12  H   UNL     1     -12.913  11.909  71.643  1.00  0.00     0.000 HD 
HETATM   13  O   UNL     1     -13.261  11.103  72.006  1.00  0.00    -0.493 OA 
BRANCH  11  14
HETATM   14  C   UNL     1     -11.755  10.004  70.487  1.00  0.00    -0.318 C  
HETATM   15  O   UNL     1     -12.766  10.437  69.576  1.00  0.00    -0.663 OA 
HETATM   16  H   UNL     1     -12.468  10.384  68.675  1.00  0.00     0.000 HD 
ENDBRANCH  11  14
ENDBRANCH   8  11
ENDBRANCH   5   8
ENDBRANCH   2   5
TORSDOF 4
ENDMDL
MODEL       58
REMARK 921   NORMALIZED FREE ENERGY PREDICTED BY IDOCK:   -4.22 KCAL/MOL
REMARK 922        TOTAL FREE ENERGY PREDICTED BY IDOCK:   -5.44 KCAL/MOL
REMARK 923 INTER-LIGAND FREE ENERGY PREDICTED BY IDOCK:   -4.88 KCAL/MOL
REMARK 924 INTRA-LIGAND FREE ENERGY PREDICTED BY IDOCK:   -0.56 KCAL/MOL
REMARK 927      BINDING AFFINITY PREDICTED BY RF-SCORE:    0.00 PKD
ROOT
HETATM    1  C   UNL     1     -11.957  12.141  63.704  1.00  0.00    -0.534 C  
HETATM    2  C   UNL     1     -11.477  13.209  64.658  1.00  0.00    -0.333 C  
HETATM    3  O   UNL     1     -13.144  12.006  63.398  1.00  0.00    -0.747 OA 
HETATM    4  F   UNL     1     -10.464  13.946  64.130  1.00  0.00    -0.383 F  
ENDROOT
BRANCH   2   5
HETATM    5  C   UNL     1     -11.047  12.645  66.017  1.00  0.00    -0.287 C  
HETATM    6  O   UNL     1      -9.666  12.951  66.309  1.00  0.00    -0.267 OA 
HETATM    7  H   UNL     1      -9.399  12.602  67.151  1.00  0.00     0.000 HD 
BRANCH   5   8
HETATM    8  C   UNL     1     -11.855  13.094  67.255  1.00  0.00    -0.367 C  
HETATM    9  O   UNL     1     -12.420  14.390  66.920  1.00  0.00    -0.568 OA 
HETATM   10  H   UNL     1     -12.917  14.666  67.682  1.00  0.00     0.000 HD 
BRANCH   8  11
HETATM   11  C   UNL     1     -11.107  13.210  68.603  1.00  0.00    -0.269 C  
HETATM   12  H   UNL     1      -9.906  12.063  69.652  1.00  0.00     0.000 HD 
HETATM   13  O   UNL     1     -10.366  11.992  68.824  1.00  0.00    -0.218 OA 
BRANCH  11  14
HETATM   14  C   UNL     1     -11.995  13.444  69.835  1.00  0.00    -0.338 C  
HETATM   15  O   UNL     1     -12.742  14.656  69.717  1.00  0.00    -0.567 OA 
HETATM   16  H   UNL     1     -13.292  14.801  70.479  1.00  0.00     0.000 HD 
ENDBRANCH  11  14
ENDBRANCH   8  11
ENDBRANCH   5   8
ENDBRANCH   2   5
TORSDOF 4
ENDMDL
MODEL       59
REMARK 921   NORMALIZED FREE ENERGY PREDICTED BY IDOCK:   -4.21 KCAL/MOL
REMARK 922        TOTAL FREE ENERGY PREDICTED BY IDOCK:   -5.43 KCAL/MOL
REMARK 923 INTER-LIGAND FREE ENERGY PREDICTED BY IDOCK:   -5.24 KCAL/MOL
REMARK 924 INTRA-LIGAND FREE ENERGY PREDICTED BY IDOCK:   -0.19 KCAL/MOL
REMARK 927      BINDING AFFINITY PREDICTED BY RF-SCORE:    0.00 PKD
ROOT
HETATM    1  C   UNL     1     -11.360  15.532  64.216  1.00  0.00    -0.155 C  
HETATM    2  C   UNL     1     -11.040  15.194  65.653  1.00  0.00    -0.334 C  
HETATM    3  O   UNL     1     -11.775  16.640  63.869  1.00  0.00    -1.153 OA 
HETATM    4  F   UNL     1      -9.791  14.676  65.789  1.00  0.00    -0.298 F  
ENDROOT
BRANCH   2   5
HETATM    5  C   UNL     1     -12.063  14.242  66.283  1.00  0.00    -0.413 C  
HETATM    6  O   UNL     1     -12.997  13.737  65.304  1.00  0.00    -0.731 OA 
HETATM    7  H   UNL     1     -13.631  13.147  65.694  1.00  0.00     0.000 HD 
BRANCH   5   8
HETATM    8  C   UNL     1     -11.510  13.003  67.024  1.00  0.00    -0.333 C  
HETATM    9  O   UNL     1     -12.146  11.849  66.410  1.00  0.00    -0.552 OA 
HETATM   10  H   UNL     1     -11.807  11.087  66.865  1.00  0.00     0.000 HD 
BRANCH   8  11
HETATM   11  C   UNL     1     -11.712  12.927  68.555  1.00  0.00    -0.339 C  
HETATM   12  H   UNL     1     -10.729  13.544  70.139  1.00  0.00     0.000 HD 
HETATM   13  O   UNL     1     -10.605  13.590  69.198  1.00  0.00    -0.157 OA 
BRANCH  11  14
HETATM   14  C   UNL     1     -11.810  11.510  69.139  1.00  0.00    -0.340 C  
HETATM   15  O   UNL     1     -10.877  11.318  70.204  1.00  0.00    -0.440 OA 
HETATM   16  H   UNL     1     -10.938  10.441  70.566  1.00  0.00     0.000 HD 
ENDBRANCH  11  14
ENDBRANCH   8  11
ENDBRANCH   5   8
ENDBRANCH   2   5
TORSDOF 4
ENDMDL
MODEL       60
REMARK 921   NORMALIZED FREE ENERGY PREDICTED BY IDOCK:   -4.20 KCAL/MOL
REMARK 922        TOTAL FREE ENERGY PREDICTED BY IDOCK:   -5.42 KCAL/MOL
REMARK 923 INTER-LIGAND FREE ENERGY PREDICTED BY IDOCK:   -4.89 KCAL/MOL
REMARK 924 INTRA-LIGAND FREE ENERGY PREDICTED BY IDOCK:   -0.53 KCAL/MOL
REMARK 927      BINDING AFFINITY PREDICTED BY RF-SCORE:    0.00 PKD
ROOT
HETATM    1  C   UNL     1     -12.377  14.070  64.342  1.00  0.00    -0.367 C  
HETATM    2  C   UNL     1     -12.129  12.924  63.390  1.00  0.00    -0.530 C  
HETATM    3  O   UNL     1     -12.490  15.238  63.964  1.00  0.00    -0.725 OA 
HETATM    4  F   UNL     1     -13.026  11.917  63.559  1.00  0.00    -0.648 F  
ENDROOT
BRANCH   2   5
HETATM    5  C   UNL     1     -10.705  12.366  63.487  1.00  0.00    -0.430 C  
HETATM    6  O   UNL     1      -9.787  13.337  64.035  1.00  0.00    -0.741 OA 
HETATM    7  H   UNL     1      -8.904  12.990  64.095  1.00  0.00     0.000 HD 
BRANCH   5   8
HETATM    8  C   UNL     1     -10.508  11.076  64.316  1.00  0.00    -0.359 C  
HETATM    9  O   UNL     1     -10.606  11.475  65.711  1.00  0.00    -0.251 OA 
HETATM   10  H   UNL     1     -10.485  10.682  66.221  1.00  0.00     0.000 HD 
BRANCH   8  11
HETATM   11  C   UNL     1      -9.197  10.282  64.116  1.00  0.00    -0.267 C  
HETATM   12  H   UNL     1      -7.350  10.423  64.769  1.00  0.00     0.000 HD 
HETATM   13  O   UNL     1      -8.156  10.911  64.892  1.00  0.00    -0.007 OA 
BRANCH  11  14
HETATM   14  C   UNL     1      -8.700  10.181  62.666  1.00  0.00    -0.208 C  
HETATM   15  O   UNL     1      -7.625  11.088  62.417  1.00  0.00    -0.361 OA 
HETATM   16  H   UNL     1      -7.318  11.025  61.519  1.00  0.00     0.000 HD 
ENDBRANCH  11  14
ENDBRANCH   8  11
ENDBRANCH   5   8
ENDBRANCH   2   5
TORSDOF 4
ENDMDL
MODEL       61
REMARK 921   NORMALIZED FREE ENERGY PREDICTED BY IDOCK:   -4.19 KCAL/MOL
REMARK 922        TOTAL FREE ENERGY PREDICTED BY IDOCK:   -5.41 KCAL/MOL
REMARK 923 INTER-LIGAND FREE ENERGY PREDICTED BY IDOCK:   -4.98 KCAL/MOL
REMARK 924 INTRA-LIGAND FREE ENERGY PREDICTED BY IDOCK:   -0.43 KCAL/MOL
REMARK 927      BINDING AFFINITY PREDICTED BY RF-SCORE:    0.00 PKD
ROOT
HETATM    1  C   UNL     1     -12.131  12.941  63.691  1.00  0.00    -0.535 C  
HETATM    2  C   UNL     1     -12.358  13.988  64.756  1.00  0.00    -0.413 C  
HETATM    3  O   UNL     1     -13.029  12.202  63.282  1.00  0.00    -0.735 OA 
HETATM    4  F   UNL     1     -11.920  15.214  64.366  1.00  0.00    -0.418 F  
ENDROOT
BRANCH   2   5
HETATM    5  C   UNL     1     -11.721  13.619  66.100  1.00  0.00    -0.364 C  
HETATM    6  O   UNL     1     -12.504  14.106  67.212  1.00  0.00    -0.569 OA 
HETATM    7  H   UNL     1     -12.109  13.877  68.046  1.00  0.00     0.000 HD 
BRANCH   5   8
HETATM    8  C   UNL     1     -11.473  12.119  66.376  1.00  0.00    -0.370 C  
HETATM    9  O   UNL     1     -12.154  11.821  67.625  1.00  0.00    -0.598 OA 
HETATM   10  H   UNL     1     -12.002  10.898  67.795  1.00  0.00     0.000 HD 
BRANCH   8  11
HETATM   11  C   UNL     1     -10.008  11.636  66.480  1.00  0.00    -0.203 C  
HETATM   12  H   UNL     1      -8.855  10.407  65.473  1.00  0.00     0.000 HD 
HETATM   13  O   UNL     1      -9.755  10.703  65.409  1.00  0.00    -0.217 OA 
BRANCH  11  14
HETATM   14  C   UNL     1      -9.632  10.945  67.799  1.00  0.00    -0.164 C  
HETATM   15  O   UNL     1      -9.533  11.883  68.872  1.00  0.00    -0.400 OA 
HETATM   16  H   UNL     1      -9.300  11.455  69.688  1.00  0.00     0.000 HD 
ENDBRANCH  11  14
ENDBRANCH   8  11
ENDBRANCH   5   8
ENDBRANCH   2   5
TORSDOF 4
ENDMDL
MODEL       62
REMARK 921   NORMALIZED FREE ENERGY PREDICTED BY IDOCK:   -4.19 KCAL/MOL
REMARK 922        TOTAL FREE ENERGY PREDICTED BY IDOCK:   -5.40 KCAL/MOL
REMARK 923 INTER-LIGAND FREE ENERGY PREDICTED BY IDOCK:   -4.91 KCAL/MOL
REMARK 924 INTRA-LIGAND FREE ENERGY PREDICTED BY IDOCK:   -0.49 KCAL/MOL
REMARK 927      BINDING AFFINITY PREDICTED BY RF-SCORE:    0.00 PKD
ROOT
HETATM    1  C   UNL     1     -12.142  15.543  64.022  1.00  0.00     0.074 C  
HETATM    2  C   UNL     1     -11.504  14.298  64.592  1.00  0.00    -0.385 C  
HETATM    3  O   UNL     1     -11.599  16.649  64.063  1.00  0.00    -1.197 OA 
HETATM    4  F   UNL     1     -11.467  13.284  63.687  1.00  0.00    -0.415 F  
ENDROOT
BRANCH   2   5
HETATM    5  C   UNL     1     -12.183  13.815  65.878  1.00  0.00    -0.466 C  
HETATM    6  O   UNL     1     -12.444  12.395  65.842  1.00  0.00    -0.583 OA 
HETATM    7  H   UNL     1     -12.865  12.095  66.640  1.00  0.00     0.000 HD 
BRANCH   5   8
HETATM    8  C   UNL     1     -11.445  14.081  67.209  1.00  0.00    -0.348 C  
HETATM    9  O   UNL     1     -12.366  14.842  68.036  1.00  0.00    -0.592 OA 
HETATM   10  H   UNL     1     -11.912  15.005  68.855  1.00  0.00     0.000 HD 
BRANCH   8  11
HETATM   11  C   UNL     1     -10.094  14.830  67.149  1.00  0.00    -0.240 C  
HETATM   12  H   UNL     1      -8.213  14.373  67.479  1.00  0.00     0.000 HD 
HETATM   13  O   UNL     1      -9.043  13.913  67.516  1.00  0.00    -0.184 OA 
BRANCH  11  14
HETATM   14  C   UNL     1      -9.979  16.060  68.063  1.00  0.00    -0.229 C  
HETATM   15  O   UNL     1     -10.606  17.204  67.481  1.00  0.00    -0.347 OA 
HETATM   16  H   UNL     1     -10.535  17.964  68.047  1.00  0.00     0.000 HD 
ENDBRANCH  11  14
ENDBRANCH   8  11
ENDBRANCH   5   8
ENDBRANCH   2   5
TORSDOF 4
ENDMDL
MODEL       63
REMARK 921   NORMALIZED FREE ENERGY PREDICTED BY IDOCK:   -4.19 KCAL/MOL
REMARK 922        TOTAL FREE ENERGY PREDICTED BY IDOCK:   -5.40 KCAL/MOL
REMARK 923 INTER-LIGAND FREE ENERGY PREDICTED BY IDOCK:   -5.15 KCAL/MOL
REMARK 924 INTRA-LIGAND FREE ENERGY PREDICTED BY IDOCK:   -0.25 KCAL/MOL
REMARK 927      BINDING AFFINITY PREDICTED BY RF-SCORE:    0.00 PKD
ROOT
HETATM    1  C   UNL     1     -12.523  13.454  64.441  1.00  0.00    -0.277 C  
HETATM    2  C   UNL     1     -11.297  12.915  65.139  1.00  0.00    -0.298 C  
HETATM    3  O   UNL     1     -12.515  13.813  63.262  1.00  0.00    -0.819 OA 
HETATM    4  F   UNL     1     -11.536  11.719  65.739  1.00  0.00    -0.382 F  
ENDROOT
BRANCH   2   5
HETATM    5  C   UNL     1     -10.715  13.896  66.163  1.00  0.00    -0.283 C  
HETATM    6  O   UNL     1      -9.808  13.239  67.075  1.00  0.00    -0.231 OA 
HETATM    7  H   UNL     1      -9.447  13.847  67.710  1.00  0.00     0.000 HD 
BRANCH   5   8
HETATM    8  C   UNL     1      -9.952  15.122  65.611  1.00  0.00    -0.354 C  
HETATM    9  O   UNL     1      -8.717  15.205  66.373  1.00  0.00    -0.390 OA 
HETATM   10  H   UNL     1      -8.248  15.958  66.034  1.00  0.00     0.000 HD 
BRANCH   8  11
HETATM   11  C   UNL     1     -10.660  16.495  65.661  1.00  0.00    -0.304 C  
HETATM   12  H   UNL     1     -11.600  17.644  64.374  1.00  0.00     0.000 HD 
HETATM   13  O   UNL     1     -11.165  16.800  64.344  1.00  0.00    -1.112 OA 
BRANCH  11  14
HETATM   14  C   UNL     1      -9.784  17.675  66.109  1.00  0.00    -0.213 C  
HETATM   15  O   UNL     1     -10.463  18.922  65.944  1.00  0.00    -0.486 OA 
HETATM   16  H   UNL     1      -9.921  19.652  66.222  1.00  0.00     0.000 HD 
ENDBRANCH  11  14
ENDBRANCH   8  11
ENDBRANCH   5   8
ENDBRANCH   2   5
TORSDOF 4
ENDMDL
MODEL       64
REMARK 921   NORMALIZED FREE ENERGY PREDICTED BY IDOCK:   -4.18 KCAL/MOL
REMARK 922        TOTAL FREE ENERGY PREDICTED BY IDOCK:   -5.40 KCAL/MOL
REMARK 923 INTER-LIGAND FREE ENERGY PREDICTED BY IDOCK:   -5.46 KCAL/MOL
REMARK 924 INTRA-LIGAND FREE ENERGY PREDICTED BY IDOCK:    0.06 KCAL/MOL
REMARK 927      BINDING AFFINITY PREDICTED BY RF-SCORE:    0.00 PKD
ROOT
HETATM    1  C   UNL     1     -10.529  18.398  66.027  1.00  0.00    -0.374 C  
HETATM    2  C   UNL     1     -10.360  16.897  66.037  1.00  0.00    -0.325 C  
HETATM    3  O   UNL     1     -10.927  19.030  67.007  1.00  0.00    -0.399 OA 
HETATM    4  F   UNL     1      -9.121  16.521  65.621  1.00  0.00    -0.293 F  
ENDROOT
BRANCH   2   5
HETATM    5  C   UNL     1     -11.423  16.172  65.205  1.00  0.00     0.206 C  
HETATM    6  O   UNL     1     -11.517  16.713  63.869  1.00  0.00    -1.604 OA 
HETATM    7  H   UNL     1     -12.176  16.263  63.353  1.00  0.00     0.000 HD 
BRANCH   5   8
HETATM    8  C   UNL     1     -11.267  14.643  65.037  1.00  0.00    -0.386 C  
HETATM    9  O   UNL     1     -11.950  14.302  63.800  1.00  0.00    -0.725 OA 
HETATM   10  H   UNL     1     -11.853  13.362  63.697  1.00  0.00     0.000 HD 
BRANCH   8  11
HETATM   11  C   UNL     1     -11.801  13.734  66.168  1.00  0.00    -0.398 C  
HETATM   12  H   UNL     1     -12.082  13.909  68.104  1.00  0.00     0.000 HD 
HETATM   13  O   UNL     1     -11.754  14.468  67.409  1.00  0.00    -0.372 OA 
BRANCH  11  14
HETATM   14  C   UNL     1     -11.036  12.418  66.375  1.00  0.00    -0.301 C  
HETATM   15  O   UNL     1     -11.877  11.407  66.933  1.00  0.00    -0.489 OA 
HETATM   16  H   UNL     1     -11.403  10.593  67.061  1.00  0.00     0.000 HD 
ENDBRANCH  11  14
ENDBRANCH   8  11
ENDBRANCH   5   8
ENDBRANCH   2   5
TORSDOF 4
ENDMDL
MODEL       65
REMARK 921   NORMALIZED FREE ENERGY PREDICTED BY IDOCK:   -4.14 KCAL/MOL
REMARK 922        TOTAL FREE ENERGY PREDICTED BY IDOCK:   -5.34 KCAL/MOL
REMARK 923 INTER-LIGAND FREE ENERGY PREDICTED BY IDOCK:   -5.12 KCAL/MOL
REMARK 924 INTRA-LIGAND FREE ENERGY PREDICTED BY IDOCK:   -0.23 KCAL/MOL
REMARK 927      BINDING AFFINITY PREDICTED BY RF-SCORE:    0.00 PKD
ROOT
HETATM    1  C   UNL     1     -12.908  12.914  64.917  1.00  0.00    -0.295 C  
HETATM    2  C   UNL     1     -12.101  12.437  63.733  1.00  0.00    -0.529 C  
HETATM    3  O   UNL     1     -13.042  14.108  65.194  1.00  0.00    -0.757 OA 
HETATM    4  F   UNL     1     -12.809  11.585  62.944  1.00  0.00    -0.598 F  
ENDROOT
BRANCH   2   5
HETATM    5  C   UNL     1     -10.777  11.779  64.140  1.00  0.00    -0.357 C  
HETATM    6  O   UNL     1      -9.660  12.332  63.410  1.00  0.00    -0.663 OA 
HETATM    7  H   UNL     1      -8.840  11.925  63.662  1.00  0.00     0.000 HD 
BRANCH   5   8
HETATM    8  C   UNL     1     -10.386  11.844  65.634  1.00  0.00    -0.247 C  
HETATM    9  O   UNL     1      -9.417  12.921  65.751  1.00  0.00    -0.450 OA 
HETATM   10  H   UNL     1      -9.177  12.961  66.669  1.00  0.00     0.000 HD 
BRANCH   8  11
HETATM   11  C   UNL     1      -9.796  10.571  66.282  1.00  0.00    -0.217 C  
HETATM   12  H   UNL     1      -9.573   8.693  65.752  1.00  0.00     0.000 HD 
HETATM   13  O   UNL     1      -9.936   9.475  65.354  1.00  0.00    -0.284 OA 
BRANCH  11  14
HETATM   14  C   UNL     1     -10.442  10.143  67.609  1.00  0.00    -0.245 C  
HETATM   15  O   UNL     1     -11.023   8.842  67.512  1.00  0.00    -0.475 OA 
HETATM   16  H   UNL     1     -11.423   8.578  68.333  1.00  0.00     0.000 HD 
ENDBRANCH  11  14
ENDBRANCH   8  11
ENDBRANCH   5   8
ENDBRANCH   2   5
TORSDOF 4
ENDMDL
MODEL       66
REMARK 921   NORMALIZED FREE ENERGY PREDICTED BY IDOCK:   -4.14 KCAL/MOL
REMARK 922        TOTAL FREE ENERGY PREDICTED BY IDOCK:   -5.34 KCAL/MOL
REMARK 923 INTER-LIGAND FREE ENERGY PREDICTED BY IDOCK:   -5.06 KCAL/MOL
REMARK 924 INTRA-LIGAND FREE ENERGY PREDICTED BY IDOCK:   -0.28 KCAL/MOL
REMARK 927      BINDING AFFINITY PREDICTED BY RF-SCORE:    0.00 PKD
ROOT
HETATM    1  C   UNL     1     -11.153  16.520  68.111  1.00  0.00    -0.303 C  
HETATM    2  C   UNL     1     -10.465  15.604  67.127  1.00  0.00    -0.303 C  
HETATM    3  O   UNL     1     -10.850  16.563  69.305  1.00  0.00    -0.309 OA 
HETATM    4  F   UNL     1     -10.014  16.275  66.035  1.00  0.00    -0.279 F  
ENDROOT
BRANCH   2   5
HETATM    5  C   UNL     1     -11.350  14.434  66.682  1.00  0.00    -0.353 C  
HETATM    6  O   UNL     1     -12.360  14.124  67.667  1.00  0.00    -0.567 OA 
HETATM    7  H   UNL     1     -12.909  13.399  67.391  1.00  0.00     0.000 HD 
BRANCH   5   8
HETATM    8  C   UNL     1     -12.096  14.585  65.337  1.00  0.00    -0.317 C  
HETATM    9  O   UNL     1     -13.475  14.206  65.597  1.00  0.00    -0.725 OA 
HETATM   10  H   UNL     1     -13.934  14.299  64.770  1.00  0.00     0.000 HD 
BRANCH   8  11
HETATM   11  C   UNL     1     -11.576  13.776  64.127  1.00  0.00    -0.331 C  
HETATM   12  H   UNL     1     -12.350  13.068  62.467  1.00  0.00     0.000 HD 
HETATM   13  O   UNL     1     -12.669  13.565  63.211  1.00  0.00    -0.726 OA 
BRANCH  11  14
HETATM   14  C   UNL     1     -10.976  12.401  64.460  1.00  0.00    -0.316 C  
HETATM   15  O   UNL     1      -9.864  12.098  63.617  1.00  0.00    -0.530 OA 
HETATM   16  H   UNL     1      -9.493  11.248  63.823  1.00  0.00     0.000 HD 
ENDBRANCH  11  14
ENDBRANCH   8  11
ENDBRANCH   5   8
ENDBRANCH   2   5
TORSDOF 4
ENDMDL
MODEL       67
REMARK 921   NORMALIZED FREE ENERGY PREDICTED BY IDOCK:   -4.13 KCAL/MOL
REMARK 922        TOTAL FREE ENERGY PREDICTED BY IDOCK:   -5.34 KCAL/MOL
REMARK 923 INTER-LIGAND FREE ENERGY PREDICTED BY IDOCK:   -4.71 KCAL/MOL
REMARK 924 INTRA-LIGAND FREE ENERGY PREDICTED BY IDOCK:   -0.63 KCAL/MOL
REMARK 927      BINDING AFFINITY PREDICTED BY RF-SCORE:    0.00 PKD
ROOT
HETATM    1  C   UNL     1     -12.110  14.591  70.764  1.00  0.00    -0.329 C  
HETATM    2  C   UNL     1     -12.111  13.641  69.590  1.00  0.00    -0.321 C  
HETATM    3  O   UNL     1     -12.796  15.614  70.794  1.00  0.00    -0.469 OA 
HETATM    4  F   UNL     1     -12.348  12.358  69.972  1.00  0.00    -0.320 F  
ENDROOT
BRANCH   2   5
HETATM    5  C   UNL     1     -10.817  13.702  68.772  1.00  0.00    -0.255 C  
HETATM    6  O   UNL     1     -10.161  12.417  68.713  1.00  0.00    -0.371 OA 
HETATM    7  H   UNL     1      -9.358  12.454  68.206  1.00  0.00     0.000 HD 
BRANCH   5   8
HETATM    8  C   UNL     1     -10.927  14.192  67.310  1.00  0.00    -0.297 C  
HETATM    9  O   UNL     1     -10.918  15.644  67.369  1.00  0.00    -0.314 OA 
HETATM   10  H   UNL     1     -10.986  15.945  66.471  1.00  0.00     0.000 HD 
BRANCH   8  11
HETATM   11  C   UNL     1     -12.153  13.735  66.486  1.00  0.00    -0.443 C  
HETATM   12  H   UNL     1     -12.860  12.019  65.845  1.00  0.00     0.000 HD 
HETATM   13  O   UNL     1     -12.107  12.300  66.351  1.00  0.00    -0.623 OA 
BRANCH  11  14
HETATM   14  C   UNL     1     -12.260  14.332  65.074  1.00  0.00    -0.433 C  
HETATM   15  O   UNL     1     -10.992  14.792  64.603  1.00  0.00    -0.533 OA 
HETATM   16  H   UNL     1     -11.059  15.161  63.730  1.00  0.00     0.000 HD 
ENDBRANCH  11  14
ENDBRANCH   8  11
ENDBRANCH   5   8
ENDBRANCH   2   5
TORSDOF 4
ENDMDL
MODEL       68
REMARK 921   NORMALIZED FREE ENERGY PREDICTED BY IDOCK:   -4.13 KCAL/MOL
REMARK 922        TOTAL FREE ENERGY PREDICTED BY IDOCK:   -5.33 KCAL/MOL
REMARK 923 INTER-LIGAND FREE ENERGY PREDICTED BY IDOCK:   -5.01 KCAL/MOL
REMARK 924 INTRA-LIGAND FREE ENERGY PREDICTED BY IDOCK:   -0.32 KCAL/MOL
REMARK 927      BINDING AFFINITY PREDICTED BY RF-SCORE:    0.00 PKD
ROOT
HETATM    1  C   UNL     1     -11.850  14.234  67.484  1.00  0.00    -0.395 C  
HETATM    2  C   UNL     1     -11.946  14.266  65.977  1.00  0.00    -0.400 C  
HETATM    3  O   UNL     1     -11.692  15.251  68.163  1.00  0.00    -0.345 OA 
HETATM    4  F   UNL     1     -13.053  13.620  65.523  1.00  0.00    -0.524 F  
ENDROOT
BRANCH   2   5
HETATM    5  C   UNL     1     -10.701  13.697  65.287  1.00  0.00    -0.336 C  
HETATM    6  O   UNL     1      -9.544  14.536  65.498  1.00  0.00    -0.520 OA 
HETATM    7  H   UNL     1      -8.772  14.183  65.070  1.00  0.00     0.000 HD 
BRANCH   5   8
HETATM    8  C   UNL     1     -10.268  12.266  65.680  1.00  0.00    -0.261 C  
HETATM    9  O   UNL     1      -8.855  12.349  66.009  1.00  0.00    -0.417 OA 
HETATM   10  H   UNL     1      -8.589  11.469  66.250  1.00  0.00     0.000 HD 
BRANCH   8  11
HETATM   11  C   UNL     1     -10.473  11.139  64.642  1.00  0.00    -0.335 C  
HETATM   12  H   UNL     1      -9.367   9.706  63.880  1.00  0.00     0.000 HD 
HETATM   13  O   UNL     1      -9.241  10.399  64.518  1.00  0.00    -0.203 OA 
BRANCH  11  14
HETATM   14  C   UNL     1     -10.882  11.603  63.235  1.00  0.00    -0.304 C  
HETATM   15  O   UNL     1     -12.291  11.485  63.034  1.00  0.00    -0.975 OA 
HETATM   16  H   UNL     1     -12.543  11.771  62.164  1.00  0.00     0.000 HD 
ENDBRANCH  11  14
ENDBRANCH   8  11
ENDBRANCH   5   8
ENDBRANCH   2   5
TORSDOF 4
ENDMDL
MODEL       69
REMARK 921   NORMALIZED FREE ENERGY PREDICTED BY IDOCK:   -4.13 KCAL/MOL
REMARK 922        TOTAL FREE ENERGY PREDICTED BY IDOCK:   -5.33 KCAL/MOL
REMARK 923 INTER-LIGAND FREE ENERGY PREDICTED BY IDOCK:   -5.01 KCAL/MOL
REMARK 924 INTRA-LIGAND FREE ENERGY PREDICTED BY IDOCK:   -0.32 KCAL/MOL
REMARK 927      BINDING AFFINITY PREDICTED BY RF-SCORE:    0.00 PKD
ROOT
HETATM    1  C   UNL     1     -12.096  11.719  63.745  1.00  0.00    -0.358 C  
HETATM    2  C   UNL     1     -11.105  12.839  63.536  1.00  0.00    -0.325 C  
HETATM    3  O   UNL     1     -13.247  11.757  63.305  1.00  0.00    -0.555 OA 
HETATM    4  F   UNL     1      -9.931  12.391  63.017  1.00  0.00    -0.322 F  
ENDROOT
BRANCH   2   5
HETATM    5  C   UNL     1     -10.829  13.636  64.816  1.00  0.00    -0.394 C  
HETATM    6  O   UNL     1     -10.734  15.053  64.552  1.00  0.00    -0.608 OA 
HETATM    7  H   UNL     1     -10.563  15.548  65.345  1.00  0.00     0.000 HD 
BRANCH   5   8
HETATM    8  C   UNL     1     -11.840  13.484  65.975  1.00  0.00    -0.379 C  
HETATM    9  O   UNL     1     -13.051  14.164  65.546  1.00  0.00    -0.691 OA 
HETATM   10  H   UNL     1     -13.672  14.070  66.258  1.00  0.00     0.000 HD 
BRANCH   8  11
HETATM   11  C   UNL     1     -11.431  14.024  67.365  1.00  0.00    -0.348 C  
HETATM   12  H   UNL     1      -9.773  14.669  68.195  1.00  0.00     0.000 HD 
HETATM   13  O   UNL     1     -10.023  14.337  67.341  1.00  0.00    -0.238 OA 
BRANCH  11  14
HETATM   14  C   UNL     1     -11.677  13.069  68.543  1.00  0.00    -0.342 C  
HETATM   15  O   UNL     1     -11.156  13.600  69.763  1.00  0.00    -0.456 OA 
HETATM   16  H   UNL     1     -11.308  13.009  70.492  1.00  0.00     0.000 HD 
ENDBRANCH  11  14
ENDBRANCH   8  11
ENDBRANCH   5   8
ENDBRANCH   2   5
TORSDOF 4
ENDMDL
MODEL       70
REMARK 921   NORMALIZED FREE ENERGY PREDICTED BY IDOCK:   -4.03 KCAL/MOL
REMARK 922        TOTAL FREE ENERGY PREDICTED BY IDOCK:   -5.21 KCAL/MOL
REMARK 923 INTER-LIGAND FREE ENERGY PREDICTED BY IDOCK:   -4.91 KCAL/MOL
REMARK 924 INTRA-LIGAND FREE ENERGY PREDICTED BY IDOCK:   -0.30 KCAL/MOL
REMARK 927      BINDING AFFINITY PREDICTED BY RF-SCORE:    0.00 PKD
ROOT
HETATM    1  C   UNL     1     -13.196   8.005  71.495  1.00  0.00    -0.290 C  
HETATM    2  C   UNL     1     -12.492   9.300  71.826  1.00  0.00    -0.381 C  
HETATM    3  O   UNL     1     -12.826   6.914  71.934  1.00  0.00    -0.333 OA 
HETATM    4  F   UNL     1     -13.352  10.242  72.296  1.00  0.00    -0.509 F  
ENDROOT
BRANCH   2   5
HETATM    5  C   UNL     1     -11.704   9.869  70.642  1.00  0.00    -0.323 C  
HETATM    6  O   UNL     1     -11.382   8.847  69.674  1.00  0.00    -0.437 OA 
HETATM    7  H   UNL     1     -10.893   9.200  68.939  1.00  0.00     0.000 HD 
BRANCH   5   8
HETATM    8  C   UNL     1     -12.359  11.021  69.846  1.00  0.00    -0.288 C  
HETATM    9  O   UNL     1     -12.221  10.670  68.442  1.00  0.00    -0.822 OA 
HETATM   10  H   UNL     1     -12.624  11.377  67.952  1.00  0.00     0.000 HD 
BRANCH   8  11
HETATM   11  C   UNL     1     -11.810  12.450  70.058  1.00  0.00    -0.288 C  
HETATM   12  H   UNL     1     -12.207  13.949  71.263  1.00  0.00     0.000 HD 
HETATM   13  O   UNL     1     -12.545  13.070  71.133  1.00  0.00    -0.371 OA 
BRANCH  11  14
HETATM   14  C   UNL     1     -11.896  13.379  68.837  1.00  0.00    -0.334 C  
HETATM   15  O   UNL     1     -12.759  14.490  69.086  1.00  0.00    -0.537 OA 
HETATM   16  H   UNL     1     -12.812  15.065  68.331  1.00  0.00     0.000 HD 
ENDBRANCH  11  14
ENDBRANCH   8  11
ENDBRANCH   5   8
ENDBRANCH   2   5
TORSDOF 4
ENDMDL
MODEL       71
REMARK 921   NORMALIZED FREE ENERGY PREDICTED BY IDOCK:   -4.01 KCAL/MOL
REMARK 922        TOTAL FREE ENERGY PREDICTED BY IDOCK:   -5.18 KCAL/MOL
REMARK 923 INTER-LIGAND FREE ENERGY PREDICTED BY IDOCK:   -4.80 KCAL/MOL
REMARK 924 INTRA-LIGAND FREE ENERGY PREDICTED BY IDOCK:   -0.38 KCAL/MOL
REMARK 927      BINDING AFFINITY PREDICTED BY RF-SCORE:    0.00 PKD
ROOT
HETATM    1  C   UNL     1     -12.873  10.567  70.709  1.00  0.00    -0.367 C  
HETATM    2  C   UNL     1     -11.917  11.671  70.324  1.00  0.00    -0.358 C  
HETATM    3  O   UNL     1     -12.566   9.660  71.485  1.00  0.00    -0.337 OA 
HETATM    4  F   UNL     1     -12.458  12.904  70.511  1.00  0.00    -0.386 F  
ENDROOT
BRANCH   2   5
HETATM    5  C   UNL     1     -11.411  11.545  68.882  1.00  0.00    -0.289 C  
HETATM    6  O   UNL     1     -11.964  10.386  68.222  1.00  0.00    -0.772 OA 
HETATM    7  H   UNL     1     -11.651  10.308  67.328  1.00  0.00     0.000 HD 
BRANCH   5   8
HETATM    8  C   UNL     1     -11.670  12.740  67.937  1.00  0.00    -0.357 C  
HETATM    9  O   UNL     1     -12.154  12.171  66.690  1.00  0.00    -0.622 OA 
HETATM   10  H   UNL     1     -12.313  12.905  66.109  1.00  0.00     0.000 HD 
BRANCH   8  11
HETATM   11  C   UNL     1     -10.487  13.685  67.626  1.00  0.00    -0.238 C  
HETATM   12  H   UNL     1     -10.276  15.460  66.813  1.00  0.00     0.000 HD 
HETATM   13  O   UNL     1     -11.003  14.879  67.003  1.00  0.00    -0.312 OA 
BRANCH  11  14
HETATM   14  C   UNL     1      -9.404  13.108  66.701  1.00  0.00    -0.239 C  
HETATM   15  O   UNL     1      -9.697  13.368  65.328  1.00  0.00    -0.518 OA 
HETATM   16  H   UNL     1      -9.028  13.011  64.756  1.00  0.00     0.000 HD 
ENDBRANCH  11  14
ENDBRANCH   8  11
ENDBRANCH   5   8
ENDBRANCH   2   5
TORSDOF 4
ENDMDL
MODEL       72
REMARK 921   NORMALIZED FREE ENERGY PREDICTED BY IDOCK:   -4.00 KCAL/MOL
REMARK 922        TOTAL FREE ENERGY PREDICTED BY IDOCK:   -5.17 KCAL/MOL
REMARK 923 INTER-LIGAND FREE ENERGY PREDICTED BY IDOCK:   -4.36 KCAL/MOL
REMARK 924 INTRA-LIGAND FREE ENERGY PREDICTED BY IDOCK:   -0.81 KCAL/MOL
REMARK 927      BINDING AFFINITY PREDICTED BY RF-SCORE:    0.00 PKD
ROOT
HETATM    1  C   UNL     1     -14.175   9.555  71.787  1.00  0.00     0.051 C  
HETATM    2  C   UNL     1     -12.929  10.403  71.888  1.00  0.00    -0.450 C  
HETATM    3  O   UNL     1     -14.383   8.587  72.521  1.00  0.00    -0.469 OA 
HETATM    4  F   UNL     1     -13.221  11.726  71.998  1.00  0.00    -0.568 F  
ENDROOT
BRANCH   2   5
HETATM    5  C   UNL     1     -11.963  10.186  70.718  1.00  0.00    -0.348 C  
HETATM    6  O   UNL     1     -11.229  11.389  70.402  1.00  0.00    -0.463 OA 
HETATM    7  H   UNL     1     -10.630  11.254  69.677  1.00  0.00     0.000 HD 
BRANCH   5   8
HETATM    8  C   UNL     1     -10.907   9.068  70.872  1.00  0.00    -0.258 C  
HETATM    9  O   UNL     1     -11.442   7.909  70.178  1.00  0.00    -0.450 OA 
HETATM   10  H   UNL     1     -10.792   7.222  70.272  1.00  0.00     0.000 HD 
BRANCH   8  11
HETATM   11  C   UNL     1     -10.503   8.649  72.304  1.00  0.00    -0.306 C  
HETATM   12  H   UNL     1      -8.857   8.690  73.374  1.00  0.00     0.000 HD 
HETATM   13  O   UNL     1      -9.105   8.948  72.494  1.00  0.00    -0.349 OA 
BRANCH  11  14
HETATM   14  C   UNL     1     -10.712   7.164  72.642  1.00  0.00    -0.268 C  
HETATM   15  O   UNL     1     -12.098   6.851  72.787  1.00  0.00    -0.485 OA 
HETATM   16  H   UNL     1     -12.227   5.933  72.996  1.00  0.00     0.000 HD 
ENDBRANCH  11  14
ENDBRANCH   8  11
ENDBRANCH   5   8
ENDBRANCH   2   5
TORSDOF 4
ENDMDL
MODEL       73
REMARK 921   NORMALIZED FREE ENERGY PREDICTED BY IDOCK:   -4.00 KCAL/MOL
REMARK 922        TOTAL FREE ENERGY PREDICTED BY IDOCK:   -5.17 KCAL/MOL
REMARK 923 INTER-LIGAND FREE ENERGY PREDICTED BY IDOCK:   -4.64 KCAL/MOL
REMARK 924 INTRA-LIGAND FREE ENERGY PREDICTED BY IDOCK:   -0.53 KCAL/MOL
REMARK 927      BINDING AFFINITY PREDICTED BY RF-SCORE:    0.00 PKD
ROOT
HETATM    1  C   UNL     1     -13.058  11.449  72.002  1.00  0.00    -0.318 C  
HETATM    2  C   UNL     1     -13.097  10.458  70.864  1.00  0.00    -0.330 C  
HETATM    3  O   UNL     1     -13.330  12.643  71.855  1.00  0.00    -0.463 OA 
HETATM    4  F   UNL     1     -13.853   9.367  71.163  1.00  0.00    -0.414 F  
ENDROOT
BRANCH   2   5
HETATM    5  C   UNL     1     -11.702  10.008  70.415  1.00  0.00    -0.286 C  
HETATM    6  O   UNL     1     -11.660   8.590  70.143  1.00  0.00    -0.463 OA 
HETATM    7  H   UNL     1     -10.795   8.312  69.865  1.00  0.00     0.000 HD 
BRANCH   5   8
HETATM    8  C   UNL     1     -11.104  10.701  69.170  1.00  0.00    -0.255 C  
HETATM    9  O   UNL     1      -9.796  11.192  69.571  1.00  0.00    -0.424 OA 
HETATM   10  H   UNL     1      -9.428  11.617  68.805  1.00  0.00     0.000 HD 
BRANCH   8  11
HETATM   11  C   UNL     1     -11.900  11.865  68.538  1.00  0.00    -0.297 C  
HETATM   12  H   UNL     1     -12.291  12.479  66.714  1.00  0.00     0.000 HD 
HETATM   13  O   UNL     1     -11.801  11.764  67.102  1.00  0.00    -0.599 OA 
BRANCH  11  14
HETATM   14  C   UNL     1     -11.441  13.275  68.938  1.00  0.00    -0.298 C  
HETATM   15  O   UNL     1     -12.544  14.093  69.331  1.00  0.00    -0.491 OA 
HETATM   16  H   UNL     1     -12.259  14.965  69.578  1.00  0.00     0.000 HD 
ENDBRANCH  11  14
ENDBRANCH   8  11
ENDBRANCH   5   8
ENDBRANCH   2   5
TORSDOF 4
ENDMDL
MODEL       74
REMARK 921   NORMALIZED FREE ENERGY PREDICTED BY IDOCK:   -3.99 KCAL/MOL
REMARK 922        TOTAL FREE ENERGY PREDICTED BY IDOCK:   -5.16 KCAL/MOL
REMARK 923 INTER-LIGAND FREE ENERGY PREDICTED BY IDOCK:   -4.86 KCAL/MOL
REMARK 924 INTRA-LIGAND FREE ENERGY PREDICTED BY IDOCK:   -0.30 KCAL/MOL
REMARK 927      BINDING AFFINITY PREDICTED BY RF-SCORE:    0.00 PKD
ROOT
HETATM    1  C   UNL     1     -13.672  14.263  71.861  1.00  0.00    -0.436 C  
HETATM    2  C   UNL     1     -12.287  14.457  71.290  1.00  0.00    -0.359 C  
HETATM    3  O   UNL     1     -13.999  13.251  72.484  1.00  0.00    -0.701 OA 
HETATM    4  F   UNL     1     -11.739  15.641  71.672  1.00  0.00    -0.337 F  
ENDROOT
BRANCH   2   5
HETATM    5  C   UNL     1     -12.252  14.345  69.761  1.00  0.00    -0.321 C  
HETATM    6  O   UNL     1     -12.453  15.627  69.127  1.00  0.00    -0.598 OA 
HETATM    7  H   UNL     1     -12.431  15.558  68.180  1.00  0.00     0.000 HD 
BRANCH   5   8
HETATM    8  C   UNL     1     -10.975  13.750  69.126  1.00  0.00    -0.208 C  
HETATM    9  O   UNL     1      -9.894  14.662  69.464  1.00  0.00    -0.416 OA 
HETATM   10  H   UNL     1      -9.109  14.296  69.074  1.00  0.00     0.000 HD 
BRANCH   8  11
HETATM   11  C   UNL     1     -10.970  13.516  67.598  1.00  0.00    -0.263 C  
HETATM   12  H   UNL     1     -12.268  13.711  66.138  1.00  0.00     0.000 HD 
HETATM   13  O   UNL     1     -12.271  13.854  67.077  1.00  0.00    -0.421 OA 
BRANCH  11  14
HETATM   14  C   UNL     1     -10.646  12.083  67.150  1.00  0.00    -0.224 C  
HETATM   15  O   UNL     1     -11.713  11.185  67.461  1.00  0.00    -0.574 OA 
HETATM   16  H   UNL     1     -11.513  10.298  67.184  1.00  0.00     0.000 HD 
ENDBRANCH  11  14
ENDBRANCH   8  11
ENDBRANCH   5   8
ENDBRANCH   2   5
TORSDOF 4
ENDMDL
MODEL       75
REMARK 921   NORMALIZED FREE ENERGY PREDICTED BY IDOCK:   -3.98 KCAL/MOL
REMARK 922        TOTAL FREE ENERGY PREDICTED BY IDOCK:   -5.15 KCAL/MOL
REMARK 923 INTER-LIGAND FREE ENERGY PREDICTED BY IDOCK:   -4.78 KCAL/MOL
REMARK 924 INTRA-LIGAND FREE ENERGY PREDICTED BY IDOCK:   -0.38 KCAL/MOL
REMARK 927      BINDING AFFINITY PREDICTED BY RF-SCORE:    0.00 PKD
ROOT
HETATM    1  C   UNL     1     -10.971  14.235  66.493  1.00  0.00    -0.316 C  
HETATM    2  C   UNL     1     -10.871  15.618  65.894  1.00  0.00    -0.293 C  
HETATM    3  O   UNL     1     -11.955  13.855  67.131  1.00  0.00    -0.392 OA 
HETATM    4  F   UNL     1     -10.555  15.579  64.572  1.00  0.00    -0.394 F  
ENDROOT
BRANCH   2   5
HETATM    5  C   UNL     1      -9.874  16.517  66.634  1.00  0.00    -0.268 C  
HETATM    6  O   UNL     1      -8.630  16.642  65.912  1.00  0.00    -0.473 OA 
HETATM    7  H   UNL     1      -8.012  17.199  66.371  1.00  0.00     0.000 HD 
BRANCH   5   8
HETATM    8  C   UNL     1     -10.328  17.959  66.956  1.00  0.00    -0.362 C  
HETATM    9  O   UNL     1     -10.479  18.629  65.675  1.00  0.00    -0.603 OA 
HETATM   10  H   UNL     1     -10.758  19.516  65.873  1.00  0.00     0.000 HD 
BRANCH   8  11
HETATM   11  C   UNL     1      -9.418  18.817  67.863  1.00  0.00    -0.304 C  
HETATM   12  H   UNL     1      -9.633  19.806  69.546  1.00  0.00     0.000 HD 
HETATM   13  O   UNL     1     -10.193  19.279  68.988  1.00  0.00    -0.373 OA 
BRANCH  11  14
HETATM   14  C   UNL     1      -8.790  20.050  67.194  1.00  0.00    -0.344 C  
HETATM   15  O   UNL     1      -9.723  21.127  67.101  1.00  0.00    -0.655 OA 
HETATM   16  H   UNL     1      -9.334  21.889  66.687  1.00  0.00     0.000 HD 
ENDBRANCH  11  14
ENDBRANCH   8  11
ENDBRANCH   5   8
ENDBRANCH   2   5
TORSDOF 4
ENDMDL
MODEL       76
REMARK 921   NORMALIZED FREE ENERGY PREDICTED BY IDOCK:   -3.93 KCAL/MOL
REMARK 922        TOTAL FREE ENERGY PREDICTED BY IDOCK:   -5.08 KCAL/MOL
REMARK 923 INTER-LIGAND FREE ENERGY PREDICTED BY IDOCK:   -4.76 KCAL/MOL
REMARK 924 INTRA-LIGAND FREE ENERGY PREDICTED BY IDOCK:   -0.33 KCAL/MOL
REMARK 927      BINDING AFFINITY PREDICTED BY RF-SCORE:    0.00 PKD
ROOT
HETATM    1  C   UNL     1     -13.553  13.705  71.853  1.00  0.00    -0.427 C  
HETATM    2  C   UNL     1     -12.469  13.725  70.801  1.00  0.00    -0.370 C  
HETATM    3  O   UNL     1     -13.361  14.073  73.013  1.00  0.00    -0.641 OA 
HETATM    4  F   UNL     1     -12.863  14.379  69.676  1.00  0.00    -0.287 F  
ENDROOT
BRANCH   2   5
HETATM    5  C   UNL     1     -11.970  12.324  70.432  1.00  0.00    -0.263 C  
HETATM    6  O   UNL     1     -12.690  11.295  71.146  1.00  0.00    -0.384 OA 
HETATM    7  H   UNL     1     -12.381  10.426  70.917  1.00  0.00     0.000 HD 
BRANCH   5   8
HETATM    8  C   UNL     1     -12.025  11.925  68.939  1.00  0.00    -0.254 C  
HETATM    9  O   UNL     1     -12.503  10.553  68.905  1.00  0.00    -0.776 OA 
HETATM   10  H   UNL     1     -12.536  10.308  67.988  1.00  0.00     0.000 HD 
BRANCH   8  11
HETATM   11  C   UNL     1     -10.718  12.018  68.119  1.00  0.00    -0.216 C  
HETATM   12  H   UNL     1      -9.239  13.300  67.963  1.00  0.00     0.000 HD 
HETATM   13  O   UNL     1     -10.042  13.244  68.467  1.00  0.00    -0.239 OA 
BRANCH  11  14
HETATM   14  C   UNL     1     -10.892  11.999  66.592  1.00  0.00    -0.272 C  
HETATM   15  O   UNL     1     -12.229  12.332  66.215  1.00  0.00    -0.628 OA 
HETATM   16  H   UNL     1     -12.337  12.321  65.271  1.00  0.00     0.000 HD 
ENDBRANCH  11  14
ENDBRANCH   8  11
ENDBRANCH   5   8
ENDBRANCH   2   5
TORSDOF 4
ENDMDL
MODEL       77
REMARK 921   NORMALIZED FREE ENERGY PREDICTED BY IDOCK:   -3.92 KCAL/MOL
REMARK 922        TOTAL FREE ENERGY PREDICTED BY IDOCK:   -5.08 KCAL/MOL
REMARK 923 INTER-LIGAND FREE ENERGY PREDICTED BY IDOCK:   -4.66 KCAL/MOL
REMARK 924 INTRA-LIGAND FREE ENERGY PREDICTED BY IDOCK:   -0.42 KCAL/MOL
REMARK 927      BINDING AFFINITY PREDICTED BY RF-SCORE:    0.00 PKD
ROOT
HETATM    1  C   UNL     1     -10.060  10.518  64.663  1.00  0.00    -0.338 C  
HETATM    2  C   UNL     1      -9.693  11.919  65.092  1.00  0.00    -0.176 C  
HETATM    3  O   UNL     1      -9.526   9.953  63.707  1.00  0.00    -0.268 OA 
HETATM    4  F   UNL     1      -9.390  11.983  66.416  1.00  0.00    -0.206 F  
ENDROOT
BRANCH   2   5
HETATM    5  C   UNL     1     -10.781  12.948  64.764  1.00  0.00    -0.333 C  
HETATM    6  O   UNL     1     -11.219  12.842  63.392  1.00  0.00    -0.588 OA 
HETATM    7  H   UNL     1     -11.894  13.480  63.189  1.00  0.00     0.000 HD 
BRANCH   5   8
HETATM    8  C   UNL     1     -12.064  12.918  65.626  1.00  0.00    -0.458 C  
HETATM    9  O   UNL     1     -13.158  13.262  64.733  1.00  0.00    -0.709 OA 
HETATM   10  H   UNL     1     -13.946  13.244  65.262  1.00  0.00     0.000 HD 
BRANCH   8  11
HETATM   11  C   UNL     1     -12.124  13.840  66.865  1.00  0.00    -0.413 C  
HETATM   12  H   UNL     1     -11.128  15.407  67.505  1.00  0.00     0.000 HD 
HETATM   13  O   UNL     1     -11.091  14.840  66.744  1.00  0.00    -0.324 OA 
BRANCH  11  14
HETATM   14  C   UNL     1     -11.939  13.141  68.220  1.00  0.00    -0.291 C  
HETATM   15  O   UNL     1     -12.146  11.731  68.113  1.00  0.00    -0.556 OA 
HETATM   16  H   UNL     1     -12.031  11.299  68.952  1.00  0.00     0.000 HD 
ENDBRANCH  11  14
ENDBRANCH   8  11
ENDBRANCH   5   8
ENDBRANCH   2   5
TORSDOF 4
ENDMDL
MODEL       78
REMARK 921   NORMALIZED FREE ENERGY PREDICTED BY IDOCK:   -3.92 KCAL/MOL
REMARK 922        TOTAL FREE ENERGY PREDICTED BY IDOCK:   -5.07 KCAL/MOL
REMARK 923 INTER-LIGAND FREE ENERGY PREDICTED BY IDOCK:   -4.77 KCAL/MOL
REMARK 924 INTRA-LIGAND FREE ENERGY PREDICTED BY IDOCK:   -0.30 KCAL/MOL
REMARK 927      BINDING AFFINITY PREDICTED BY RF-SCORE:    0.00 PKD
ROOT
HETATM    1  C   UNL     1      -8.980  15.756  66.535  1.00  0.00    -0.306 C  
HETATM    2  C   UNL     1     -10.482  15.877  66.433  1.00  0.00    -0.308 C  
HETATM    3  O   UNL     1      -8.214  16.655  66.182  1.00  0.00    -0.315 OA 
HETATM    4  F   UNL     1     -11.097  15.596  67.613  1.00  0.00    -0.307 F  
ENDROOT
BRANCH   2   5
HETATM    5  C   UNL     1     -11.077  15.003  65.324  1.00  0.00    -0.386 C  
HETATM    6  O   UNL     1     -11.067  15.680  64.048  1.00  0.00    -0.633 OA 
HETATM    7  H   UNL     1     -11.436  15.139  63.360  1.00  0.00     0.000 HD 
BRANCH   5   8
HETATM    8  C   UNL     1     -10.421  13.625  65.081  1.00  0.00    -0.374 C  
HETATM    9  O   UNL     1     -10.069  13.588  63.672  1.00  0.00    -0.403 OA 
HETATM   10  H   UNL     1      -9.665  12.741  63.523  1.00  0.00     0.000 HD 
BRANCH   8  11
HETATM   11  C   UNL     1     -11.245  12.362  65.422  1.00  0.00    -0.318 C  
HETATM   12  H   UNL     1     -13.151  11.892  65.463  1.00  0.00     0.000 HD 
HETATM   13  O   UNL     1     -12.645  12.668  65.254  1.00  0.00    -0.630 OA 
BRANCH  11  14
HETATM   14  C   UNL     1     -11.056  11.813  66.844  1.00  0.00    -0.307 C  
HETATM   15  O   UNL     1     -12.192  12.085  67.665  1.00  0.00    -0.484 OA 
HETATM   16  H   UNL     1     -12.075  11.745  68.545  1.00  0.00     0.000 HD 
ENDBRANCH  11  14
ENDBRANCH   8  11
ENDBRANCH   5   8
ENDBRANCH   2   5
TORSDOF 4
ENDMDL
MODEL       79
REMARK 921   NORMALIZED FREE ENERGY PREDICTED BY IDOCK:   -3.91 KCAL/MOL
REMARK 922        TOTAL FREE ENERGY PREDICTED BY IDOCK:   -5.06 KCAL/MOL
REMARK 923 INTER-LIGAND FREE ENERGY PREDICTED BY IDOCK:   -4.84 KCAL/MOL
REMARK 924 INTRA-LIGAND FREE ENERGY PREDICTED BY IDOCK:   -0.22 KCAL/MOL
REMARK 927      BINDING AFFINITY PREDICTED BY RF-SCORE:    0.00 PKD
ROOT
HETATM    1  C   UNL     1     -12.169  12.605  65.095  1.00  0.00    -0.481 C  
HETATM    2  C   UNL     1     -12.126  13.691  66.143  1.00  0.00    -0.436 C  
HETATM    3  O   UNL     1     -13.197  12.311  64.482  1.00  0.00    -0.799 OA 
HETATM    4  F   UNL     1     -11.133  14.589  65.906  1.00  0.00    -0.305 F  
ENDROOT
BRANCH   2   5
HETATM    5  C   UNL     1     -11.991  13.140  67.567  1.00  0.00    -0.317 C  
HETATM    6  O   UNL     1     -11.994  11.696  67.583  1.00  0.00    -0.618 OA 
HETATM    7  H   UNL     1     -11.911  11.354  68.466  1.00  0.00     0.000 HD 
BRANCH   5   8
HETATM    8  C   UNL     1     -10.748  13.574  68.377  1.00  0.00    -0.259 C  
HETATM    9  O   UNL     1     -10.328  12.403  69.128  1.00  0.00    -0.426 OA 
HETATM   10  H   UNL     1      -9.563  12.669  69.626  1.00  0.00     0.000 HD 
BRANCH   8  11
HETATM   11  C   UNL     1     -10.901  14.763  69.353  1.00  0.00    -0.255 C  
HETATM   12  H   UNL     1     -11.603  15.014  71.170  1.00  0.00     0.000 HD 
HETATM   13  O   UNL     1     -11.509  14.284  70.570  1.00  0.00    -0.214 OA 
BRANCH  11  14
HETATM   14  C   UNL     1     -11.749  15.936  68.838  1.00  0.00    -0.370 C  
HETATM   15  O   UNL     1     -10.937  16.939  68.225  1.00  0.00    -0.364 OA 
HETATM   16  H   UNL     1     -11.461  17.664  67.907  1.00  0.00     0.000 HD 
ENDBRANCH  11  14
ENDBRANCH   8  11
ENDBRANCH   5   8
ENDBRANCH   2   5
TORSDOF 4
ENDMDL
MODEL       80
REMARK 921   NORMALIZED FREE ENERGY PREDICTED BY IDOCK:   -3.91 KCAL/MOL
REMARK 922        TOTAL FREE ENERGY PREDICTED BY IDOCK:   -5.06 KCAL/MOL
REMARK 923 INTER-LIGAND FREE ENERGY PREDICTED BY IDOCK:   -4.77 KCAL/MOL
REMARK 924 INTRA-LIGAND FREE ENERGY PREDICTED BY IDOCK:   -0.29 KCAL/MOL
REMARK 927      BINDING AFFINITY PREDICTED BY RF-SCORE:    0.00 PKD
ROOT
HETATM    1  C   UNL     1     -14.285  14.078  72.238  1.00  0.00    -0.504 C  
HETATM    2  C   UNL     1     -13.128  14.986  72.580  1.00  0.00    -0.388 C  
HETATM    3  O   UNL     1     -14.381  12.928  72.673  1.00  0.00    -0.471 OA 
HETATM    4  F   UNL     1     -13.547  16.190  73.052  1.00  0.00    -0.591 F  
ENDROOT
BRANCH   2   5
HETATM    5  C   UNL     1     -12.170  15.201  71.403  1.00  0.00    -0.339 C  
HETATM    6  O   UNL     1     -10.793  15.008  71.793  1.00  0.00    -0.480 OA 
HETATM    7  H   UNL     1     -10.199  15.141  71.063  1.00  0.00     0.000 HD 
BRANCH   5   8
HETATM    8  C   UNL     1     -12.386  14.324  70.148  1.00  0.00    -0.353 C  
HETATM    9  O   UNL     1     -11.985  12.978  70.523  1.00  0.00    -0.488 OA 
HETATM   10  H   UNL     1     -12.118  12.439  69.752  1.00  0.00     0.000 HD 
BRANCH   8  11
HETATM   11  C   UNL     1     -11.642  14.722  68.852  1.00  0.00    -0.313 C  
HETATM   12  H   UNL     1      -9.847  14.432  68.112  1.00  0.00     0.000 HD 
HETATM   13  O   UNL     1     -10.303  14.187  68.908  1.00  0.00    -0.236 OA 
BRANCH  11  14
HETATM   14  C   UNL     1     -11.531  16.232  68.591  1.00  0.00    -0.288 C  
HETATM   15  O   UNL     1     -10.595  16.514  67.550  1.00  0.00    -0.316 OA 
HETATM   16  H   UNL     1     -10.526  17.448  67.388  1.00  0.00     0.000 HD 
ENDBRANCH  11  14
ENDBRANCH   8  11
ENDBRANCH   5   8
ENDBRANCH   2   5
TORSDOF 4
ENDMDL
MODEL       81
REMARK 921   NORMALIZED FREE ENERGY PREDICTED BY IDOCK:   -3.89 KCAL/MOL
REMARK 922        TOTAL FREE ENERGY PREDICTED BY IDOCK:   -5.03 KCAL/MOL
REMARK 923 INTER-LIGAND FREE ENERGY PREDICTED BY IDOCK:   -4.64 KCAL/MOL
REMARK 924 INTRA-LIGAND FREE ENERGY PREDICTED BY IDOCK:   -0.39 KCAL/MOL
REMARK 927      BINDING AFFINITY PREDICTED BY RF-SCORE:    0.00 PKD
ROOT
HETATM    1  C   UNL     1     -10.589  12.125  63.438  1.00  0.00    -0.410 C  
HETATM    2  C   UNL     1     -11.891  12.824  63.749  1.00  0.00    -0.499 C  
HETATM    3  O   UNL     1     -10.434  10.911  63.581  1.00  0.00    -0.346 OA 
HETATM    4  F   UNL     1     -12.323  13.584  62.708  1.00  0.00    -0.476 F  
ENDROOT
BRANCH   2   5
HETATM    5  C   UNL     1     -11.819  13.682  65.017  1.00  0.00    -0.360 C  
HETATM    6  O   UNL     1     -13.135  14.003  65.520  1.00  0.00    -0.713 OA 
HETATM    7  H   UNL     1     -13.091  14.536  66.306  1.00  0.00     0.000 HD 
BRANCH   5   8
HETATM    8  C   UNL     1     -11.033  13.106  66.216  1.00  0.00    -0.280 C  
HETATM    9  O   UNL     1     -11.961  12.245  66.931  1.00  0.00    -0.578 OA 
HETATM   10  H   UNL     1     -11.477  11.891  67.668  1.00  0.00     0.000 HD 
BRANCH   8  11
HETATM   11  C   UNL     1     -10.409  14.105  67.218  1.00  0.00    -0.267 C  
HETATM   12  H   UNL     1     -10.542  16.036  67.551  1.00  0.00     0.000 HD 
HETATM   13  O   UNL     1     -10.925  15.422  66.936  1.00  0.00    -0.318 OA 
BRANCH  11  14
HETATM   14  C   UNL     1      -8.875  14.192  67.196  1.00  0.00    -0.229 C  
HETATM   15  O   UNL     1      -8.276  12.928  67.488  1.00  0.00    -0.161 OA 
HETATM   16  H   UNL     1      -7.327  12.982  67.474  1.00  0.00     0.000 HD 
ENDBRANCH  11  14
ENDBRANCH   8  11
ENDBRANCH   5   8
ENDBRANCH   2   5
TORSDOF 4
ENDMDL
MODEL       82
REMARK 921   NORMALIZED FREE ENERGY PREDICTED BY IDOCK:   -3.88 KCAL/MOL
REMARK 922        TOTAL FREE ENERGY PREDICTED BY IDOCK:   -5.02 KCAL/MOL
REMARK 923 INTER-LIGAND FREE ENERGY PREDICTED BY IDOCK:   -4.70 KCAL/MOL
REMARK 924 INTRA-LIGAND FREE ENERGY PREDICTED BY IDOCK:   -0.32 KCAL/MOL
REMARK 927      BINDING AFFINITY PREDICTED BY RF-SCORE:    0.00 PKD
ROOT
HETATM    1  C   UNL     1      -9.759  17.112  66.074  1.00  0.00    -0.189 C  
HETATM    2  C   UNL     1     -10.443  16.189  65.094  1.00  0.00    -0.268 C  
HETATM    3  O   UNL     1      -8.545  17.326  66.050  1.00  0.00    -0.492 OA 
HETATM    4  F   UNL     1     -11.500  16.788  64.483  1.00  0.00    -0.438 F  
ENDROOT
BRANCH   2   5
HETATM    5  C   UNL     1     -10.899  14.872  65.733  1.00  0.00    -0.339 C  
HETATM    6  O   UNL     1     -10.921  14.958  67.174  1.00  0.00    -0.307 OA 
HETATM    7  H   UNL     1     -11.203  14.142  67.571  1.00  0.00     0.000 HD 
BRANCH   5   8
HETATM    8  C   UNL     1     -12.284  14.327  65.316  1.00  0.00    -0.414 C  
HETATM    9  O   UNL     1     -13.181  14.616  66.423  1.00  0.00     0.150 OA 
HETATM   10  H   UNL     1     -14.032  14.281  66.167  1.00  0.00     0.000 HD 
BRANCH   8  11
HETATM   11  C   UNL     1     -12.393  12.825  64.966  1.00  0.00    -0.499 C  
HETATM   12  H   UNL     1     -11.734  11.145  65.740  1.00  0.00     0.000 HD 
HETATM   13  O   UNL     1     -11.667  12.068  65.955  1.00  0.00    -0.432 OA 
BRANCH  11  14
HETATM   14  C   UNL     1     -11.852  12.428  63.584  1.00  0.00    -0.526 C  
HETATM   15  O   UNL     1     -12.752  11.553  62.902  1.00  0.00    -0.947 OA 
HETATM   16  H   UNL     1     -12.416  11.307  62.047  1.00  0.00     0.000 HD 
ENDBRANCH  11  14
ENDBRANCH   8  11
ENDBRANCH   5   8
ENDBRANCH   2   5
TORSDOF 4
ENDMDL
MODEL       83
REMARK 921   NORMALIZED FREE ENERGY PREDICTED BY IDOCK:   -3.86 KCAL/MOL
REMARK 922        TOTAL FREE ENERGY PREDICTED BY IDOCK:   -5.00 KCAL/MOL
REMARK 923 INTER-LIGAND FREE ENERGY PREDICTED BY IDOCK:   -4.65 KCAL/MOL
REMARK 924 INTRA-LIGAND FREE ENERGY PREDICTED BY IDOCK:   -0.35 KCAL/MOL
REMARK 927      BINDING AFFINITY PREDICTED BY RF-SCORE:    0.00 PKD
ROOT
HETATM    1  C   UNL     1     -10.749  11.119  64.814  1.00  0.00    -0.264 C  
HETATM    2  C   UNL     1      -9.909  11.558  65.991  1.00  0.00    -0.225 C  
HETATM    3  O   UNL     1     -10.304  11.052  63.667  1.00  0.00    -0.347 OA 
HETATM    4  F   UNL     1      -9.962  10.666  67.016  1.00  0.00    -0.204 F  
ENDROOT
BRANCH   2   5
HETATM    5  C   UNL     1     -10.285  12.952  66.505  1.00  0.00    -0.259 C  
HETATM    6  O   UNL     1     -10.017  13.090  67.917  1.00  0.00    -0.217 OA 
HETATM    7  H   UNL     1     -10.250  13.955  68.236  1.00  0.00     0.000 HD 
BRANCH   5   8
HETATM    8  C   UNL     1      -9.608  14.162  65.821  1.00  0.00    -0.133 C  
HETATM    9  O   UNL     1      -8.415  14.450  66.600  1.00  0.00    -0.417 OA 
HETATM   10  H   UNL     1      -8.000  15.194  66.180  1.00  0.00     0.000 HD 
BRANCH   8  11
HETATM   11  C   UNL     1     -10.432  15.462  65.673  1.00  0.00    -0.372 C  
HETATM   12  H   UNL     1     -11.485  16.607  66.871  1.00  0.00     0.000 HD 
HETATM   13  O   UNL     1     -10.979  15.809  66.962  1.00  0.00    -0.304 OA 
BRANCH  11  14
HETATM   14  C   UNL     1     -11.599  15.395  64.675  1.00  0.00    -0.311 C  
HETATM   15  O   UNL     1     -11.659  16.569  63.863  1.00  0.00    -1.598 OA 
HETATM   16  H   UNL     1     -12.381  16.528  63.246  1.00  0.00     0.000 HD 
ENDBRANCH  11  14
ENDBRANCH   8  11
ENDBRANCH   5   8
ENDBRANCH   2   5
TORSDOF 4
ENDMDL
MODEL       84
REMARK 921   NORMALIZED FREE ENERGY PREDICTED BY IDOCK:   -3.86 KCAL/MOL
REMARK 922        TOTAL FREE ENERGY PREDICTED BY IDOCK:   -4.99 KCAL/MOL
REMARK 923 INTER-LIGAND FREE ENERGY PREDICTED BY IDOCK:   -4.37 KCAL/MOL
REMARK 924 INTRA-LIGAND FREE ENERGY PREDICTED BY IDOCK:   -0.62 KCAL/MOL
REMARK 927      BINDING AFFINITY PREDICTED BY RF-SCORE:    0.00 PKD
ROOT
HETATM    1  C   UNL     1      -8.027  16.929  68.692  1.00  0.00    -0.256 C  
HETATM    2  C   UNL     1      -6.996  17.968  68.321  1.00  0.00    -0.228 C  
HETATM    3  O   UNL     1      -8.615  16.245  67.852  1.00  0.00    -0.171 OA 
HETATM    4  F   UNL     1      -5.832  17.797  69.002  1.00  0.00    -0.169 F  
ENDROOT
BRANCH   2   5
HETATM    5  C   UNL     1      -7.499  19.403  68.515  1.00  0.00    -0.331 C  
HETATM    6  O   UNL     1      -6.415  20.314  68.802  1.00  0.00    -0.306 OA 
HETATM    7  H   UNL     1      -6.726  21.204  68.923  1.00  0.00     0.000 HD 
BRANCH   5   8
HETATM    8  C   UNL     1      -8.293  20.037  67.351  1.00  0.00    -0.334 C  
HETATM    9  O   UNL     1      -7.756  21.377  67.179  1.00  0.00    -0.767 OA 
HETATM   10  H   UNL     1      -8.244  21.767  66.463  1.00  0.00     0.000 HD 
BRANCH   8  11
HETATM   11  C   UNL     1      -9.830  20.131  67.491  1.00  0.00    -0.435 C  
HETATM   12  H   UNL     1     -11.112  20.133  68.979  1.00  0.00     0.000 HD 
HETATM   13  O   UNL     1     -10.167  20.075  68.893  1.00  0.00    -0.421 OA 
BRANCH  11  14
HETATM   14  C   UNL     1     -10.627  19.030  66.776  1.00  0.00    -0.425 C  
HETATM   15  O   UNL     1      -9.796  18.267  65.900  1.00  0.00    -0.527 OA 
HETATM   16  H   UNL     1     -10.289  17.586  65.458  1.00  0.00     0.000 HD 
ENDBRANCH  11  14
ENDBRANCH   8  11
ENDBRANCH   5   8
ENDBRANCH   2   5
TORSDOF 4
ENDMDL
MODEL       85
REMARK 921   NORMALIZED FREE ENERGY PREDICTED BY IDOCK:   -3.85 KCAL/MOL
REMARK 922        TOTAL FREE ENERGY PREDICTED BY IDOCK:   -4.99 KCAL/MOL
REMARK 923 INTER-LIGAND FREE ENERGY PREDICTED BY IDOCK:   -4.75 KCAL/MOL
REMARK 924 INTRA-LIGAND FREE ENERGY PREDICTED BY IDOCK:   -0.24 KCAL/MOL
REMARK 927      BINDING AFFINITY PREDICTED BY RF-SCORE:    0.00 PKD
ROOT
HETATM    1  C   UNL     1     -12.792  15.365  73.108  1.00  0.00    -0.493 C  
HETATM    2  C   UNL     1     -11.983  15.540  71.844  1.00  0.00    -0.427 C  
HETATM    3  O   UNL     1     -12.559  14.477  73.930  1.00  0.00    -0.410 OA 
HETATM    4  F   UNL     1     -11.526  16.812  71.703  1.00  0.00    -0.420 F  
ENDROOT
BRANCH   2   5
HETATM    5  C   UNL     1     -12.751  15.127  70.583  1.00  0.00    -0.398 C  
HETATM    6  O   UNL     1     -12.852  16.216  69.640  1.00  0.00    -0.470 OA 
HETATM    7  H   UNL     1     -13.328  15.961  68.858  1.00  0.00     0.000 HD 
BRANCH   5   8
HETATM    8  C   UNL     1     -12.204  13.921  69.787  1.00  0.00    -0.332 C  
HETATM    9  O   UNL     1     -11.819  12.926  70.774  1.00  0.00    -0.494 OA 
HETATM   10  H   UNL     1     -11.483  12.185  70.284  1.00  0.00     0.000 HD 
BRANCH   8  11
HETATM   11  C   UNL     1     -11.011  14.165  68.834  1.00  0.00    -0.259 C  
HETATM   12  H   UNL     1      -9.503  15.421  68.757  1.00  0.00     0.000 HD 
HETATM   13  O   UNL     1     -10.237  15.271  69.342  1.00  0.00    -0.230 OA 
BRANCH  11  14
HETATM   14  C   UNL     1     -11.383  14.486  67.378  1.00  0.00    -0.356 C  
HETATM   15  O   UNL     1     -12.768  14.243  67.126  1.00  0.00    -0.459 OA 
HETATM   16  H   UNL     1     -12.997  14.442  66.226  1.00  0.00     0.000 HD 
ENDBRANCH  11  14
ENDBRANCH   8  11
ENDBRANCH   5   8
ENDBRANCH   2   5
TORSDOF 4
ENDMDL
MODEL       86
REMARK 921   NORMALIZED FREE ENERGY PREDICTED BY IDOCK:   -3.84 KCAL/MOL
REMARK 922        TOTAL FREE ENERGY PREDICTED BY IDOCK:   -4.97 KCAL/MOL
REMARK 923 INTER-LIGAND FREE ENERGY PREDICTED BY IDOCK:   -4.63 KCAL/MOL
REMARK 924 INTRA-LIGAND FREE ENERGY PREDICTED BY IDOCK:   -0.35 KCAL/MOL
REMARK 927      BINDING AFFINITY PREDICTED BY RF-SCORE:    0.00 PKD
ROOT
HETATM    1  C   UNL     1      -9.763   9.762  68.161  1.00  0.00    -0.145 C  
HETATM    2  C   UNL     1     -10.448   9.507  66.839  1.00  0.00    -0.208 C  
HETATM    3  O   UNL     1     -10.341  10.276  69.121  1.00  0.00    -0.196 OA 
HETATM    4  F   UNL     1     -10.301   8.219  66.429  1.00  0.00    -0.357 F  
ENDROOT
BRANCH   2   5
HETATM    5  C   UNL     1      -9.977  10.455  65.731  1.00  0.00    -0.270 C  
HETATM    6  O   UNL     1     -10.124   9.862  64.422  1.00  0.00    -0.427 OA 
HETATM    7  H   UNL     1      -9.832  10.450  63.735  1.00  0.00     0.000 HD 
BRANCH   5   8
HETATM    8  C   UNL     1     -10.657  11.841  65.650  1.00  0.00    -0.268 C  
HETATM    9  O   UNL     1     -11.775  11.795  66.577  1.00  0.00    -0.530 OA 
HETATM   10  H   UNL     1     -12.193  12.647  66.528  1.00  0.00     0.000 HD 
BRANCH   8  11
HETATM   11  C   UNL     1     -11.172  12.314  64.272  1.00  0.00    -0.350 C  
HETATM   12  H   UNL     1     -10.378  12.634  62.504  1.00  0.00     0.000 HD 
HETATM   13  O   UNL     1     -10.062  12.343  63.351  1.00  0.00    -0.393 OA 
BRANCH  11  14
HETATM   14  C   UNL     1     -11.830  13.702  64.252  1.00  0.00    -0.425 C  
HETATM   15  O   UNL     1     -12.658  13.872  63.101  1.00  0.00    -1.057 OA 
HETATM   16  H   UNL     1     -13.065  14.731  63.089  1.00  0.00     0.000 HD 
ENDBRANCH  11  14
ENDBRANCH   8  11
ENDBRANCH   5   8
ENDBRANCH   2   5
TORSDOF 4
ENDMDL
MODEL       87
REMARK 921   NORMALIZED FREE ENERGY PREDICTED BY IDOCK:   -3.84 KCAL/MOL
REMARK 922        TOTAL FREE ENERGY PREDICTED BY IDOCK:   -4.97 KCAL/MOL
REMARK 923 INTER-LIGAND FREE ENERGY PREDICTED BY IDOCK:   -4.45 KCAL/MOL
REMARK 924 INTRA-LIGAND FREE ENERGY PREDICTED BY IDOCK:   -0.52 KCAL/MOL
REMARK 927      BINDING AFFINITY PREDICTED BY RF-SCORE:    0.00 PKD
ROOT
HETATM    1  C   UNL     1     -11.828  15.188  72.223  1.00  0.00    -0.401 C  
HETATM    2  C   UNL     1     -12.615  14.656  71.048  1.00  0.00    -0.329 C  
HETATM    3  O   UNL     1     -12.186  16.173  72.872  1.00  0.00    -0.469 OA 
HETATM    4  F   UNL     1     -12.872  13.326  71.167  1.00  0.00    -0.396 F  
ENDROOT
BRANCH   2   5
HETATM    5  C   UNL     1     -11.934  14.928  69.702  1.00  0.00    -0.320 C  
HETATM    6  O   UNL     1     -10.753  15.745  69.857  1.00  0.00    -0.276 OA 
HETATM    7  H   UNL     1     -10.331  15.914  69.022  1.00  0.00     0.000 HD 
BRANCH   5   8
HETATM    8  C   UNL     1     -11.499  13.701  68.870  1.00  0.00    -0.303 C  
HETATM    9  O   UNL     1     -10.048  13.660  68.940  1.00  0.00    -0.387 OA 
HETATM   10  H   UNL     1      -9.780  12.905  68.429  1.00  0.00     0.000 HD 
BRANCH   8  11
HETATM   11  C   UNL     1     -11.927  13.646  67.385  1.00  0.00    -0.376 C  
HETATM   12  H   UNL     1     -12.310  12.230  66.080  1.00  0.00     0.000 HD 
HETATM   13  O   UNL     1     -12.047  12.263  66.992  1.00  0.00    -0.575 OA 
BRANCH  11  14
HETATM   14  C   UNL     1     -10.972  14.331  66.396  1.00  0.00    -0.311 C  
HETATM   15  O   UNL     1     -10.842  15.726  66.675  1.00  0.00    -0.310 OA 
HETATM   16  H   UNL     1     -10.251  16.149  66.063  1.00  0.00     0.000 HD 
ENDBRANCH  11  14
ENDBRANCH   8  11
ENDBRANCH   5   8
ENDBRANCH   2   5
TORSDOF 4
ENDMDL
MODEL       88
REMARK 921   NORMALIZED FREE ENERGY PREDICTED BY IDOCK:   -3.83 KCAL/MOL
REMARK 922        TOTAL FREE ENERGY PREDICTED BY IDOCK:   -4.97 KCAL/MOL
REMARK 923 INTER-LIGAND FREE ENERGY PREDICTED BY IDOCK:   -4.48 KCAL/MOL
REMARK 924 INTRA-LIGAND FREE ENERGY PREDICTED BY IDOCK:   -0.48 KCAL/MOL
REMARK 927      BINDING AFFINITY PREDICTED BY RF-SCORE:    0.00 PKD
ROOT
HETATM    1  C   UNL     1     -10.259   5.631  72.579  1.00  0.00    -0.190 C  
HETATM    2  C   UNL     1     -10.975   5.724  71.252  1.00  0.00    -0.230 C  
HETATM    3  O   UNL     1     -10.821   5.271  73.615  1.00  0.00    -0.276 OA 
HETATM    4  F   UNL     1     -10.322   5.045  70.272  1.00  0.00    -0.302 F  
ENDROOT
BRANCH   2   5
HETATM    5  C   UNL     1     -11.214   7.170  70.804  1.00  0.00    -0.279 C  
HETATM    6  O   UNL     1     -11.442   7.256  69.380  1.00  0.00    -0.472 OA 
HETATM    7  H   UNL     1     -11.590   8.153  69.102  1.00  0.00     0.000 HD 
BRANCH   5   8
HETATM    8  C   UNL     1     -12.382   7.932  71.471  1.00  0.00    -0.315 C  
HETATM    9  O   UNL     1     -13.597   7.255  71.050  1.00  0.00    -0.589 OA 
HETATM   10  H   UNL     1     -14.315   7.724  71.460  1.00  0.00     0.000 HD 
BRANCH   8  11
HETATM   11  C   UNL     1     -12.523   9.442  71.171  1.00  0.00    -0.293 C  
HETATM   12  H   UNL     1     -11.292  10.952  70.928  1.00  0.00     0.000 HD 
HETATM   13  O   UNL     1     -11.205  10.025  71.112  1.00  0.00    -0.350 OA 
BRANCH  11  14
HETATM   14  C   UNL     1     -13.343  10.245  72.193  1.00  0.00    -0.299 C  
HETATM   15  O   UNL     1     -14.242   9.405  72.918  1.00  0.00    -0.889 OA 
HETATM   16  H   UNL     1     -14.749   9.901  73.550  1.00  0.00     0.000 HD 
ENDBRANCH  11  14
ENDBRANCH   8  11
ENDBRANCH   5   8
ENDBRANCH   2   5
TORSDOF 4
ENDMDL
MODEL       89
REMARK 921   NORMALIZED FREE ENERGY PREDICTED BY IDOCK:   -3.83 KCAL/MOL
REMARK 922        TOTAL FREE ENERGY PREDICTED BY IDOCK:   -4.96 KCAL/MOL
REMARK 923 INTER-LIGAND FREE ENERGY PREDICTED BY IDOCK:   -4.83 KCAL/MOL
REMARK 924 INTRA-LIGAND FREE ENERGY PREDICTED BY IDOCK:   -0.13 KCAL/MOL
REMARK 927      BINDING AFFINITY PREDICTED BY RF-SCORE:    0.00 PKD
ROOT
HETATM    1  C   UNL     1     -10.651  10.359  67.683  1.00  0.00    -0.257 C  
HETATM    2  C   UNL     1     -10.833  11.790  67.236  1.00  0.00    -0.253 C  
HETATM    3  O   UNL     1      -9.981  10.050  68.670  1.00  0.00    -0.155 OA 
HETATM    4  F   UNL     1     -12.145  12.110  67.072  1.00  0.00    -0.390 F  
ENDROOT
BRANCH   2   5
HETATM    5  C   UNL     1     -10.061  12.118  65.953  1.00  0.00    -0.245 C  
HETATM    6  O   UNL     1      -9.581  10.923  65.300  1.00  0.00    -0.203 OA 
HETATM    7  H   UNL     1      -9.102  11.126  64.505  1.00  0.00     0.000 HD 
BRANCH   5   8
HETATM    8  C   UNL     1     -10.805  12.929  64.868  1.00  0.00    -0.308 C  
HETATM    9  O   UNL     1     -10.339  12.416  63.591  1.00  0.00    -0.424 OA 
HETATM   10  H   UNL     1     -10.796  12.914  62.924  1.00  0.00     0.000 HD 
BRANCH   8  11
HETATM   11  C   UNL     1     -10.643  14.466  64.877  1.00  0.00    -0.434 C  
HETATM   12  H   UNL     1     -10.197  15.829  66.218  1.00  0.00     0.000 HD 
HETATM   13  O   UNL     1     -10.297  14.884  66.213  1.00  0.00    -0.275 OA 
BRANCH  11  14
HETATM   14  C   UNL     1     -11.883  15.264  64.445  1.00  0.00    -0.281 C  
HETATM   15  O   UNL     1     -11.521  16.524  63.878  1.00  0.00    -1.608 OA 
HETATM   16  H   UNL     1     -12.288  17.018  63.611  1.00  0.00     0.000 HD 
ENDBRANCH  11  14
ENDBRANCH   8  11
ENDBRANCH   5   8
ENDBRANCH   2   5
TORSDOF 4
ENDMDL
MODEL       90
REMARK 921   NORMALIZED FREE ENERGY PREDICTED BY IDOCK:   -3.83 KCAL/MOL
REMARK 922        TOTAL FREE ENERGY PREDICTED BY IDOCK:   -4.96 KCAL/MOL
REMARK 923 INTER-LIGAND FREE ENERGY PREDICTED BY IDOCK:   -4.78 KCAL/MOL
REMARK 924 INTRA-LIGAND FREE ENERGY PREDICTED BY IDOCK:   -0.18 KCAL/MOL
REMARK 927      BINDING AFFINITY PREDICTED BY RF-SCORE:    0.00 PKD
ROOT
HETATM    1  C   UNL     1      -9.897   7.364  71.517  1.00  0.00    -0.173 C  
HETATM    2  C   UNL     1     -10.821   8.048  72.496  1.00  0.00    -0.349 C  
HETATM    3  O   UNL     1      -8.922   7.928  71.016  1.00  0.00    -0.139 OA 
HETATM    4  F   UNL     1     -10.986   7.322  73.634  1.00  0.00    -0.396 F  
ENDROOT
BRANCH   2   5
HETATM    5  C   UNL     1     -12.192   8.376  71.894  1.00  0.00    -0.343 C  
HETATM    6  O   UNL     1     -13.134   7.299  72.093  1.00  0.00    -0.511 OA 
HETATM    7  H   UNL     1     -13.984   7.502  71.720  1.00  0.00     0.000 HD 
BRANCH   5   8
HETATM    8  C   UNL     1     -12.896   9.657  72.396  1.00  0.00    -0.236 C  
HETATM    9  O   UNL     1     -14.101   9.214  73.078  1.00  0.00    -1.068 OA 
HETATM   10  H   UNL     1     -14.534  10.002  73.386  1.00  0.00     0.000 HD 
BRANCH   8  11
HETATM   11  C   UNL     1     -13.281  10.727  71.349  1.00  0.00    -0.287 C  
HETATM   12  H   UNL     1     -12.780  11.127  69.493  1.00  0.00     0.000 HD 
HETATM   13  O   UNL     1     -12.544  10.470  70.136  1.00  0.00    -0.293 OA 
BRANCH  11  14
HETATM   14  C   UNL     1     -13.008  12.182  71.760  1.00  0.00    -0.332 C  
HETATM   15  O   UNL     1     -14.026  12.679  72.631  1.00  0.00    -0.655 OA 
HETATM   16  H   UNL     1     -13.857  13.579  72.885  1.00  0.00     0.000 HD 
ENDBRANCH  11  14
ENDBRANCH   8  11
ENDBRANCH   5   8
ENDBRANCH   2   5
TORSDOF 4
ENDMDL
MODEL       91
REMARK 921   NORMALIZED FREE ENERGY PREDICTED BY IDOCK:   -3.82 KCAL/MOL
REMARK 922        TOTAL FREE ENERGY PREDICTED BY IDOCK:   -4.95 KCAL/MOL
REMARK 923 INTER-LIGAND FREE ENERGY PREDICTED BY IDOCK:   -4.64 KCAL/MOL
REMARK 924 INTRA-LIGAND FREE ENERGY PREDICTED BY IDOCK:   -0.31 KCAL/MOL
REMARK 927      BINDING AFFINITY PREDICTED BY RF-SCORE:    0.00 PKD
ROOT
HETATM    1  C   UNL     1      -8.630  10.360  63.482  1.00  0.00    -0.188 C  
HETATM    2  C   UNL     1      -9.927  10.710  64.172  1.00  0.00    -0.342 C  
HETATM    3  O   UNL     1      -8.147   9.226  63.507  1.00  0.00    -0.136 OA 
HETATM    4  F   UNL     1     -10.802  11.324  63.331  1.00  0.00    -0.418 F  
ENDROOT
BRANCH   2   5
HETATM    5  C   UNL     1      -9.724  11.574  65.421  1.00  0.00    -0.233 C  
HETATM    6  O   UNL     1      -8.323  11.777  65.708  1.00  0.00    -0.370 OA 
HETATM    7  H   UNL     1      -8.197  12.312  66.483  1.00  0.00     0.000 HD 
BRANCH   5   8
HETATM    8  C   UNL     1     -10.368  12.979  65.421  1.00  0.00    -0.300 C  
HETATM    9  O   UNL     1      -9.324  13.901  65.836  1.00  0.00    -0.499 OA 
HETATM   10  H   UNL     1      -9.720  14.765  65.835  1.00  0.00     0.000 HD 
BRANCH   8  11
HETATM   11  C   UNL     1     -11.613  13.203  66.310  1.00  0.00    -0.356 C  
HETATM   12  H   UNL     1     -12.651  12.124  67.580  1.00  0.00     0.000 HD 
HETATM   13  O   UNL     1     -11.887  11.986  67.033  1.00  0.00    -0.573 OA 
BRANCH  11  14
HETATM   14  C   UNL     1     -12.896  13.601  65.564  1.00  0.00    -0.392 C  
HETATM   15  O   UNL     1     -13.259  12.621  64.591  1.00  0.00    -0.828 OA 
HETATM   16  H   UNL     1     -14.053  12.867  64.129  1.00  0.00     0.000 HD 
ENDBRANCH  11  14
ENDBRANCH   8  11
ENDBRANCH   5   8
ENDBRANCH   2   5
TORSDOF 4
ENDMDL
MODEL       92
REMARK 921   NORMALIZED FREE ENERGY PREDICTED BY IDOCK:   -3.81 KCAL/MOL
REMARK 922        TOTAL FREE ENERGY PREDICTED BY IDOCK:   -4.94 KCAL/MOL
REMARK 923 INTER-LIGAND FREE ENERGY PREDICTED BY IDOCK:   -4.79 KCAL/MOL
REMARK 924 INTRA-LIGAND FREE ENERGY PREDICTED BY IDOCK:   -0.15 KCAL/MOL
REMARK 927      BINDING AFFINITY PREDICTED BY RF-SCORE:    0.00 PKD
ROOT
HETATM    1  C   UNL     1     -12.910  14.148  65.094  1.00  0.00    -0.294 C  
HETATM    2  C   UNL     1     -11.942  13.569  66.098  1.00  0.00    -0.412 C  
HETATM    3  O   UNL     1     -12.558  14.546  63.982  1.00  0.00    -0.797 OA 
HETATM    4  F   UNL     1     -12.351  12.357  66.560  1.00  0.00    -0.378 F  
ENDROOT
BRANCH   2   5
HETATM    5  C   UNL     1     -11.677  14.506  67.281  1.00  0.00    -0.406 C  
HETATM    6  O   UNL     1     -12.397  14.092  68.462  1.00  0.00    -0.556 OA 
HETATM    7  H   UNL     1     -12.233  14.674  69.196  1.00  0.00     0.000 HD 
BRANCH   5   8
HETATM    8  C   UNL     1     -10.206  14.690  67.720  1.00  0.00    -0.229 C  
HETATM    9  O   UNL     1     -10.169  14.387  69.141  1.00  0.00    -0.332 OA 
HETATM   10  H   UNL     1      -9.265  14.500  69.411  1.00  0.00     0.000 HD 
BRANCH   8  11
HETATM   11  C   UNL     1      -9.550  16.071  67.488  1.00  0.00    -0.222 C  
HETATM   12  H   UNL     1     -10.190  17.907  67.211  1.00  0.00     0.000 HD 
HETATM   13  O   UNL     1     -10.593  17.058  67.354  1.00  0.00    -0.328 OA 
BRANCH  11  14
HETATM   14  C   UNL     1      -8.648  16.174  66.249  1.00  0.00    -0.338 C  
HETATM   15  O   UNL     1      -8.306  17.531  65.963  1.00  0.00    -0.495 OA 
HETATM   16  H   UNL     1      -7.748  17.595  65.196  1.00  0.00     0.000 HD 
ENDBRANCH  11  14
ENDBRANCH   8  11
ENDBRANCH   5   8
ENDBRANCH   2   5
TORSDOF 4
ENDMDL
MODEL       93
REMARK 921   NORMALIZED FREE ENERGY PREDICTED BY IDOCK:   -3.81 KCAL/MOL
REMARK 922        TOTAL FREE ENERGY PREDICTED BY IDOCK:   -4.94 KCAL/MOL
REMARK 923 INTER-LIGAND FREE ENERGY PREDICTED BY IDOCK:   -4.51 KCAL/MOL
REMARK 924 INTRA-LIGAND FREE ENERGY PREDICTED BY IDOCK:   -0.43 KCAL/MOL
REMARK 927      BINDING AFFINITY PREDICTED BY RF-SCORE:    0.00 PKD
ROOT
HETATM    1  C   UNL     1     -11.790  14.931  69.629  1.00  0.00    -0.318 C  
HETATM    2  C   UNL     1     -11.407  15.681  68.375  1.00  0.00    -0.364 C  
HETATM    3  O   UNL     1     -12.626  15.354  70.429  1.00  0.00    -0.394 OA 
HETATM    4  F   UNL     1     -11.501  14.900  67.266  1.00  0.00    -0.322 F  
ENDROOT
BRANCH   2   5
HETATM    5  C   UNL     1     -10.006  16.296  68.452  1.00  0.00    -0.234 C  
HETATM    6  O   UNL     1      -9.080  15.629  67.566  1.00  0.00    -0.189 OA 
HETATM    7  H   UNL     1      -8.211  16.011  67.614  1.00  0.00     0.000 HD 
BRANCH   5   8
HETATM    8  C   UNL     1      -9.879  17.806  68.145  1.00  0.00    -0.326 C  
HETATM    9  O   UNL     1     -10.383  18.500  69.318  1.00  0.00    -0.469 OA 
HETATM   10  H   UNL     1     -10.305  19.427  69.129  1.00  0.00     0.000 HD 
BRANCH   8  11
HETATM   11  C   UNL     1     -10.605  18.351  66.893  1.00  0.00    -0.347 C  
HETATM   12  H   UNL     1     -10.493  18.052  64.956  1.00  0.00     0.000 HD 
HETATM   13  O   UNL     1     -10.046  17.717  65.725  1.00  0.00    -0.555 OA 
BRANCH  11  14
HETATM   14  C   UNL     1     -10.515  19.871  66.687  1.00  0.00    -0.460 C  
HETATM   15  O   UNL     1      -9.511  20.210  65.729  1.00  0.00    -0.526 OA 
HETATM   16  H   UNL     1      -9.455  21.150  65.601  1.00  0.00     0.000 HD 
ENDBRANCH  11  14
ENDBRANCH   8  11
ENDBRANCH   5   8
ENDBRANCH   2   5
TORSDOF 4
ENDMDL
MODEL       94
REMARK 921   NORMALIZED FREE ENERGY PREDICTED BY IDOCK:   -3.80 KCAL/MOL
REMARK 922        TOTAL FREE ENERGY PREDICTED BY IDOCK:   -4.93 KCAL/MOL
REMARK 923 INTER-LIGAND FREE ENERGY PREDICTED BY IDOCK:   -4.34 KCAL/MOL
REMARK 924 INTRA-LIGAND FREE ENERGY PREDICTED BY IDOCK:   -0.59 KCAL/MOL
REMARK 927      BINDING AFFINITY PREDICTED BY RF-SCORE:    0.00 PKD
ROOT
HETATM    1  C   UNL     1     -10.836  15.684  64.511  1.00  0.00    -0.090 C  
HETATM    2  C   UNL     1     -10.293  15.448  65.900  1.00  0.00    -0.341 C  
HETATM    3  O   UNL     1     -11.654  16.570  64.257  1.00  0.00    -0.923 OA 
HETATM    4  F   UNL     1      -8.934  15.422  65.919  1.00  0.00    -0.344 F  
ENDROOT
BRANCH   2   5
HETATM    5  C   UNL     1     -10.839  14.169  66.544  1.00  0.00    -0.298 C  
HETATM    6  O   UNL     1     -12.283  14.139  66.531  1.00  0.00    -0.445 OA 
HETATM    7  H   UNL     1     -12.622  13.346  66.931  1.00  0.00     0.000 HD 
BRANCH   5   8
HETATM    8  C   UNL     1     -10.379  12.822  65.940  1.00  0.00    -0.283 C  
HETATM    9  O   UNL     1     -11.502  12.324  65.164  1.00  0.00    -0.324 OA 
HETATM   10  H   UNL     1     -11.220  11.496  64.793  1.00  0.00     0.000 HD 
BRANCH   8  11
HETATM   11  C   UNL     1      -9.917  11.714  66.914  1.00  0.00    -0.202 C  
HETATM   12  H   UNL     1      -8.543  10.311  66.904  1.00  0.00     0.000 HD 
HETATM   13  O   UNL     1      -8.827  10.992  66.305  1.00  0.00    -0.168 OA 
BRANCH  11  14
HETATM   14  C   UNL     1     -10.992  10.690  67.309  1.00  0.00    -0.284 C  
HETATM   15  O   UNL     1     -12.130  11.325  67.894  1.00  0.00    -0.634 OA 
HETATM   16  H   UNL     1     -12.794  10.691  68.138  1.00  0.00     0.000 HD 
ENDBRANCH  11  14
ENDBRANCH   8  11
ENDBRANCH   5   8
ENDBRANCH   2   5
TORSDOF 4
ENDMDL
MODEL       95
REMARK 921   NORMALIZED FREE ENERGY PREDICTED BY IDOCK:   -3.79 KCAL/MOL
REMARK 922        TOTAL FREE ENERGY PREDICTED BY IDOCK:   -4.91 KCAL/MOL
REMARK 923 INTER-LIGAND FREE ENERGY PREDICTED BY IDOCK:   -4.53 KCAL/MOL
REMARK 924 INTRA-LIGAND FREE ENERGY PREDICTED BY IDOCK:   -0.38 KCAL/MOL
REMARK 927      BINDING AFFINITY PREDICTED BY RF-SCORE:    0.00 PKD
ROOT
HETATM    1  C   UNL     1     -13.336   9.442  71.575  1.00  0.00    -0.386 C  
HETATM    2  C   UNL     1     -12.675  10.798  71.641  1.00  0.00    -0.414 C  
HETATM    3  O   UNL     1     -12.782   8.412  71.963  1.00  0.00    -0.327 OA 
HETATM    4  F   UNL     1     -13.459  11.718  72.265  1.00  0.00    -0.604 F  
ENDROOT
BRANCH   2   5
HETATM    5  C   UNL     1     -12.261  11.327  70.263  1.00  0.00    -0.345 C  
HETATM    6  O   UNL     1     -11.647  12.632  70.355  1.00  0.00    -0.533 OA 
HETATM    7  H   UNL     1     -11.390  12.960  69.501  1.00  0.00     0.000 HD 
BRANCH   5   8
HETATM    8  C   UNL     1     -11.289  10.456  69.435  1.00  0.00    -0.250 C  
HETATM    9  O   UNL     1     -10.192  10.118  70.326  1.00  0.00    -0.373 OA 
HETATM   10  H   UNL     1      -9.595   9.582  69.817  1.00  0.00     0.000 HD 
BRANCH   8  11
HETATM   11  C   UNL     1     -10.708  11.058  68.135  1.00  0.00    -0.205 C  
HETATM   12  H   UNL     1     -11.433  11.996  66.569  1.00  0.00     0.000 HD 
HETATM   13  O   UNL     1     -11.790  11.626  67.368  1.00  0.00    -0.603 OA 
BRANCH  11  14
HETATM   14  C   UNL     1      -9.960  10.071  67.226  1.00  0.00    -0.197 C  
HETATM   15  O   UNL     1     -10.654   8.826  67.124  1.00  0.00    -0.291 OA 
HETATM   16  H   UNL     1     -10.191   8.215  66.561  1.00  0.00     0.000 HD 
ENDBRANCH  11  14
ENDBRANCH   8  11
ENDBRANCH   5   8
ENDBRANCH   2   5
TORSDOF 4
ENDMDL
MODEL       96
REMARK 921   NORMALIZED FREE ENERGY PREDICTED BY IDOCK:   -3.79 KCAL/MOL
REMARK 922        TOTAL FREE ENERGY PREDICTED BY IDOCK:   -4.91 KCAL/MOL
REMARK 923 INTER-LIGAND FREE ENERGY PREDICTED BY IDOCK:   -4.52 KCAL/MOL
REMARK 924 INTRA-LIGAND FREE ENERGY PREDICTED BY IDOCK:   -0.38 KCAL/MOL
REMARK 927      BINDING AFFINITY PREDICTED BY RF-SCORE:    0.00 PKD
ROOT
HETATM    1  C   UNL     1     -12.066  12.030  64.090  1.00  0.00    -0.362 C  
HETATM    2  C   UNL     1     -10.766  12.784  64.242  1.00  0.00    -0.394 C  
HETATM    3  O   UNL     1     -13.102  12.563  63.689  1.00  0.00    -0.690 OA 
HETATM    4  F   UNL     1      -9.739  12.162  63.604  1.00  0.00    -0.318 F  
ENDROOT
BRANCH   2   5
HETATM    5  C   UNL     1     -10.386  13.030  65.706  1.00  0.00    -0.286 C  
HETATM    6  O   UNL     1      -9.604  14.235  65.860  1.00  0.00    -0.434 OA 
HETATM    7  H   UNL     1      -9.368  14.388  66.768  1.00  0.00     0.000 HD 
BRANCH   5   8
HETATM    8  C   UNL     1     -11.542  13.138  66.727  1.00  0.00    -0.366 C  
HETATM    9  O   UNL     1     -12.083  14.479  66.583  1.00  0.00    -0.393 OA 
HETATM   10  H   UNL     1     -12.793  14.546  67.210  1.00  0.00     0.000 HD 
BRANCH   8  11
HETATM   11  C   UNL     1     -11.214  12.891  68.217  1.00  0.00    -0.270 C  
HETATM   12  H   UNL     1      -9.582  12.637  69.279  1.00  0.00     0.000 HD 
HETATM   13  O   UNL     1      -9.783  12.788  68.363  1.00  0.00    -0.223 OA 
BRANCH  11  14
HETATM   14  C   UNL     1     -11.837  11.626  68.830  1.00  0.00    -0.325 C  
HETATM   15  O   UNL     1     -11.405  11.432  70.178  1.00  0.00    -0.463 OA 
HETATM   16  H   UNL     1     -11.790  10.650  70.556  1.00  0.00     0.000 HD 
ENDBRANCH  11  14
ENDBRANCH   8  11
ENDBRANCH   5   8
ENDBRANCH   2   5
TORSDOF 4
ENDMDL
MODEL       97
REMARK 921   NORMALIZED FREE ENERGY PREDICTED BY IDOCK:   -3.78 KCAL/MOL
REMARK 922        TOTAL FREE ENERGY PREDICTED BY IDOCK:   -4.90 KCAL/MOL
REMARK 923 INTER-LIGAND FREE ENERGY PREDICTED BY IDOCK:   -4.69 KCAL/MOL
REMARK 924 INTRA-LIGAND FREE ENERGY PREDICTED BY IDOCK:   -0.21 KCAL/MOL
REMARK 927      BINDING AFFINITY PREDICTED BY RF-SCORE:    0.00 PKD
ROOT
HETATM    1  C   UNL     1     -10.265   8.224  68.244  1.00  0.00    -0.208 C  
HETATM    2  C   UNL     1      -9.532   9.406  68.832  1.00  0.00    -0.154 C  
HETATM    3  O   UNL     1     -10.714   8.222  67.096  1.00  0.00    -0.302 OA 
HETATM    4  F   UNL     1      -8.328   9.049  69.356  1.00  0.00    -0.107 F  
ENDROOT
BRANCH   2   5
HETATM    5  C   UNL     1     -10.352  10.150  69.892  1.00  0.00    -0.261 C  
HETATM    6  O   UNL     1     -10.543  11.538  69.541  1.00  0.00    -0.439 OA 
HETATM    7  H   UNL     1     -11.051  12.000  70.197  1.00  0.00     0.000 HD 
BRANCH   5   8
HETATM    8  C   UNL     1     -11.758   9.594  70.215  1.00  0.00    -0.155 C  
HETATM    9  O   UNL     1     -12.703  10.473  69.546  1.00  0.00    -0.659 OA 
HETATM   10  H   UNL     1     -13.566  10.131  69.745  1.00  0.00     0.000 HD 
BRANCH   8  11
HETATM   11  C   UNL     1     -12.160   9.470  71.703  1.00  0.00    -0.398 C  
HETATM   12  H   UNL     1     -11.404   8.617  73.301  1.00  0.00     0.000 HD 
HETATM   13  O   UNL     1     -11.157   8.693  72.388  1.00  0.00    -0.354 OA 
BRANCH  11  14
HETATM   14  C   UNL     1     -13.522   8.809  71.966  1.00  0.00    -0.418 C  
HETATM   15  O   UNL     1     -13.916   8.950  73.332  1.00  0.00    -1.236 OA 
HETATM   16  H   UNL     1     -14.758   8.541  73.495  1.00  0.00     0.000 HD 
ENDBRANCH  11  14
ENDBRANCH   8  11
ENDBRANCH   5   8
ENDBRANCH   2   5
TORSDOF 4
ENDMDL
MODEL       98
REMARK 921   NORMALIZED FREE ENERGY PREDICTED BY IDOCK:   -3.77 KCAL/MOL
REMARK 922        TOTAL FREE ENERGY PREDICTED BY IDOCK:   -4.89 KCAL/MOL
REMARK 923 INTER-LIGAND FREE ENERGY PREDICTED BY IDOCK:   -4.55 KCAL/MOL
REMARK 924 INTRA-LIGAND FREE ENERGY PREDICTED BY IDOCK:   -0.35 KCAL/MOL
REMARK 927      BINDING AFFINITY PREDICTED BY RF-SCORE:    0.00 PKD
ROOT
HETATM    1  C   UNL     1     -13.023  15.222  71.942  1.00  0.00    -0.384 C  
HETATM    2  C   UNL     1     -12.509  13.962  71.286  1.00  0.00    -0.359 C  
HETATM    3  O   UNL     1     -12.284  16.024  72.515  1.00  0.00    -0.437 OA 
HETATM    4  F   UNL     1     -12.928  13.850  69.998  1.00  0.00    -0.283 F  
ENDROOT
BRANCH   2   5
HETATM    5  C   UNL     1     -12.881  12.693  72.060  1.00  0.00    -0.163 C  
HETATM    6  O   UNL     1     -14.101  12.866  72.814  1.00  0.00    -0.714 OA 
HETATM    7  H   UNL     1     -14.332  12.079  73.294  1.00  0.00     0.000 HD 
BRANCH   5   8
HETATM    8  C   UNL     1     -13.066  11.395  71.241  1.00  0.00    -0.200 C  
HETATM    9  O   UNL     1     -13.414  10.360  72.200  1.00  0.00    -0.528 OA 
HETATM   10  H   UNL     1     -13.528   9.562  71.696  1.00  0.00     0.000 HD 
BRANCH   8  11
HETATM   11  C   UNL     1     -11.874  10.904  70.388  1.00  0.00    -0.357 C  
HETATM   12  H   UNL     1     -11.470  10.780  68.470  1.00  0.00     0.000 HD 
HETATM   13  O   UNL     1     -12.202  11.082  68.994  1.00  0.00    -0.483 OA 
BRANCH  11  14
HETATM   14  C   UNL     1     -11.479   9.433  70.589  1.00  0.00    -0.284 C  
HETATM   15  O   UNL     1     -10.621   9.272  71.720  1.00  0.00    -0.355 OA 
HETATM   16  H   UNL     1     -10.377   8.362  71.844  1.00  0.00     0.000 HD 
ENDBRANCH  11  14
ENDBRANCH   8  11
ENDBRANCH   5   8
ENDBRANCH   2   5
TORSDOF 4
ENDMDL
MODEL       99
REMARK 921   NORMALIZED FREE ENERGY PREDICTED BY IDOCK:   -3.77 KCAL/MOL
REMARK 922        TOTAL FREE ENERGY PREDICTED BY IDOCK:   -4.89 KCAL/MOL
REMARK 923 INTER-LIGAND FREE ENERGY PREDICTED BY IDOCK:   -4.87 KCAL/MOL
REMARK 924 INTRA-LIGAND FREE ENERGY PREDICTED BY IDOCK:   -0.02 KCAL/MOL
REMARK 927      BINDING AFFINITY PREDICTED BY RF-SCORE:    0.00 PKD
ROOT
HETATM    1  C   UNL     1     -11.653  12.129  67.436  1.00  0.00    -0.340 C  
HETATM    2  C   UNL     1     -10.796  12.280  66.201  1.00  0.00    -0.279 C  
HETATM    3  O   UNL     1     -12.145  11.052  67.777  1.00  0.00    -0.534 OA 
HETATM    4  F   UNL     1      -9.608  12.881  66.475  1.00  0.00    -0.233 F  
ENDROOT
BRANCH   2   5
HETATM    5  C   UNL     1     -11.505  13.035  65.072  1.00  0.00    -0.313 C  
HETATM    6  O   UNL     1     -12.702  12.351  64.642  1.00  0.00    -0.599 OA 
HETATM    7  H   UNL     1     -13.142  12.819  63.941  1.00  0.00     0.000 HD 
BRANCH   5   8
HETATM    8  C   UNL     1     -11.926  14.495  65.354  1.00  0.00    -0.332 C  
HETATM    9  O   UNL     1     -12.315  15.058  64.072  1.00  0.00    -0.906 OA 
HETATM   10  H   UNL     1     -12.574  15.955  64.245  1.00  0.00     0.000 HD 
BRANCH   8  11
HETATM   11  C   UNL     1     -10.887  15.431  66.014  1.00  0.00    -0.314 C  
HETATM   12  H   UNL     1     -10.605  16.184  67.805  1.00  0.00     0.000 HD 
HETATM   13  O   UNL     1     -11.243  15.609  67.400  1.00  0.00    -0.306 OA 
BRANCH  11  14
HETATM   14  C   UNL     1     -10.760  16.827  65.383  1.00  0.00    -0.189 C  
HETATM   15  O   UNL     1      -9.523  17.448  65.734  1.00  0.00    -0.523 OA 
HETATM   16  H   UNL     1      -9.444  18.311  65.344  1.00  0.00     0.000 HD 
ENDBRANCH  11  14
ENDBRANCH   8  11
ENDBRANCH   5   8
ENDBRANCH   2   5
TORSDOF 4
ENDMDL
MODEL      100
REMARK 921   NORMALIZED FREE ENERGY PREDICTED BY IDOCK:   -3.77 KCAL/MOL
REMARK 922        TOTAL FREE ENERGY PREDICTED BY IDOCK:   -4.89 KCAL/MOL
REMARK 923 INTER-LIGAND FREE ENERGY PREDICTED BY IDOCK:   -4.52 KCAL/MOL
REMARK 924 INTRA-LIGAND FREE ENERGY PREDICTED BY IDOCK:   -0.37 KCAL/MOL
REMARK 927      BINDING AFFINITY PREDICTED BY RF-SCORE:    0.00 PKD
ROOT
HETATM    1  C   UNL     1      -9.919  16.646  68.313  1.00  0.00    -0.261 C  
HETATM    2  C   UNL     1     -10.122  15.639  69.420  1.00  0.00    -0.269 C  
HETATM    3  O   UNL     1     -10.409  17.777  68.343  1.00  0.00    -0.356 OA 
HETATM    4  F   UNL     1      -8.943  15.130  69.868  1.00  0.00    -0.196 F  
ENDROOT
BRANCH   2   5
HETATM    5  C   UNL     1     -11.057  14.493  69.020  1.00  0.00    -0.262 C  
HETATM    6  O   UNL     1     -10.418  13.206  69.169  1.00  0.00    -0.431 OA 
HETATM    7  H   UNL     1     -10.998  12.495  68.921  1.00  0.00     0.000 HD 
BRANCH   5   8
HETATM    8  C   UNL     1     -12.406  14.389  69.767  1.00  0.00    -0.285 C  
HETATM    9  O   UNL     1     -12.848  15.755  69.993  1.00  0.00    -0.588 OA 
HETATM   10  H   UNL     1     -13.678  15.691  70.452  1.00  0.00     0.000 HD 
BRANCH   8  11
HETATM   11  C   UNL     1     -12.430  13.628  71.113  1.00  0.00    -0.359 C  
HETATM   12  H   UNL     1     -12.480  11.745  71.667  1.00  0.00     0.000 HD 
HETATM   13  O   UNL     1     -12.465  12.212  70.840  1.00  0.00    -0.368 OA 
BRANCH  11  14
HETATM   14  C   UNL     1     -13.615  13.954  72.035  1.00  0.00    -0.477 C  
HETATM   15  O   UNL     1     -14.059  12.797  72.744  1.00  0.00    -0.666 OA 
HETATM   16  H   UNL     1     -14.792  12.998  73.315  1.00  0.00     0.000 HD 
ENDBRANCH  11  14
ENDBRANCH   8  11
ENDBRANCH   5   8
ENDBRANCH   2   5
TORSDOF 4
ENDMDL
MODEL      101
REMARK 921   NORMALIZED FREE ENERGY PREDICTED BY IDOCK:   -3.77 KCAL/MOL
REMARK 922        TOTAL FREE ENERGY PREDICTED BY IDOCK:   -4.89 KCAL/MOL
REMARK 923 INTER-LIGAND FREE ENERGY PREDICTED BY IDOCK:   -4.47 KCAL/MOL
REMARK 924 INTRA-LIGAND FREE ENERGY PREDICTED BY IDOCK:   -0.41 KCAL/MOL
REMARK 927      BINDING AFFINITY PREDICTED BY RF-SCORE:    0.00 PKD
ROOT
HETATM    1  C   UNL     1      -8.079  19.658  66.522  1.00  0.00    -0.320 C  
HETATM    2  C   UNL     1      -9.527  19.622  66.951  1.00  0.00    -0.358 C  
HETATM    3  O   UNL     1      -7.664  19.062  65.526  1.00  0.00    -0.436 OA 
HETATM    4  F   UNL     1     -10.035  20.869  67.136  1.00  0.00    -0.607 F  
ENDROOT
BRANCH   2   5
HETATM    5  C   UNL     1      -9.754  18.782  68.212  1.00  0.00    -0.362 C  
HETATM    6  O   UNL     1     -10.262  19.582  69.302  1.00  0.00    -0.616 OA 
HETATM    7  H   UNL     1     -10.403  19.062  70.085  1.00  0.00     0.000 HD 
BRANCH   5   8
HETATM    8  C   UNL     1     -10.706  17.570  68.092  1.00  0.00    -0.329 C  
HETATM    9  O   UNL     1     -10.883  17.061  69.442  1.00  0.00    -0.346 OA 
HETATM   10  H   UNL     1     -11.469  16.316  69.369  1.00  0.00     0.000 HD 
BRANCH   8  11
HETATM   11  C   UNL     1     -10.278  16.404  67.172  1.00  0.00    -0.282 C  
HETATM   12  H   UNL     1     -10.886  14.563  66.855  1.00  0.00     0.000 HD 
HETATM   13  O   UNL     1     -11.148  15.280  67.420  1.00  0.00    -0.320 OA 
BRANCH  11  14
HETATM   14  C   UNL     1      -8.831  15.920  67.348  1.00  0.00    -0.188 C  
HETATM   15  O   UNL     1      -7.989  16.396  66.297  1.00  0.00    -0.308 OA 
HETATM   16  H   UNL     1      -7.094  16.097  66.405  1.00  0.00     0.000 HD 
ENDBRANCH  11  14
ENDBRANCH   8  11
ENDBRANCH   5   8
ENDBRANCH   2   5
TORSDOF 4
ENDMDL
MODEL      102
REMARK 921   NORMALIZED FREE ENERGY PREDICTED BY IDOCK:   -3.76 KCAL/MOL
REMARK 922        TOTAL FREE ENERGY PREDICTED BY IDOCK:   -4.88 KCAL/MOL
REMARK 923 INTER-LIGAND FREE ENERGY PREDICTED BY IDOCK:   -4.29 KCAL/MOL
REMARK 924 INTRA-LIGAND FREE ENERGY PREDICTED BY IDOCK:   -0.59 KCAL/MOL
REMARK 927      BINDING AFFINITY PREDICTED BY RF-SCORE:    0.00 PKD
ROOT
HETATM    1  C   UNL     1     -11.352  15.968  64.880  1.00  0.00    -0.229 C  
HETATM    2  C   UNL     1     -10.383  16.526  65.895  1.00  0.00    -0.350 C  
HETATM    3  O   UNL     1     -11.467  16.431  63.744  1.00  0.00    -1.002 OA 
HETATM    4  F   UNL     1      -9.586  15.560  66.424  1.00  0.00    -0.237 F  
ENDROOT
BRANCH   2   5
HETATM    5  C   UNL     1     -11.079  17.293  67.025  1.00  0.00     0.250 C  
HETATM    6  O   UNL     1     -10.808  16.704  68.316  1.00  0.00    -0.334 OA 
HETATM    7  H   UNL     1     -11.240  17.179  69.017  1.00  0.00     0.000 HD 
BRANCH   5   8
HETATM    8  C   UNL     1     -10.751  18.797  67.165  1.00  0.00    -0.403 C  
HETATM    9  O   UNL     1     -10.770  19.340  65.817  1.00  0.00    -0.467 OA 
HETATM   10  H   UNL     1     -10.568  20.265  65.902  1.00  0.00     0.000 HD 
BRANCH   8  11
HETATM   11  C   UNL     1      -9.416  19.185  67.840  1.00  0.00    -0.320 C  
HETATM   12  H   UNL     1      -8.833  19.621  69.664  1.00  0.00     0.000 HD 
HETATM   13  O   UNL     1      -9.653  19.383  69.249  1.00  0.00    -0.346 OA 
BRANCH  11  14
HETATM   14  C   UNL     1      -8.746  20.457  67.297  1.00  0.00    -0.333 C  
HETATM   15  O   UNL     1      -8.110  20.218  66.041  1.00  0.00    -0.519 OA 
HETATM   16  H   UNL     1      -7.696  21.005  65.706  1.00  0.00     0.000 HD 
ENDBRANCH  11  14
ENDBRANCH   8  11
ENDBRANCH   5   8
ENDBRANCH   2   5
TORSDOF 4
ENDMDL
MODEL      103
REMARK 921   NORMALIZED FREE ENERGY PREDICTED BY IDOCK:   -3.75 KCAL/MOL
REMARK 922        TOTAL FREE ENERGY PREDICTED BY IDOCK:   -4.86 KCAL/MOL
REMARK 923 INTER-LIGAND FREE ENERGY PREDICTED BY IDOCK:   -4.27 KCAL/MOL
REMARK 924 INTRA-LIGAND FREE ENERGY PREDICTED BY IDOCK:   -0.59 KCAL/MOL
REMARK 927      BINDING AFFINITY PREDICTED BY RF-SCORE:    0.00 PKD
ROOT
HETATM    1  C   UNL     1      -9.702  19.247  68.063  1.00  0.00    -0.350 C  
HETATM    2  C   UNL     1      -8.620  18.195  68.111  1.00  0.00    -0.274 C  
HETATM    3  O   UNL     1     -10.264  19.671  69.075  1.00  0.00    -0.421 OA 
HETATM    4  F   UNL     1      -7.501  18.583  67.443  1.00  0.00    -0.212 F  
ENDROOT
BRANCH   2   5
HETATM    5  C   UNL     1      -9.087  16.834  67.582  1.00  0.00    -0.218 C  
HETATM    6  O   UNL     1      -9.184  15.855  68.639  1.00  0.00    -0.191 OA 
HETATM    7  H   UNL     1      -9.473  15.011  68.311  1.00  0.00     0.000 HD 
BRANCH   5   8
HETATM    8  C   UNL     1     -10.440  16.793  66.836  1.00  0.00    -0.269 C  
HETATM    9  O   UNL     1     -11.382  16.161  67.745  1.00  0.00    -0.257 OA 
HETATM   10  H   UNL     1     -12.214  16.136  67.286  1.00  0.00     0.000 HD 
BRANCH   8  11
HETATM   11  C   UNL     1     -10.493  16.062  65.475  1.00  0.00    -0.405 C  
HETATM   12  H   UNL     1     -11.316  16.400  63.724  1.00  0.00     0.000 HD 
HETATM   13  O   UNL     1     -11.284  16.849  64.561  1.00  0.00    -1.057 OA 
BRANCH  11  14
HETATM   14  C   UNL     1     -11.090  14.647  65.508  1.00  0.00    -0.345 C  
HETATM   15  O   UNL     1     -10.417  13.817  66.456  1.00  0.00    -0.276 OA 
HETATM   16  H   UNL     1     -10.786  12.942  66.476  1.00  0.00     0.000 HD 
ENDBRANCH  11  14
ENDBRANCH   8  11
ENDBRANCH   5   8
ENDBRANCH   2   5
TORSDOF 4
ENDMDL
MODEL      104
REMARK 921   NORMALIZED FREE ENERGY PREDICTED BY IDOCK:   -3.73 KCAL/MOL
REMARK 922        TOTAL FREE ENERGY PREDICTED BY IDOCK:   -4.84 KCAL/MOL
REMARK 923 INTER-LIGAND FREE ENERGY PREDICTED BY IDOCK:   -4.28 KCAL/MOL
REMARK 924 INTRA-LIGAND FREE ENERGY PREDICTED BY IDOCK:   -0.55 KCAL/MOL
REMARK 927      BINDING AFFINITY PREDICTED BY RF-SCORE:    0.00 PKD
ROOT
HETATM    1  C   UNL     1     -11.038  14.649  66.105  1.00  0.00    -0.334 C  
HETATM    2  C   UNL     1     -10.766  16.134  66.129  1.00  0.00    -0.221 C  
HETATM    3  O   UNL     1     -11.828  14.104  66.878  1.00  0.00    -0.391 OA 
HETATM    4  F   UNL     1     -10.915  16.699  64.902  1.00  0.00    -0.418 F  
ENDROOT
BRANCH   2   5
HETATM    5  C   UNL     1      -9.380  16.477  66.688  1.00  0.00    -0.256 C  
HETATM    6  O   UNL     1      -8.564  17.157  65.709  1.00  0.00    -0.525 OA 
HETATM    7  H   UNL     1      -7.705  17.370  66.056  1.00  0.00     0.000 HD 
BRANCH   5   8
HETATM    8  C   UNL     1      -9.329  17.345  67.965  1.00  0.00    -0.276 C  
HETATM    9  O   UNL     1     -10.681  17.357  68.499  1.00  0.00    -0.348 OA 
HETATM   10  H   UNL     1     -10.649  17.890  69.285  1.00  0.00     0.000 HD 
BRANCH   8  11
HETATM   11  C   UNL     1      -8.836  18.804  67.828  1.00  0.00    -0.290 C  
HETATM   12  H   UNL     1      -7.677  20.003  68.864  1.00  0.00     0.000 HD 
HETATM   13  O   UNL     1      -7.980  19.107  68.949  1.00  0.00    -0.345 OA 
BRANCH  11  14
HETATM   14  C   UNL     1      -9.938  19.873  67.780  1.00  0.00    -0.419 C  
HETATM   15  O   UNL     1     -10.816  19.670  66.672  1.00  0.00    -0.462 OA 
HETATM   16  H   UNL     1     -11.498  20.331  66.643  1.00  0.00     0.000 HD 
ENDBRANCH  11  14
ENDBRANCH   8  11
ENDBRANCH   5   8
ENDBRANCH   2   5
TORSDOF 4
ENDMDL
MODEL      105
REMARK 921   NORMALIZED FREE ENERGY PREDICTED BY IDOCK:   -3.72 KCAL/MOL
REMARK 922        TOTAL FREE ENERGY PREDICTED BY IDOCK:   -4.83 KCAL/MOL
REMARK 923 INTER-LIGAND FREE ENERGY PREDICTED BY IDOCK:   -4.54 KCAL/MOL
REMARK 924 INTRA-LIGAND FREE ENERGY PREDICTED BY IDOCK:   -0.29 KCAL/MOL
REMARK 927      BINDING AFFINITY PREDICTED BY RF-SCORE:    0.00 PKD
ROOT
HETATM    1  C   UNL     1      -9.728  16.066  65.794  1.00  0.00    -0.305 C  
HETATM    2  C   UNL     1      -9.556  16.135  67.293  1.00  0.00    -0.229 C  
HETATM    3  O   UNL     1     -10.523  16.782  65.181  1.00  0.00    -0.658 OA 
HETATM    4  F   UNL     1      -8.254  16.294  67.650  1.00  0.00    -0.147 F  
ENDROOT
BRANCH   2   5
HETATM    5  C   UNL     1     -10.141  14.917  68.016  1.00  0.00    -0.221 C  
HETATM    6  O   UNL     1     -10.028  15.044  69.451  1.00  0.00    -0.261 OA 
HETATM    7  H   UNL     1     -10.391  14.289  69.900  1.00  0.00     0.000 HD 
BRANCH   5   8
HETATM    8  C   UNL     1     -11.621  14.571  67.734  1.00  0.00    -0.365 C  
HETATM    9  O   UNL     1     -12.298  14.612  69.019  1.00  0.00    -0.559 OA 
HETATM   10  H   UNL     1     -13.207  14.400  68.845  1.00  0.00     0.000 HD 
BRANCH   8  11
HETATM   11  C   UNL     1     -11.929  13.219  67.052  1.00  0.00    -0.365 C  
HETATM   12  H   UNL     1     -10.993  11.506  66.830  1.00  0.00     0.000 HD 
HETATM   13  O   UNL     1     -10.804  12.338  67.249  1.00  0.00    -0.231 OA 
BRANCH  11  14
HETATM   14  C   UNL     1     -12.208  13.287  65.542  1.00  0.00    -0.457 C  
HETATM   15  O   UNL     1     -13.384  14.047  65.262  1.00  0.00    -0.741 OA 
HETATM   16  H   UNL     1     -13.557  14.090  64.328  1.00  0.00     0.000 HD 
ENDBRANCH  11  14
ENDBRANCH   8  11
ENDBRANCH   5   8
ENDBRANCH   2   5
TORSDOF 4
ENDMDL
MODEL      106
REMARK 921   NORMALIZED FREE ENERGY PREDICTED BY IDOCK:   -3.71 KCAL/MOL
REMARK 922        TOTAL FREE ENERGY PREDICTED BY IDOCK:   -4.82 KCAL/MOL
REMARK 923 INTER-LIGAND FREE ENERGY PREDICTED BY IDOCK:   -4.11 KCAL/MOL
REMARK 924 INTRA-LIGAND FREE ENERGY PREDICTED BY IDOCK:   -0.71 KCAL/MOL
REMARK 927      BINDING AFFINITY PREDICTED BY RF-SCORE:    0.00 PKD
ROOT
HETATM    1  C   UNL     1     -12.031   9.754  71.571  1.00  0.00    -0.407 C  
HETATM    2  C   UNL     1     -10.988   9.338  70.561  1.00  0.00    -0.265 C  
HETATM    3  O   UNL     1     -12.918   8.994  71.964  1.00  0.00    -0.347 OA 
HETATM    4  F   UNL     1      -9.726   9.590  70.999  1.00  0.00    -0.319 F  
ENDROOT
BRANCH   2   5
HETATM    5  C   UNL     1     -11.194   9.989  69.189  1.00  0.00    -0.149 C  
HETATM    6  O   UNL     1     -12.534  10.507  69.040  1.00  0.00    -0.770 OA 
HETATM    7  H   UNL     1     -12.662  10.911  68.189  1.00  0.00     0.000 HD 
BRANCH   5   8
HETATM    8  C   UNL     1     -10.243  11.145  68.805  1.00  0.00    -0.206 C  
HETATM    9  O   UNL     1     -10.819  12.349  69.382  1.00  0.00    -0.443 OA 
HETATM   10  H   UNL     1     -10.234  13.060  69.147  1.00  0.00     0.000 HD 
BRANCH   8  11
HETATM   11  C   UNL     1      -9.976  11.392  67.303  1.00  0.00    -0.194 C  
HETATM   12  H   UNL     1      -8.409  11.831  66.203  1.00  0.00     0.000 HD 
HETATM   13  O   UNL     1      -8.573  11.679  67.126  1.00  0.00    -0.151 OA 
BRANCH  11  14
HETATM   14  C   UNL     1     -10.770  12.546  66.671  1.00  0.00    -0.236 C  
HETATM   15  O   UNL     1     -12.156  12.222  66.551  1.00  0.00    -0.616 OA 
HETATM   16  H   UNL     1     -12.647  12.936  66.160  1.00  0.00     0.000 HD 
ENDBRANCH  11  14
ENDBRANCH   8  11
ENDBRANCH   5   8
ENDBRANCH   2   5
TORSDOF 4
ENDMDL
MODEL      107
REMARK 921   NORMALIZED FREE ENERGY PREDICTED BY IDOCK:   -3.71 KCAL/MOL
REMARK 922        TOTAL FREE ENERGY PREDICTED BY IDOCK:   -4.81 KCAL/MOL
REMARK 923 INTER-LIGAND FREE ENERGY PREDICTED BY IDOCK:   -4.56 KCAL/MOL
REMARK 924 INTRA-LIGAND FREE ENERGY PREDICTED BY IDOCK:   -0.24 KCAL/MOL
REMARK 927      BINDING AFFINITY PREDICTED BY RF-SCORE:    0.00 PKD
ROOT
HETATM    1  C   UNL     1     -12.540  11.154  70.849  1.00  0.00    -0.386 C  
HETATM    2  C   UNL     1     -12.990   9.721  71.011  1.00  0.00    -0.290 C  
HETATM    3  O   UNL     1     -11.548  11.470  70.190  1.00  0.00    -0.301 OA 
HETATM    4  F   UNL     1     -14.301   9.559  70.690  1.00  0.00    -0.179 F  
ENDROOT
BRANCH   2   5
HETATM    5  C   UNL     1     -12.735   9.172  72.419  1.00  0.00    -0.340 C  
HETATM    6  O   UNL     1     -13.957   8.725  73.047  1.00  0.00    -0.976 OA 
HETATM    7  H   UNL     1     -13.799   8.384  73.920  1.00  0.00     0.000 HD 
BRANCH   5   8
HETATM    8  C   UNL     1     -11.735   8.001  72.550  1.00  0.00    -0.387 C  
HETATM    9  O   UNL     1     -10.426   8.553  72.246  1.00  0.00    -0.312 OA 
HETATM   10  H   UNL     1      -9.811   7.833  72.327  1.00  0.00     0.000 HD 
BRANCH   8  11
HETATM   11  C   UNL     1     -11.966   6.752  71.669  1.00  0.00    -0.347 C  
HETATM   12  H   UNL     1     -11.908   4.807  71.936  1.00  0.00     0.000 HD 
HETATM   13  O   UNL     1     -11.766   5.575  72.478  1.00  0.00    -0.272 OA 
BRANCH  11  14
HETATM   14  C   UNL     1     -11.052   6.632  70.439  1.00  0.00    -0.322 C  
HETATM   15  O   UNL     1     -11.358   7.627  69.462  1.00  0.00    -0.454 OA 
HETATM   16  H   UNL     1     -10.792   7.553  68.701  1.00  0.00     0.000 HD 
ENDBRANCH  11  14
ENDBRANCH   8  11
ENDBRANCH   5   8
ENDBRANCH   2   5
TORSDOF 4
ENDMDL
MODEL      108
REMARK 921   NORMALIZED FREE ENERGY PREDICTED BY IDOCK:   -3.69 KCAL/MOL
REMARK 922        TOTAL FREE ENERGY PREDICTED BY IDOCK:   -4.79 KCAL/MOL
REMARK 923 INTER-LIGAND FREE ENERGY PREDICTED BY IDOCK:   -4.55 KCAL/MOL
REMARK 924 INTRA-LIGAND FREE ENERGY PREDICTED BY IDOCK:   -0.24 KCAL/MOL
REMARK 927      BINDING AFFINITY PREDICTED BY RF-SCORE:    0.00 PKD
ROOT
HETATM    1  C   UNL     1     -10.584  10.108  67.310  1.00  0.00    -0.261 C  
HETATM    2  C   UNL     1     -10.509  11.282  68.257  1.00  0.00    -0.196 C  
HETATM    3  O   UNL     1      -9.841   9.992  66.334  1.00  0.00    -0.199 OA 
HETATM    4  F   UNL     1     -10.401  10.885  69.553  1.00  0.00    -0.240 F  
ENDROOT
BRANCH   2   5
HETATM    5  C   UNL     1     -11.695  12.241  68.112  1.00  0.00    -0.349 C  
HETATM    6  O   UNL     1     -12.103  12.783  69.387  1.00  0.00    -0.273 OA 
HETATM    7  H   UNL     1     -12.838  13.378  69.297  1.00  0.00     0.000 HD 
BRANCH   5   8
HETATM    8  C   UNL     1     -11.512  13.454  67.171  1.00  0.00    -0.339 C  
HETATM    9  O   UNL     1     -12.441  14.470  67.637  1.00  0.00    -0.595 OA 
HETATM   10  H   UNL     1     -12.327  15.216  67.059  1.00  0.00     0.000 HD 
BRANCH   8  11
HETATM   11  C   UNL     1     -11.732  13.234  65.657  1.00  0.00    -0.356 C  
HETATM   12  H   UNL     1     -10.586  13.120  64.067  1.00  0.00     0.000 HD 
HETATM   13  O   UNL     1     -10.450  13.256  64.998  1.00  0.00    -0.320 OA 
BRANCH  11  14
HETATM   14  C   UNL     1     -12.631  14.268  64.963  1.00  0.00    -0.347 C  
HETATM   15  O   UNL     1     -12.509  14.197  63.542  1.00  0.00    -1.076 OA 
HETATM   16  H   UNL     1     -13.065  14.837  63.112  1.00  0.00     0.000 HD 
ENDBRANCH  11  14
ENDBRANCH   8  11
ENDBRANCH   5   8
ENDBRANCH   2   5
TORSDOF 4
ENDMDL
MODEL      109
REMARK 921   NORMALIZED FREE ENERGY PREDICTED BY IDOCK:   -3.69 KCAL/MOL
REMARK 922        TOTAL FREE ENERGY PREDICTED BY IDOCK:   -4.79 KCAL/MOL
REMARK 923 INTER-LIGAND FREE ENERGY PREDICTED BY IDOCK:   -4.51 KCAL/MOL
REMARK 924 INTRA-LIGAND FREE ENERGY PREDICTED BY IDOCK:   -0.27 KCAL/MOL
REMARK 927      BINDING AFFINITY PREDICTED BY RF-SCORE:    0.00 PKD
ROOT
HETATM    1  C   UNL     1     -10.702  16.810  65.705  1.00  0.00    -0.192 C  
HETATM    2  C   UNL     1     -10.960  15.804  64.608  1.00  0.00    -0.314 C  
HETATM    3  O   UNL     1      -9.704  17.533  65.725  1.00  0.00    -0.534 OA 
HETATM    4  F   UNL     1     -12.196  15.951  64.062  1.00  0.00    -0.442 F  
ENDROOT
BRANCH   2   5
HETATM    5  C   UNL     1     -10.771  14.355  65.070  1.00  0.00    -0.423 C  
HETATM    6  O   UNL     1     -10.119  13.554  64.061  1.00  0.00    -0.749 OA 
HETATM    7  H   UNL     1     -10.002  12.655  64.348  1.00  0.00     0.000 HD 
BRANCH   5   8
HETATM    8  C   UNL     1      -9.976  14.129  66.376  1.00  0.00    -0.293 C  
HETATM    9  O   UNL     1      -8.639  14.644  66.129  1.00  0.00    -0.385 OA 
HETATM   10  H   UNL     1      -8.150  14.505  66.931  1.00  0.00     0.000 HD 
BRANCH   8  11
HETATM   11  C   UNL     1      -9.861  12.683  66.910  1.00  0.00    -0.234 C  
HETATM   12  H   UNL     1      -8.747  11.116  66.508  1.00  0.00     0.000 HD 
HETATM   13  O   UNL     1      -8.818  12.005  66.180  1.00  0.00    -0.141 OA 
BRANCH  11  14
HETATM   14  C   UNL     1     -11.136  11.833  66.798  1.00  0.00    -0.306 C  
HETATM   15  O   UNL     1     -12.157  12.304  67.678  1.00  0.00    -0.502 OA 
HETATM   16  H   UNL     1     -12.946  11.778  67.609  1.00  0.00     0.000 HD 
ENDBRANCH  11  14
ENDBRANCH   8  11
ENDBRANCH   5   8
ENDBRANCH   2   5
TORSDOF 4
ENDMDL
MODEL      110
REMARK 921   NORMALIZED FREE ENERGY PREDICTED BY IDOCK:   -3.69 KCAL/MOL
REMARK 922        TOTAL FREE ENERGY PREDICTED BY IDOCK:   -4.78 KCAL/MOL
REMARK 923 INTER-LIGAND FREE ENERGY PREDICTED BY IDOCK:   -4.54 KCAL/MOL
REMARK 924 INTRA-LIGAND FREE ENERGY PREDICTED BY IDOCK:   -0.24 KCAL/MOL
REMARK 927      BINDING AFFINITY PREDICTED BY RF-SCORE:    0.00 PKD
ROOT
HETATM    1  C   UNL     1     -12.035  12.830  63.407  1.00  0.00    -0.535 C  
HETATM    2  C   UNL     1     -10.723  12.891  64.152  1.00  0.00    -0.415 C  
HETATM    3  O   UNL     1     -12.670  13.839  63.093  1.00  0.00    -0.743 OA 
HETATM    4  F   UNL     1      -9.747  12.180  63.525  1.00  0.00    -0.344 F  
ENDROOT
BRANCH   2   5
HETATM    5  C   UNL     1     -10.842  12.426  65.607  1.00  0.00    -0.277 C  
HETATM    6  O   UNL     1     -12.207  12.111  65.957  1.00  0.00    -0.609 OA 
HETATM    7  H   UNL     1     -12.281  11.822  66.860  1.00  0.00     0.000 HD 
BRANCH   5   8
HETATM    8  C   UNL     1      -9.999  11.200  66.028  1.00  0.00    -0.236 C  
HETATM    9  O   UNL     1     -10.443  10.098  65.191  1.00  0.00    -0.178 OA 
HETATM   10  H   UNL     1      -9.925   9.345  65.449  1.00  0.00     0.000 HD 
BRANCH   8  11
HETATM   11  C   UNL     1     -10.059  10.756  67.508  1.00  0.00    -0.186 C  
HETATM   12  H   UNL     1     -11.449  10.092  68.725  1.00  0.00     0.000 HD 
HETATM   13  O   UNL     1     -11.412  10.365  67.816  1.00  0.00    -0.406 OA 
BRANCH  11  14
HETATM   14  C   UNL     1      -9.635  11.818  68.534  1.00  0.00    -0.170 C  
HETATM   15  O   UNL     1     -10.709  12.150  69.416  1.00  0.00    -0.443 OA 
HETATM   16  H   UNL     1     -10.447  12.807  70.051  1.00  0.00     0.000 HD 
ENDBRANCH  11  14
ENDBRANCH   8  11
ENDBRANCH   5   8
ENDBRANCH   2   5
TORSDOF 4
ENDMDL
MODEL      111
REMARK 921   NORMALIZED FREE ENERGY PREDICTED BY IDOCK:   -3.68 KCAL/MOL
REMARK 922        TOTAL FREE ENERGY PREDICTED BY IDOCK:   -4.78 KCAL/MOL
REMARK 923 INTER-LIGAND FREE ENERGY PREDICTED BY IDOCK:   -4.19 KCAL/MOL
REMARK 924 INTRA-LIGAND FREE ENERGY PREDICTED BY IDOCK:   -0.59 KCAL/MOL
REMARK 927      BINDING AFFINITY PREDICTED BY RF-SCORE:    0.00 PKD
ROOT
HETATM    1  C   UNL     1     -12.110  12.925  65.835  1.00  0.00    -0.444 C  
HETATM    2  C   UNL     1     -10.794  13.204  66.521  1.00  0.00    -0.280 C  
HETATM    3  O   UNL     1     -12.808  13.816  65.345  1.00  0.00    -0.650 OA 
HETATM    4  F   UNL     1      -9.787  12.439  66.022  1.00  0.00    -0.237 F  
ENDROOT
BRANCH   2   5
HETATM    5  C   UNL     1     -10.866  13.029  68.042  1.00  0.00    -0.242 C  
HETATM    6  O   UNL     1      -9.623  12.528  68.581  1.00  0.00    -0.370 OA 
HETATM    7  H   UNL     1      -9.668  12.420  69.524  1.00  0.00     0.000 HD 
BRANCH   5   8
HETATM    8  C   UNL     1     -11.223  14.278  68.880  1.00  0.00    -0.264 C  
HETATM    9  O   UNL     1     -12.604  14.597  68.560  1.00  0.00    -0.494 OA 
HETATM   10  H   UNL     1     -12.823  15.365  69.076  1.00  0.00     0.000 HD 
BRANCH   8  11
HETATM   11  C   UNL     1     -10.361  15.547  68.689  1.00  0.00    -0.219 C  
HETATM   12  H   UNL     1      -8.466  16.011  68.914  1.00  0.00     0.000 HD 
HETATM   13  O   UNL     1      -8.996  15.232  69.032  1.00  0.00    -0.197 OA 
BRANCH  11  14
HETATM   14  C   UNL     1     -10.782  16.765  69.525  1.00  0.00    -0.273 C  
HETATM   15  O   UNL     1     -11.591  16.380  70.638  1.00  0.00    -0.519 OA 
HETATM   16  H   UNL     1     -11.852  17.134  71.155  1.00  0.00     0.000 HD 
ENDBRANCH  11  14
ENDBRANCH   8  11
ENDBRANCH   5   8
ENDBRANCH   2   5
TORSDOF 4
ENDMDL
MODEL      112
REMARK 921   NORMALIZED FREE ENERGY PREDICTED BY IDOCK:   -3.67 KCAL/MOL
REMARK 922        TOTAL FREE ENERGY PREDICTED BY IDOCK:   -4.77 KCAL/MOL
REMARK 923 INTER-LIGAND FREE ENERGY PREDICTED BY IDOCK:   -4.33 KCAL/MOL
REMARK 924 INTRA-LIGAND FREE ENERGY PREDICTED BY IDOCK:   -0.43 KCAL/MOL
REMARK 927      BINDING AFFINITY PREDICTED BY RF-SCORE:    0.00 PKD
ROOT
HETATM    1  C   UNL     1     -13.926   8.997  71.536  1.00  0.00    -0.277 C  
HETATM    2  C   UNL     1     -12.748   9.899  71.820  1.00  0.00    -0.428 C  
HETATM    3  O   UNL     1     -14.008   7.850  71.979  1.00  0.00    -0.328 OA 
HETATM    4  F   UNL     1     -13.137  11.108  72.305  1.00  0.00    -0.581 F  
ENDROOT
BRANCH   2   5
HETATM    5  C   UNL     1     -11.846  10.103  70.598  1.00  0.00    -0.342 C  
HETATM    6  O   UNL     1     -11.698  11.502  70.271  1.00  0.00    -0.389 OA 
HETATM    7  H   UNL     1     -11.139  11.629  69.513  1.00  0.00     0.000 HD 
BRANCH   5   8
HETATM    8  C   UNL     1     -10.413   9.529  70.675  1.00  0.00    -0.308 C  
HETATM    9  O   UNL     1      -9.546  10.527  70.069  1.00  0.00    -0.389 OA 
HETATM   10  H   UNL     1      -8.665  10.174  70.117  1.00  0.00     0.000 HD 
BRANCH   8  11
HETATM   11  C   UNL     1     -10.145   8.163  70.003  1.00  0.00    -0.196 C  
HETATM   12  H   UNL     1     -10.360   7.411  68.202  1.00  0.00     0.000 HD 
HETATM   13  O   UNL     1     -10.525   8.251  68.614  1.00  0.00    -0.211 OA 
BRANCH  11  14
HETATM   14  C   UNL     1     -10.891   6.968  70.615  1.00  0.00    -0.246 C  
HETATM   15  O   UNL     1     -12.105   6.694  69.915  1.00  0.00    -0.641 OA 
HETATM   16  H   UNL     1     -12.566   5.955  70.294  1.00  0.00     0.000 HD 
ENDBRANCH  11  14
ENDBRANCH   8  11
ENDBRANCH   5   8
ENDBRANCH   2   5
TORSDOF 4
ENDMDL
MODEL      113
REMARK 921   NORMALIZED FREE ENERGY PREDICTED BY IDOCK:   -3.67 KCAL/MOL
REMARK 922        TOTAL FREE ENERGY PREDICTED BY IDOCK:   -4.77 KCAL/MOL
REMARK 923 INTER-LIGAND FREE ENERGY PREDICTED BY IDOCK:   -4.40 KCAL/MOL
REMARK 924 INTRA-LIGAND FREE ENERGY PREDICTED BY IDOCK:   -0.37 KCAL/MOL
REMARK 927      BINDING AFFINITY PREDICTED BY RF-SCORE:    0.00 PKD
ROOT
HETATM    1  C   UNL     1     -10.731  10.554  67.679  1.00  0.00    -0.275 C  
HETATM    2  C   UNL     1     -10.479  10.029  66.286  1.00  0.00    -0.102 C  
HETATM    3  O   UNL     1     -11.837  10.951  68.051  1.00  0.00    -0.585 OA 
HETATM    4  F   UNL     1      -9.881   8.808  66.302  1.00  0.00    -0.286 F  
ENDROOT
BRANCH   2   5
HETATM    5  C   UNL     1      -9.655  10.993  65.425  1.00  0.00    -0.225 C  
HETATM    6  O   UNL     1      -8.760  10.285  64.539  1.00  0.00    -0.171 OA 
HETATM    7  H   UNL     1      -8.249  10.883  64.005  1.00  0.00     0.000 HD 
BRANCH   5   8
HETATM    8  C   UNL     1     -10.434  11.989  64.537  1.00  0.00    -0.299 C  
HETATM    9  O   UNL     1      -9.635  12.172  63.337  1.00  0.00    -0.628 OA 
HETATM   10  H   UNL     1     -10.114  12.784  62.792  1.00  0.00     0.000 HD 
BRANCH   8  11
HETATM   11  C   UNL     1     -10.766  13.378  65.130  1.00  0.00    -0.330 C  
HETATM   12  H   UNL     1     -10.101  14.470  66.621  1.00  0.00     0.000 HD 
HETATM   13  O   UNL     1      -9.897  13.617  66.256  1.00  0.00    -0.289 OA 
BRANCH  11  14
HETATM   14  C   UNL     1     -12.214  13.563  65.611  1.00  0.00    -0.458 C  
HETATM   15  O   UNL     1     -13.138  12.887  64.758  1.00  0.00    -0.754 OA 
HETATM   16  H   UNL     1     -14.034  13.002  65.056  1.00  0.00     0.000 HD 
ENDBRANCH  11  14
ENDBRANCH   8  11
ENDBRANCH   5   8
ENDBRANCH   2   5
TORSDOF 4
ENDMDL
MODEL      114
REMARK 921   NORMALIZED FREE ENERGY PREDICTED BY IDOCK:   -3.65 KCAL/MOL
REMARK 922        TOTAL FREE ENERGY PREDICTED BY IDOCK:   -4.74 KCAL/MOL
REMARK 923 INTER-LIGAND FREE ENERGY PREDICTED BY IDOCK:   -4.34 KCAL/MOL
REMARK 924 INTRA-LIGAND FREE ENERGY PREDICTED BY IDOCK:   -0.40 KCAL/MOL
REMARK 927      BINDING AFFINITY PREDICTED BY RF-SCORE:    0.00 PKD
ROOT
HETATM    1  C   UNL     1     -11.580   6.857  70.711  1.00  0.00    -0.349 C  
HETATM    2  C   UNL     1     -12.026   7.963  71.639  1.00  0.00    -0.294 C  
HETATM    3  O   UNL     1     -11.010   5.840  71.113  1.00  0.00    -0.265 OA 
HETATM    4  F   UNL     1     -13.337   8.279  71.461  1.00  0.00    -0.323 F  
ENDROOT
BRANCH   2   5
HETATM    5  C   UNL     1     -11.171   9.228  71.513  1.00  0.00    -0.386 C  
HETATM    6  O   UNL     1      -9.796   8.982  71.883  1.00  0.00    -0.323 OA 
HETATM    7  H   UNL     1      -9.266   9.767  71.805  1.00  0.00     0.000 HD 
BRANCH   5   8
HETATM    8  C   UNL     1     -11.124   9.915  70.129  1.00  0.00    -0.296 C  
HETATM    9  O   UNL     1      -9.861  10.631  70.076  1.00  0.00    -0.388 OA 
HETATM   10  H   UNL     1      -9.832  11.053  69.225  1.00  0.00     0.000 HD 
BRANCH   8  11
HETATM   11  C   UNL     1     -12.267  10.892  69.769  1.00  0.00    -0.311 C  
HETATM   12  H   UNL     1     -12.939  11.730  68.125  1.00  0.00     0.000 HD 
HETATM   13  O   UNL     1     -12.237  11.130  68.346  1.00  0.00    -0.610 OA 
BRANCH  11  14
HETATM   14  C   UNL     1     -12.213  12.258  70.470  1.00  0.00    -0.300 C  
HETATM   15  O   UNL     1     -11.275  13.132  69.842  1.00  0.00    -0.490 OA 
HETATM   16  H   UNL     1     -11.242  13.977  70.276  1.00  0.00     0.000 HD 
ENDBRANCH  11  14
ENDBRANCH   8  11
ENDBRANCH   5   8
ENDBRANCH   2   5
TORSDOF 4
ENDMDL
MODEL      115
REMARK 921   NORMALIZED FREE ENERGY PREDICTED BY IDOCK:   -3.64 KCAL/MOL
REMARK 922        TOTAL FREE ENERGY PREDICTED BY IDOCK:   -4.73 KCAL/MOL
REMARK 923 INTER-LIGAND FREE ENERGY PREDICTED BY IDOCK:   -4.37 KCAL/MOL
REMARK 924 INTRA-LIGAND FREE ENERGY PREDICTED BY IDOCK:   -0.36 KCAL/MOL
REMARK 927      BINDING AFFINITY PREDICTED BY RF-SCORE:    0.00 PKD
ROOT
HETATM    1  C   UNL     1     -10.292  11.220  63.341  1.00  0.00    -0.391 C  
HETATM    2  C   UNL     1     -10.412  11.735  64.756  1.00  0.00    -0.293 C  
HETATM    3  O   UNL     1      -9.282  11.388  62.655  1.00  0.00    -0.361 OA 
HETATM    4  F   UNL     1     -10.789  10.758  65.624  1.00  0.00    -0.286 F  
ENDROOT
BRANCH   2   5
HETATM    5  C   UNL     1     -11.369  12.926  64.878  1.00  0.00    -0.307 C  
HETATM    6  O   UNL     1     -12.653  12.528  65.406  1.00  0.00    -0.656 OA 
HETATM    7  H   UNL     1     -13.246  13.267  65.481  1.00  0.00     0.000 HD 
BRANCH   5   8
HETATM    8  C   UNL     1     -10.903  14.120  65.742  1.00  0.00    -0.297 C  
HETATM    9  O   UNL     1      -9.596  14.502  65.232  1.00  0.00    -0.512 OA 
HETATM   10  H   UNL     1      -9.310  15.236  65.763  1.00  0.00     0.000 HD 
BRANCH   8  11
HETATM   11  C   UNL     1     -10.799  13.909  67.270  1.00  0.00    -0.286 C  
HETATM   12  H   UNL     1     -12.061  13.574  68.736  1.00  0.00     0.000 HD 
HETATM   13  O   UNL     1     -12.125  13.704  67.797  1.00  0.00    -0.358 OA 
BRANCH  11  14
HETATM   14  C   UNL     1     -10.158  15.064  68.055  1.00  0.00    -0.223 C  
HETATM   15  O   UNL     1      -9.736  14.643  69.353  1.00  0.00    -0.405 OA 
HETATM   16  H   UNL     1      -9.340  15.357  69.839  1.00  0.00     0.000 HD 
ENDBRANCH  11  14
ENDBRANCH   8  11
ENDBRANCH   5   8
ENDBRANCH   2   5
TORSDOF 4
ENDMDL
MODEL      116
REMARK 921   NORMALIZED FREE ENERGY PREDICTED BY IDOCK:   -3.64 KCAL/MOL
REMARK 922        TOTAL FREE ENERGY PREDICTED BY IDOCK:   -4.72 KCAL/MOL
REMARK 923 INTER-LIGAND FREE ENERGY PREDICTED BY IDOCK:   -4.57 KCAL/MOL
REMARK 924 INTRA-LIGAND FREE ENERGY PREDICTED BY IDOCK:   -0.16 KCAL/MOL
REMARK 927      BINDING AFFINITY PREDICTED BY RF-SCORE:    0.00 PKD
ROOT
HETATM    1  C   UNL     1      -8.938   7.166  68.034  1.00  0.00    -0.127 C  
HETATM    2  C   UNL     1     -10.403   7.467  68.246  1.00  0.00    -0.195 C  
HETATM    3  O   UNL     1      -8.456   6.045  68.210  1.00  0.00    -0.112 OA 
HETATM    4  F   UNL     1     -10.959   8.076  67.165  1.00  0.00    -0.374 F  
ENDROOT
BRANCH   2   5
HETATM    5  C   UNL     1     -10.663   8.310  69.499  1.00  0.00    -0.174 C  
HETATM    6  O   UNL     1     -11.442   9.488  69.198  1.00  0.00    -0.450 OA 
HETATM    7  H   UNL     1     -11.604  10.010  69.976  1.00  0.00     0.000 HD 
BRANCH   5   8
HETATM    8  C   UNL     1     -11.378   7.615  70.681  1.00  0.00    -0.272 C  
HETATM    9  O   UNL     1     -12.505   6.900  70.106  1.00  0.00    -0.602 OA 
HETATM   10  H   UNL     1     -12.944   6.473  70.832  1.00  0.00     0.000 HD 
BRANCH   8  11
HETATM   11  C   UNL     1     -11.890   8.503  71.838  1.00  0.00    -0.341 C  
HETATM   12  H   UNL     1     -11.722   8.504  73.794  1.00  0.00     0.000 HD 
HETATM   13  O   UNL     1     -11.408   7.959  73.083  1.00  0.00    -0.361 OA 
BRANCH  11  14
HETATM   14  C   UNL     1     -13.417   8.633  71.946  1.00  0.00    -0.397 C  
HETATM   15  O   UNL     1     -13.814   9.069  73.247  1.00  0.00    -1.159 OA 
HETATM   16  H   UNL     1     -14.759   9.149  73.314  1.00  0.00     0.000 HD 
ENDBRANCH  11  14
ENDBRANCH   8  11
ENDBRANCH   5   8
ENDBRANCH   2   5
TORSDOF 4
ENDMDL
MODEL      117
REMARK 921   NORMALIZED FREE ENERGY PREDICTED BY IDOCK:   -3.62 KCAL/MOL
REMARK 922        TOTAL FREE ENERGY PREDICTED BY IDOCK:   -4.70 KCAL/MOL
REMARK 923 INTER-LIGAND FREE ENERGY PREDICTED BY IDOCK:   -4.34 KCAL/MOL
REMARK 924 INTRA-LIGAND FREE ENERGY PREDICTED BY IDOCK:   -0.36 KCAL/MOL
REMARK 927      BINDING AFFINITY PREDICTED BY RF-SCORE:    0.00 PKD
ROOT
HETATM    1  C   UNL     1     -10.941  15.862  64.589  1.00  0.00    -0.305 C  
HETATM    2  C   UNL     1     -10.731  16.187  66.049  1.00  0.00    -0.241 C  
HETATM    3  O   UNL     1     -11.738  16.477  63.878  1.00  0.00    -1.148 OA 
HETATM    4  F   UNL     1      -9.418  16.379  66.345  1.00  0.00    -0.242 F  
ENDROOT
BRANCH   2   5
HETATM    5  C   UNL     1     -11.319  15.127  66.987  1.00  0.00    -0.277 C  
HETATM    6  O   UNL     1     -11.627  13.904  66.283  1.00  0.00    -0.337 OA 
HETATM    7  H   UNL     1     -11.991  13.246  66.864  1.00  0.00     0.000 HD 
BRANCH   5   8
HETATM    8  C   UNL     1     -10.468  14.715  68.209  1.00  0.00    -0.236 C  
HETATM    9  O   UNL     1      -9.558  13.684  67.737  1.00  0.00    -0.211 OA 
HETATM   10  H   UNL     1      -9.034  13.431  68.488  1.00  0.00     0.000 HD 
BRANCH   8  11
HETATM   11  C   UNL     1     -11.207  14.191  69.461  1.00  0.00    -0.221 C  
HETATM   12  H   UNL     1     -12.844  13.160  69.803  1.00  0.00     0.000 HD 
HETATM   13  O   UNL     1     -12.389  13.483  69.034  1.00  0.00    -0.252 OA 
BRANCH  11  14
HETATM   14  C   UNL     1     -11.646  15.265  70.468  1.00  0.00    -0.306 C  
HETATM   15  O   UNL     1     -11.113  15.011  71.768  1.00  0.00    -0.567 OA 
HETATM   16  H   UNL     1     -11.385  15.676  72.391  1.00  0.00     0.000 HD 
ENDBRANCH  11  14
ENDBRANCH   8  11
ENDBRANCH   5   8
ENDBRANCH   2   5
TORSDOF 4
ENDMDL
MODEL      118
REMARK 921   NORMALIZED FREE ENERGY PREDICTED BY IDOCK:   -3.62 KCAL/MOL
REMARK 922        TOTAL FREE ENERGY PREDICTED BY IDOCK:   -4.70 KCAL/MOL
REMARK 923 INTER-LIGAND FREE ENERGY PREDICTED BY IDOCK:   -4.33 KCAL/MOL
REMARK 924 INTRA-LIGAND FREE ENERGY PREDICTED BY IDOCK:   -0.37 KCAL/MOL
REMARK 927      BINDING AFFINITY PREDICTED BY RF-SCORE:    0.00 PKD
ROOT
HETATM    1  C   UNL     1     -10.779  18.971  67.445  1.00  0.00    -0.473 C  
HETATM    2  C   UNL     1     -10.203  17.615  67.113  1.00  0.00    -0.342 C  
HETATM    3  O   UNL     1     -10.080  19.929  67.779  1.00  0.00    -0.385 OA 
HETATM    4  F   UNL     1     -10.632  17.160  65.906  1.00  0.00    -0.347 F  
ENDROOT
BRANCH   2   5
HETATM    5  C   UNL     1     -10.491  16.564  68.191  1.00  0.00    -0.313 C  
HETATM    6  O   UNL     1     -10.832  17.175  69.455  1.00  0.00    -0.355 OA 
HETATM    7  H   UNL     1     -11.011  16.523  70.123  1.00  0.00     0.000 HD 
BRANCH   5   8
HETATM    8  C   UNL     1     -11.611  15.540  67.896  1.00  0.00    -0.223 C  
HETATM    9  O   UNL     1     -12.462  15.523  69.074  1.00  0.00    -0.607 OA 
HETATM   10  H   UNL     1     -13.150  14.894  68.892  1.00  0.00     0.000 HD 
BRANCH   8  11
HETATM   11  C   UNL     1     -11.193  14.089  67.563  1.00  0.00    -0.309 C  
HETATM   12  H   UNL     1     -11.087  12.392  68.544  1.00  0.00     0.000 HD 
HETATM   13  O   UNL     1     -11.344  13.283  68.749  1.00  0.00    -0.254 OA 
BRANCH  11  14
HETATM   14  C   UNL     1      -9.751  13.915  67.061  1.00  0.00    -0.250 C  
HETATM   15  O   UNL     1      -9.688  13.936  65.634  1.00  0.00    -0.471 OA 
HETATM   16  H   UNL     1      -8.796  13.828  65.325  1.00  0.00     0.000 HD 
ENDBRANCH  11  14
ENDBRANCH   8  11
ENDBRANCH   5   8
ENDBRANCH   2   5
TORSDOF 4
ENDMDL
MODEL      119
REMARK 921   NORMALIZED FREE ENERGY PREDICTED BY IDOCK:   -3.61 KCAL/MOL
REMARK 922        TOTAL FREE ENERGY PREDICTED BY IDOCK:   -4.70 KCAL/MOL
REMARK 923 INTER-LIGAND FREE ENERGY PREDICTED BY IDOCK:   -4.32 KCAL/MOL
REMARK 924 INTRA-LIGAND FREE ENERGY PREDICTED BY IDOCK:   -0.38 KCAL/MOL
REMARK 927      BINDING AFFINITY PREDICTED BY RF-SCORE:    0.00 PKD
ROOT
HETATM    1  C   UNL     1     -11.062  11.706  64.185  1.00  0.00    -0.364 C  
HETATM    2  C   UNL     1     -10.666  12.191  65.559  1.00  0.00    -0.283 C  
HETATM    3  O   UNL     1     -11.134  12.455  63.209  1.00  0.00    -0.438 OA 
HETATM    4  F   UNL     1      -9.652  11.454  66.087  1.00  0.00    -0.204 F  
ENDROOT
BRANCH   2   5
HETATM    5  C   UNL     1     -11.842  12.224  66.542  1.00  0.00    -0.306 C  
HETATM    6  O   UNL     1     -11.693  11.238  67.586  1.00  0.00    -0.564 OA 
HETATM    7  H   UNL     1     -12.422  11.259  68.196  1.00  0.00     0.000 HD 
BRANCH   5   8
HETATM    8  C   UNL     1     -12.126  13.565  67.257  1.00  0.00    -0.323 C  
HETATM    9  O   UNL     1     -11.817  14.609  66.295  1.00  0.00    -0.364 OA 
HETATM   10  H   UNL     1     -11.992  15.433  66.734  1.00  0.00     0.000 HD 
BRANCH   8  11
HETATM   11  C   UNL     1     -11.366  13.858  68.571  1.00  0.00    -0.280 C  
HETATM   12  H   UNL     1     -11.468  13.230  70.429  1.00  0.00     0.000 HD 
HETATM   13  O   UNL     1     -11.935  13.050  69.622  1.00  0.00    -0.315 OA 
BRANCH  11  14
HETATM   14  C   UNL     1     -11.395  15.321  69.040  1.00  0.00    -0.300 C  
HETATM   15  O   UNL     1     -12.625  15.635  69.695  1.00  0.00    -0.575 OA 
HETATM   16  H   UNL     1     -12.643  16.540  69.985  1.00  0.00     0.000 HD 
ENDBRANCH  11  14
ENDBRANCH   8  11
ENDBRANCH   5   8
ENDBRANCH   2   5
TORSDOF 4
ENDMDL
MODEL      120
REMARK 921   NORMALIZED FREE ENERGY PREDICTED BY IDOCK:   -3.61 KCAL/MOL
REMARK 922        TOTAL FREE ENERGY PREDICTED BY IDOCK:   -4.69 KCAL/MOL
REMARK 923 INTER-LIGAND FREE ENERGY PREDICTED BY IDOCK:   -4.30 KCAL/MOL
REMARK 924 INTRA-LIGAND FREE ENERGY PREDICTED BY IDOCK:   -0.39 KCAL/MOL
REMARK 927      BINDING AFFINITY PREDICTED BY RF-SCORE:    0.00 PKD
ROOT
HETATM    1  C   UNL     1     -10.948   9.811  69.128  1.00  0.00    -0.175 C  
HETATM    2  C   UNL     1     -11.566  10.875  70.004  1.00  0.00    -0.341 C  
HETATM    3  O   UNL     1      -9.795   9.405  69.287  1.00  0.00    -0.163 OA 
HETATM    4  F   UNL     1     -12.763  10.483  70.515  1.00  0.00    -0.359 F  
ENDROOT
BRANCH   2   5
HETATM    5  C   UNL     1     -11.731  12.218  69.284  1.00  0.00    -0.330 C  
HETATM    6  O   UNL     1     -11.615  13.331  70.197  1.00  0.00    -0.495 OA 
HETATM    7  H   UNL     1     -11.717  14.164  69.751  1.00  0.00     0.000 HD 
BRANCH   5   8
HETATM    8  C   UNL     1     -10.762  12.519  68.118  1.00  0.00    -0.227 C  
HETATM    9  O   UNL     1      -9.622  13.202  68.708  1.00  0.00    -0.399 OA 
HETATM   10  H   UNL     1      -9.026  13.386  67.991  1.00  0.00     0.000 HD 
BRANCH   8  11
HETATM   11  C   UNL     1     -11.292  13.363  66.937  1.00  0.00    -0.323 C  
HETATM   12  H   UNL     1     -12.562  14.845  66.722  1.00  0.00     0.000 HD 
HETATM   13  O   UNL     1     -12.237  14.326  67.447  1.00  0.00    -0.378 OA 
BRANCH  11  14
HETATM   14  C   UNL     1     -11.990  12.572  65.820  1.00  0.00    -0.420 C  
HETATM   15  O   UNL     1     -12.880  13.401  65.071  1.00  0.00    -0.685 OA 
HETATM   16  H   UNL     1     -13.312  12.912  64.380  1.00  0.00     0.000 HD 
ENDBRANCH  11  14
ENDBRANCH   8  11
ENDBRANCH   5   8
ENDBRANCH   2   5
TORSDOF 4
ENDMDL
MODEL      121
REMARK 921   NORMALIZED FREE ENERGY PREDICTED BY IDOCK:   -3.60 KCAL/MOL
REMARK 922        TOTAL FREE ENERGY PREDICTED BY IDOCK:   -4.68 KCAL/MOL
REMARK 923 INTER-LIGAND FREE ENERGY PREDICTED BY IDOCK:   -4.45 KCAL/MOL
REMARK 924 INTRA-LIGAND FREE ENERGY PREDICTED BY IDOCK:   -0.23 KCAL/MOL
REMARK 927      BINDING AFFINITY PREDICTED BY RF-SCORE:    0.00 PKD
ROOT
HETATM    1  C   UNL     1      -8.431  18.136  66.933  1.00  0.00    -0.253 C  
HETATM    2  C   UNL     1      -8.442  16.656  67.237  1.00  0.00    -0.194 C  
HETATM    3  O   UNL     1      -8.399  18.997  67.815  1.00  0.00    -0.279 OA 
HETATM    4  F   UNL     1      -7.469  15.990  66.560  1.00  0.00    -0.256 F  
ENDROOT
BRANCH   2   5
HETATM    5  C   UNL     1      -9.800  16.002  66.962  1.00  0.00    -0.236 C  
HETATM    6  O   UNL     1     -10.894  16.847  67.378  1.00  0.00    -0.278 OA 
HETATM    7  H   UNL     1     -11.737  16.441  67.208  1.00  0.00     0.000 HD 
BRANCH   5   8
HETATM    8  C   UNL     1     -10.105  15.595  65.502  1.00  0.00    -0.362 C  
HETATM    9  O   UNL     1     -10.778  16.733  64.899  1.00  0.00    -0.721 OA 
HETATM   10  H   UNL     1     -10.965  16.483  64.002  1.00  0.00     0.000 HD 
BRANCH   8  11
HETATM   11  C   UNL     1     -10.962  14.329  65.269  1.00  0.00    -0.343 C  
HETATM   12  H   UNL     1     -10.729  12.623  64.325  1.00  0.00     0.000 HD 
HETATM   13  O   UNL     1     -10.202  13.401  64.468  1.00  0.00    -0.388 OA 
BRANCH  11  14
HETATM   14  C   UNL     1     -12.307  14.562  64.563  1.00  0.00    -0.414 C  
HETATM   15  O   UNL     1     -13.399  14.082  65.348  1.00  0.00    -0.721 OA 
HETATM   16  H   UNL     1     -14.231  14.227  64.912  1.00  0.00     0.000 HD 
ENDBRANCH  11  14
ENDBRANCH   8  11
ENDBRANCH   5   8
ENDBRANCH   2   5
TORSDOF 4
ENDMDL
MODEL      122
REMARK 921   NORMALIZED FREE ENERGY PREDICTED BY IDOCK:   -3.60 KCAL/MOL
REMARK 922        TOTAL FREE ENERGY PREDICTED BY IDOCK:   -4.68 KCAL/MOL
REMARK 923 INTER-LIGAND FREE ENERGY PREDICTED BY IDOCK:   -4.29 KCAL/MOL
REMARK 924 INTRA-LIGAND FREE ENERGY PREDICTED BY IDOCK:   -0.39 KCAL/MOL
REMARK 927      BINDING AFFINITY PREDICTED BY RF-SCORE:    0.00 PKD
ROOT
HETATM    1  C   UNL     1     -10.467  11.062  67.698  1.00  0.00    -0.204 C  
HETATM    2  C   UNL     1     -11.359  10.953  68.912  1.00  0.00    -0.288 C  
HETATM    3  O   UNL     1     -10.789  10.621  66.593  1.00  0.00    -0.217 OA 
HETATM    4  F   UNL     1     -11.545  12.157  69.517  1.00  0.00    -0.311 F  
ENDROOT
BRANCH   2   5
HETATM    5  C   UNL     1     -10.848   9.937  69.938  1.00  0.00    -0.278 C  
HETATM    6  O   UNL     1      -9.434  10.095  70.188  1.00  0.00    -0.389 OA 
HETATM    7  H   UNL     1      -9.118   9.464  70.825  1.00  0.00     0.000 HD 
BRANCH   5   8
HETATM    8  C   UNL     1     -11.529   9.931  71.326  1.00  0.00    -0.361 C  
HETATM    9  O   UNL     1     -11.150   8.677  71.956  1.00  0.00    -0.321 OA 
HETATM   10  H   UNL     1     -11.569   8.673  72.809  1.00  0.00     0.000 HD 
BRANCH   8  11
HETATM   11  C   UNL     1     -13.068  10.068  71.376  1.00  0.00    -0.417 C  
HETATM   12  H   UNL     1     -14.345  11.353  72.134  1.00  0.00     0.000 HD 
HETATM   13  O   UNL     1     -13.400  11.268  72.103  1.00  0.00    -0.457 OA 
BRANCH  11  14
HETATM   14  C   UNL     1     -13.815   8.900  72.039  1.00  0.00    -0.456 C  
HETATM   15  O   UNL     1     -13.873   7.761  71.179  1.00  0.00    -0.593 OA 
HETATM   16  H   UNL     1     -14.334   7.039  71.590  1.00  0.00     0.000 HD 
ENDBRANCH  11  14
ENDBRANCH   8  11
ENDBRANCH   5   8
ENDBRANCH   2   5
TORSDOF 4
ENDMDL
MODEL      123
REMARK 921   NORMALIZED FREE ENERGY PREDICTED BY IDOCK:   -3.60 KCAL/MOL
REMARK 922        TOTAL FREE ENERGY PREDICTED BY IDOCK:   -4.68 KCAL/MOL
REMARK 923 INTER-LIGAND FREE ENERGY PREDICTED BY IDOCK:   -4.13 KCAL/MOL
REMARK 924 INTRA-LIGAND FREE ENERGY PREDICTED BY IDOCK:   -0.54 KCAL/MOL
REMARK 927      BINDING AFFINITY PREDICTED BY RF-SCORE:    0.00 PKD
ROOT
HETATM    1  C   UNL     1     -12.174  15.331  72.396  1.00  0.00    -0.383 C  
HETATM    2  C   UNL     1     -12.461  14.687  71.061  1.00  0.00    -0.329 C  
HETATM    3  O   UNL     1     -12.768  16.336  72.792  1.00  0.00    -0.420 OA 
HETATM    4  F   UNL     1     -12.714  13.357  71.181  1.00  0.00    -0.389 F  
ENDROOT
BRANCH   2   5
HETATM    5  C   UNL     1     -11.340  14.906  70.039  1.00  0.00    -0.274 C  
HETATM    6  O   UNL     1     -10.917  13.664  69.437  1.00  0.00    -0.392 OA 
HETATM    7  H   UNL     1     -10.221  13.800  68.803  1.00  0.00     0.000 HD 
BRANCH   5   8
HETATM    8  C   UNL     1     -11.631  15.872  68.868  1.00  0.00    -0.388 C  
HETATM    9  O   UNL     1     -12.134  15.048  67.782  1.00  0.00    -0.502 OA 
HETATM   10  H   UNL     1     -12.313  15.642  67.062  1.00  0.00     0.000 HD 
BRANCH   8  11
HETATM   11  C   UNL     1     -10.464  16.736  68.338  1.00  0.00    -0.339 C  
HETATM   12  H   UNL     1     -10.275  18.537  67.577  1.00  0.00     0.000 HD 
HETATM   13  O   UNL     1     -10.992  18.006  67.902  1.00  0.00    -0.297 OA 
BRANCH  11  14
HETATM   14  C   UNL     1      -9.674  16.134  67.166  1.00  0.00    -0.233 C  
HETATM   15  O   UNL     1      -9.180  14.831  67.483  1.00  0.00    -0.190 OA 
HETATM   16  H   UNL     1      -8.692  14.459  66.758  1.00  0.00     0.000 HD 
ENDBRANCH  11  14
ENDBRANCH   8  11
ENDBRANCH   5   8
ENDBRANCH   2   5
TORSDOF 4
ENDMDL
MODEL      124
REMARK 921   NORMALIZED FREE ENERGY PREDICTED BY IDOCK:   -3.60 KCAL/MOL
REMARK 922        TOTAL FREE ENERGY PREDICTED BY IDOCK:   -4.67 KCAL/MOL
REMARK 923 INTER-LIGAND FREE ENERGY PREDICTED BY IDOCK:   -4.29 KCAL/MOL
REMARK 924 INTRA-LIGAND FREE ENERGY PREDICTED BY IDOCK:   -0.38 KCAL/MOL
REMARK 927      BINDING AFFINITY PREDICTED BY RF-SCORE:    0.00 PKD
ROOT
HETATM    1  C   UNL     1     -12.254  13.523  70.839  1.00  0.00    -0.305 C  
HETATM    2  C   UNL     1     -13.173  12.629  71.638  1.00  0.00    -0.298 C  
HETATM    3  O   UNL     1     -12.512  13.888  69.691  1.00  0.00    -0.300 OA 
HETATM    4  F   UNL     1     -13.458  13.152  72.860  1.00  0.00    -0.566 F  
ENDROOT
BRANCH   2   5
HETATM    5  C   UNL     1     -12.626  11.207  71.803  1.00  0.00    -0.177 C  
HETATM    6  O   UNL     1     -13.626  10.309  72.333  1.00  0.00    -0.611 OA 
HETATM    7  H   UNL     1     -13.287   9.427  72.436  1.00  0.00     0.000 HD 
BRANCH   5   8
HETATM    8  C   UNL     1     -12.059  10.517  70.542  1.00  0.00    -0.345 C  
HETATM    9  O   UNL     1     -13.152  10.461  69.586  1.00  0.00    -0.550 OA 
HETATM   10  H   UNL     1     -12.803  10.037  68.811  1.00  0.00     0.000 HD 
BRANCH   8  11
HETATM   11  C   UNL     1     -11.462   9.100  70.699  1.00  0.00    -0.262 C  
HETATM   12  H   UNL     1     -10.069   8.273  71.810  1.00  0.00     0.000 HD 
HETATM   13  O   UNL     1     -10.436   9.144  71.713  1.00  0.00    -0.352 OA 
BRANCH  11  14
HETATM   14  C   UNL     1     -10.838   8.500  69.430  1.00  0.00    -0.091 C  
HETATM   15  O   UNL     1     -10.948   9.393  68.321  1.00  0.00    -0.439 OA 
HETATM   16  H   UNL     1     -10.562   9.022  67.536  1.00  0.00     0.000 HD 
ENDBRANCH  11  14
ENDBRANCH   8  11
ENDBRANCH   5   8
ENDBRANCH   2   5
TORSDOF 4
ENDMDL
MODEL      125
REMARK 921   NORMALIZED FREE ENERGY PREDICTED BY IDOCK:   -3.59 KCAL/MOL
REMARK 922        TOTAL FREE ENERGY PREDICTED BY IDOCK:   -4.66 KCAL/MOL
REMARK 923 INTER-LIGAND FREE ENERGY PREDICTED BY IDOCK:   -4.14 KCAL/MOL
REMARK 924 INTRA-LIGAND FREE ENERGY PREDICTED BY IDOCK:   -0.52 KCAL/MOL
REMARK 927      BINDING AFFINITY PREDICTED BY RF-SCORE:    0.00 PKD
ROOT
HETATM    1  C   UNL     1     -10.534  15.079  66.224  1.00  0.00    -0.304 C  
HETATM    2  C   UNL     1      -9.969  15.798  67.427  1.00  0.00    -0.237 C  
HETATM    3  O   UNL     1     -10.036  14.047  65.771  1.00  0.00    -0.309 OA 
HETATM    4  F   UNL     1     -10.917  16.029  68.374  1.00  0.00    -0.268 F  
ENDROOT
BRANCH   2   5
HETATM    5  C   UNL     1      -9.276  17.115  67.063  1.00  0.00    -0.241 C  
HETATM    6  O   UNL     1      -8.723  17.077  65.729  1.00  0.00    -0.522 OA 
HETATM    7  H   UNL     1      -8.292  17.893  65.503  1.00  0.00     0.000 HD 
BRANCH   5   8
HETATM    8  C   UNL     1     -10.125  18.405  67.136  1.00  0.00    -0.353 C  
HETATM    9  O   UNL     1     -10.428  18.766  65.761  1.00  0.00    -0.571 OA 
HETATM   10  H   UNL     1     -10.950  19.559  65.806  1.00  0.00     0.000 HD 
BRANCH   8  11
HETATM   11  C   UNL     1      -9.515  19.632  67.851  1.00  0.00    -0.349 C  
HETATM   12  H   UNL     1      -9.648  21.582  67.664  1.00  0.00     0.000 HD 
HETATM   13  O   UNL     1     -10.022  20.828  67.224  1.00  0.00    -0.433 OA 
BRANCH  11  14
HETATM   14  C   UNL     1      -7.981  19.712  67.834  1.00  0.00    -0.300 C  
HETATM   15  O   UNL     1      -7.486  19.981  66.521  1.00  0.00    -0.256 OA 
HETATM   16  H   UNL     1      -6.537  20.030  66.511  1.00  0.00     0.000 HD 
ENDBRANCH  11  14
ENDBRANCH   8  11
ENDBRANCH   5   8
ENDBRANCH   2   5
TORSDOF 4
ENDMDL
MODEL      126
REMARK 921   NORMALIZED FREE ENERGY PREDICTED BY IDOCK:   -3.59 KCAL/MOL
REMARK 922        TOTAL FREE ENERGY PREDICTED BY IDOCK:   -4.66 KCAL/MOL
REMARK 923 INTER-LIGAND FREE ENERGY PREDICTED BY IDOCK:   -4.36 KCAL/MOL
REMARK 924 INTRA-LIGAND FREE ENERGY PREDICTED BY IDOCK:   -0.30 KCAL/MOL
REMARK 927      BINDING AFFINITY PREDICTED BY RF-SCORE:    0.00 PKD
ROOT
HETATM    1  C   UNL     1      -8.272  19.845  66.542  1.00  0.00    -0.331 C  
HETATM    2  C   UNL     1      -9.684  19.330  66.691  1.00  0.00    -0.353 C  
HETATM    3  O   UNL     1      -7.585  19.626  65.543  1.00  0.00    -0.411 OA 
HETATM    4  F   UNL     1     -10.557  20.321  67.014  1.00  0.00    -0.526 F  
ENDROOT
BRANCH   2   5
HETATM    5  C   UNL     1      -9.799  18.192  67.712  1.00  0.00    -0.310 C  
HETATM    6  O   UNL     1     -10.224  18.676  69.005  1.00  0.00    -0.477 OA 
HETATM    7  H   UNL     1     -10.295  17.971  69.638  1.00  0.00     0.000 HD 
BRANCH   5   8
HETATM    8  C   UNL     1     -10.746  17.022  67.362  1.00  0.00    -0.240 C  
HETATM    9  O   UNL     1     -11.328  16.584  68.619  1.00  0.00    -0.344 OA 
HETATM   10  H   UNL     1     -11.910  15.865  68.404  1.00  0.00     0.000 HD 
BRANCH   8  11
HETATM   11  C   UNL     1     -10.142  15.796  66.639  1.00  0.00    -0.279 C  
HETATM   12  H   UNL     1      -9.239  15.473  64.925  1.00  0.00     0.000 HD 
HETATM   13  O   UNL     1      -9.611  16.226  65.369  1.00  0.00    -0.448 OA 
BRANCH  11  14
HETATM   14  C   UNL     1     -11.118  14.641  66.369  1.00  0.00    -0.334 C  
HETATM   15  O   UNL     1     -11.503  13.987  67.579  1.00  0.00    -0.307 OA 
HETATM   16  H   UNL     1     -12.107  13.273  67.411  1.00  0.00     0.000 HD 
ENDBRANCH  11  14
ENDBRANCH   8  11
ENDBRANCH   5   8
ENDBRANCH   2   5
TORSDOF 4
ENDMDL
MODEL      127
REMARK 921   NORMALIZED FREE ENERGY PREDICTED BY IDOCK:   -3.58 KCAL/MOL
REMARK 922        TOTAL FREE ENERGY PREDICTED BY IDOCK:   -4.66 KCAL/MOL
REMARK 923 INTER-LIGAND FREE ENERGY PREDICTED BY IDOCK:   -4.27 KCAL/MOL
REMARK 924 INTRA-LIGAND FREE ENERGY PREDICTED BY IDOCK:   -0.38 KCAL/MOL
REMARK 927      BINDING AFFINITY PREDICTED BY RF-SCORE:    0.00 PKD
ROOT
HETATM    1  C   UNL     1     -12.752  13.600  65.552  1.00  0.00    -0.466 C  
HETATM    2  C   UNL     1     -11.851  13.599  66.765  1.00  0.00    -0.413 C  
HETATM    3  O   UNL     1     -13.024  12.576  64.923  1.00  0.00    -0.821 OA 
HETATM    4  F   UNL     1     -12.432  14.210  67.832  1.00  0.00    -0.324 F  
ENDROOT
BRANCH   2   5
HETATM    5  C   UNL     1     -10.483  14.233  66.492  1.00  0.00    -0.287 C  
HETATM    6  O   UNL     1     -10.104  14.108  65.104  1.00  0.00    -0.460 OA 
HETATM    7  H   UNL     1      -9.255  14.501  64.935  1.00  0.00     0.000 HD 
BRANCH   5   8
HETATM    8  C   UNL     1     -10.314  15.728  66.847  1.00  0.00    -0.295 C  
HETATM    9  O   UNL     1     -10.531  16.463  65.612  1.00  0.00    -0.361 OA 
HETATM   10  H   UNL     1     -10.427  17.382  65.830  1.00  0.00     0.000 HD 
BRANCH   8  11
HETATM   11  C   UNL     1      -8.969  16.176  67.464  1.00  0.00    -0.191 C  
HETATM   12  H   UNL     1      -7.168  16.568  66.786  1.00  0.00     0.000 HD 
HETATM   13  O   UNL     1      -7.995  16.292  66.407  1.00  0.00    -0.290 OA 
BRANCH  11  14
HETATM   14  C   UNL     1      -8.388  15.240  68.534  1.00  0.00    -0.152 C  
HETATM   15  O   UNL     1      -7.687  15.969  69.542  1.00  0.00    -0.217 OA 
HETATM   16  H   UNL     1      -7.327  15.389  70.204  1.00  0.00     0.000 HD 
ENDBRANCH  11  14
ENDBRANCH   8  11
ENDBRANCH   5   8
ENDBRANCH   2   5
TORSDOF 4
ENDMDL
MODEL      128
REMARK 921   NORMALIZED FREE ENERGY PREDICTED BY IDOCK:   -3.58 KCAL/MOL
REMARK 922        TOTAL FREE ENERGY PREDICTED BY IDOCK:   -4.65 KCAL/MOL
REMARK 923 INTER-LIGAND FREE ENERGY PREDICTED BY IDOCK:   -4.38 KCAL/MOL
REMARK 924 INTRA-LIGAND FREE ENERGY PREDICTED BY IDOCK:   -0.27 KCAL/MOL
REMARK 927      BINDING AFFINITY PREDICTED BY RF-SCORE:    0.00 PKD
ROOT
HETATM    1  C   UNL     1     -11.226  12.231  67.960  1.00  0.00    -0.269 C  
HETATM    2  C   UNL     1     -10.610  12.949  66.783  1.00  0.00    -0.257 C  
HETATM    3  O   UNL     1     -12.072  11.345  67.832  1.00  0.00    -0.646 OA 
HETATM    4  F   UNL     1      -9.251  12.931  66.828  1.00  0.00    -0.211 F  
ENDROOT
BRANCH   2   5
HETATM    5  C   UNL     1     -11.100  14.395  66.643  1.00  0.00    -0.326 C  
HETATM    6  O   UNL     1     -12.337  14.610  67.355  1.00  0.00    -0.573 OA 
HETATM    7  H   UNL     1     -12.641  15.506  67.269  1.00  0.00     0.000 HD 
BRANCH   5   8
HETATM    8  C   UNL     1     -10.139  15.513  67.106  1.00  0.00    -0.254 C  
HETATM    9  O   UNL     1     -10.218  15.537  68.557  1.00  0.00    -0.209 OA 
HETATM   10  H   UNL     1      -9.627  16.224  68.842  1.00  0.00     0.000 HD 
BRANCH   8  11
HETATM   11  C   UNL     1     -10.385  16.943  66.571  1.00  0.00    -0.299 C  
HETATM   12  H   UNL     1      -9.470  18.160  65.331  1.00  0.00     0.000 HD 
HETATM   13  O   UNL     1      -9.319  17.282  65.660  1.00  0.00    -0.506 OA 
BRANCH  11  14
HETATM   14  C   UNL     1     -10.453  18.046  67.639  1.00  0.00    -0.409 C  
HETATM   15  O   UNL     1     -11.085  19.223  67.135  1.00  0.00    -0.425 OA 
HETATM   16  H   UNL     1     -11.127  19.905  67.795  1.00  0.00     0.000 HD 
ENDBRANCH  11  14
ENDBRANCH   8  11
ENDBRANCH   5   8
ENDBRANCH   2   5
TORSDOF 4
ENDMDL
MODEL      129
REMARK 921   NORMALIZED FREE ENERGY PREDICTED BY IDOCK:   -3.57 KCAL/MOL
REMARK 922        TOTAL FREE ENERGY PREDICTED BY IDOCK:   -4.65 KCAL/MOL
REMARK 923 INTER-LIGAND FREE ENERGY PREDICTED BY IDOCK:   -4.26 KCAL/MOL
REMARK 924 INTRA-LIGAND FREE ENERGY PREDICTED BY IDOCK:   -0.39 KCAL/MOL
REMARK 927      BINDING AFFINITY PREDICTED BY RF-SCORE:    0.00 PKD
ROOT
HETATM    1  C   UNL     1      -9.935  15.946  68.076  1.00  0.00    -0.220 C  
HETATM    2  C   UNL     1      -9.732  14.995  66.920  1.00  0.00    -0.238 C  
HETATM    3  O   UNL     1      -9.635  15.657  69.236  1.00  0.00    -0.232 OA 
HETATM    4  F   UNL     1      -9.039  15.572  65.902  1.00  0.00    -0.335 F  
ENDROOT
BRANCH   2   5
HETATM    5  C   UNL     1     -11.047  14.419  66.383  1.00  0.00    -0.326 C  
HETATM    6  O   UNL     1     -10.816  13.387  65.400  1.00  0.00    -0.284 OA 
HETATM    7  H   UNL     1     -11.631  13.030  65.067  1.00  0.00     0.000 HD 
BRANCH   5   8
HETATM    8  C   UNL     1     -12.026  13.814  67.415  1.00  0.00    -0.388 C  
HETATM    9  O   UNL     1     -12.450  14.916  68.263  1.00  0.00    -0.542 OA 
HETATM   10  H   UNL     1     -13.052  14.544  68.897  1.00  0.00     0.000 HD 
BRANCH   8  11
HETATM   11  C   UNL     1     -11.510  12.666  68.313  1.00  0.00    -0.313 C  
HETATM   12  H   UNL     1     -11.572  10.704  68.267  1.00  0.00     0.000 HD 
HETATM   13  O   UNL     1     -11.890  11.409  67.716  1.00  0.00    -0.595 OA 
BRANCH  11  14
HETATM   14  C   UNL     1     -12.031  12.671  69.758  1.00  0.00    -0.295 C  
HETATM   15  O   UNL     1     -11.342  13.632  70.559  1.00  0.00    -0.489 OA 
HETATM   16  H   UNL     1     -11.665  13.635  71.453  1.00  0.00     0.000 HD 
ENDBRANCH  11  14
ENDBRANCH   8  11
ENDBRANCH   5   8
ENDBRANCH   2   5
TORSDOF 4
ENDMDL
MODEL      130
REMARK 921   NORMALIZED FREE ENERGY PREDICTED BY IDOCK:   -3.57 KCAL/MOL
REMARK 922        TOTAL FREE ENERGY PREDICTED BY IDOCK:   -4.65 KCAL/MOL
REMARK 923 INTER-LIGAND FREE ENERGY PREDICTED BY IDOCK:   -4.46 KCAL/MOL
REMARK 924 INTRA-LIGAND FREE ENERGY PREDICTED BY IDOCK:   -0.18 KCAL/MOL
REMARK 927      BINDING AFFINITY PREDICTED BY RF-SCORE:    0.00 PKD
ROOT
HETATM    1  C   UNL     1      -9.883  16.082  67.228  1.00  0.00    -0.236 C  
HETATM    2  C   UNL     1      -9.942  17.473  66.643  1.00  0.00    -0.314 C  
HETATM    3  O   UNL     1     -10.743  15.228  67.003  1.00  0.00    -0.302 OA 
HETATM    4  F   UNL     1      -8.786  17.810  66.011  1.00  0.00    -0.245 F  
ENDROOT
BRANCH   2   5
HETATM    5  C   UNL     1     -10.289  18.544  67.683  1.00  0.00    -0.410 C  
HETATM    6  O   UNL     1     -10.296  18.003  69.023  1.00  0.00    -0.418 OA 
HETATM    7  H   UNL     1     -10.511  18.667  69.668  1.00  0.00     0.000 HD 
BRANCH   5   8
HETATM    8  C   UNL     1      -9.387  19.798  67.734  1.00  0.00    -0.344 C  
HETATM    9  O   UNL     1      -9.747  20.601  66.577  1.00  0.00    -0.638 OA 
HETATM   10  H   UNL     1      -9.193  21.372  66.608  1.00  0.00     0.000 HD 
BRANCH   8  11
HETATM   11  C   UNL     1      -7.855  19.587  67.736  1.00  0.00    -0.288 C  
HETATM   12  H   UNL     1      -6.544  18.787  68.960  1.00  0.00     0.000 HD 
HETATM   13  O   UNL     1      -7.485  18.917  68.959  1.00  0.00    -0.320 OA 
BRANCH  11  14
HETATM   14  C   UNL     1      -7.011  20.866  67.631  1.00  0.00    -0.315 C  
HETATM   15  O   UNL     1      -6.982  21.365  66.293  1.00  0.00    -0.633 OA 
HETATM   16  H   UNL     1      -6.459  22.156  66.228  1.00  0.00     0.000 HD 
ENDBRANCH  11  14
ENDBRANCH   8  11
ENDBRANCH   5   8
ENDBRANCH   2   5
TORSDOF 4
ENDMDL
MODEL      131
REMARK 921   NORMALIZED FREE ENERGY PREDICTED BY IDOCK:   -3.56 KCAL/MOL
REMARK 922        TOTAL FREE ENERGY PREDICTED BY IDOCK:   -4.63 KCAL/MOL
REMARK 923 INTER-LIGAND FREE ENERGY PREDICTED BY IDOCK:   -4.43 KCAL/MOL
REMARK 924 INTRA-LIGAND FREE ENERGY PREDICTED BY IDOCK:   -0.20 KCAL/MOL
REMARK 927      BINDING AFFINITY PREDICTED BY RF-SCORE:    0.00 PKD
ROOT
HETATM    1  C   UNL     1      -9.762  12.046  66.398  1.00  0.00    -0.225 C  
HETATM    2  C   UNL     1     -11.268  11.942  66.346  1.00  0.00    -0.331 C  
HETATM    3  O   UNL     1      -9.021  11.074  66.241  1.00  0.00    -0.172 OA 
HETATM    4  F   UNL     1     -11.812  12.840  65.481  1.00  0.00    -0.366 F  
ENDROOT
BRANCH   2   5
HETATM    5  C   UNL     1     -11.925  12.092  67.722  1.00  0.00    -0.128 C  
HETATM    6  O   UNL     1     -12.252  10.810  68.301  1.00  0.00    -0.815 OA 
HETATM    7  H   UNL     1     -12.659  10.903  69.154  1.00  0.00     0.000 HD 
BRANCH   5   8
HETATM    8  C   UNL     1     -11.130  12.859  68.804  1.00  0.00    -0.263 C  
HETATM    9  O   UNL     1     -11.191  12.042  70.004  1.00  0.00    -0.493 OA 
HETATM   10  H   UNL     1     -10.703  12.513  70.669  1.00  0.00     0.000 HD 
BRANCH   8  11
HETATM   11  C   UNL     1     -11.586  14.294  69.154  1.00  0.00    -0.305 C  
HETATM   12  H   UNL     1     -10.696  15.979  69.627  1.00  0.00     0.000 HD 
HETATM   13  O   UNL     1     -10.416  15.098  69.412  1.00  0.00    -0.236 OA 
BRANCH  11  14
HETATM   14  C   UNL     1     -12.512  14.414  70.374  1.00  0.00    -0.357 C  
HETATM   15  O   UNL     1     -13.333  15.580  70.295  1.00  0.00    -0.740 OA 
HETATM   16  H   UNL     1     -13.906  15.654  71.050  1.00  0.00     0.000 HD 
ENDBRANCH  11  14
ENDBRANCH   8  11
ENDBRANCH   5   8
ENDBRANCH   2   5
TORSDOF 4
ENDMDL
MODEL      132
REMARK 921   NORMALIZED FREE ENERGY PREDICTED BY IDOCK:   -3.56 KCAL/MOL
REMARK 922        TOTAL FREE ENERGY PREDICTED BY IDOCK:   -4.62 KCAL/MOL
REMARK 923 INTER-LIGAND FREE ENERGY PREDICTED BY IDOCK:   -4.12 KCAL/MOL
REMARK 924 INTRA-LIGAND FREE ENERGY PREDICTED BY IDOCK:   -0.50 KCAL/MOL
REMARK 927      BINDING AFFINITY PREDICTED BY RF-SCORE:    0.00 PKD
ROOT
HETATM    1  C   UNL     1     -11.209   6.424  72.229  1.00  0.00    -0.276 C  
HETATM    2  C   UNL     1     -12.117   7.437  71.573  1.00  0.00    -0.327 C  
HETATM    3  O   UNL     1     -10.966   6.431  73.437  1.00  0.00    -0.244 OA 
HETATM    4  F   UNL     1     -13.088   6.845  70.829  1.00  0.00    -0.380 F  
ENDROOT
BRANCH   2   5
HETATM    5  C   UNL     1     -11.355   8.450  70.710  1.00  0.00    -0.265 C  
HETATM    6  O   UNL     1     -11.279   8.026  69.332  1.00  0.00    -0.438 OA 
HETATM    7  H   UNL     1     -10.807   8.654  68.797  1.00  0.00     0.000 HD 
BRANCH   5   8
HETATM    8  C   UNL     1     -11.892   9.899  70.683  1.00  0.00    -0.303 C  
HETATM    9  O   UNL     1     -13.338   9.795  70.776  1.00  0.00    -0.594 OA 
HETATM   10  H   UNL     1     -13.668  10.686  70.760  1.00  0.00     0.000 HD 
BRANCH   8  11
HETATM   11  C   UNL     1     -11.533  10.779  69.464  1.00  0.00    -0.294 C  
HETATM   12  H   UNL     1      -9.890  11.237  68.490  1.00  0.00     0.000 HD 
HETATM   13  O   UNL     1     -10.111  10.697  69.239  1.00  0.00    -0.217 OA 
BRANCH  11  14
HETATM   14  C   UNL     1     -11.899  12.266  69.591  1.00  0.00    -0.324 C  
HETATM   15  O   UNL     1     -12.136  12.632  70.951  1.00  0.00    -0.456 OA 
HETATM   16  H   UNL     1     -12.362  13.551  71.029  1.00  0.00     0.000 HD 
ENDBRANCH  11  14
ENDBRANCH   8  11
ENDBRANCH   5   8
ENDBRANCH   2   5
TORSDOF 4
ENDMDL
MODEL      133
REMARK 921   NORMALIZED FREE ENERGY PREDICTED BY IDOCK:   -3.54 KCAL/MOL
REMARK 922        TOTAL FREE ENERGY PREDICTED BY IDOCK:   -4.60 KCAL/MOL
REMARK 923 INTER-LIGAND FREE ENERGY PREDICTED BY IDOCK:   -4.23 KCAL/MOL
REMARK 924 INTRA-LIGAND FREE ENERGY PREDICTED BY IDOCK:   -0.37 KCAL/MOL
REMARK 927      BINDING AFFINITY PREDICTED BY RF-SCORE:    0.00 PKD
ROOT
HETATM    1  C   UNL     1     -10.457  10.347  68.136  1.00  0.00    -0.188 C  
HETATM    2  C   UNL     1     -11.766  11.101  68.104  1.00  0.00    -0.232 C  
HETATM    3  O   UNL     1     -10.397   9.116  68.095  1.00  0.00    -0.198 OA 
HETATM    4  F   UNL     1     -11.778  12.059  67.140  1.00  0.00    -0.380 F  
ENDROOT
BRANCH   2   5
HETATM    5  C   UNL     1     -12.126  11.728  69.456  1.00  0.00    -0.250 C  
HETATM    6  O   UNL     1     -11.369  11.139  70.536  1.00  0.00    -0.457 OA 
HETATM    7  H   UNL     1     -11.592  11.527  71.374  1.00  0.00     0.000 HD 
BRANCH   5   8
HETATM    8  C   UNL     1     -11.948  13.257  69.594  1.00  0.00    -0.314 C  
HETATM    9  O   UNL     1     -10.539  13.523  69.357  1.00  0.00    -0.438 OA 
HETATM   10  H   UNL     1     -10.430  14.463  69.442  1.00  0.00     0.000 HD 
BRANCH   8  11
HETATM   11  C   UNL     1     -12.360  13.914  70.932  1.00  0.00    -0.377 C  
HETATM   12  H   UNL     1     -13.536  13.440  72.432  1.00  0.00     0.000 HD 
HETATM   13  O   UNL     1     -13.283  13.036  71.610  1.00  0.00    -0.386 OA 
BRANCH  11  14
HETATM   14  C   UNL     1     -13.029  15.292  70.813  1.00  0.00    -0.436 C  
HETATM   15  O   UNL     1     -12.484  16.220  71.752  1.00  0.00    -0.575 OA 
HETATM   16  H   UNL     1     -12.898  17.072  71.679  1.00  0.00     0.000 HD 
ENDBRANCH  11  14
ENDBRANCH   8  11
ENDBRANCH   5   8
ENDBRANCH   2   5
TORSDOF 4
ENDMDL
MODEL      134
REMARK 921   NORMALIZED FREE ENERGY PREDICTED BY IDOCK:   -3.53 KCAL/MOL
REMARK 922        TOTAL FREE ENERGY PREDICTED BY IDOCK:   -4.59 KCAL/MOL
REMARK 923 INTER-LIGAND FREE ENERGY PREDICTED BY IDOCK:   -4.40 KCAL/MOL
REMARK 924 INTRA-LIGAND FREE ENERGY PREDICTED BY IDOCK:   -0.19 KCAL/MOL
REMARK 927      BINDING AFFINITY PREDICTED BY RF-SCORE:    0.00 PKD
ROOT
HETATM    1  C   UNL     1     -12.244  10.983  70.486  1.00  0.00    -0.381 C  
HETATM    2  C   UNL     1     -12.190  12.477  70.703  1.00  0.00    -0.276 C  
HETATM    3  O   UNL     1     -11.413  10.210  70.966  1.00  0.00    -0.354 OA 
HETATM    4  F   UNL     1     -13.371  12.968  71.165  1.00  0.00    -0.298 F  
ENDROOT
BRANCH   2   5
HETATM    5  C   UNL     1     -11.770  13.247  69.446  1.00  0.00    -0.325 C  
HETATM    6  O   UNL     1     -10.879  14.339  69.762  1.00  0.00    -0.434 OA 
HETATM    7  H   UNL     1     -10.618  14.817  68.983  1.00  0.00     0.000 HD 
BRANCH   5   8
HETATM    8  C   UNL     1     -11.079  12.443  68.322  1.00  0.00    -0.243 C  
HETATM    9  O   UNL     1      -9.654  12.505  68.600  1.00  0.00    -0.370 OA 
HETATM   10  H   UNL     1      -9.229  12.010  67.909  1.00  0.00     0.000 HD 
BRANCH   8  11
HETATM   11  C   UNL     1     -11.321  12.887  66.862  1.00  0.00    -0.312 C  
HETATM   12  H   UNL     1     -10.201  13.502  65.371  1.00  0.00     0.000 HD 
HETATM   13  O   UNL     1     -10.052  13.229  66.268  1.00  0.00    -0.280 OA 
BRANCH  11  14
HETATM   14  C   UNL     1     -12.259  14.091  66.683  1.00  0.00    -0.428 C  
HETATM   15  O   UNL     1     -13.095  13.937  65.536  1.00  0.00    -0.699 OA 
HETATM   16  H   UNL     1     -13.675  14.682  65.426  1.00  0.00     0.000 HD 
ENDBRANCH  11  14
ENDBRANCH   8  11
ENDBRANCH   5   8
ENDBRANCH   2   5
TORSDOF 4
ENDMDL
MODEL      135
REMARK 921   NORMALIZED FREE ENERGY PREDICTED BY IDOCK:   -3.53 KCAL/MOL
REMARK 922        TOTAL FREE ENERGY PREDICTED BY IDOCK:   -4.59 KCAL/MOL
REMARK 923 INTER-LIGAND FREE ENERGY PREDICTED BY IDOCK:   -4.38 KCAL/MOL
REMARK 924 INTRA-LIGAND FREE ENERGY PREDICTED BY IDOCK:   -0.21 KCAL/MOL
REMARK 927      BINDING AFFINITY PREDICTED BY RF-SCORE:    0.00 PKD
ROOT
HETATM    1  C   UNL     1      -9.700  19.002  66.305  1.00  0.00    -0.354 C  
HETATM    2  C   UNL     1      -8.416  19.729  66.628  1.00  0.00    -0.333 C  
HETATM    3  O   UNL     1     -10.703  19.578  65.880  1.00  0.00    -0.483 OA 
HETATM    4  F   UNL     1      -7.342  19.168  66.012  1.00  0.00    -0.244 F  
ENDROOT
BRANCH   2   5
HETATM    5  C   UNL     1      -8.150  19.828  68.134  1.00  0.00    -0.294 C  
HETATM    6  O   UNL     1      -9.246  19.290  68.906  1.00  0.00    -0.367 OA 
HETATM    7  H   UNL     1      -9.081  19.351  69.840  1.00  0.00     0.000 HD 
BRANCH   5   8
HETATM    8  C   UNL     1      -6.873  19.145  68.672  1.00  0.00    -0.287 C  
HETATM    9  O   UNL     1      -7.170  17.723  68.731  1.00  0.00    -0.256 OA 
HETATM   10  H   UNL     1      -6.384  17.303  69.061  1.00  0.00     0.000 HD 
BRANCH   8  11
HETATM   11  C   UNL     1      -6.336  19.598  70.049  1.00  0.00    -0.287 C  
HETATM   12  H   UNL     1      -5.470  21.210  70.763  1.00  0.00     0.000 HD 
HETATM   13  O   UNL     1      -5.800  20.931  69.917  1.00  0.00    -0.457 OA 
BRANCH  11  14
HETATM   14  C   UNL     1      -5.236  18.712  70.655  1.00  0.00    -0.250 C  
HETATM   15  O   UNL     1      -5.222  18.797  72.080  1.00  0.00    -0.768 OA 
HETATM   16  H   UNL     1      -4.542  18.249  72.455  1.00  0.00     0.000 HD 
ENDBRANCH  11  14
ENDBRANCH   8  11
ENDBRANCH   5   8
ENDBRANCH   2   5
TORSDOF 4
ENDMDL
MODEL      136
REMARK 921   NORMALIZED FREE ENERGY PREDICTED BY IDOCK:   -3.53 KCAL/MOL
REMARK 922        TOTAL FREE ENERGY PREDICTED BY IDOCK:   -4.58 KCAL/MOL
REMARK 923 INTER-LIGAND FREE ENERGY PREDICTED BY IDOCK:   -3.99 KCAL/MOL
REMARK 924 INTRA-LIGAND FREE ENERGY PREDICTED BY IDOCK:   -0.59 KCAL/MOL
REMARK 927      BINDING AFFINITY PREDICTED BY RF-SCORE:    0.00 PKD
ROOT
HETATM    1  C   UNL     1     -10.479  19.948  67.663  1.00  0.00    -0.381 C  
HETATM    2  C   UNL     1      -9.514  19.023  66.959  1.00  0.00    -0.317 C  
HETATM    3  O   UNL     1     -10.394  20.210  68.864  1.00  0.00    -0.382 OA 
HETATM    4  F   UNL     1      -8.978  19.595  65.848  1.00  0.00    -0.359 F  
ENDROOT
BRANCH   2   5
HETATM    5  C   UNL     1     -10.142  17.675  66.590  1.00  0.00    -0.335 C  
HETATM    6  O   UNL     1      -9.356  16.972  65.603  1.00  0.00    -0.523 OA 
HETATM    7  H   UNL     1      -9.745  16.135  65.374  1.00  0.00     0.000 HD 
BRANCH   5   8
HETATM    8  C   UNL     1     -10.383  16.670  67.739  1.00  0.00    -0.306 C  
HETATM    9  O   UNL     1      -9.067  16.237  68.179  1.00  0.00    -0.184 OA 
HETATM   10  H   UNL     1      -9.215  15.620  68.886  1.00  0.00     0.000 HD 
BRANCH   8  11
HETATM   11  C   UNL     1     -11.243  15.420  67.438  1.00  0.00    -0.287 C  
HETATM   12  H   UNL     1     -12.667  14.434  68.362  1.00  0.00     0.000 HD 
HETATM   13  O   UNL     1     -12.139  15.201  68.547  1.00  0.00    -0.250 OA 
BRANCH  11  14
HETATM   14  C   UNL     1     -10.460  14.119  67.208  1.00  0.00    -0.272 C  
HETATM   15  O   UNL     1      -9.530  14.251  66.131  1.00  0.00    -0.396 OA 
HETATM   16  H   UNL     1      -9.046  13.446  65.989  1.00  0.00     0.000 HD 
ENDBRANCH  11  14
ENDBRANCH   8  11
ENDBRANCH   5   8
ENDBRANCH   2   5
TORSDOF 4
ENDMDL
MODEL      137
REMARK 921   NORMALIZED FREE ENERGY PREDICTED BY IDOCK:   -3.52 KCAL/MOL
REMARK 922        TOTAL FREE ENERGY PREDICTED BY IDOCK:   -4.57 KCAL/MOL
REMARK 923 INTER-LIGAND FREE ENERGY PREDICTED BY IDOCK:   -4.35 KCAL/MOL
REMARK 924 INTRA-LIGAND FREE ENERGY PREDICTED BY IDOCK:   -0.23 KCAL/MOL
REMARK 927      BINDING AFFINITY PREDICTED BY RF-SCORE:    0.00 PKD
ROOT
HETATM    1  C   UNL     1     -10.349  19.568  65.985  1.00  0.00    -0.511 C  
HETATM    2  C   UNL     1     -10.748  18.635  67.104  1.00  0.00    -0.377 C  
HETATM    3  O   UNL     1     -11.160  20.024  65.177  1.00  0.00    -0.289 OA 
HETATM    4  F   UNL     1     -10.303  19.069  68.313  1.00  0.00    -0.384 F  
ENDROOT
BRANCH   2   5
HETATM    5  C   UNL     1     -10.282  17.193  66.873  1.00  0.00    -0.315 C  
HETATM    6  O   UNL     1      -9.179  17.131  65.942  1.00  0.00    -0.506 OA 
HETATM    7  H   UNL     1      -8.890  16.238  65.799  1.00  0.00     0.000 HD 
BRANCH   5   8
HETATM    8  C   UNL     1      -9.839  16.387  68.115  1.00  0.00    -0.238 C  
HETATM    9  O   UNL     1      -8.646  15.658  67.718  1.00  0.00    -0.159 OA 
HETATM   10  H   UNL     1      -8.373  15.162  68.481  1.00  0.00     0.000 HD 
BRANCH   8  11
HETATM   11  C   UNL     1     -10.850  15.391  68.727  1.00  0.00    -0.252 C  
HETATM   12  H   UNL     1     -12.437  14.423  68.093  1.00  0.00     0.000 HD 
HETATM   13  O   UNL     1     -11.816  15.035  67.716  1.00  0.00    -0.336 OA 
BRANCH  11  14
HETATM   14  C   UNL     1     -11.625  15.903  69.951  1.00  0.00    -0.336 C  
HETATM   15  O   UNL     1     -12.948  15.367  69.995  1.00  0.00    -0.646 OA 
HETATM   16  H   UNL     1     -13.426  15.684  70.752  1.00  0.00     0.000 HD 
ENDBRANCH  11  14
ENDBRANCH   8  11
ENDBRANCH   5   8
ENDBRANCH   2   5
TORSDOF 4
ENDMDL
MODEL      138
REMARK 921   NORMALIZED FREE ENERGY PREDICTED BY IDOCK:   -3.51 KCAL/MOL
REMARK 922        TOTAL FREE ENERGY PREDICTED BY IDOCK:   -4.56 KCAL/MOL
REMARK 923 INTER-LIGAND FREE ENERGY PREDICTED BY IDOCK:   -4.03 KCAL/MOL
REMARK 924 INTRA-LIGAND FREE ENERGY PREDICTED BY IDOCK:   -0.53 KCAL/MOL
REMARK 927      BINDING AFFINITY PREDICTED BY RF-SCORE:    0.00 PKD
ROOT
HETATM    1  C   UNL     1     -10.884   9.650  70.870  1.00  0.00    -0.339 C  
HETATM    2  C   UNL     1     -11.633   9.940  69.591  1.00  0.00    -0.039 C  
HETATM    3  O   UNL     1     -11.418   9.128  71.851  1.00  0.00    -0.360 OA 
HETATM    4  F   UNL     1     -10.999   9.430  68.502  1.00  0.00    -0.238 F  
ENDROOT
BRANCH   2   5
HETATM    5  C   UNL     1     -11.895  11.436  69.379  1.00  0.00    -0.351 C  
HETATM    6  O   UNL     1     -11.780  12.178  70.613  1.00  0.00    -0.474 OA 
HETATM    7  H   UNL     1     -11.942  13.105  70.482  1.00  0.00     0.000 HD 
BRANCH   5   8
HETATM    8  C   UNL     1     -11.002  12.171  68.354  1.00  0.00    -0.235 C  
HETATM    9  O   UNL     1     -10.053  12.951  69.131  1.00  0.00    -0.414 OA 
HETATM   10  H   UNL     1      -9.504  13.403  68.501  1.00  0.00     0.000 HD 
BRANCH   8  11
HETATM   11  C   UNL     1     -11.692  13.101  67.331  1.00  0.00    -0.370 C  
HETATM   12  H   UNL     1     -11.622  13.355  65.385  1.00  0.00     0.000 HD 
HETATM   13  O   UNL     1     -11.198  12.784  66.014  1.00  0.00    -0.281 OA 
BRANCH  11  14
HETATM   14  C   UNL     1     -11.480  14.606  67.558  1.00  0.00    -0.361 C  
HETATM   15  O   UNL     1     -12.197  15.068  68.704  1.00  0.00    -0.570 OA 
HETATM   16  H   UNL     1     -12.065  15.999  68.844  1.00  0.00     0.000 HD 
ENDBRANCH  11  14
ENDBRANCH   8  11
ENDBRANCH   5   8
ENDBRANCH   2   5
TORSDOF 4
ENDMDL
MODEL      139
REMARK 921   NORMALIZED FREE ENERGY PREDICTED BY IDOCK:   -3.50 KCAL/MOL
REMARK 922        TOTAL FREE ENERGY PREDICTED BY IDOCK:   -4.56 KCAL/MOL
REMARK 923 INTER-LIGAND FREE ENERGY PREDICTED BY IDOCK:   -3.97 KCAL/MOL
REMARK 924 INTRA-LIGAND FREE ENERGY PREDICTED BY IDOCK:   -0.59 KCAL/MOL
REMARK 927      BINDING AFFINITY PREDICTED BY RF-SCORE:    0.00 PKD
ROOT
HETATM    1  C   UNL     1      -9.956   5.087  71.688  1.00  0.00    -0.187 C  
HETATM    2  C   UNL     1     -10.228   6.570  71.600  1.00  0.00    -0.193 C  
HETATM    3  O   UNL     1      -9.884   4.363  70.693  1.00  0.00    -0.197 OA 
HETATM    4  F   UNL     1      -9.305   7.299  72.282  1.00  0.00    -0.145 F  
ENDROOT
BRANCH   2   5
HETATM    5  C   UNL     1     -11.635   6.948  72.077  1.00  0.00    -0.285 C  
HETATM    6  O   UNL     1     -11.623   7.441  73.434  1.00  0.00    -0.580 OA 
HETATM    7  H   UNL     1     -12.495   7.675  73.731  1.00  0.00     0.000 HD 
BRANCH   5   8
HETATM    8  C   UNL     1     -12.404   8.000  71.246  1.00  0.00    -0.271 C  
HETATM    9  O   UNL     1     -11.604   8.237  70.056  1.00  0.00    -0.465 OA 
HETATM   10  H   UNL     1     -12.076   8.884  69.545  1.00  0.00     0.000 HD 
BRANCH   8  11
HETATM   11  C   UNL     1     -12.717   9.359  71.914  1.00  0.00    -0.401 C  
HETATM   12  H   UNL     1     -14.137  10.066  73.073  1.00  0.00     0.000 HD 
HETATM   13  O   UNL     1     -13.944   9.231  72.662  1.00  0.00    -0.438 OA 
BRANCH  11  14
HETATM   14  C   UNL     1     -12.880  10.546  70.952  1.00  0.00    -0.394 C  
HETATM   15  O   UNL     1     -11.617  11.119  70.611  1.00  0.00    -0.412 OA 
HETATM   16  H   UNL     1     -11.718  11.853  70.016  1.00  0.00     0.000 HD 
ENDBRANCH  11  14
ENDBRANCH   8  11
ENDBRANCH   5   8
ENDBRANCH   2   5
TORSDOF 4
ENDMDL
MODEL      140
REMARK 921   NORMALIZED FREE ENERGY PREDICTED BY IDOCK:   -3.48 KCAL/MOL
REMARK 922        TOTAL FREE ENERGY PREDICTED BY IDOCK:   -4.53 KCAL/MOL
REMARK 923 INTER-LIGAND FREE ENERGY PREDICTED BY IDOCK:   -4.22 KCAL/MOL
REMARK 924 INTRA-LIGAND FREE ENERGY PREDICTED BY IDOCK:   -0.32 KCAL/MOL
REMARK 927      BINDING AFFINITY PREDICTED BY RF-SCORE:    0.00 PKD
ROOT
HETATM    1  C   UNL     1     -11.963  11.885  70.277  1.00  0.00    -0.330 C  
HETATM    2  C   UNL     1     -13.034  11.122  71.020  1.00  0.00    -0.245 C  
HETATM    3  O   UNL     1     -11.952  11.993  69.050  1.00  0.00    -0.307 OA 
HETATM    4  F   UNL     1     -13.598  11.866  72.008  1.00  0.00    -0.492 F  
ENDROOT
BRANCH   2   5
HETATM    5  C   UNL     1     -12.528   9.797  71.601  1.00  0.00    -0.410 C  
HETATM    6  O   UNL     1     -13.470   8.724  71.383  1.00  0.00    -0.454 OA 
HETATM    7  H   UNL     1     -13.157   7.903  71.744  1.00  0.00     0.000 HD 
BRANCH   5   8
HETATM    8  C   UNL     1     -11.164   9.277  71.091  1.00  0.00    -0.343 C  
HETATM    9  O   UNL     1     -11.372   8.892  69.705  1.00  0.00    -0.438 OA 
HETATM   10  H   UNL     1     -10.534   8.573  69.392  1.00  0.00     0.000 HD 
BRANCH   8  11
HETATM   11  C   UNL     1     -10.514   8.094  71.845  1.00  0.00    -0.248 C  
HETATM   12  H   UNL     1     -10.968   7.002  73.413  1.00  0.00     0.000 HD 
HETATM   13  O   UNL     1     -11.367   7.729  72.950  1.00  0.00    -0.387 OA 
BRANCH  11  14
HETATM   14  C   UNL     1      -9.110   8.361  72.409  1.00  0.00    -0.256 C  
HETATM   15  O   UNL     1      -8.401   9.314  71.616  1.00  0.00    -0.306 OA 
HETATM   16  H   UNL     1      -7.533   9.479  71.965  1.00  0.00     0.000 HD 
ENDBRANCH  11  14
ENDBRANCH   8  11
ENDBRANCH   5   8
ENDBRANCH   2   5
TORSDOF 4
ENDMDL
MODEL      141
REMARK 921   NORMALIZED FREE ENERGY PREDICTED BY IDOCK:   -3.47 KCAL/MOL
REMARK 922        TOTAL FREE ENERGY PREDICTED BY IDOCK:   -4.52 KCAL/MOL
REMARK 923 INTER-LIGAND FREE ENERGY PREDICTED BY IDOCK:   -3.90 KCAL/MOL
REMARK 924 INTRA-LIGAND FREE ENERGY PREDICTED BY IDOCK:   -0.61 KCAL/MOL
REMARK 927      BINDING AFFINITY PREDICTED BY RF-SCORE:    0.00 PKD
ROOT
HETATM    1  C   UNL     1     -11.026  14.483  64.949  1.00  0.00    -0.410 C  
HETATM    2  C   UNL     1     -10.622  15.083  66.275  1.00  0.00    -0.307 C  
HETATM    3  O   UNL     1     -10.386  13.582  64.403  1.00  0.00    -0.433 OA 
HETATM    4  F   UNL     1     -11.646  15.078  67.170  1.00  0.00    -0.347 F  
ENDROOT
BRANCH   2   5
HETATM    5  C   UNL     1     -10.064  16.504  66.142  1.00  0.00    -0.348 C  
HETATM    6  O   UNL     1     -10.711  17.420  67.052  1.00  0.00    -0.279 OA 
HETATM    7  H   UNL     1     -10.365  18.301  66.970  1.00  0.00     0.000 HD 
BRANCH   5   8
HETATM    8  C   UNL     1      -8.545  16.688  66.359  1.00  0.00    -0.310 C  
HETATM    9  O   UNL     1      -8.233  16.029  67.616  1.00  0.00    -0.143 OA 
HETATM   10  H   UNL     1      -7.300  16.143  67.750  1.00  0.00     0.000 HD 
BRANCH   8  11
HETATM   11  C   UNL     1      -7.991  18.131  66.403  1.00  0.00    -0.266 C  
HETATM   12  H   UNL     1      -6.570  19.125  65.481  1.00  0.00     0.000 HD 
HETATM   13  O   UNL     1      -6.910  18.238  65.454  1.00  0.00    -0.496 OA 
BRANCH  11  14
HETATM   14  C   UNL     1      -7.461  18.595  67.768  1.00  0.00    -0.227 C  
HETATM   15  O   UNL     1      -8.521  18.766  68.710  1.00  0.00    -0.337 OA 
HETATM   16  H   UNL     1      -8.193  19.052  69.555  1.00  0.00     0.000 HD 
ENDBRANCH  11  14
ENDBRANCH   8  11
ENDBRANCH   5   8
ENDBRANCH   2   5
TORSDOF 4
ENDMDL
MODEL      142
REMARK 921   NORMALIZED FREE ENERGY PREDICTED BY IDOCK:   -3.47 KCAL/MOL
REMARK 922        TOTAL FREE ENERGY PREDICTED BY IDOCK:   -4.51 KCAL/MOL
REMARK 923 INTER-LIGAND FREE ENERGY PREDICTED BY IDOCK:   -4.17 KCAL/MOL
REMARK 924 INTRA-LIGAND FREE ENERGY PREDICTED BY IDOCK:   -0.34 KCAL/MOL
REMARK 927      BINDING AFFINITY PREDICTED BY RF-SCORE:    0.00 PKD
ROOT
HETATM    1  C   UNL     1     -12.136  13.456  63.730  1.00  0.00    -0.456 C  
HETATM    2  C   UNL     1     -12.221  13.582  65.232  1.00  0.00    -0.441 C  
HETATM    3  O   UNL     1     -11.860  12.396  63.165  1.00  0.00    -0.410 OA 
HETATM    4  F   UNL     1     -13.396  14.138  65.632  1.00  0.00    -0.541 F  
ENDROOT
BRANCH   2   5
HETATM    5  C   UNL     1     -11.051  14.369  65.833  1.00  0.00    -0.319 C  
HETATM    6  O   UNL     1     -11.462  15.144  66.980  1.00  0.00    -0.319 OA 
HETATM    7  H   UNL     1     -10.736  15.632  67.352  1.00  0.00     0.000 HD 
BRANCH   5   8
HETATM    8  C   UNL     1      -9.814  13.560  66.284  1.00  0.00    -0.299 C  
HETATM    9  O   UNL     1      -9.646  12.499  65.305  1.00  0.00    -0.449 OA 
HETATM   10  H   UNL     1      -8.886  12.002  65.582  1.00  0.00     0.000 HD 
BRANCH   8  11
HETATM   11  C   UNL     1      -9.837  12.934  67.697  1.00  0.00    -0.211 C  
HETATM   12  H   UNL     1      -9.314  13.506  69.501  1.00  0.00     0.000 HD 
HETATM   13  O   UNL     1      -9.300  13.891  68.633  1.00  0.00    -0.187 OA 
BRANCH  11  14
HETATM   14  C   UNL     1      -9.039  11.630  67.856  1.00  0.00    -0.171 C  
HETATM   15  O   UNL     1      -8.306  11.611  69.081  1.00  0.00    -0.369 OA 
HETATM   16  H   UNL     1      -7.813  10.804  69.179  1.00  0.00     0.000 HD 
ENDBRANCH  11  14
ENDBRANCH   8  11
ENDBRANCH   5   8
ENDBRANCH   2   5
TORSDOF 4
ENDMDL
MODEL      143
REMARK 921   NORMALIZED FREE ENERGY PREDICTED BY IDOCK:   -3.46 KCAL/MOL
REMARK 922        TOTAL FREE ENERGY PREDICTED BY IDOCK:   -4.51 KCAL/MOL
REMARK 923 INTER-LIGAND FREE ENERGY PREDICTED BY IDOCK:   -4.16 KCAL/MOL
REMARK 924 INTRA-LIGAND FREE ENERGY PREDICTED BY IDOCK:   -0.35 KCAL/MOL
REMARK 927      BINDING AFFINITY PREDICTED BY RF-SCORE:    0.00 PKD
ROOT
HETATM    1  C   UNL     1     -10.875  12.615  65.862  1.00  0.00    -0.270 C  
HETATM    2  C   UNL     1     -11.872  12.881  66.965  1.00  0.00    -0.374 C  
HETATM    3  O   UNL     1     -10.840  11.554  65.236  1.00  0.00    -0.287 OA 
HETATM    4  F   UNL     1     -12.546  14.046  66.773  1.00  0.00    -0.449 F  
ENDROOT
BRANCH   2   5
HETATM    5  C   UNL     1     -11.235  12.879  68.358  1.00  0.00    -0.270 C  
HETATM    6  O   UNL     1     -11.245  14.196  68.951  1.00  0.00    -0.242 OA 
HETATM    7  H   UNL     1     -10.850  14.196  69.815  1.00  0.00     0.000 HD 
BRANCH   5   8
HETATM    8  C   UNL     1     -11.848  11.931  69.414  1.00  0.00    -0.327 C  
HETATM    9  O   UNL     1     -11.987  12.717  70.629  1.00  0.00    -0.510 OA 
HETATM   10  H   UNL     1     -12.364  12.134  71.278  1.00  0.00     0.000 HD 
BRANCH   8  11
HETATM   11  C   UNL     1     -11.084  10.629  69.747  1.00  0.00    -0.295 C  
HETATM   12  H   UNL     1     -10.423   9.084  68.731  1.00  0.00     0.000 HD 
HETATM   13  O   UNL     1     -10.893   9.884  68.527  1.00  0.00    -0.229 OA 
BRANCH  11  14
HETATM   14  C   UNL     1     -11.771   9.699  70.759  1.00  0.00    -0.314 C  
HETATM   15  O   UNL     1     -13.194   9.783  70.663  1.00  0.00    -0.590 OA 
HETATM   16  H   UNL     1     -13.618   9.208  71.289  1.00  0.00     0.000 HD 
ENDBRANCH  11  14
ENDBRANCH   8  11
ENDBRANCH   5   8
ENDBRANCH   2   5
TORSDOF 4
ENDMDL
MODEL      144
REMARK 921   NORMALIZED FREE ENERGY PREDICTED BY IDOCK:   -3.45 KCAL/MOL
REMARK 922        TOTAL FREE ENERGY PREDICTED BY IDOCK:   -4.49 KCAL/MOL
REMARK 923 INTER-LIGAND FREE ENERGY PREDICTED BY IDOCK:   -4.16 KCAL/MOL
REMARK 924 INTRA-LIGAND FREE ENERGY PREDICTED BY IDOCK:   -0.33 KCAL/MOL
REMARK 927      BINDING AFFINITY PREDICTED BY RF-SCORE:    0.00 PKD
ROOT
HETATM    1  C   UNL     1     -10.104  19.895  66.563  1.00  0.00    -0.488 C  
HETATM    2  C   UNL     1     -10.568  19.276  67.860  1.00  0.00    -0.373 C  
HETATM    3  O   UNL     1     -10.845  20.033  65.588  1.00  0.00    -0.387 OA 
HETATM    4  F   UNL     1     -10.290  20.068  68.931  1.00  0.00    -0.527 F  
ENDROOT
BRANCH   2   5
HETATM    5  C   UNL     1      -9.989  17.876  68.094  1.00  0.00    -0.350 C  
HETATM    6  O   UNL     1     -11.029  16.878  68.190  1.00  0.00    -0.365 OA 
HETATM    7  H   UNL     1     -10.671  16.010  68.335  1.00  0.00     0.000 HD 
BRANCH   5   8
HETATM    8  C   UNL     1      -8.983  17.344  67.048  1.00  0.00    -0.242 C  
HETATM    9  O   UNL     1      -9.422  16.000  66.714  1.00  0.00    -0.214 OA 
HETATM   10  H   UNL     1      -8.803  15.673  66.071  1.00  0.00     0.000 HD 
BRANCH   8  11
HETATM   11  C   UNL     1      -7.489  17.297  67.442  1.00  0.00    -0.170 C  
HETATM   12  H   UNL     1      -6.337  18.247  68.718  1.00  0.00     0.000 HD 
HETATM   13  O   UNL     1      -7.255  18.276  68.476  1.00  0.00    -0.263 OA 
BRANCH  11  14
HETATM   14  C   UNL     1      -6.496  17.575  66.304  1.00  0.00    -0.249 C  
HETATM   15  O   UNL     1      -7.082  18.388  65.285  1.00  0.00    -0.530 OA 
HETATM   16  H   UNL     1      -6.467  18.559  64.581  1.00  0.00     0.000 HD 
ENDBRANCH  11  14
ENDBRANCH   8  11
ENDBRANCH   5   8
ENDBRANCH   2   5
TORSDOF 4
ENDMDL
MODEL      145
REMARK 921   NORMALIZED FREE ENERGY PREDICTED BY IDOCK:   -3.44 KCAL/MOL
REMARK 922        TOTAL FREE ENERGY PREDICTED BY IDOCK:   -4.48 KCAL/MOL
REMARK 923 INTER-LIGAND FREE ENERGY PREDICTED BY IDOCK:   -4.14 KCAL/MOL
REMARK 924 INTRA-LIGAND FREE ENERGY PREDICTED BY IDOCK:   -0.35 KCAL/MOL
REMARK 927      BINDING AFFINITY PREDICTED BY RF-SCORE:    0.00 PKD
ROOT
HETATM    1  C   UNL     1     -11.143  10.075  68.458  1.00  0.00    -0.167 C  
HETATM    2  C   UNL     1     -10.820  10.123  69.933  1.00  0.00    -0.299 C  
HETATM    3  O   UNL     1     -11.928  10.859  67.922  1.00  0.00    -0.585 OA 
HETATM    4  F   UNL     1      -9.480  10.166  70.160  1.00  0.00    -0.246 F  
ENDROOT
BRANCH   2   5
HETATM    5  C   UNL     1     -11.436   8.959  70.717  1.00  0.00    -0.275 C  
HETATM    6  O   UNL     1     -12.874   8.928  70.583  1.00  0.00    -0.461 OA 
HETATM    7  H   UNL     1     -13.256   8.206  71.069  1.00  0.00     0.000 HD 
BRANCH   5   8
HETATM    8  C   UNL     1     -10.944   7.536  70.371  1.00  0.00    -0.251 C  
HETATM    9  O   UNL     1     -12.101   6.822  69.856  1.00  0.00    -0.656 OA 
HETATM   10  H   UNL     1     -11.798   5.947  69.643  1.00  0.00     0.000 HD 
BRANCH   8  11
HETATM   11  C   UNL     1     -10.305   6.698  71.502  1.00  0.00    -0.209 C  
HETATM   12  H   UNL     1      -9.885   4.800  71.786  1.00  0.00     0.000 HD 
HETATM   13  O   UNL     1     -10.277   5.315  71.091  1.00  0.00    -0.205 OA 
BRANCH  11  14
HETATM   14  C   UNL     1     -11.021   6.765  72.860  1.00  0.00    -0.263 C  
HETATM   15  O   UNL     1     -12.029   5.760  72.970  1.00  0.00    -0.519 OA 
HETATM   16  H   UNL     1     -12.472   5.802  73.810  1.00  0.00     0.000 HD 
ENDBRANCH  11  14
ENDBRANCH   8  11
ENDBRANCH   5   8
ENDBRANCH   2   5
TORSDOF 4
ENDMDL
MODEL      146
REMARK 921   NORMALIZED FREE ENERGY PREDICTED BY IDOCK:   -3.44 KCAL/MOL
REMARK 922        TOTAL FREE ENERGY PREDICTED BY IDOCK:   -4.48 KCAL/MOL
REMARK 923 INTER-LIGAND FREE ENERGY PREDICTED BY IDOCK:   -4.14 KCAL/MOL
REMARK 924 INTRA-LIGAND FREE ENERGY PREDICTED BY IDOCK:   -0.35 KCAL/MOL
REMARK 927      BINDING AFFINITY PREDICTED BY RF-SCORE:    0.00 PKD
ROOT
HETATM    1  C   UNL     1     -10.760  18.366  67.458  1.00  0.00    -0.365 C  
HETATM    2  C   UNL     1     -10.140  17.917  66.156  1.00  0.00    -0.320 C  
HETATM    3  O   UNL     1     -10.286  19.275  68.143  1.00  0.00    -0.396 OA 
HETATM    4  F   UNL     1     -11.043  17.900  65.140  1.00  0.00    -0.376 F  
ENDROOT
BRANCH   2   5
HETATM    5  C   UNL     1      -9.459  16.548  66.261  1.00  0.00    -0.310 C  
HETATM    6  O   UNL     1      -8.979  16.291  67.599  1.00  0.00    -0.191 OA 
HETATM    7  H   UNL     1      -8.557  15.442  67.664  1.00  0.00     0.000 HD 
BRANCH   5   8
HETATM    8  C   UNL     1     -10.296  15.311  65.862  1.00  0.00    -0.329 C  
HETATM    9  O   UNL     1     -10.557  15.443  64.438  1.00  0.00    -0.581 OA 
HETATM   10  H   UNL     1     -11.071  14.682  64.193  1.00  0.00     0.000 HD 
BRANCH   8  11
HETATM   11  C   UNL     1     -11.637  15.080  66.595  1.00  0.00    -0.198 C  
HETATM   12  H   UNL     1     -12.188  14.707  68.443  1.00  0.00     0.000 HD 
HETATM   13  O   UNL     1     -11.364  14.849  67.992  1.00  0.00    -0.297 OA 
BRANCH  11  14
HETATM   14  C   UNL     1     -12.475  13.898  66.083  1.00  0.00    -0.436 C  
HETATM   15  O   UNL     1     -11.671  12.957  65.369  1.00  0.00    -0.337 OA 
HETATM   16  H   UNL     1     -12.190  12.226  65.053  1.00  0.00     0.000 HD 
ENDBRANCH  11  14
ENDBRANCH   8  11
ENDBRANCH   5   8
ENDBRANCH   2   5
TORSDOF 4
ENDMDL
MODEL      147
REMARK 921   NORMALIZED FREE ENERGY PREDICTED BY IDOCK:   -3.44 KCAL/MOL
REMARK 922        TOTAL FREE ENERGY PREDICTED BY IDOCK:   -4.48 KCAL/MOL
REMARK 923 INTER-LIGAND FREE ENERGY PREDICTED BY IDOCK:   -4.12 KCAL/MOL
REMARK 924 INTRA-LIGAND FREE ENERGY PREDICTED BY IDOCK:   -0.35 KCAL/MOL
REMARK 927      BINDING AFFINITY PREDICTED BY RF-SCORE:    0.00 PKD
ROOT
HETATM    1  C   UNL     1     -12.138  12.911  65.830  1.00  0.00    -0.457 C  
HETATM    2  C   UNL     1     -10.867  13.209  66.590  1.00  0.00    -0.280 C  
HETATM    3  O   UNL     1     -12.868  13.796  65.379  1.00  0.00    -0.650 OA 
HETATM    4  F   UNL     1      -9.799  12.541  66.078  1.00  0.00    -0.241 F  
ENDROOT
BRANCH   2   5
HETATM    5  C   UNL     1     -10.986  12.915  68.089  1.00  0.00    -0.248 C  
HETATM    6  O   UNL     1      -9.719  12.519  68.658  1.00  0.00    -0.367 OA 
HETATM    7  H   UNL     1      -9.793  12.336  69.587  1.00  0.00     0.000 HD 
BRANCH   5   8
HETATM    8  C   UNL     1     -11.523  14.050  68.991  1.00  0.00    -0.296 C  
HETATM    9  O   UNL     1     -10.545  15.122  68.915  1.00  0.00    -0.226 OA 
HETATM   10  H   UNL     1     -10.874  15.820  69.469  1.00  0.00     0.000 HD 
BRANCH   8  11
HETATM   11  C   UNL     1     -11.791  13.725  70.478  1.00  0.00    -0.223 C  
HETATM   12  H   UNL     1     -12.914  12.450  71.463  1.00  0.00     0.000 HD 
HETATM   13  O   UNL     1     -12.749  12.649  70.549  1.00  0.00    -0.134 OA 
BRANCH  11  14
HETATM   14  C   UNL     1     -12.333  14.889  71.322  1.00  0.00    -0.322 C  
HETATM   15  O   UNL     1     -13.119  15.784  70.533  1.00  0.00    -0.681 OA 
HETATM   16  H   UNL     1     -13.454  16.504  71.055  1.00  0.00     0.000 HD 
ENDBRANCH  11  14
ENDBRANCH   8  11
ENDBRANCH   5   8
ENDBRANCH   2   5
TORSDOF 4
ENDMDL
MODEL      148
REMARK 921   NORMALIZED FREE ENERGY PREDICTED BY IDOCK:   -3.44 KCAL/MOL
REMARK 922        TOTAL FREE ENERGY PREDICTED BY IDOCK:   -4.48 KCAL/MOL
REMARK 923 INTER-LIGAND FREE ENERGY PREDICTED BY IDOCK:   -4.07 KCAL/MOL
REMARK 924 INTRA-LIGAND FREE ENERGY PREDICTED BY IDOCK:   -0.41 KCAL/MOL
REMARK 927      BINDING AFFINITY PREDICTED BY RF-SCORE:    0.00 PKD
ROOT
HETATM    1  C   UNL     1      -9.788  16.059  65.967  1.00  0.00    -0.337 C  
HETATM    2  C   UNL     1     -10.245  16.241  67.395  1.00  0.00    -0.275 C  
HETATM    3  O   UNL     1     -10.348  16.606  65.014  1.00  0.00    -0.623 OA 
HETATM    4  F   UNL     1      -9.226  16.621  68.211  1.00  0.00    -0.198 F  
ENDROOT
BRANCH   2   5
HETATM    5  C   UNL     1     -10.923  14.991  67.968  1.00  0.00    -0.284 C  
HETATM    6  O   UNL     1     -12.021  15.333  68.842  1.00  0.00    -0.469 OA 
HETATM    7  H   UNL     1     -12.441  14.559  69.198  1.00  0.00     0.000 HD 
BRANCH   5   8
HETATM    8  C   UNL     1     -11.485  13.967  66.957  1.00  0.00    -0.346 C  
HETATM    9  O   UNL     1     -12.796  14.461  66.568  1.00  0.00    -0.420 OA 
HETATM   10  H   UNL     1     -13.141  13.831  65.946  1.00  0.00     0.000 HD 
BRANCH   8  11
HETATM   11  C   UNL     1     -11.624  12.498  67.419  1.00  0.00    -0.370 C  
HETATM   12  H   UNL     1     -12.349  11.578  68.995  1.00  0.00     0.000 HD 
HETATM   13  O   UNL     1     -12.264  12.481  68.711  1.00  0.00    -0.179 OA 
BRANCH  11  14
HETATM   14  C   UNL     1     -10.307  11.716  67.540  1.00  0.00    -0.197 C  
HETATM   15  O   UNL     1      -9.788  11.769  68.870  1.00  0.00    -0.375 OA 
HETATM   16  H   UNL     1      -8.973  11.285  68.945  1.00  0.00     0.000 HD 
ENDBRANCH  11  14
ENDBRANCH   8  11
ENDBRANCH   5   8
ENDBRANCH   2   5
TORSDOF 4
ENDMDL
MODEL      149
REMARK 921   NORMALIZED FREE ENERGY PREDICTED BY IDOCK:   -3.42 KCAL/MOL
REMARK 922        TOTAL FREE ENERGY PREDICTED BY IDOCK:   -4.46 KCAL/MOL
REMARK 923 INTER-LIGAND FREE ENERGY PREDICTED BY IDOCK:   -4.13 KCAL/MOL
REMARK 924 INTRA-LIGAND FREE ENERGY PREDICTED BY IDOCK:   -0.33 KCAL/MOL
REMARK 927      BINDING AFFINITY PREDICTED BY RF-SCORE:    0.00 PKD
ROOT
HETATM    1  C   UNL     1     -12.810  10.755  71.010  1.00  0.00    -0.385 C  
HETATM    2  C   UNL     1     -11.317  10.565  70.885  1.00  0.00    -0.115 C  
HETATM    3  O   UNL     1     -13.336  11.257  72.005  1.00  0.00    -0.462 OA 
HETATM    4  F   UNL     1     -10.831  11.093  69.730  1.00  0.00    -0.273 F  
ENDROOT
BRANCH   2   5
HETATM    5  C   UNL     1     -10.891   9.097  70.997  1.00  0.00    -0.291 C  
HETATM    6  O   UNL     1      -9.453   8.957  70.995  1.00  0.00    -0.206 OA 
HETATM    7  H   UNL     1      -9.189   8.047  71.064  1.00  0.00     0.000 HD 
BRANCH   5   8
HETATM    8  C   UNL     1     -11.395   8.307  72.226  1.00  0.00    -0.378 C  
HETATM    9  O   UNL     1     -10.207   7.845  72.923  1.00  0.00    -0.283 OA 
HETATM   10  H   UNL     1     -10.516   7.359  73.679  1.00  0.00     0.000 HD 
BRANCH   8  11
HETATM   11  C   UNL     1     -12.327   7.100  71.976  1.00  0.00    -0.263 C  
HETATM   12  H   UNL     1     -12.382   5.599  70.710  1.00  0.00     0.000 HD 
HETATM   13  O   UNL     1     -11.809   6.341  70.864  1.00  0.00    -0.308 OA 
BRANCH  11  14
HETATM   14  C   UNL     1     -13.790   7.448  71.661  1.00  0.00    -0.382 C  
HETATM   15  O   UNL     1     -14.379   8.225  72.705  1.00  0.00    -0.782 OA 
HETATM   16  H   UNL     1     -15.284   8.440  72.510  1.00  0.00     0.000 HD 
ENDBRANCH  11  14
ENDBRANCH   8  11
ENDBRANCH   5   8
ENDBRANCH   2   5
TORSDOF 4
ENDMDL
MODEL      150
REMARK 921   NORMALIZED FREE ENERGY PREDICTED BY IDOCK:   -3.42 KCAL/MOL
REMARK 922        TOTAL FREE ENERGY PREDICTED BY IDOCK:   -4.45 KCAL/MOL
REMARK 923 INTER-LIGAND FREE ENERGY PREDICTED BY IDOCK:   -3.91 KCAL/MOL
REMARK 924 INTRA-LIGAND FREE ENERGY PREDICTED BY IDOCK:   -0.54 KCAL/MOL
REMARK 927      BINDING AFFINITY PREDICTED BY RF-SCORE:    0.00 PKD
ROOT
HETATM    1  C   UNL     1     -13.825   8.778  71.701  1.00  0.00    -0.397 C  
HETATM    2  C   UNL     1     -12.369   8.416  71.522  1.00  0.00    -0.309 C  
HETATM    3  O   UNL     1     -14.355   8.878  72.809  1.00  0.00    -0.600 OA 
HETATM    4  F   UNL     1     -11.718   9.305  70.725  1.00  0.00    -0.292 F  
ENDROOT
BRANCH   2   5
HETATM    5  C   UNL     1     -12.169   6.997  70.979  1.00  0.00    -0.374 C  
HETATM    6  O   UNL     1     -11.425   6.999  69.741  1.00  0.00    -0.484 OA 
HETATM    7  H   UNL     1     -11.301   6.119  69.405  1.00  0.00     0.000 HD 
BRANCH   5   8
HETATM    8  C   UNL     1     -11.460   5.981  71.903  1.00  0.00    -0.269 C  
HETATM    9  O   UNL     1     -11.365   6.618  73.205  1.00  0.00    -0.484 OA 
HETATM   10  H   UNL     1     -10.929   5.994  73.773  1.00  0.00     0.000 HD 
BRANCH   8  11
HETATM   11  C   UNL     1     -10.056   5.484  71.487  1.00  0.00    -0.205 C  
HETATM   12  H   UNL     1      -9.327   4.354  70.057  1.00  0.00     0.000 HD 
HETATM   13  O   UNL     1     -10.190   4.659  70.312  1.00  0.00    -0.233 OA 
BRANCH  11  14
HETATM   14  C   UNL     1      -9.303   4.667  72.548  1.00  0.00    -0.131 C  
HETATM   15  O   UNL     1     -10.188   4.180  73.558  1.00  0.00    -0.135 OA 
HETATM   16  H   UNL     1      -9.722   3.674  74.214  1.00  0.00     0.000 HD 
ENDBRANCH  11  14
ENDBRANCH   8  11
ENDBRANCH   5   8
ENDBRANCH   2   5
TORSDOF 4
ENDMDL
MODEL      151
REMARK 921   NORMALIZED FREE ENERGY PREDICTED BY IDOCK:   -3.42 KCAL/MOL
REMARK 922        TOTAL FREE ENERGY PREDICTED BY IDOCK:   -4.45 KCAL/MOL
REMARK 923 INTER-LIGAND FREE ENERGY PREDICTED BY IDOCK:   -4.48 KCAL/MOL
REMARK 924 INTRA-LIGAND FREE ENERGY PREDICTED BY IDOCK:    0.03 KCAL/MOL
REMARK 927      BINDING AFFINITY PREDICTED BY RF-SCORE:    0.00 PKD
ROOT
HETATM    1  C   UNL     1      -9.951  19.251  67.325  1.00  0.00    -0.363 C  
HETATM    2  C   UNL     1      -8.687  18.449  67.528  1.00  0.00    -0.258 C  
HETATM    3  O   UNL     1     -10.359  20.070  68.150  1.00  0.00    -0.421 OA 
HETATM    4  F   UNL     1      -7.844  18.549  66.466  1.00  0.00    -0.229 F  
ENDROOT
BRANCH   2   5
HETATM    5  C   UNL     1      -8.959  16.972  67.830  1.00  0.00    -0.228 C  
HETATM    6  O   UNL     1      -9.974  16.813  68.845  1.00  0.00    -0.245 OA 
HETATM    7  H   UNL     1     -10.144  15.897  69.033  1.00  0.00     0.000 HD 
BRANCH   5   8
HETATM    8  C   UNL     1      -9.395  16.078  66.647  1.00  0.00    -0.243 C  
HETATM    9  O   UNL     1      -8.727  16.611  65.471  1.00  0.00    -0.295 OA 
HETATM   10  H   UNL     1      -8.995  16.061  64.744  1.00  0.00     0.000 HD 
BRANCH   8  11
HETATM   11  C   UNL     1     -10.907  15.959  66.350  1.00  0.00    -0.193 C  
HETATM   12  H   UNL     1     -12.386  14.835  66.989  1.00  0.00     0.000 HD 
HETATM   13  O   UNL     1     -11.456  14.908  67.171  1.00  0.00    -0.352 OA 
BRANCH  11  14
HETATM   14  C   UNL     1     -11.272  15.648  64.890  1.00  0.00    -0.369 C  
HETATM   15  O   UNL     1     -11.110  16.795  64.055  1.00  0.00    -1.283 OA 
HETATM   16  H   UNL     1     -11.335  16.602  63.152  1.00  0.00     0.000 HD 
ENDBRANCH  11  14
ENDBRANCH   8  11
ENDBRANCH   5   8
ENDBRANCH   2   5
TORSDOF 4
ENDMDL
MODEL      152
REMARK 921   NORMALIZED FREE ENERGY PREDICTED BY IDOCK:   -3.40 KCAL/MOL
REMARK 922        TOTAL FREE ENERGY PREDICTED BY IDOCK:   -4.44 KCAL/MOL
REMARK 923 INTER-LIGAND FREE ENERGY PREDICTED BY IDOCK:   -4.10 KCAL/MOL
REMARK 924 INTRA-LIGAND FREE ENERGY PREDICTED BY IDOCK:   -0.34 KCAL/MOL
REMARK 927      BINDING AFFINITY PREDICTED BY RF-SCORE:    0.00 PKD
ROOT
HETATM    1  C   UNL     1      -8.230  17.778  68.224  1.00  0.00    -0.285 C  
HETATM    2  C   UNL     1      -8.247  16.987  66.937  1.00  0.00    -0.213 C  
HETATM    3  O   UNL     1      -7.747  17.339  69.269  1.00  0.00    -0.132 OA 
HETATM    4  F   UNL     1      -7.722  17.690  65.899  1.00  0.00    -0.301 F  
ENDROOT
BRANCH   2   5
HETATM    5  C   UNL     1      -9.647  16.488  66.563  1.00  0.00    -0.271 C  
HETATM    6  O   UNL     1     -10.006  16.866  65.215  1.00  0.00    -0.526 OA 
HETATM    7  H   UNL     1     -10.874  16.557  64.983  1.00  0.00     0.000 HD 
BRANCH   5   8
HETATM    8  C   UNL     1      -9.906  14.968  66.663  1.00  0.00    -0.254 C  
HETATM    9  O   UNL     1      -9.805  14.451  65.308  1.00  0.00    -0.523 OA 
HETATM   10  H   UNL     1      -9.964  13.516  65.370  1.00  0.00     0.000 HD 
BRANCH   8  11
HETATM   11  C   UNL     1     -11.247  14.502  67.275  1.00  0.00    -0.332 C  
HETATM   12  H   UNL     1     -11.801  13.179  68.616  1.00  0.00     0.000 HD 
HETATM   13  O   UNL     1     -10.977  13.465  68.240  1.00  0.00    -0.241 OA 
BRANCH  11  14
HETATM   14  C   UNL     1     -12.274  13.951  66.274  1.00  0.00    -0.461 C  
HETATM   15  O   UNL     1     -12.066  12.560  66.024  1.00  0.00    -0.557 OA 
HETATM   16  H   UNL     1     -12.702  12.219  65.405  1.00  0.00     0.000 HD 
ENDBRANCH  11  14
ENDBRANCH   8  11
ENDBRANCH   5   8
ENDBRANCH   2   5
TORSDOF 4
ENDMDL
MODEL      153
REMARK 921   NORMALIZED FREE ENERGY PREDICTED BY IDOCK:   -3.40 KCAL/MOL
REMARK 922        TOTAL FREE ENERGY PREDICTED BY IDOCK:   -4.43 KCAL/MOL
REMARK 923 INTER-LIGAND FREE ENERGY PREDICTED BY IDOCK:   -3.71 KCAL/MOL
REMARK 924 INTRA-LIGAND FREE ENERGY PREDICTED BY IDOCK:   -0.72 KCAL/MOL
REMARK 927      BINDING AFFINITY PREDICTED BY RF-SCORE:    0.00 PKD
ROOT
HETATM    1  C   UNL     1      -8.705  16.914  66.567  1.00  0.00    -0.269 C  
HETATM    2  C   UNL     1      -9.940  16.091  66.288  1.00  0.00    -0.310 C  
HETATM    3  O   UNL     1      -8.071  17.485  65.678  1.00  0.00    -0.508 OA 
HETATM    4  F   UNL     1     -10.991  16.470  67.063  1.00  0.00    -0.282 F  
ENDROOT
BRANCH   2   5
HETATM    5  C   UNL     1      -9.702  14.585  66.447  1.00  0.00    -0.296 C  
HETATM    6  O   UNL     1      -8.305  14.285  66.658  1.00  0.00    -0.412 OA 
HETATM    7  H   UNL     1      -8.157  13.352  66.757  1.00  0.00     0.000 HD 
BRANCH   5   8
HETATM    8  C   UNL     1     -10.469  13.864  67.578  1.00  0.00    -0.248 C  
HETATM    9  O   UNL     1      -9.758  14.172  68.808  1.00  0.00    -0.289 OA 
HETATM   10  H   UNL     1     -10.230  13.729  69.503  1.00  0.00     0.000 HD 
BRANCH   8  11
HETATM   11  C   UNL     1     -10.639  12.331  67.472  1.00  0.00    -0.218 C  
HETATM   12  H   UNL     1     -12.117  11.058  67.700  1.00  0.00     0.000 HD 
HETATM   13  O   UNL     1     -12.012  12.000  67.765  1.00  0.00    -0.538 OA 
BRANCH  11  14
HETATM   14  C   UNL     1      -9.750  11.501  68.410  1.00  0.00    -0.202 C  
HETATM   15  O   UNL     1      -8.366  11.651  68.088  1.00  0.00    -0.139 OA 
HETATM   16  H   UNL     1      -7.816  11.137  68.668  1.00  0.00     0.000 HD 
ENDBRANCH  11  14
ENDBRANCH   8  11
ENDBRANCH   5   8
ENDBRANCH   2   5
TORSDOF 4
ENDMDL
MODEL      154
REMARK 921   NORMALIZED FREE ENERGY PREDICTED BY IDOCK:   -3.40 KCAL/MOL
REMARK 922        TOTAL FREE ENERGY PREDICTED BY IDOCK:   -4.43 KCAL/MOL
REMARK 923 INTER-LIGAND FREE ENERGY PREDICTED BY IDOCK:   -4.22 KCAL/MOL
REMARK 924 INTRA-LIGAND FREE ENERGY PREDICTED BY IDOCK:   -0.21 KCAL/MOL
REMARK 927      BINDING AFFINITY PREDICTED BY RF-SCORE:    0.00 PKD
ROOT
HETATM    1  C   UNL     1      -8.099  15.696  66.691  1.00  0.00    -0.204 C  
HETATM    2  C   UNL     1      -8.963  14.530  67.109  1.00  0.00    -0.230 C  
HETATM    3  O   UNL     1      -7.850  16.643  67.440  1.00  0.00    -0.154 OA 
HETATM    4  F   UNL     1      -8.349  13.337  66.892  1.00  0.00    -0.183 F  
ENDROOT
BRANCH   2   5
HETATM    5  C   UNL     1     -10.336  14.532  66.427  1.00  0.00    -0.293 C  
HETATM    6  O   UNL     1     -11.111  15.695  66.791  1.00  0.00    -0.284 OA 
HETATM    7  H   UNL     1     -11.962  15.696  66.368  1.00  0.00     0.000 HD 
BRANCH   5   8
HETATM    8  C   UNL     1     -10.358  14.469  64.883  1.00  0.00    -0.371 C  
HETATM    9  O   UNL     1     -10.547  15.836  64.426  1.00  0.00    -0.710 OA 
HETATM   10  H   UNL     1     -10.560  15.798  63.477  1.00  0.00     0.000 HD 
BRANCH   8  11
HETATM   11  C   UNL     1     -11.421  13.569  64.212  1.00  0.00    -0.383 C  
HETATM   12  H   UNL     1     -13.190  13.839  63.405  1.00  0.00     0.000 HD 
HETATM   13  O   UNL     1     -12.538  14.392  63.817  1.00  0.00    -0.829 OA 
BRANCH  11  14
HETATM   14  C   UNL     1     -11.967  12.428  65.084  1.00  0.00    -0.400 C  
HETATM   15  O   UNL     1     -11.201  11.234  64.923  1.00  0.00    -0.176 OA 
HETATM   16  H   UNL     1     -11.539  10.528  65.463  1.00  0.00     0.000 HD 
ENDBRANCH  11  14
ENDBRANCH   8  11
ENDBRANCH   5   8
ENDBRANCH   2   5
TORSDOF 4
ENDMDL
MODEL      155
REMARK 921   NORMALIZED FREE ENERGY PREDICTED BY IDOCK:   -3.39 KCAL/MOL
REMARK 922        TOTAL FREE ENERGY PREDICTED BY IDOCK:   -4.42 KCAL/MOL
REMARK 923 INTER-LIGAND FREE ENERGY PREDICTED BY IDOCK:   -4.14 KCAL/MOL
REMARK 924 INTRA-LIGAND FREE ENERGY PREDICTED BY IDOCK:   -0.27 KCAL/MOL
REMARK 927      BINDING AFFINITY PREDICTED BY RF-SCORE:    0.00 PKD
ROOT
HETATM    1  C   UNL     1     -13.870   9.271  71.611  1.00  0.00    -0.301 C  
HETATM    2  C   UNL     1     -12.680  10.193  71.487  1.00  0.00    -0.436 C  
HETATM    3  O   UNL     1     -14.250   8.816  72.692  1.00  0.00    -0.527 OA 
HETATM    4  F   UNL     1     -12.984  11.328  70.804  1.00  0.00    -0.361 F  
ENDROOT
BRANCH   2   5
HETATM    5  C   UNL     1     -11.466   9.516  70.843  1.00  0.00    -0.334 C  
HETATM    6  O   UNL     1     -10.446  10.475  70.487  1.00  0.00    -0.390 OA 
HETATM    7  H   UNL     1      -9.693  10.055  70.087  1.00  0.00     0.000 HD 
BRANCH   5   8
HETATM    8  C   UNL     1     -10.751   8.417  71.663  1.00  0.00    -0.265 C  
HETATM    9  O   UNL     1      -9.493   8.997  72.103  1.00  0.00    -0.340 OA 
HETATM   10  H   UNL     1      -9.054   8.322  72.607  1.00  0.00     0.000 HD 
BRANCH   8  11
HETATM   11  C   UNL     1     -10.462   7.068  70.966  1.00  0.00    -0.212 C  
HETATM   12  H   UNL     1     -11.085   6.159  69.341  1.00  0.00     0.000 HD 
HETATM   13  O   UNL     1     -11.263   6.988  69.770  1.00  0.00    -0.262 OA 
BRANCH  11  14
HETATM   14  C   UNL     1     -10.751   5.815  71.806  1.00  0.00    -0.249 C  
HETATM   15  O   UNL     1     -11.655   6.098  72.874  1.00  0.00    -0.468 OA 
HETATM   16  H   UNL     1     -11.834   5.323  73.394  1.00  0.00     0.000 HD 
ENDBRANCH  11  14
ENDBRANCH   8  11
ENDBRANCH   5   8
ENDBRANCH   2   5
TORSDOF 4
ENDMDL
MODEL      156
REMARK 921   NORMALIZED FREE ENERGY PREDICTED BY IDOCK:   -3.39 KCAL/MOL
REMARK 922        TOTAL FREE ENERGY PREDICTED BY IDOCK:   -4.42 KCAL/MOL
REMARK 923 INTER-LIGAND FREE ENERGY PREDICTED BY IDOCK:   -4.10 KCAL/MOL
REMARK 924 INTRA-LIGAND FREE ENERGY PREDICTED BY IDOCK:   -0.31 KCAL/MOL
REMARK 927      BINDING AFFINITY PREDICTED BY RF-SCORE:    0.00 PKD
ROOT
HETATM    1  C   UNL     1     -10.621  13.048  64.709  1.00  0.00    -0.362 C  
HETATM    2  C   UNL     1     -11.703  12.521  65.620  1.00  0.00    -0.423 C  
HETATM    3  O   UNL     1     -10.338  12.517  63.633  1.00  0.00    -0.422 OA 
HETATM    4  F   UNL     1     -12.593  13.489  65.968  1.00  0.00    -0.457 F  
ENDROOT
BRANCH   2   5
HETATM    5  C   UNL     1     -11.147  11.857  66.885  1.00  0.00    -0.305 C  
HETATM    6  O   UNL     1     -12.158  11.727  67.908  1.00  0.00    -0.592 OA 
HETATM    7  H   UNL     1     -11.814  11.316  68.692  1.00  0.00     0.000 HD 
BRANCH   5   8
HETATM    8  C   UNL     1     -10.517  10.454  66.727  1.00  0.00    -0.225 C  
HETATM    9  O   UNL     1     -11.056   9.646  67.808  1.00  0.00    -0.489 OA 
HETATM   10  H   UNL     1     -10.669   8.784  67.711  1.00  0.00     0.000 HD 
BRANCH   8  11
HETATM   11  C   UNL     1      -8.975  10.349  66.747  1.00  0.00    -0.140 C  
HETATM   12  H   UNL     1      -7.480  11.595  67.011  1.00  0.00     0.000 HD 
HETATM   13  O   UNL     1      -8.428  11.659  66.998  1.00  0.00    -0.155 OA 
BRANCH  11  14
HETATM   14  C   UNL     1      -8.332   9.814  65.458  1.00  0.00    -0.136 C  
HETATM   15  O   UNL     1      -8.929   8.584  65.047  1.00  0.00    -0.399 OA 
HETATM   16  H   UNL     1      -8.531   8.253  64.250  1.00  0.00     0.000 HD 
ENDBRANCH  11  14
ENDBRANCH   8  11
ENDBRANCH   5   8
ENDBRANCH   2   5
TORSDOF 4
ENDMDL
MODEL      157
REMARK 921   NORMALIZED FREE ENERGY PREDICTED BY IDOCK:   -3.38 KCAL/MOL
REMARK 922        TOTAL FREE ENERGY PREDICTED BY IDOCK:   -4.41 KCAL/MOL
REMARK 923 INTER-LIGAND FREE ENERGY PREDICTED BY IDOCK:   -3.85 KCAL/MOL
REMARK 924 INTRA-LIGAND FREE ENERGY PREDICTED BY IDOCK:   -0.55 KCAL/MOL
REMARK 927      BINDING AFFINITY PREDICTED BY RF-SCORE:    0.00 PKD
ROOT
HETATM    1  C   UNL     1      -8.568   5.753  70.613  1.00  0.00    -0.132 C  
HETATM    2  C   UNL     1     -10.000   5.412  70.274  1.00  0.00    -0.230 C  
HETATM    3  O   UNL     1      -8.053   5.464  71.695  1.00  0.00    -0.113 OA 
HETATM    4  F   UNL     1     -10.099   4.749  69.091  1.00  0.00    -0.254 F  
ENDROOT
BRANCH   2   5
HETATM    5  C   UNL     1     -10.916   6.641  70.251  1.00  0.00    -0.303 C  
HETATM    6  O   UNL     1     -11.745   6.667  69.069  1.00  0.00    -0.608 OA 
HETATM    7  H   UNL     1     -12.313   7.429  69.055  1.00  0.00     0.000 HD 
BRANCH   5   8
HETATM    8  C   UNL     1     -11.874   6.829  71.449  1.00  0.00    -0.338 C  
HETATM    9  O   UNL     1     -13.106   7.370  70.900  1.00  0.00    -0.594 OA 
HETATM   10  H   UNL     1     -13.695   7.486  71.636  1.00  0.00     0.000 HD 
BRANCH   8  11
HETATM   11  C   UNL     1     -11.407   7.736  72.612  1.00  0.00    -0.393 C  
HETATM   12  H   UNL     1     -10.338   9.374  72.780  1.00  0.00     0.000 HD 
HETATM   13  O   UNL     1     -10.625   8.817  72.066  1.00  0.00    -0.324 OA 
BRANCH  11  14
HETATM   14  C   UNL     1     -10.558   7.044  73.690  1.00  0.00    -0.345 C  
HETATM   15  O   UNL     1      -9.208   7.509  73.669  1.00  0.00    -0.222 OA 
HETATM   16  H   UNL     1      -8.683   7.081  74.336  1.00  0.00     0.000 HD 
ENDBRANCH  11  14
ENDBRANCH   8  11
ENDBRANCH   5   8
ENDBRANCH   2   5
TORSDOF 4
ENDMDL
MODEL      158
REMARK 921   NORMALIZED FREE ENERGY PREDICTED BY IDOCK:   -3.37 KCAL/MOL
REMARK 922        TOTAL FREE ENERGY PREDICTED BY IDOCK:   -4.40 KCAL/MOL
REMARK 923 INTER-LIGAND FREE ENERGY PREDICTED BY IDOCK:   -4.01 KCAL/MOL
REMARK 924 INTRA-LIGAND FREE ENERGY PREDICTED BY IDOCK:   -0.38 KCAL/MOL
REMARK 927      BINDING AFFINITY PREDICTED BY RF-SCORE:    0.00 PKD
ROOT
HETATM    1  C   UNL     1     -10.984  12.950  64.055  1.00  0.00    -0.411 C  
HETATM    2  C   UNL     1     -11.895  12.223  65.016  1.00  0.00    -0.357 C  
HETATM    3  O   UNL     1     -10.143  12.370  63.367  1.00  0.00    -0.393 OA 
HETATM    4  F   UNL     1     -13.203  12.531  64.812  1.00  0.00    -0.495 F  
ENDROOT
BRANCH   2   5
HETATM    5  C   UNL     1     -11.532  12.471  66.485  1.00  0.00    -0.362 C  
HETATM    6  O   UNL     1     -12.013  11.410  67.340  1.00  0.00    -0.606 OA 
HETATM    7  H   UNL     1     -11.788  11.564  68.250  1.00  0.00     0.000 HD 
BRANCH   5   8
HETATM    8  C   UNL     1     -10.034  12.646  66.822  1.00  0.00    -0.234 C  
HETATM    9  O   UNL     1      -9.442  11.321  66.731  1.00  0.00    -0.174 OA 
HETATM   10  H   UNL     1      -8.522  11.429  66.938  1.00  0.00     0.000 HD 
BRANCH   8  11
HETATM   11  C   UNL     1      -9.670  13.260  68.193  1.00  0.00    -0.227 C  
HETATM   12  H   UNL     1     -10.656  14.102  69.668  1.00  0.00     0.000 HD 
HETATM   13  O   UNL     1     -10.880  13.725  68.825  1.00  0.00    -0.250 OA 
BRANCH  11  14
HETATM   14  C   UNL     1      -8.685  14.439  68.149  1.00  0.00    -0.175 C  
HETATM   15  O   UNL     1      -8.558  15.062  69.428  1.00  0.00    -0.331 OA 
HETATM   16  H   UNL     1      -7.949  15.791  69.400  1.00  0.00     0.000 HD 
ENDBRANCH  11  14
ENDBRANCH   8  11
ENDBRANCH   5   8
ENDBRANCH   2   5
TORSDOF 4
ENDMDL
MODEL      159
REMARK 921   NORMALIZED FREE ENERGY PREDICTED BY IDOCK:   -3.37 KCAL/MOL
REMARK 922        TOTAL FREE ENERGY PREDICTED BY IDOCK:   -4.40 KCAL/MOL
REMARK 923 INTER-LIGAND FREE ENERGY PREDICTED BY IDOCK:   -3.91 KCAL/MOL
REMARK 924 INTRA-LIGAND FREE ENERGY PREDICTED BY IDOCK:   -0.49 KCAL/MOL
REMARK 927      BINDING AFFINITY PREDICTED BY RF-SCORE:    0.00 PKD
ROOT
HETATM    1  C   UNL     1     -11.414   8.339  72.530  1.00  0.00    -0.384 C  
HETATM    2  C   UNL     1     -10.841   8.212  71.139  1.00  0.00    -0.232 C  
HETATM    3  O   UNL     1     -12.615   8.517  72.743  1.00  0.00    -0.307 OA 
HETATM    4  F   UNL     1     -10.083   7.092  71.000  1.00  0.00    -0.193 F  
ENDROOT
BRANCH   2   5
HETATM    5  C   UNL     1     -10.027   9.439  70.714  1.00  0.00    -0.289 C  
HETATM    6  O   UNL     1      -8.644   9.103  70.469  1.00  0.00    -0.178 OA 
HETATM    7  H   UNL     1      -8.139   9.864  70.206  1.00  0.00     0.000 HD 
BRANCH   5   8
HETATM    8  C   UNL     1     -10.508  10.207  69.463  1.00  0.00    -0.241 C  
HETATM    9  O   UNL     1      -9.553  11.283  69.258  1.00  0.00    -0.410 OA 
HETATM   10  H   UNL     1      -9.849  11.756  68.489  1.00  0.00     0.000 HD 
BRANCH   8  11
HETATM   11  C   UNL     1     -11.934  10.805  69.486  1.00  0.00    -0.292 C  
HETATM   12  H   UNL     1     -13.059  11.816  68.234  1.00  0.00     0.000 HD 
HETATM   13  O   UNL     1     -12.183  11.449  68.220  1.00  0.00    -0.588 OA 
BRANCH  11  14
HETATM   14  C   UNL     1     -12.200  11.837  70.593  1.00  0.00    -0.349 C  
HETATM   15  O   UNL     1     -12.944  11.267  71.671  1.00  0.00    -0.448 OA 
HETATM   16  H   UNL     1     -13.109  11.905  72.356  1.00  0.00     0.000 HD 
ENDBRANCH  11  14
ENDBRANCH   8  11
ENDBRANCH   5   8
ENDBRANCH   2   5
TORSDOF 4
ENDMDL
MODEL      160
REMARK 921   NORMALIZED FREE ENERGY PREDICTED BY IDOCK:   -3.37 KCAL/MOL
REMARK 922        TOTAL FREE ENERGY PREDICTED BY IDOCK:   -4.39 KCAL/MOL
REMARK 923 INTER-LIGAND FREE ENERGY PREDICTED BY IDOCK:   -4.22 KCAL/MOL
REMARK 924 INTRA-LIGAND FREE ENERGY PREDICTED BY IDOCK:   -0.17 KCAL/MOL
REMARK 927      BINDING AFFINITY PREDICTED BY RF-SCORE:    0.00 PKD
ROOT
HETATM    1  C   UNL     1     -11.721  14.315  65.126  1.00  0.00    -0.368 C  
HETATM    2  C   UNL     1     -11.425  14.043  66.581  1.00  0.00    -0.364 C  
HETATM    3  O   UNL     1     -11.738  13.427  64.272  1.00  0.00    -0.376 OA 
HETATM    4  F   UNL     1     -12.380  14.557  67.401  1.00  0.00    -0.394 F  
ENDROOT
BRANCH   2   5
HETATM    5  C   UNL     1     -10.047  14.554  67.016  1.00  0.00    -0.254 C  
HETATM    6  O   UNL     1      -9.115  14.581  65.912  1.00  0.00    -0.500 OA 
HETATM    7  H   UNL     1      -8.261  14.898  66.181  1.00  0.00     0.000 HD 
BRANCH   5   8
HETATM    8  C   UNL     1      -9.985  15.957  67.662  1.00  0.00    -0.237 C  
HETATM    9  O   UNL     1     -10.505  15.803  69.010  1.00  0.00    -0.204 OA 
HETATM   10  H   UNL     1     -10.467  16.665  69.407  1.00  0.00     0.000 HD 
BRANCH   8  11
HETATM   11  C   UNL     1     -10.745  17.107  66.963  1.00  0.00    -0.149 C  
HETATM   12  H   UNL     1     -10.686  17.970  65.200  1.00  0.00     0.000 HD 
HETATM   13  O   UNL     1     -10.219  17.263  65.629  1.00  0.00    -0.579 OA 
BRANCH  11  14
HETATM   14  C   UNL     1     -10.661  18.474  67.660  1.00  0.00    -0.414 C  
HETATM   15  O   UNL     1     -10.092  18.361  68.965  1.00  0.00    -0.379 OA 
HETATM   16  H   UNL     1     -10.040  19.207  69.396  1.00  0.00     0.000 HD 
ENDBRANCH  11  14
ENDBRANCH   8  11
ENDBRANCH   5   8
ENDBRANCH   2   5
TORSDOF 4
ENDMDL
MODEL      161
REMARK 921   NORMALIZED FREE ENERGY PREDICTED BY IDOCK:   -3.37 KCAL/MOL
REMARK 922        TOTAL FREE ENERGY PREDICTED BY IDOCK:   -4.39 KCAL/MOL
REMARK 923 INTER-LIGAND FREE ENERGY PREDICTED BY IDOCK:   -3.94 KCAL/MOL
REMARK 924 INTRA-LIGAND FREE ENERGY PREDICTED BY IDOCK:   -0.45 KCAL/MOL
REMARK 927      BINDING AFFINITY PREDICTED BY RF-SCORE:    0.00 PKD
ROOT
HETATM    1  C   UNL     1      -9.958   6.050  73.495  1.00  0.00    -0.186 C  
HETATM    2  C   UNL     1     -10.821   5.563  72.355  1.00  0.00    -0.248 C  
HETATM    3  O   UNL     1     -10.407   6.702  74.439  1.00  0.00    -0.357 OA 
HETATM    4  F   UNL     1     -10.675   4.229  72.139  1.00  0.00    -0.223 F  
ENDROOT
BRANCH   2   5
HETATM    5  C   UNL     1     -10.569   6.325  71.049  1.00  0.00    -0.238 C  
HETATM    6  O   UNL     1     -10.597   5.445  69.904  1.00  0.00    -0.307 OA 
HETATM    7  H   UNL     1     -10.441   5.917  69.094  1.00  0.00     0.000 HD 
BRANCH   5   8
HETATM    8  C   UNL     1     -11.528   7.490  70.715  1.00  0.00    -0.284 C  
HETATM    9  O   UNL     1     -11.241   7.869  69.342  1.00  0.00    -0.445 OA 
HETATM   10  H   UNL     1     -11.830   8.585  69.137  1.00  0.00     0.000 HD 
BRANCH   8  11
HETATM   11  C   UNL     1     -11.466   8.754  71.603  1.00  0.00    -0.316 C  
HETATM   12  H   UNL     1     -12.501   9.471  73.110  1.00  0.00     0.000 HD 
HETATM   13  O   UNL     1     -12.540   8.694  72.564  1.00  0.00    -0.392 OA 
BRANCH  11  14
HETATM   14  C   UNL     1     -11.582  10.093  70.858  1.00  0.00    -0.372 C  
HETATM   15  O   UNL     1     -12.811  10.184  70.136  1.00  0.00    -0.571 OA 
HETATM   16  H   UNL     1     -12.882  11.012  69.675  1.00  0.00     0.000 HD 
ENDBRANCH  11  14
ENDBRANCH   8  11
ENDBRANCH   5   8
ENDBRANCH   2   5
TORSDOF 4
ENDMDL
MODEL      162
REMARK 921   NORMALIZED FREE ENERGY PREDICTED BY IDOCK:   -3.36 KCAL/MOL
REMARK 922        TOTAL FREE ENERGY PREDICTED BY IDOCK:   -4.38 KCAL/MOL
REMARK 923 INTER-LIGAND FREE ENERGY PREDICTED BY IDOCK:   -4.15 KCAL/MOL
REMARK 924 INTRA-LIGAND FREE ENERGY PREDICTED BY IDOCK:   -0.23 KCAL/MOL
REMARK 927      BINDING AFFINITY PREDICTED BY RF-SCORE:    0.00 PKD
ROOT
HETATM    1  C   UNL     1      -8.938   9.558  65.863  1.00  0.00    -0.173 C  
HETATM    2  C   UNL     1      -8.999  11.067  65.892  1.00  0.00    -0.195 C  
HETATM    3  O   UNL     1      -7.884   8.937  65.710  1.00  0.00    -0.095 OA 
HETATM    4  F   UNL     1      -9.648  11.529  66.994  1.00  0.00    -0.179 F  
ENDROOT
BRANCH   2   5
HETATM    5  C   UNL     1      -9.637  11.662  64.632  1.00  0.00    -0.127 C  
HETATM    6  O   UNL     1      -9.071  11.098  63.429  1.00  0.00    -0.335 OA 
HETATM    7  H   UNL     1      -9.467  11.467  62.648  1.00  0.00     0.000 HD 
BRANCH   5   8
HETATM    8  C   UNL     1     -11.170  11.529  64.487  1.00  0.00    -0.231 C  
HETATM    9  O   UNL     1     -11.433  11.436  63.060  1.00  0.00    -0.853 OA 
HETATM   10  H   UNL     1     -12.375  11.354  62.971  1.00  0.00     0.000 HD 
BRANCH   8  11
HETATM   11  C   UNL     1     -12.052  12.650  65.083  1.00  0.00    -0.455 C  
HETATM   12  H   UNL     1     -13.945  13.162  64.974  1.00  0.00     0.000 HD 
HETATM   13  O   UNL     1     -13.403  12.474  64.608  1.00  0.00    -0.804 OA 
BRANCH  11  14
HETATM   14  C   UNL     1     -11.621  14.084  64.740  1.00  0.00    -0.381 C  
HETATM   15  O   UNL     1     -11.600  14.916  65.901  1.00  0.00    -0.324 OA 
HETATM   16  H   UNL     1     -11.334  15.803  65.688  1.00  0.00     0.000 HD 
ENDBRANCH  11  14
ENDBRANCH   8  11
ENDBRANCH   5   8
ENDBRANCH   2   5
TORSDOF 4
ENDMDL
MODEL      163
REMARK 921   NORMALIZED FREE ENERGY PREDICTED BY IDOCK:   -3.35 KCAL/MOL
REMARK 922        TOTAL FREE ENERGY PREDICTED BY IDOCK:   -4.37 KCAL/MOL
REMARK 923 INTER-LIGAND FREE ENERGY PREDICTED BY IDOCK:   -4.01 KCAL/MOL
REMARK 924 INTRA-LIGAND FREE ENERGY PREDICTED BY IDOCK:   -0.36 KCAL/MOL
REMARK 927      BINDING AFFINITY PREDICTED BY RF-SCORE:    0.00 PKD
ROOT
HETATM    1  C   UNL     1      -9.971   9.012  71.157  1.00  0.00    -0.295 C  
HETATM    2  C   UNL     1     -10.104   8.246  69.862  1.00  0.00    -0.195 C  
HETATM    3  O   UNL     1     -10.878   9.078  71.988  1.00  0.00    -0.352 OA 
HETATM    4  F   UNL     1      -9.080   7.371  69.679  1.00  0.00    -0.140 F  
ENDROOT
BRANCH   2   5
HETATM    5  C   UNL     1     -10.222   9.161  68.638  1.00  0.00    -0.204 C  
HETATM    6  O   UNL     1     -11.013   8.555  67.593  1.00  0.00    -0.501 OA 
HETATM    7  H   UNL     1     -11.087   9.122  66.834  1.00  0.00     0.000 HD 
BRANCH   5   8
HETATM    8  C   UNL     1     -10.819  10.569  68.864  1.00  0.00    -0.235 C  
HETATM    9  O   UNL     1     -12.255  10.432  68.685  1.00  0.00    -0.750 OA 
HETATM   10  H   UNL     1     -12.622  11.297  68.824  1.00  0.00     0.000 HD 
BRANCH   8  11
HETATM   11  C   UNL     1     -10.313  11.720  67.964  1.00  0.00    -0.198 C  
HETATM   12  H   UNL     1     -10.391  13.682  68.009  1.00  0.00     0.000 HD 
HETATM   13  O   UNL     1     -10.701  12.975  68.561  1.00  0.00    -0.243 OA 
BRANCH  11  14
HETATM   14  C   UNL     1     -10.837  11.710  66.520  1.00  0.00    -0.284 C  
HETATM   15  O   UNL     1     -12.170  12.218  66.444  1.00  0.00    -0.613 OA 
HETATM   16  H   UNL     1     -12.494  12.211  65.550  1.00  0.00     0.000 HD 
ENDBRANCH  11  14
ENDBRANCH   8  11
ENDBRANCH   5   8
ENDBRANCH   2   5
TORSDOF 4
ENDMDL
MODEL      164
REMARK 921   NORMALIZED FREE ENERGY PREDICTED BY IDOCK:   -3.34 KCAL/MOL
REMARK 922        TOTAL FREE ENERGY PREDICTED BY IDOCK:   -4.36 KCAL/MOL
REMARK 923 INTER-LIGAND FREE ENERGY PREDICTED BY IDOCK:   -4.08 KCAL/MOL
REMARK 924 INTRA-LIGAND FREE ENERGY PREDICTED BY IDOCK:   -0.27 KCAL/MOL
REMARK 927      BINDING AFFINITY PREDICTED BY RF-SCORE:    0.00 PKD
ROOT
HETATM    1  C   UNL     1     -10.371  10.770  66.168  1.00  0.00    -0.239 C  
HETATM    2  C   UNL     1     -11.002  11.989  65.537  1.00  0.00    -0.298 C  
HETATM    3  O   UNL     1     -10.683  10.364  67.289  1.00  0.00    -0.255 OA 
HETATM    4  F   UNL     1     -11.483  11.727  64.293  1.00  0.00    -0.381 F  
ENDROOT
BRANCH   2   5
HETATM    5  C   UNL     1     -10.052  13.190  65.479  1.00  0.00    -0.261 C  
HETATM    6  O   UNL     1     -10.277  13.992  64.298  1.00  0.00    -0.674 OA 
HETATM    7  H   UNL     1      -9.687  14.736  64.262  1.00  0.00     0.000 HD 
BRANCH   5   8
HETATM    8  C   UNL     1     -10.078  14.171  66.673  1.00  0.00    -0.275 C  
HETATM    9  O   UNL     1      -9.172  13.620  67.667  1.00  0.00    -0.195 OA 
HETATM   10  H   UNL     1      -9.189  14.223  68.401  1.00  0.00     0.000 HD 
BRANCH   8  11
HETATM   11  C   UNL     1     -11.442  14.454  67.344  1.00  0.00    -0.358 C  
HETATM   12  H   UNL     1     -12.229  15.935  68.366  1.00  0.00     0.000 HD 
HETATM   13  O   UNL     1     -11.391  15.761  67.953  1.00  0.00    -0.338 OA 
BRANCH  11  14
HETATM   14  C   UNL     1     -11.867  13.451  68.428  1.00  0.00    -0.366 C  
HETATM   15  O   UNL     1     -11.064  13.579  69.602  1.00  0.00    -0.444 OA 
HETATM   16  H   UNL     1     -11.327  12.958  70.272  1.00  0.00     0.000 HD 
ENDBRANCH  11  14
ENDBRANCH   8  11
ENDBRANCH   5   8
ENDBRANCH   2   5
TORSDOF 4
ENDMDL
MODEL      165
REMARK 921   NORMALIZED FREE ENERGY PREDICTED BY IDOCK:   -3.33 KCAL/MOL
REMARK 922        TOTAL FREE ENERGY PREDICTED BY IDOCK:   -4.34 KCAL/MOL
REMARK 923 INTER-LIGAND FREE ENERGY PREDICTED BY IDOCK:   -4.48 KCAL/MOL
REMARK 924 INTRA-LIGAND FREE ENERGY PREDICTED BY IDOCK:    0.14 KCAL/MOL
REMARK 927      BINDING AFFINITY PREDICTED BY RF-SCORE:    0.00 PKD
ROOT
HETATM    1  C   UNL     1     -10.130   5.863  70.170  1.00  0.00    -0.202 C  
HETATM    2  C   UNL     1     -11.295   6.558  70.834  1.00  0.00    -0.337 C  
HETATM    3  O   UNL     1      -9.391   5.082  70.772  1.00  0.00    -0.141 OA 
HETATM    4  F   UNL     1     -12.452   6.388  70.140  1.00  0.00    -0.311 F  
ENDROOT
BRANCH   2   5
HETATM    5  C   UNL     1     -11.048   8.054  71.060  1.00  0.00    -0.253 C  
HETATM    6  O   UNL     1     -11.492   8.845  69.936  1.00  0.00    -0.444 OA 
HETATM    7  H   UNL     1     -11.339   9.772  70.076  1.00  0.00     0.000 HD 
BRANCH   5   8
HETATM    8  C   UNL     1     -11.687   8.694  72.313  1.00  0.00    -0.358 C  
HETATM    9  O   UNL     1     -11.879   7.613  73.265  1.00  0.00    -0.631 OA 
HETATM   10  H   UNL     1     -12.272   8.007  74.035  1.00  0.00     0.000 HD 
BRANCH   8  11
HETATM   11  C   UNL     1     -13.027   9.446  72.136  1.00  0.00    -0.421 C  
HETATM   12  H   UNL     1     -14.740   9.083  71.247  1.00  0.00     0.000 HD 
HETATM   13  O   UNL     1     -13.917   8.621  71.356  1.00  0.00    -0.352 OA 
BRANCH  11  14
HETATM   14  C   UNL     1     -12.931  10.813  71.442  1.00  0.00    -0.432 C  
HETATM   15  O   UNL     1     -13.485  11.851  72.252  1.00  0.00    -0.602 OA 
HETATM   16  H   UNL     1     -13.426  12.696  71.823  1.00  0.00     0.000 HD 
ENDBRANCH  11  14
ENDBRANCH   8  11
ENDBRANCH   5   8
ENDBRANCH   2   5
TORSDOF 4
ENDMDL
MODEL      166
REMARK 921   NORMALIZED FREE ENERGY PREDICTED BY IDOCK:   -3.33 KCAL/MOL
REMARK 922        TOTAL FREE ENERGY PREDICTED BY IDOCK:   -4.34 KCAL/MOL
REMARK 923 INTER-LIGAND FREE ENERGY PREDICTED BY IDOCK:   -3.72 KCAL/MOL
REMARK 924 INTRA-LIGAND FREE ENERGY PREDICTED BY IDOCK:   -0.62 KCAL/MOL
REMARK 927      BINDING AFFINITY PREDICTED BY RF-SCORE:    0.00 PKD
ROOT
HETATM    1  C   UNL     1      -9.454   8.888  68.381  1.00  0.00    -0.140 C  
HETATM    2  C   UNL     1     -10.045  10.143  68.980  1.00  0.00    -0.205 C  
HETATM    3  O   UNL     1      -8.488   8.905  67.617  1.00  0.00    -0.120 OA 
HETATM    4  F   UNL     1     -10.151  10.061  70.333  1.00  0.00    -0.299 F  
ENDROOT
BRANCH   2   5
HETATM    5  C   UNL     1     -11.406  10.507  68.378  1.00  0.00    -0.262 C  
HETATM    6  O   UNL     1     -12.481  10.283  69.317  1.00  0.00    -0.601 OA 
HETATM    7  H   UNL     1     -13.326  10.509  68.944  1.00  0.00     0.000 HD 
BRANCH   5   8
HETATM    8  C   UNL     1     -11.586  11.951  67.859  1.00  0.00    -0.323 C  
HETATM    9  O   UNL     1     -10.693  12.084  66.720  1.00  0.00    -0.227 OA 
HETATM   10  H   UNL     1     -10.803  12.972  66.400  1.00  0.00     0.000 HD 
BRANCH   8  11
HETATM   11  C   UNL     1     -11.314  13.112  68.843  1.00  0.00    -0.289 C  
HETATM   12  H   UNL     1     -11.857  13.563  70.675  1.00  0.00     0.000 HD 
HETATM   13  O   UNL     1     -12.025  12.850  70.070  1.00  0.00    -0.334 OA 
BRANCH  11  14
HETATM   14  C   UNL     1     -11.729  14.507  68.351  1.00  0.00    -0.333 C  
HETATM   15  O   UNL     1     -12.470  14.432  67.132  1.00  0.00    -0.590 OA 
HETATM   16  H   UNL     1     -12.727  15.295  66.828  1.00  0.00     0.000 HD 
ENDBRANCH  11  14
ENDBRANCH   8  11
ENDBRANCH   5   8
ENDBRANCH   2   5
TORSDOF 4
ENDMDL
MODEL      167
REMARK 921   NORMALIZED FREE ENERGY PREDICTED BY IDOCK:   -3.33 KCAL/MOL
REMARK 922        TOTAL FREE ENERGY PREDICTED BY IDOCK:   -4.34 KCAL/MOL
REMARK 923 INTER-LIGAND FREE ENERGY PREDICTED BY IDOCK:   -3.98 KCAL/MOL
REMARK 924 INTRA-LIGAND FREE ENERGY PREDICTED BY IDOCK:   -0.36 KCAL/MOL
REMARK 927      BINDING AFFINITY PREDICTED BY RF-SCORE:    0.00 PKD
ROOT
HETATM    1  C   UNL     1      -9.416   5.962  69.967  1.00  0.00    -0.159 C  
HETATM    2  C   UNL     1     -10.885   5.719  70.217  1.00  0.00    -0.303 C  
HETATM    3  O   UNL     1      -8.586   5.051  69.935  1.00  0.00    -0.095 OA 
HETATM    4  F   UNL     1     -11.666   6.293  69.263  1.00  0.00    -0.471 F  
ENDROOT
BRANCH   2   5
HETATM    5  C   UNL     1     -11.340   6.188  71.603  1.00  0.00    -0.284 C  
HETATM    6  O   UNL     1     -10.239   6.239  72.537  1.00  0.00    -0.180 OA 
HETATM    7  H   UNL     1     -10.521   6.530  73.397  1.00  0.00     0.000 HD 
BRANCH   5   8
HETATM    8  C   UNL     1     -12.039   7.563  71.690  1.00  0.00    -0.311 C  
HETATM    9  O   UNL     1     -13.296   7.423  70.973  1.00  0.00    -0.595 OA 
HETATM   10  H   UNL     1     -13.725   8.269  71.026  1.00  0.00     0.000 HD 
BRANCH   8  11
HETATM   11  C   UNL     1     -11.284   8.793  71.135  1.00  0.00    -0.277 C  
HETATM   12  H   UNL     1      -9.608   9.726  71.556  1.00  0.00     0.000 HD 
HETATM   13  O   UNL     1     -10.072   8.970  71.897  1.00  0.00    -0.339 OA 
BRANCH  11  14
HETATM   14  C   UNL     1     -12.059  10.119  71.177  1.00  0.00    -0.388 C  
HETATM   15  O   UNL     1     -13.039  10.185  70.140  1.00  0.00    -0.574 OA 
HETATM   16  H   UNL     1     -13.518  11.006  70.167  1.00  0.00     0.000 HD 
ENDBRANCH  11  14
ENDBRANCH   8  11
ENDBRANCH   5   8
ENDBRANCH   2   5
TORSDOF 4
ENDMDL
MODEL      168
REMARK 921   NORMALIZED FREE ENERGY PREDICTED BY IDOCK:   -3.30 KCAL/MOL
REMARK 922        TOTAL FREE ENERGY PREDICTED BY IDOCK:   -4.31 KCAL/MOL
REMARK 923 INTER-LIGAND FREE ENERGY PREDICTED BY IDOCK:   -3.70 KCAL/MOL
REMARK 924 INTRA-LIGAND FREE ENERGY PREDICTED BY IDOCK:   -0.60 KCAL/MOL
REMARK 927      BINDING AFFINITY PREDICTED BY RF-SCORE:    0.00 PKD
ROOT
HETATM    1  C   UNL     1      -9.453  11.579  66.814  1.00  0.00    -0.189 C  
HETATM    2  C   UNL     1     -10.816  10.970  67.039  1.00  0.00    -0.279 C  
HETATM    3  O   UNL     1      -8.518  10.953  66.312  1.00  0.00    -0.156 OA 
HETATM    4  F   UNL     1     -11.809  11.733  66.509  1.00  0.00    -0.384 F  
ENDROOT
BRANCH   2   5
HETATM    5  C   UNL     1     -11.112  10.699  68.518  1.00  0.00    -0.263 C  
HETATM    6  O   UNL     1     -12.525  10.783  68.804  1.00  0.00    -0.793 OA 
HETATM    7  H   UNL     1     -12.709  10.615  69.721  1.00  0.00     0.000 HD 
BRANCH   5   8
HETATM    8  C   UNL     1     -10.639   9.346  69.096  1.00  0.00    -0.218 C  
HETATM    9  O   UNL     1     -10.930   8.349  68.079  1.00  0.00    -0.469 OA 
HETATM   10  H   UNL     1     -10.639   7.517  68.434  1.00  0.00     0.000 HD 
BRANCH   8  11
HETATM   11  C   UNL     1     -11.250   8.881  70.438  1.00  0.00    -0.230 C  
HETATM   12  H   UNL     1     -11.698   9.728  72.152  1.00  0.00     0.000 HD 
HETATM   13  O   UNL     1     -11.323  10.014  71.328  1.00  0.00    -0.357 OA 
BRANCH  11  14
HETATM   14  C   UNL     1     -10.480   7.767  71.164  1.00  0.00    -0.208 C  
HETATM   15  O   UNL     1      -9.379   7.299  70.385  1.00  0.00    -0.158 OA 
HETATM   16  H   UNL     1      -8.903   6.610  70.834  1.00  0.00     0.000 HD 
ENDBRANCH  11  14
ENDBRANCH   8  11
ENDBRANCH   5   8
ENDBRANCH   2   5
TORSDOF 4
ENDMDL
MODEL      169
REMARK 921   NORMALIZED FREE ENERGY PREDICTED BY IDOCK:   -3.30 KCAL/MOL
REMARK 922        TOTAL FREE ENERGY PREDICTED BY IDOCK:   -4.31 KCAL/MOL
REMARK 923 INTER-LIGAND FREE ENERGY PREDICTED BY IDOCK:   -3.88 KCAL/MOL
REMARK 924 INTRA-LIGAND FREE ENERGY PREDICTED BY IDOCK:   -0.43 KCAL/MOL
REMARK 927      BINDING AFFINITY PREDICTED BY RF-SCORE:    0.00 PKD
ROOT
HETATM    1  C   UNL     1     -13.160   7.700  71.357  1.00  0.00    -0.296 C  
HETATM    2  C   UNL     1     -12.240   8.304  72.391  1.00  0.00    -0.352 C  
HETATM    3  O   UNL     1     -14.283   7.274  71.633  1.00  0.00    -0.430 OA 
HETATM    4  F   UNL     1     -11.782   9.528  72.013  1.00  0.00    -0.438 F  
ENDROOT
BRANCH   2   5
HETATM    5  C   UNL     1     -11.054   7.397  72.737  1.00  0.00    -0.346 C  
HETATM    6  O   UNL     1     -10.772   7.404  74.153  1.00  0.00    -0.540 OA 
HETATM    7  H   UNL     1     -10.037   6.841  74.368  1.00  0.00     0.000 HD 
BRANCH   5   8
HETATM    8  C   UNL     1     -11.161   5.910  72.330  1.00  0.00    -0.280 C  
HETATM    9  O   UNL     1     -11.823   5.236  73.434  1.00  0.00    -0.463 OA 
HETATM   10  H   UNL     1     -11.888   4.322  73.184  1.00  0.00     0.000 HD 
BRANCH   8  11
HETATM   11  C   UNL     1      -9.852   5.156  71.999  1.00  0.00    -0.171 C  
HETATM   12  H   UNL     1      -8.011   5.161  72.682  1.00  0.00     0.000 HD 
HETATM   13  O   UNL     1      -8.815   5.625  72.885  1.00  0.00    -0.125 OA 
BRANCH  11  14
HETATM   14  C   UNL     1      -9.343   5.317  70.558  1.00  0.00    -0.157 C  
HETATM   15  O   UNL     1     -10.412   5.246  69.614  1.00  0.00    -0.281 OA 
HETATM   16  H   UNL     1     -10.097   5.346  68.723  1.00  0.00     0.000 HD 
ENDBRANCH  11  14
ENDBRANCH   8  11
ENDBRANCH   5   8
ENDBRANCH   2   5
TORSDOF 4
ENDMDL
MODEL      170
REMARK 921   NORMALIZED FREE ENERGY PREDICTED BY IDOCK:   -3.30 KCAL/MOL
REMARK 922        TOTAL FREE ENERGY PREDICTED BY IDOCK:   -4.30 KCAL/MOL
REMARK 923 INTER-LIGAND FREE ENERGY PREDICTED BY IDOCK:   -3.90 KCAL/MOL
REMARK 924 INTRA-LIGAND FREE ENERGY PREDICTED BY IDOCK:   -0.40 KCAL/MOL
REMARK 927      BINDING AFFINITY PREDICTED BY RF-SCORE:    0.00 PKD
ROOT
HETATM    1  C   UNL     1     -10.035  13.978  65.633  1.00  0.00    -0.286 C  
HETATM    2  C   UNL     1     -10.982  15.063  66.088  1.00  0.00    -0.334 C  
HETATM    3  O   UNL     1     -10.378  12.800  65.517  1.00  0.00    -0.276 OA 
HETATM    4  F   UNL     1     -10.997  16.118  65.231  1.00  0.00    -0.347 F  
ENDROOT
BRANCH   2   5
HETATM    5  C   UNL     1     -10.684  15.558  67.507  1.00  0.00    -0.300 C  
HETATM    6  O   UNL     1     -11.028  16.951  67.670  1.00  0.00    -0.285 OA 
HETATM    7  H   UNL     1     -10.843  17.259  68.550  1.00  0.00     0.000 HD 
BRANCH   5   8
HETATM    8  C   UNL     1     -11.368  14.810  68.674  1.00  0.00    -0.285 C  
HETATM    9  O   UNL     1     -12.514  14.126  68.098  1.00  0.00    -0.541 OA 
HETATM   10  H   UNL     1     -12.934  13.666  68.816  1.00  0.00     0.000 HD 
BRANCH   8  11
HETATM   11  C   UNL     1     -11.843  15.644  69.886  1.00  0.00    -0.360 C  
HETATM   12  H   UNL     1     -11.114  17.121  70.954  1.00  0.00     0.000 HD 
HETATM   13  O   UNL     1     -10.821  16.609  70.210  1.00  0.00    -0.269 OA 
BRANCH  11  14
HETATM   14  C   UNL     1     -12.147  14.842  71.162  1.00  0.00    -0.327 C  
HETATM   15  O   UNL     1     -13.004  13.732  70.890  1.00  0.00    -0.291 OA 
HETATM   16  H   UNL     1     -13.192  13.237  71.679  1.00  0.00     0.000 HD 
ENDBRANCH  11  14
ENDBRANCH   8  11
ENDBRANCH   5   8
ENDBRANCH   2   5
TORSDOF 4
ENDMDL
MODEL      171
REMARK 921   NORMALIZED FREE ENERGY PREDICTED BY IDOCK:   -3.28 KCAL/MOL
REMARK 922        TOTAL FREE ENERGY PREDICTED BY IDOCK:   -4.28 KCAL/MOL
REMARK 923 INTER-LIGAND FREE ENERGY PREDICTED BY IDOCK:   -3.94 KCAL/MOL
REMARK 924 INTRA-LIGAND FREE ENERGY PREDICTED BY IDOCK:   -0.34 KCAL/MOL
REMARK 927      BINDING AFFINITY PREDICTED BY RF-SCORE:    0.00 PKD
ROOT
HETATM    1  C   UNL     1     -11.681  14.580  66.720  1.00  0.00    -0.377 C  
HETATM    2  C   UNL     1     -11.181  13.182  66.994  1.00  0.00    -0.294 C  
HETATM    3  O   UNL     1     -11.027  15.409  66.084  1.00  0.00    -0.323 OA 
HETATM    4  F   UNL     1     -12.085  12.236  66.623  1.00  0.00    -0.425 F  
ENDROOT
BRANCH   2   5
HETATM    5  C   UNL     1     -10.784  12.966  68.459  1.00  0.00    -0.254 C  
HETATM    6  O   UNL     1      -9.918  14.019  68.937  1.00  0.00    -0.350 OA 
HETATM    7  H   UNL     1      -9.672  13.885  69.845  1.00  0.00     0.000 HD 
BRANCH   5   8
HETATM    8  C   UNL     1     -11.929  12.852  69.491  1.00  0.00    -0.285 C  
HETATM    9  O   UNL     1     -11.579  13.749  70.581  1.00  0.00    -0.515 OA 
HETATM   10  H   UNL     1     -12.283  13.679  71.216  1.00  0.00     0.000 HD 
BRANCH   8  11
HETATM   11  C   UNL     1     -12.238  11.455  70.075  1.00  0.00    -0.301 C  
HETATM   12  H   UNL     1     -12.500  10.704  71.871  1.00  0.00     0.000 HD 
HETATM   13  O   UNL     1     -12.309  11.563  71.512  1.00  0.00    -0.198 OA 
BRANCH  11  14
HETATM   14  C   UNL     1     -11.216  10.357  69.741  1.00  0.00    -0.293 C  
HETATM   15  O   UNL     1     -11.641   9.570  68.627  1.00  0.00    -0.329 OA 
HETATM   16  H   UNL     1     -11.009   8.891  68.420  1.00  0.00     0.000 HD 
ENDBRANCH  11  14
ENDBRANCH   8  11
ENDBRANCH   5   8
ENDBRANCH   2   5
TORSDOF 4
ENDMDL
MODEL      172
REMARK 921   NORMALIZED FREE ENERGY PREDICTED BY IDOCK:   -3.28 KCAL/MOL
REMARK 922        TOTAL FREE ENERGY PREDICTED BY IDOCK:   -4.28 KCAL/MOL
REMARK 923 INTER-LIGAND FREE ENERGY PREDICTED BY IDOCK:   -3.87 KCAL/MOL
REMARK 924 INTRA-LIGAND FREE ENERGY PREDICTED BY IDOCK:   -0.41 KCAL/MOL
REMARK 927      BINDING AFFINITY PREDICTED BY RF-SCORE:    0.00 PKD
ROOT
HETATM    1  C   UNL     1     -12.124  14.818  69.831  1.00  0.00    -0.332 C  
HETATM    2  C   UNL     1     -10.834  15.566  70.072  1.00  0.00    -0.318 C  
HETATM    3  O   UNL     1     -12.500  13.890  70.550  1.00  0.00    -0.334 OA 
HETATM    4  F   UNL     1     -11.027  16.911  70.123  1.00  0.00    -0.333 F  
ENDROOT
BRANCH   2   5
HETATM    5  C   UNL     1      -9.754  15.241  69.035  1.00  0.00    -0.234 C  
HETATM    6  O   UNL     1      -8.492  14.921  69.661  1.00  0.00    -0.427 OA 
HETATM    7  H   UNL     1      -7.822  14.720  69.018  1.00  0.00     0.000 HD 
BRANCH   5   8
HETATM    8  C   UNL     1     -10.046  14.087  68.049  1.00  0.00    -0.239 C  
HETATM    9  O   UNL     1      -9.526  12.882  68.673  1.00  0.00    -0.382 OA 
HETATM   10  H   UNL     1      -9.706  12.173  68.067  1.00  0.00     0.000 HD 
BRANCH   8  11
HETATM   11  C   UNL     1      -9.468  14.196  66.619  1.00  0.00    -0.289 C  
HETATM   12  H   UNL     1      -8.205  15.382  65.695  1.00  0.00     0.000 HD 
HETATM   13  O   UNL     1      -8.559  15.315  66.574  1.00  0.00    -0.276 OA 
BRANCH  11  14
HETATM   14  C   UNL     1     -10.504  14.392  65.501  1.00  0.00    -0.350 C  
HETATM   15  O   UNL     1     -11.811  14.001  65.924  1.00  0.00    -0.352 OA 
HETATM   16  H   UNL     1     -12.451  14.122  65.233  1.00  0.00     0.000 HD 
ENDBRANCH  11  14
ENDBRANCH   8  11
ENDBRANCH   5   8
ENDBRANCH   2   5
TORSDOF 4
ENDMDL
MODEL      173
REMARK 921   NORMALIZED FREE ENERGY PREDICTED BY IDOCK:   -3.26 KCAL/MOL
REMARK 922        TOTAL FREE ENERGY PREDICTED BY IDOCK:   -4.26 KCAL/MOL
REMARK 923 INTER-LIGAND FREE ENERGY PREDICTED BY IDOCK:   -4.21 KCAL/MOL
REMARK 924 INTRA-LIGAND FREE ENERGY PREDICTED BY IDOCK:   -0.05 KCAL/MOL
REMARK 927      BINDING AFFINITY PREDICTED BY RF-SCORE:    0.00 PKD
ROOT
HETATM    1  C   UNL     1     -10.520  16.211  66.519  1.00  0.00    -0.297 C  
HETATM    2  C   UNL     1     -11.038  14.815  66.774  1.00  0.00    -0.338 C  
HETATM    3  O   UNL     1     -10.136  16.586  65.410  1.00  0.00    -0.570 OA 
HETATM    4  F   UNL     1     -12.253  14.826  67.384  1.00  0.00    -0.379 F  
ENDROOT
BRANCH   2   5
HETATM    5  C   UNL     1     -10.063  13.956  67.587  1.00  0.00    -0.241 C  
HETATM    6  O   UNL     1     -10.624  13.573  68.862  1.00  0.00    -0.305 OA 
HETATM    7  H   UNL     1     -10.020  13.040  69.366  1.00  0.00     0.000 HD 
BRANCH   5   8
HETATM    8  C   UNL     1      -9.558  12.650  66.933  1.00  0.00    -0.232 C  
HETATM    9  O   UNL     1      -9.359  12.955  65.526  1.00  0.00    -0.456 OA 
HETATM   10  H   UNL     1      -9.048  12.152  65.124  1.00  0.00     0.000 HD 
BRANCH   8  11
HETATM   11  C   UNL     1     -10.449  11.392  67.049  1.00  0.00    -0.236 C  
HETATM   12  H   UNL     1     -12.378  11.030  67.080  1.00  0.00     0.000 HD 
HETATM   13  O   UNL     1     -11.831  11.803  67.009  1.00  0.00    -0.599 OA 
BRANCH  11  14
HETATM   14  C   UNL     1     -10.248  10.555  68.322  1.00  0.00    -0.163 C  
HETATM   15  O   UNL     1     -11.489  10.296  68.978  1.00  0.00    -0.397 OA 
HETATM   16  H   UNL     1     -11.365   9.778  69.765  1.00  0.00     0.000 HD 
ENDBRANCH  11  14
ENDBRANCH   8  11
ENDBRANCH   5   8
ENDBRANCH   2   5
TORSDOF 4
ENDMDL
MODEL      174
REMARK 921   NORMALIZED FREE ENERGY PREDICTED BY IDOCK:   -3.26 KCAL/MOL
REMARK 922        TOTAL FREE ENERGY PREDICTED BY IDOCK:   -4.26 KCAL/MOL
REMARK 923 INTER-LIGAND FREE ENERGY PREDICTED BY IDOCK:   -3.86 KCAL/MOL
REMARK 924 INTRA-LIGAND FREE ENERGY PREDICTED BY IDOCK:   -0.39 KCAL/MOL
REMARK 927      BINDING AFFINITY PREDICTED BY RF-SCORE:    0.00 PKD
ROOT
HETATM    1  C   UNL     1     -12.552  12.687  64.031  1.00  0.00    -0.338 C  
HETATM    2  C   UNL     1     -12.114  12.530  65.468  1.00  0.00    -0.419 C  
HETATM    3  O   UNL     1     -13.094  11.780  63.397  1.00  0.00    -0.622 OA 
HETATM    4  F   UNL     1     -12.599  13.522  66.260  1.00  0.00    -0.436 F  
ENDROOT
BRANCH   2   5
HETATM    5  C   UNL     1     -10.591  12.449  65.621  1.00  0.00    -0.265 C  
HETATM    6  O   UNL     1     -10.157  12.945  66.907  1.00  0.00    -0.234 OA 
HETATM    7  H   UNL     1      -9.213  12.895  67.002  1.00  0.00     0.000 HD 
BRANCH   5   8
HETATM    8  C   UNL     1      -9.938  11.058  65.458  1.00  0.00    -0.256 C  
HETATM    9  O   UNL     1      -9.184  10.820  66.678  1.00  0.00    -0.162 OA 
HETATM   10  H   UNL     1      -8.782   9.965  66.577  1.00  0.00     0.000 HD 
BRANCH   8  11
HETATM   11  C   UNL     1      -9.006  10.835  64.245  1.00  0.00    -0.158 C  
HETATM   12  H   UNL     1      -9.022  11.331  62.345  1.00  0.00     0.000 HD 
HETATM   13  O   UNL     1      -9.595  11.468  63.090  1.00  0.00    -0.355 OA 
BRANCH  11  14
HETATM   14  C   UNL     1      -8.730   9.368  63.883  1.00  0.00    -0.202 C  
HETATM   15  O   UNL     1      -9.082   8.490  64.954  1.00  0.00    -0.418 OA 
HETATM   16  H   UNL     1      -8.912   7.583  64.730  1.00  0.00     0.000 HD 
ENDBRANCH  11  14
ENDBRANCH   8  11
ENDBRANCH   5   8
ENDBRANCH   2   5
TORSDOF 4
ENDMDL
MODEL      175
REMARK 921   NORMALIZED FREE ENERGY PREDICTED BY IDOCK:   -3.24 KCAL/MOL
REMARK 922        TOTAL FREE ENERGY PREDICTED BY IDOCK:   -4.23 KCAL/MOL
REMARK 923 INTER-LIGAND FREE ENERGY PREDICTED BY IDOCK:   -3.92 KCAL/MOL
REMARK 924 INTRA-LIGAND FREE ENERGY PREDICTED BY IDOCK:   -0.31 KCAL/MOL
REMARK 927      BINDING AFFINITY PREDICTED BY RF-SCORE:    0.00 PKD
ROOT
HETATM    1  C   UNL     1      -9.623  19.345  67.240  1.00  0.00    -0.328 C  
HETATM    2  C   UNL     1     -10.576  18.470  68.019  1.00  0.00    -0.310 C  
HETATM    3  O   UNL     1     -10.000  20.120  66.359  1.00  0.00    -0.440 OA 
HETATM    4  F   UNL     1     -10.411  18.606  69.362  1.00  0.00    -0.329 F  
ENDROOT
BRANCH   2   5
HETATM    5  C   UNL     1     -10.475  16.989  67.637  1.00  0.00    -0.343 C  
HETATM    6  O   UNL     1     -11.756  16.328  67.718  1.00  0.00     0.016 OA 
HETATM    7  H   UNL     1     -11.694  15.410  67.481  1.00  0.00     0.000 HD 
BRANCH   5   8
HETATM    8  C   UNL     1      -9.912  16.659  66.236  1.00  0.00    -0.320 C  
HETATM    9  O   UNL     1     -10.815  17.280  65.281  1.00  0.00    -0.576 OA 
HETATM   10  H   UNL     1     -10.468  17.077  64.420  1.00  0.00     0.000 HD 
BRANCH   8  11
HETATM   11  C   UNL     1      -9.738  15.169  65.861  1.00  0.00    -0.350 C  
HETATM   12  H   UNL     1     -10.934  13.688  65.380  1.00  0.00     0.000 HD 
HETATM   13  O   UNL     1     -11.041  14.603  65.611  1.00  0.00    -0.319 OA 
BRANCH  11  14
HETATM   14  C   UNL     1      -9.046  14.297  66.920  1.00  0.00    -0.252 C  
HETATM   15  O   UNL     1      -9.005  12.925  66.522  1.00  0.00    -0.373 OA 
HETATM   16  H   UNL     1      -8.577  12.386  67.177  1.00  0.00     0.000 HD 
ENDBRANCH  11  14
ENDBRANCH   8  11
ENDBRANCH   5   8
ENDBRANCH   2   5
TORSDOF 4
ENDMDL
MODEL      176
REMARK 921   NORMALIZED FREE ENERGY PREDICTED BY IDOCK:   -3.22 KCAL/MOL
REMARK 922        TOTAL FREE ENERGY PREDICTED BY IDOCK:   -4.21 KCAL/MOL
REMARK 923 INTER-LIGAND FREE ENERGY PREDICTED BY IDOCK:   -3.90 KCAL/MOL
REMARK 924 INTRA-LIGAND FREE ENERGY PREDICTED BY IDOCK:   -0.31 KCAL/MOL
REMARK 927      BINDING AFFINITY PREDICTED BY RF-SCORE:    0.00 PKD
ROOT
HETATM    1  C   UNL     1      -9.239   9.878  68.947  1.00  0.00    -0.160 C  
HETATM    2  C   UNL     1     -10.475   9.614  68.120  1.00  0.00    -0.222 C  
HETATM    3  O   UNL     1      -9.095   9.438  70.089  1.00  0.00    -0.194 OA 
HETATM    4  F   UNL     1     -10.171   9.117  66.892  1.00  0.00    -0.258 F  
ENDROOT
BRANCH   2   5
HETATM    5  C   UNL     1     -11.366  10.852  67.966  1.00  0.00    -0.312 C  
HETATM    6  O   UNL     1     -12.587  10.729  68.727  1.00  0.00    -0.732 OA 
HETATM    7  H   UNL     1     -13.140  11.496  68.632  1.00  0.00     0.000 HD 
BRANCH   5   8
HETATM    8  C   UNL     1     -10.754  12.216  68.359  1.00  0.00    -0.228 C  
HETATM    9  O   UNL     1     -11.393  12.600  69.606  1.00  0.00    -0.439 OA 
HETATM   10  H   UNL     1     -11.016  13.439  69.848  1.00  0.00     0.000 HD 
BRANCH   8  11
HETATM   11  C   UNL     1     -10.883  13.382  67.353  1.00  0.00    -0.268 C  
HETATM   12  H   UNL     1     -12.231  13.983  66.057  1.00  0.00     0.000 HD 
HETATM   13  O   UNL     1     -12.151  13.267  66.675  1.00  0.00    -0.392 OA 
BRANCH  11  14
HETATM   14  C   UNL     1      -9.786  13.453  66.279  1.00  0.00    -0.290 C  
HETATM   15  O   UNL     1      -8.839  14.483  66.567  1.00  0.00    -0.408 OA 
HETATM   16  H   UNL     1      -8.161  14.527  65.903  1.00  0.00     0.000 HD 
ENDBRANCH  11  14
ENDBRANCH   8  11
ENDBRANCH   5   8
ENDBRANCH   2   5
TORSDOF 4
ENDMDL
MODEL      177
REMARK 921   NORMALIZED FREE ENERGY PREDICTED BY IDOCK:   -3.22 KCAL/MOL
REMARK 922        TOTAL FREE ENERGY PREDICTED BY IDOCK:   -4.20 KCAL/MOL
REMARK 923 INTER-LIGAND FREE ENERGY PREDICTED BY IDOCK:   -3.77 KCAL/MOL
REMARK 924 INTRA-LIGAND FREE ENERGY PREDICTED BY IDOCK:   -0.44 KCAL/MOL
REMARK 927      BINDING AFFINITY PREDICTED BY RF-SCORE:    0.00 PKD
ROOT
HETATM    1  C   UNL     1      -9.020   9.387  68.607  1.00  0.00    -0.132 C  
HETATM    2  C   UNL     1      -9.884  10.602  68.845  1.00  0.00    -0.201 C  
HETATM    3  O   UNL     1      -7.837   9.466  68.271  1.00  0.00    -0.090 OA 
HETATM    4  F   UNL     1     -10.500  10.561  70.056  1.00  0.00    -0.287 F  
ENDROOT
BRANCH   2   5
HETATM    5  C   UNL     1     -10.929  10.816  67.744  1.00  0.00    -0.297 C  
HETATM    6  O   UNL     1     -12.274  10.661  68.248  1.00  0.00    -0.799 OA 
HETATM    7  H   UNL     1     -12.922  10.794  67.566  1.00  0.00     0.000 HD 
BRANCH   5   8
HETATM    8  C   UNL     1     -10.904  12.170  67.000  1.00  0.00    -0.247 C  
HETATM    9  O   UNL     1     -12.267  12.411  66.555  1.00  0.00    -0.586 OA 
HETATM   10  H   UNL     1     -12.252  13.244  66.098  1.00  0.00     0.000 HD 
BRANCH   8  11
HETATM   11  C   UNL     1      -9.953  12.313  65.790  1.00  0.00    -0.254 C  
HETATM   12  H   UNL     1     -10.115  12.936  63.935  1.00  0.00     0.000 HD 
HETATM   13  O   UNL     1     -10.700  12.848  64.678  1.00  0.00    -0.314 OA 
BRANCH  11  14
HETATM   14  C   UNL     1      -9.284  11.013  65.318  1.00  0.00    -0.207 C  
HETATM   15  O   UNL     1      -7.879  11.024  65.578  1.00  0.00    -0.352 OA 
HETATM   16  H   UNL     1      -7.465  10.219  65.286  1.00  0.00     0.000 HD 
ENDBRANCH  11  14
ENDBRANCH   8  11
ENDBRANCH   5   8
ENDBRANCH   2   5
TORSDOF 4
ENDMDL
MODEL      178
REMARK 921   NORMALIZED FREE ENERGY PREDICTED BY IDOCK:   -3.21 KCAL/MOL
REMARK 922        TOTAL FREE ENERGY PREDICTED BY IDOCK:   -4.19 KCAL/MOL
REMARK 923 INTER-LIGAND FREE ENERGY PREDICTED BY IDOCK:   -3.65 KCAL/MOL
REMARK 924 INTRA-LIGAND FREE ENERGY PREDICTED BY IDOCK:   -0.54 KCAL/MOL
REMARK 927      BINDING AFFINITY PREDICTED BY RF-SCORE:    0.00 PKD
ROOT
HETATM    1  C   UNL     1     -10.165   8.458  67.414  1.00  0.00    -0.260 C  
HETATM    2  C   UNL     1     -10.766   9.709  68.009  1.00  0.00    -0.232 C  
HETATM    3  O   UNL     1     -10.840   7.603  66.838  1.00  0.00    -0.328 OA 
HETATM    4  F   UNL     1     -10.134  10.833  67.578  1.00  0.00    -0.189 F  
ENDROOT
BRANCH   2   5
HETATM    5  C   UNL     1     -10.790   9.689  69.541  1.00  0.00    -0.231 C  
HETATM    6  O   UNL     1     -12.042  10.189  70.061  1.00  0.00    -0.434 OA 
HETATM    7  H   UNL     1     -12.057  10.177  71.012  1.00  0.00     0.000 HD 
BRANCH   5   8
HETATM    8  C   UNL     1     -10.553   8.328  70.234  1.00  0.00    -0.227 C  
HETATM    9  O   UNL     1     -11.787   7.577  70.080  1.00  0.00    -0.496 OA 
HETATM   10  H   UNL     1     -11.641   6.740  70.506  1.00  0.00     0.000 HD 
BRANCH   8  11
HETATM   11  C   UNL     1     -10.158   8.338  71.728  1.00  0.00    -0.224 C  
HETATM   12  H   UNL     1      -8.702   7.579  72.806  1.00  0.00     0.000 HD 
HETATM   13  O   UNL     1      -8.945   7.573  71.888  1.00  0.00    -0.120 OA 
BRANCH  11  14
HETATM   14  C   UNL     1     -11.204   7.759  72.692  1.00  0.00    -0.381 C  
HETATM   15  O   UNL     1     -12.418   8.511  72.660  1.00  0.00    -0.527 OA 
HETATM   16  H   UNL     1     -13.065   8.152  73.256  1.00  0.00     0.000 HD 
ENDBRANCH  11  14
ENDBRANCH   8  11
ENDBRANCH   5   8
ENDBRANCH   2   5
TORSDOF 4
ENDMDL
MODEL      179
REMARK 921   NORMALIZED FREE ENERGY PREDICTED BY IDOCK:   -3.17 KCAL/MOL
REMARK 922        TOTAL FREE ENERGY PREDICTED BY IDOCK:   -4.14 KCAL/MOL
REMARK 923 INTER-LIGAND FREE ENERGY PREDICTED BY IDOCK:   -3.74 KCAL/MOL
REMARK 924 INTRA-LIGAND FREE ENERGY PREDICTED BY IDOCK:   -0.40 KCAL/MOL
REMARK 927      BINDING AFFINITY PREDICTED BY RF-SCORE:    0.00 PKD
ROOT
HETATM    1  C   UNL     1     -10.308   8.092  67.808  1.00  0.00    -0.233 C  
HETATM    2  C   UNL     1     -10.494   9.569  67.553  1.00  0.00    -0.275 C  
HETATM    3  O   UNL     1     -11.011   7.231  67.277  1.00  0.00    -0.293 OA 
HETATM    4  F   UNL     1      -9.334  10.173  67.182  1.00  0.00    -0.155 F  
ENDROOT
BRANCH   2   5
HETATM    5  C   UNL     1     -11.098  10.309  68.752  1.00  0.00    -0.228 C  
HETATM    6  O   UNL     1     -10.096  10.624  69.744  1.00  0.00    -0.420 OA 
HETATM    7  H   UNL     1     -10.470  11.083  70.487  1.00  0.00     0.000 HD 
BRANCH   5   8
HETATM    8  C   UNL     1     -11.843  11.632  68.462  1.00  0.00    -0.292 C  
HETATM    9  O   UNL     1     -11.938  11.734  67.016  1.00  0.00    -0.610 OA 
HETATM   10  H   UNL     1     -12.396  12.546  66.838  1.00  0.00     0.000 HD 
BRANCH   8  11
HETATM   11  C   UNL     1     -11.233  12.941  69.015  1.00  0.00    -0.267 C  
HETATM   12  H   UNL     1     -11.885  14.758  69.373  1.00  0.00     0.000 HD 
HETATM   13  O   UNL     1     -12.259  13.954  69.033  1.00  0.00    -0.350 OA 
BRANCH  11  14
HETATM   14  C   UNL     1     -10.040  13.500  68.224  1.00  0.00    -0.247 C  
HETATM   15  O   UNL     1      -8.797  13.141  68.829  1.00  0.00    -0.375 OA 
HETATM   16  H   UNL     1      -8.060  13.486  68.339  1.00  0.00     0.000 HD 
ENDBRANCH  11  14
ENDBRANCH   8  11
ENDBRANCH   5   8
ENDBRANCH   2   5
TORSDOF 4
ENDMDL
MODEL      180
REMARK 921   NORMALIZED FREE ENERGY PREDICTED BY IDOCK:   -3.17 KCAL/MOL
REMARK 922        TOTAL FREE ENERGY PREDICTED BY IDOCK:   -4.14 KCAL/MOL
REMARK 923 INTER-LIGAND FREE ENERGY PREDICTED BY IDOCK:   -4.02 KCAL/MOL
REMARK 924 INTRA-LIGAND FREE ENERGY PREDICTED BY IDOCK:   -0.13 KCAL/MOL
REMARK 927      BINDING AFFINITY PREDICTED BY RF-SCORE:    0.00 PKD
ROOT
HETATM    1  C   UNL     1     -10.567  11.639  64.521  1.00  0.00    -0.318 C  
HETATM    2  C   UNL     1     -10.184  12.272  65.837  1.00  0.00    -0.249 C  
HETATM    3  O   UNL     1     -10.188  12.079  63.434  1.00  0.00    -0.428 OA 
HETATM    4  F   UNL     1      -9.655  11.368  66.703  1.00  0.00    -0.187 F  
ENDROOT
BRANCH   2   5
HETATM    5  C   UNL     1     -11.350  13.006  66.508  1.00  0.00    -0.320 C  
HETATM    6  O   UNL     1     -12.048  12.154  67.443  1.00  0.00    -0.553 OA 
HETATM    7  H   UNL     1     -12.772  12.609  67.859  1.00  0.00     0.000 HD 
BRANCH   5   8
HETATM    8  C   UNL     1     -11.018  14.304  67.279  1.00  0.00    -0.297 C  
HETATM    9  O   UNL     1     -12.101  14.497  68.229  1.00  0.00    -0.524 OA 
HETATM   10  H   UNL     1     -11.897  15.294  68.703  1.00  0.00     0.000 HD 
BRANCH   8  11
HETATM   11  C   UNL     1     -10.837  15.603  66.460  1.00  0.00    -0.260 C  
HETATM   12  H   UNL     1     -10.239  16.054  64.645  1.00  0.00     0.000 HD 
HETATM   13  O   UNL     1     -10.350  15.256  65.148  1.00  0.00    -0.382 OA 
BRANCH  11  14
HETATM   14  C   UNL     1      -9.867  16.632  67.060  1.00  0.00    -0.260 C  
HETATM   15  O   UNL     1     -10.001  16.712  68.480  1.00  0.00    -0.238 OA 
HETATM   16  H   UNL     1      -9.401  17.349  68.851  1.00  0.00     0.000 HD 
ENDBRANCH  11  14
ENDBRANCH   8  11
ENDBRANCH   5   8
ENDBRANCH   2   5
TORSDOF 4
ENDMDL
MODEL      181
REMARK 921   NORMALIZED FREE ENERGY PREDICTED BY IDOCK:   -3.16 KCAL/MOL
REMARK 922        TOTAL FREE ENERGY PREDICTED BY IDOCK:   -4.13 KCAL/MOL
REMARK 923 INTER-LIGAND FREE ENERGY PREDICTED BY IDOCK:   -3.50 KCAL/MOL
REMARK 924 INTRA-LIGAND FREE ENERGY PREDICTED BY IDOCK:   -0.63 KCAL/MOL
REMARK 927      BINDING AFFINITY PREDICTED BY RF-SCORE:    0.00 PKD
ROOT
HETATM    1  C   UNL     1     -10.274  17.196  66.664  1.00  0.00    -0.319 C  
HETATM    2  C   UNL     1      -9.296  16.055  66.811  1.00  0.00    -0.238 C  
HETATM    3  O   UNL     1     -10.642  17.885  67.618  1.00  0.00    -0.390 OA 
HETATM    4  F   UNL     1      -8.256  16.161  65.942  1.00  0.00    -0.327 F  
ENDROOT
BRANCH   2   5
HETATM    5  C   UNL     1      -9.956  14.680  66.657  1.00  0.00    -0.274 C  
HETATM    6  O   UNL     1      -9.489  13.994  65.475  1.00  0.00    -0.525 OA 
HETATM    7  H   UNL     1      -9.899  13.141  65.379  1.00  0.00     0.000 HD 
BRANCH   5   8
HETATM    8  C   UNL     1      -9.789  13.682  67.825  1.00  0.00    -0.232 C  
HETATM    9  O   UNL     1      -9.137  14.419  68.895  1.00  0.00    -0.298 OA 
HETATM   10  H   UNL     1      -9.035  13.805  69.613  1.00  0.00     0.000 HD 
BRANCH   8  11
HETATM   11  C   UNL     1      -8.993  12.384  67.558  1.00  0.00    -0.183 C  
HETATM   12  H   UNL     1      -9.088  10.521  68.171  1.00  0.00     0.000 HD 
HETATM   13  O   UNL     1      -9.577  11.319  68.336  1.00  0.00    -0.182 OA 
BRANCH  11  14
HETATM   14  C   UNL     1      -7.496  12.444  67.899  1.00  0.00    -0.120 C  
HETATM   15  O   UNL     1      -6.823  13.437  67.124  1.00  0.00    -0.409 OA 
HETATM   16  H   UNL     1      -5.897  13.474  67.335  1.00  0.00     0.000 HD 
ENDBRANCH  11  14
ENDBRANCH   8  11
ENDBRANCH   5   8
ENDBRANCH   2   5
TORSDOF 4
ENDMDL
MODEL      182
REMARK 921   NORMALIZED FREE ENERGY PREDICTED BY IDOCK:   -3.15 KCAL/MOL
REMARK 922        TOTAL FREE ENERGY PREDICTED BY IDOCK:   -4.13 KCAL/MOL
REMARK 923 INTER-LIGAND FREE ENERGY PREDICTED BY IDOCK:   -3.86 KCAL/MOL
REMARK 924 INTRA-LIGAND FREE ENERGY PREDICTED BY IDOCK:   -0.27 KCAL/MOL
REMARK 927      BINDING AFFINITY PREDICTED BY RF-SCORE:    0.00 PKD
ROOT
HETATM    1  C   UNL     1      -8.469   6.047  71.822  1.00  0.00    -0.127 C  
HETATM    2  C   UNL     1      -9.396   6.461  72.941  1.00  0.00    -0.136 C  
HETATM    3  O   UNL     1      -7.255   5.909  71.981  1.00  0.00    -0.087 OA 
HETATM    4  F   UNL     1     -10.448   5.609  73.072  1.00  0.00    -0.194 F  
ENDROOT
BRANCH   2   5
HETATM    5  C   UNL     1      -9.912   7.896  72.788  1.00  0.00    -0.283 C  
HETATM    6  O   UNL     1      -8.838   8.824  72.523  1.00  0.00    -0.402 OA 
HETATM    7  H   UNL     1      -9.158   9.714  72.428  1.00  0.00     0.000 HD 
BRANCH   5   8
HETATM    8  C   UNL     1     -10.977   8.151  71.697  1.00  0.00    -0.250 C  
HETATM    9  O   UNL     1     -11.198   9.587  71.677  1.00  0.00    -0.378 OA 
HETATM   10  H   UNL     1     -11.852   9.744  71.006  1.00  0.00     0.000 HD 
BRANCH   8  11
HETATM   11  C   UNL     1     -12.342   7.439  71.839  1.00  0.00    -0.310 C  
HETATM   12  H   UNL     1     -13.357   6.117  70.800  1.00  0.00     0.000 HD 
HETATM   13  O   UNL     1     -12.518   6.554  70.713  1.00  0.00    -0.230 OA 
BRANCH  11  14
HETATM   14  C   UNL     1     -13.567   8.364  71.901  1.00  0.00    -0.379 C  
HETATM   15  O   UNL     1     -13.747   8.905  73.211  1.00  0.00    -1.085 OA 
HETATM   16  H   UNL     1     -14.505   9.478  73.249  1.00  0.00     0.000 HD 
ENDBRANCH  11  14
ENDBRANCH   8  11
ENDBRANCH   5   8
ENDBRANCH   2   5
TORSDOF 4
ENDMDL
MODEL      183
REMARK 921   NORMALIZED FREE ENERGY PREDICTED BY IDOCK:   -3.15 KCAL/MOL
REMARK 922        TOTAL FREE ENERGY PREDICTED BY IDOCK:   -4.12 KCAL/MOL
REMARK 923 INTER-LIGAND FREE ENERGY PREDICTED BY IDOCK:   -3.53 KCAL/MOL
REMARK 924 INTRA-LIGAND FREE ENERGY PREDICTED BY IDOCK:   -0.59 KCAL/MOL
REMARK 927      BINDING AFFINITY PREDICTED BY RF-SCORE:    0.00 PKD
ROOT
HETATM    1  C   UNL     1     -10.215   5.513  70.535  1.00  0.00    -0.242 C  
HETATM    2  C   UNL     1     -10.973   6.578  71.292  1.00  0.00    -0.262 C  
HETATM    3  O   UNL     1      -9.004   5.331  70.675  1.00  0.00    -0.129 OA 
HETATM    4  F   UNL     1     -12.063   6.073  71.928  1.00  0.00    -0.360 F  
ENDROOT
BRANCH   2   5
HETATM    5  C   UNL     1     -11.395   7.754  70.404  1.00  0.00    -0.207 C  
HETATM    6  O   UNL     1     -12.394   8.575  71.046  1.00  0.00    -0.434 OA 
HETATM    7  H   UNL     1     -12.656   9.304  70.495  1.00  0.00     0.000 HD 
BRANCH   5   8
HETATM    8  C   UNL     1     -10.283   8.720  69.936  1.00  0.00    -0.200 C  
HETATM    9  O   UNL     1     -10.286   9.825  70.880  1.00  0.00    -0.286 OA 
HETATM   10  H   UNL     1      -9.603  10.419  70.593  1.00  0.00     0.000 HD 
BRANCH   8  11
HETATM   11  C   UNL     1     -10.378   9.291  68.502  1.00  0.00    -0.209 C  
HETATM   12  H   UNL     1      -9.102   9.767  67.088  1.00  0.00     0.000 HD 
HETATM   13  O   UNL     1      -9.044   9.417  67.969  1.00  0.00    -0.128 OA 
BRANCH  11  14
HETATM   14  C   UNL     1     -11.061  10.662  68.380  1.00  0.00    -0.272 C  
HETATM   15  O   UNL     1     -12.402  10.623  68.869  1.00  0.00    -0.800 OA 
HETATM   16  H   UNL     1     -12.824  11.471  68.793  1.00  0.00     0.000 HD 
ENDBRANCH  11  14
ENDBRANCH   8  11
ENDBRANCH   5   8
ENDBRANCH   2   5
TORSDOF 4
ENDMDL
MODEL      184
REMARK 921   NORMALIZED FREE ENERGY PREDICTED BY IDOCK:   -3.14 KCAL/MOL
REMARK 922        TOTAL FREE ENERGY PREDICTED BY IDOCK:   -4.12 KCAL/MOL
REMARK 923 INTER-LIGAND FREE ENERGY PREDICTED BY IDOCK:   -3.51 KCAL/MOL
REMARK 924 INTRA-LIGAND FREE ENERGY PREDICTED BY IDOCK:   -0.61 KCAL/MOL
REMARK 927      BINDING AFFINITY PREDICTED BY RF-SCORE:    0.00 PKD
ROOT
HETATM    1  C   UNL     1     -13.059  10.668  71.220  1.00  0.00    -0.359 C  
HETATM    2  C   UNL     1     -11.677  10.067  71.117  1.00  0.00    -0.387 C  
HETATM    3  O   UNL     1     -13.332  11.580  72.003  1.00  0.00    -0.476 OA 
HETATM    4  F   UNL     1     -11.221  10.054  69.837  1.00  0.00    -0.241 F  
ENDROOT
BRANCH   2   5
HETATM    5  C   UNL     1     -11.596   8.654  71.705  1.00  0.00    -0.332 C  
HETATM    6  O   UNL     1     -11.716   7.642  70.682  1.00  0.00    -0.380 OA 
HETATM    7  H   UNL     1     -11.666   6.766  71.046  1.00  0.00     0.000 HD 
BRANCH   5   8
HETATM    8  C   UNL     1     -10.328   8.297  72.513  1.00  0.00    -0.331 C  
HETATM    9  O   UNL     1      -9.204   8.530  71.623  1.00  0.00    -0.189 OA 
HETATM   10  H   UNL     1      -8.424   8.311  72.120  1.00  0.00     0.000 HD 
BRANCH   8  11
HETATM   11  C   UNL     1     -10.218   6.867  73.090  1.00  0.00    -0.238 C  
HETATM   12  H   UNL     1      -9.842   6.081  74.850  1.00  0.00     0.000 HD 
HETATM   13  O   UNL     1      -9.909   6.960  74.496  1.00  0.00    -0.275 OA 
BRANCH  11  14
HETATM   14  C   UNL     1      -9.154   5.971  72.438  1.00  0.00    -0.136 C  
HETATM   15  O   UNL     1      -9.477   5.681  71.077  1.00  0.00    -0.160 OA 
HETATM   16  H   UNL     1      -8.819   5.127  70.674  1.00  0.00     0.000 HD 
ENDBRANCH  11  14
ENDBRANCH   8  11
ENDBRANCH   5   8
ENDBRANCH   2   5
TORSDOF 4
ENDMDL
MODEL      185
REMARK 921   NORMALIZED FREE ENERGY PREDICTED BY IDOCK:   -3.14 KCAL/MOL
REMARK 922        TOTAL FREE ENERGY PREDICTED BY IDOCK:   -4.10 KCAL/MOL
REMARK 923 INTER-LIGAND FREE ENERGY PREDICTED BY IDOCK:   -3.87 KCAL/MOL
REMARK 924 INTRA-LIGAND FREE ENERGY PREDICTED BY IDOCK:   -0.23 KCAL/MOL
REMARK 927      BINDING AFFINITY PREDICTED BY RF-SCORE:    0.00 PKD
ROOT
HETATM    1  C   UNL     1      -8.774   7.831  70.482  1.00  0.00    -0.140 C  
HETATM    2  C   UNL     1      -9.639   8.898  71.111  1.00  0.00    -0.272 C  
HETATM    3  O   UNL     1      -7.751   8.093  69.848  1.00  0.00    -0.093 OA 
HETATM    4  F   UNL     1      -9.873   8.653  72.428  1.00  0.00    -0.330 F  
ENDROOT
BRANCH   2   5
HETATM    5  C   UNL     1     -10.972   9.093  70.380  1.00  0.00    -0.248 C  
HETATM    6  O   UNL     1     -11.699   7.850  70.255  1.00  0.00    -0.473 OA 
HETATM    7  H   UNL     1     -12.525   7.971  69.802  1.00  0.00     0.000 HD 
BRANCH   5   8
HETATM    8  C   UNL     1     -11.967  10.110  70.984  1.00  0.00    -0.378 C  
HETATM    9  O   UNL     1     -13.290   9.679  70.564  1.00  0.00    -0.577 OA 
HETATM   10  H   UNL     1     -13.901  10.304  70.936  1.00  0.00     0.000 HD 
BRANCH   8  11
HETATM   11  C   UNL     1     -11.789  11.601  70.615  1.00  0.00    -0.138 C  
HETATM   12  H   UNL     1     -12.815  13.253  70.887  1.00  0.00     0.000 HD 
HETATM   13  O   UNL     1     -12.924  12.337  71.114  1.00  0.00    -0.267 OA 
BRANCH  11  14
HETATM   14  C   UNL     1     -11.663  11.899  69.113  1.00  0.00    -0.319 C  
HETATM   15  O   UNL     1     -12.524  11.061  68.340  1.00  0.00    -0.634 OA 
HETATM   16  H   UNL     1     -12.446  11.246  67.411  1.00  0.00     0.000 HD 
ENDBRANCH  11  14
ENDBRANCH   8  11
ENDBRANCH   5   8
ENDBRANCH   2   5
TORSDOF 4
ENDMDL
MODEL      186
REMARK 921   NORMALIZED FREE ENERGY PREDICTED BY IDOCK:   -3.12 KCAL/MOL
REMARK 922        TOTAL FREE ENERGY PREDICTED BY IDOCK:   -4.08 KCAL/MOL
REMARK 923 INTER-LIGAND FREE ENERGY PREDICTED BY IDOCK:   -3.66 KCAL/MOL
REMARK 924 INTRA-LIGAND FREE ENERGY PREDICTED BY IDOCK:   -0.42 KCAL/MOL
REMARK 927      BINDING AFFINITY PREDICTED BY RF-SCORE:    0.00 PKD
ROOT
HETATM    1  C   UNL     1     -12.513   8.860  72.165  1.00  0.00    -0.389 C  
HETATM    2  C   UNL     1     -11.755   7.568  72.355  1.00  0.00    -0.290 C  
HETATM    3  O   UNL     1     -13.697   8.894  71.825  1.00  0.00    -0.384 OA 
HETATM    4  F   UNL     1     -11.142   7.510  73.567  1.00  0.00    -0.420 F  
ENDROOT
BRANCH   2   5
HETATM    5  C   UNL     1     -10.727   7.312  71.248  1.00  0.00    -0.225 C  
HETATM    6  O   UNL     1     -10.446   5.903  71.096  1.00  0.00    -0.214 OA 
HETATM    7  H   UNL     1      -9.808   5.744  70.410  1.00  0.00     0.000 HD 
BRANCH   5   8
HETATM    8  C   UNL     1     -11.067   7.834  69.833  1.00  0.00    -0.136 C  
HETATM    9  O   UNL     1     -11.574   6.691  69.092  1.00  0.00    -0.617 OA 
HETATM   10  H   UNL     1     -11.783   7.012  68.223  1.00  0.00     0.000 HD 
BRANCH   8  11
HETATM   11  C   UNL     1      -9.934   8.494  69.015  1.00  0.00    -0.193 C  
HETATM   12  H   UNL     1      -8.152   7.959  68.387  1.00  0.00     0.000 HD 
HETATM   13  O   UNL     1      -8.848   7.553  68.889  1.00  0.00    -0.135 OA 
BRANCH  11  14
HETATM   14  C   UNL     1      -9.360   9.791  69.608  1.00  0.00    -0.219 C  
HETATM   15  O   UNL     1     -10.397  10.674  70.036  1.00  0.00    -0.441 OA 
HETATM   16  H   UNL     1     -10.042  11.476  70.403  1.00  0.00     0.000 HD 
ENDBRANCH  11  14
ENDBRANCH   8  11
ENDBRANCH   5   8
ENDBRANCH   2   5
TORSDOF 4
ENDMDL
MODEL      187
REMARK 921   NORMALIZED FREE ENERGY PREDICTED BY IDOCK:   -3.11 KCAL/MOL
REMARK 922        TOTAL FREE ENERGY PREDICTED BY IDOCK:   -4.07 KCAL/MOL
REMARK 923 INTER-LIGAND FREE ENERGY PREDICTED BY IDOCK:   -3.75 KCAL/MOL
REMARK 924 INTRA-LIGAND FREE ENERGY PREDICTED BY IDOCK:   -0.32 KCAL/MOL
REMARK 927      BINDING AFFINITY PREDICTED BY RF-SCORE:    0.00 PKD
ROOT
HETATM    1  C   UNL     1     -12.421  12.830  64.004  1.00  0.00    -0.360 C  
HETATM    2  C   UNL     1     -12.023  12.756  65.459  1.00  0.00    -0.449 C  
HETATM    3  O   UNL     1     -12.924  11.879  63.403  1.00  0.00    -0.730 OA 
HETATM    4  F   UNL     1     -12.554  13.776  66.185  1.00  0.00    -0.456 F  
ENDROOT
BRANCH   2   5
HETATM    5  C   UNL     1     -10.504  12.719  65.660  1.00  0.00    -0.278 C  
HETATM    6  O   UNL     1     -10.105  13.434  66.851  1.00  0.00    -0.247 OA 
HETATM    7  H   UNL     1      -9.164  13.411  66.975  1.00  0.00     0.000 HD 
BRANCH   5   8
HETATM    8  C   UNL     1      -9.838  11.328  65.754  1.00  0.00    -0.232 C  
HETATM    9  O   UNL     1     -10.009  10.710  64.449  1.00  0.00    -0.304 OA 
HETATM   10  H   UNL     1      -9.599   9.855  64.507  1.00  0.00     0.000 HD 
BRANCH   8  11
HETATM   11  C   UNL     1     -10.351  10.353  66.838  1.00  0.00    -0.240 C  
HETATM   12  H   UNL     1     -10.790  10.473  68.748  1.00  0.00     0.000 HD 
HETATM   13  O   UNL     1     -10.475  11.072  68.082  1.00  0.00    -0.175 OA 
BRANCH  11  14
HETATM   14  C   UNL     1      -9.464   9.125  67.096  1.00  0.00    -0.154 C  
HETATM   15  O   UNL     1      -8.814   9.207  68.365  1.00  0.00    -0.129 OA 
HETATM   16  H   UNL     1      -8.265   8.447  68.524  1.00  0.00     0.000 HD 
ENDBRANCH  11  14
ENDBRANCH   8  11
ENDBRANCH   5   8
ENDBRANCH   2   5
TORSDOF 4
ENDMDL
MODEL      188
REMARK 921   NORMALIZED FREE ENERGY PREDICTED BY IDOCK:   -3.11 KCAL/MOL
REMARK 922        TOTAL FREE ENERGY PREDICTED BY IDOCK:   -4.07 KCAL/MOL
REMARK 923 INTER-LIGAND FREE ENERGY PREDICTED BY IDOCK:   -3.84 KCAL/MOL
REMARK 924 INTRA-LIGAND FREE ENERGY PREDICTED BY IDOCK:   -0.23 KCAL/MOL
REMARK 927      BINDING AFFINITY PREDICTED BY RF-SCORE:    0.00 PKD
ROOT
HETATM    1  C   UNL     1     -11.921  13.678  67.874  1.00  0.00    -0.347 C  
HETATM    2  C   UNL     1     -11.185  12.370  68.037  1.00  0.00    -0.268 C  
HETATM    3  O   UNL     1     -11.354  14.728  67.564  1.00  0.00    -0.319 OA 
HETATM    4  F   UNL     1     -11.749  11.373  67.305  1.00  0.00    -0.355 F  
ENDROOT
BRANCH   2   5
HETATM    5  C   UNL     1     -11.069  11.929  69.500  1.00  0.00    -0.102 C  
HETATM    6  O   UNL     1     -11.730  12.855  70.391  1.00  0.00    -0.534 OA 
HETATM    7  H   UNL     1     -11.658  12.581  71.298  1.00  0.00     0.000 HD 
BRANCH   5   8
HETATM    8  C   UNL     1     -11.611  10.528  69.861  1.00  0.00    -0.307 C  
HETATM    9  O   UNL     1     -12.904  10.745  70.489  1.00  0.00    -0.326 OA 
HETATM   10  H   UNL     1     -13.238   9.884  70.710  1.00  0.00     0.000 HD 
BRANCH   8  11
HETATM   11  C   UNL     1     -10.752   9.636  70.787  1.00  0.00    -0.331 C  
HETATM   12  H   UNL     1      -8.850   9.168  70.924  1.00  0.00     0.000 HD 
HETATM   13  O   UNL     1      -9.378   9.715  70.355  1.00  0.00    -0.251 OA 
BRANCH  11  14
HETATM   14  C   UNL     1     -11.144   8.151  70.826  1.00  0.00    -0.259 C  
HETATM   15  O   UNL     1     -11.522   7.677  69.532  1.00  0.00    -0.442 OA 
HETATM   16  H   UNL     1     -11.764   6.758  69.557  1.00  0.00     0.000 HD 
ENDBRANCH  11  14
ENDBRANCH   8  11
ENDBRANCH   5   8
ENDBRANCH   2   5
TORSDOF 4
ENDMDL
MODEL      189
REMARK 921   NORMALIZED FREE ENERGY PREDICTED BY IDOCK:   -3.10 KCAL/MOL
REMARK 922        TOTAL FREE ENERGY PREDICTED BY IDOCK:   -4.06 KCAL/MOL
REMARK 923 INTER-LIGAND FREE ENERGY PREDICTED BY IDOCK:   -3.58 KCAL/MOL
REMARK 924 INTRA-LIGAND FREE ENERGY PREDICTED BY IDOCK:   -0.48 KCAL/MOL
REMARK 927      BINDING AFFINITY PREDICTED BY RF-SCORE:    0.00 PKD
ROOT
HETATM    1  C   UNL     1     -10.124  13.923  65.640  1.00  0.00    -0.313 C  
HETATM    2  C   UNL     1     -10.859  14.466  66.843  1.00  0.00    -0.301 C  
HETATM    3  O   UNL     1     -10.537  12.965  64.984  1.00  0.00    -0.294 OA 
HETATM    4  F   UNL     1     -11.065  15.807  66.752  1.00  0.00    -0.318 F  
ENDROOT
BRANCH   2   5
HETATM    5  C   UNL     1     -10.157  14.144  68.167  1.00  0.00    -0.239 C  
HETATM    6  O   UNL     1     -10.322  15.206  69.131  1.00  0.00    -0.230 OA 
HETATM    7  H   UNL     1      -9.886  15.006  69.952  1.00  0.00     0.000 HD 
BRANCH   5   8
HETATM    8  C   UNL     1     -10.575  12.843  68.889  1.00  0.00    -0.123 C  
HETATM    9  O   UNL     1     -10.422  11.774  67.916  1.00  0.00    -0.188 OA 
HETATM   10  H   UNL     1     -10.679  10.974  68.360  1.00  0.00     0.000 HD 
BRANCH   8  11
HETATM   11  C   UNL     1     -12.000  12.773  69.485  1.00  0.00    -0.276 C  
HETATM   12  H   UNL     1     -13.003  13.755  70.858  1.00  0.00     0.000 HD 
HETATM   13  O   UNL     1     -12.128  13.798  70.492  1.00  0.00    -0.330 OA 
BRANCH  11  14
HETATM   14  C   UNL     1     -12.381  11.433  70.133  1.00  0.00    -0.266 C  
HETATM   15  O   UNL     1     -12.445  10.384  69.165  1.00  0.00    -0.705 OA 
HETATM   16  H   UNL     1     -12.681   9.556  69.566  1.00  0.00     0.000 HD 
ENDBRANCH  11  14
ENDBRANCH   8  11
ENDBRANCH   5   8
ENDBRANCH   2   5
TORSDOF 4
ENDMDL
MODEL      190
REMARK 921   NORMALIZED FREE ENERGY PREDICTED BY IDOCK:   -3.10 KCAL/MOL
REMARK 922        TOTAL FREE ENERGY PREDICTED BY IDOCK:   -4.06 KCAL/MOL
REMARK 923 INTER-LIGAND FREE ENERGY PREDICTED BY IDOCK:   -3.74 KCAL/MOL
REMARK 924 INTRA-LIGAND FREE ENERGY PREDICTED BY IDOCK:   -0.32 KCAL/MOL
REMARK 927      BINDING AFFINITY PREDICTED BY RF-SCORE:    0.00 PKD
ROOT
HETATM    1  C   UNL     1      -9.455  10.037  66.104  1.00  0.00    -0.190 C  
HETATM    2  C   UNL     1      -9.486  11.227  67.033  1.00  0.00    -0.171 C  
HETATM    3  O   UNL     1      -9.731  10.121  64.906  1.00  0.00    -0.287 OA 
HETATM    4  F   UNL     1      -8.324  11.364  67.726  1.00  0.00    -0.115 F  
ENDROOT
BRANCH   2   5
HETATM    5  C   UNL     1     -10.665  11.190  68.012  1.00  0.00    -0.211 C  
HETATM    6  O   UNL     1     -10.227  11.322  69.381  1.00  0.00    -0.421 OA 
HETATM    7  H   UNL     1     -10.958  11.299  69.988  1.00  0.00     0.000 HD 
BRANCH   5   8
HETATM    8  C   UNL     1     -11.780  12.242  67.816  1.00  0.00    -0.337 C  
HETATM    9  O   UNL     1     -12.112  12.220  66.401  1.00  0.00    -0.623 OA 
HETATM   10  H   UNL     1     -12.797  12.867  66.281  1.00  0.00     0.000 HD 
BRANCH   8  11
HETATM   11  C   UNL     1     -11.478  13.700  68.233  1.00  0.00    -0.313 C  
HETATM   12  H   UNL     1      -9.867  14.738  68.663  1.00  0.00     0.000 HD 
HETATM   13  O   UNL     1     -10.053  13.843  68.406  1.00  0.00    -0.228 OA 
BRANCH  11  14
HETATM   14  C   UNL     1     -12.154  14.170  69.531  1.00  0.00    -0.340 C  
HETATM   15  O   UNL     1     -11.477  13.668  70.684  1.00  0.00    -0.502 OA 
HETATM   16  H   UNL     1     -11.896  13.959  71.486  1.00  0.00     0.000 HD 
ENDBRANCH  11  14
ENDBRANCH   8  11
ENDBRANCH   5   8
ENDBRANCH   2   5
TORSDOF 4
ENDMDL
MODEL      191
REMARK 921   NORMALIZED FREE ENERGY PREDICTED BY IDOCK:   -3.09 KCAL/MOL
REMARK 922        TOTAL FREE ENERGY PREDICTED BY IDOCK:   -4.05 KCAL/MOL
REMARK 923 INTER-LIGAND FREE ENERGY PREDICTED BY IDOCK:   -3.60 KCAL/MOL
REMARK 924 INTRA-LIGAND FREE ENERGY PREDICTED BY IDOCK:   -0.45 KCAL/MOL
REMARK 927      BINDING AFFINITY PREDICTED BY RF-SCORE:    0.00 PKD
ROOT
HETATM    1  C   UNL     1     -10.552  10.587  67.035  1.00  0.00    -0.253 C  
HETATM    2  C   UNL     1     -10.062   9.378  67.796  1.00  0.00    -0.198 C  
HETATM    3  O   UNL     1      -9.844  11.204  66.238  1.00  0.00    -0.202 OA 
HETATM    4  F   UNL     1     -10.899   8.315  67.659  1.00  0.00    -0.295 F  
ENDROOT
BRANCH   2   5
HETATM    5  C   UNL     1      -9.834   9.663  69.285  1.00  0.00    -0.189 C  
HETATM    6  O   UNL     1      -9.481  11.044  69.516  1.00  0.00    -0.407 OA 
HETATM    7  H   UNL     1      -9.339  11.221  70.439  1.00  0.00     0.000 HD 
BRANCH   5   8
HETATM    8  C   UNL     1     -11.001   9.353  70.250  1.00  0.00    -0.262 C  
HETATM    9  O   UNL     1     -11.845  10.536  70.255  1.00  0.00    -0.278 OA 
HETATM   10  H   UNL     1     -12.562  10.346  70.848  1.00  0.00     0.000 HD 
BRANCH   8  11
HETATM   11  C   UNL     1     -10.652   8.984  71.710  1.00  0.00    -0.356 C  
HETATM   12  H   UNL     1      -9.024   8.964  72.809  1.00  0.00     0.000 HD 
HETATM   13  O   UNL     1      -9.239   9.191  71.911  1.00  0.00    -0.354 OA 
BRANCH  11  14
HETATM   14  C   UNL     1     -10.975   7.539  72.121  1.00  0.00    -0.250 C  
HETATM   15  O   UNL     1     -11.103   7.415  73.539  1.00  0.00    -0.558 OA 
HETATM   16  H   UNL     1     -11.303   6.522  73.793  1.00  0.00     0.000 HD 
ENDBRANCH  11  14
ENDBRANCH   8  11
ENDBRANCH   5   8
ENDBRANCH   2   5
TORSDOF 4
ENDMDL
MODEL      192
REMARK 921   NORMALIZED FREE ENERGY PREDICTED BY IDOCK:   -3.08 KCAL/MOL
REMARK 922        TOTAL FREE ENERGY PREDICTED BY IDOCK:   -4.04 KCAL/MOL
REMARK 923 INTER-LIGAND FREE ENERGY PREDICTED BY IDOCK:   -3.76 KCAL/MOL
REMARK 924 INTRA-LIGAND FREE ENERGY PREDICTED BY IDOCK:   -0.28 KCAL/MOL
REMARK 927      BINDING AFFINITY PREDICTED BY RF-SCORE:    0.00 PKD
ROOT
HETATM    1  C   UNL     1     -12.011  14.587  69.649  1.00  0.00    -0.328 C  
HETATM    2  C   UNL     1     -10.951  15.453  70.287  1.00  0.00    -0.315 C  
HETATM    3  O   UNL     1     -12.246  13.437  70.025  1.00  0.00    -0.327 OA 
HETATM    4  F   UNL     1     -11.440  16.666  70.659  1.00  0.00    -0.354 F  
ENDROOT
BRANCH   2   5
HETATM    5  C   UNL     1      -9.722  15.648  69.392  1.00  0.00    -0.292 C  
HETATM    6  O   UNL     1      -9.188  14.386  68.935  1.00  0.00    -0.306 OA 
HETATM    7  H   UNL     1      -8.427  14.507  68.380  1.00  0.00     0.000 HD 
BRANCH   5   8
HETATM    8  C   UNL     1      -9.900  16.520  68.128  1.00  0.00    -0.244 C  
HETATM    9  O   UNL     1      -9.489  15.692  67.006  1.00  0.00    -0.216 OA 
HETATM   10  H   UNL     1      -9.599  16.227  66.229  1.00  0.00     0.000 HD 
BRANCH   8  11
HETATM   11  C   UNL     1      -9.135  17.862  68.062  1.00  0.00    -0.267 C  
HETATM   12  H   UNL     1      -7.388  18.520  68.673  1.00  0.00     0.000 HD 
HETATM   13  O   UNL     1      -7.858  17.696  68.713  1.00  0.00    -0.274 OA 
BRANCH  11  14
HETATM   14  C   UNL     1      -9.841  19.058  68.719  1.00  0.00    -0.425 C  
HETATM   15  O   UNL     1     -10.786  19.659  67.832  1.00  0.00    -0.408 OA 
HETATM   16  H   UNL     1     -11.222  20.398  68.239  1.00  0.00     0.000 HD 
ENDBRANCH  11  14
ENDBRANCH   8  11
ENDBRANCH   5   8
ENDBRANCH   2   5
TORSDOF 4
ENDMDL
MODEL      193
REMARK 921   NORMALIZED FREE ENERGY PREDICTED BY IDOCK:   -3.07 KCAL/MOL
REMARK 922        TOTAL FREE ENERGY PREDICTED BY IDOCK:   -4.03 KCAL/MOL
REMARK 923 INTER-LIGAND FREE ENERGY PREDICTED BY IDOCK:   -3.88 KCAL/MOL
REMARK 924 INTRA-LIGAND FREE ENERGY PREDICTED BY IDOCK:   -0.15 KCAL/MOL
REMARK 927      BINDING AFFINITY PREDICTED BY RF-SCORE:    0.00 PKD
ROOT
HETATM    1  C   UNL     1     -10.058  19.035  66.128  1.00  0.00    -0.406 C  
HETATM    2  C   UNL     1      -8.786  19.173  66.931  1.00  0.00    -0.305 C  
HETATM    3  O   UNL     1     -10.685  20.007  65.702  1.00  0.00    -0.439 OA 
HETATM    4  F   UNL     1      -7.774  18.426  66.415  1.00  0.00    -0.235 F  
ENDROOT
BRANCH   2   5
HETATM    5  C   UNL     1      -8.975  18.826  68.412  1.00  0.00    -0.335 C  
HETATM    6  O   UNL     1     -10.255  19.278  68.907  1.00  0.00    -0.520 OA 
HETATM    7  H   UNL     1     -10.372  19.063  69.825  1.00  0.00     0.000 HD 
BRANCH   5   8
HETATM    8  C   UNL     1      -8.867  17.336  68.808  1.00  0.00    -0.233 C  
HETATM    9  O   UNL     1      -7.451  17.011  68.772  1.00  0.00    -0.221 OA 
HETATM   10  H   UNL     1      -7.384  16.095  69.016  1.00  0.00     0.000 HD 
BRANCH   8  11
HETATM   11  C   UNL     1      -9.636  16.303  67.952  1.00  0.00    -0.227 C  
HETATM   12  H   UNL     1     -11.509  15.745  67.763  1.00  0.00     0.000 HD 
HETATM   13  O   UNL     1     -11.037  16.379  68.289  1.00  0.00    -0.347 OA 
BRANCH  11  14
HETATM   14  C   UNL     1      -9.194  14.842  68.123  1.00  0.00    -0.195 C  
HETATM   15  O   UNL     1      -9.713  14.276  69.328  1.00  0.00    -0.415 OA 
HETATM   16  H   UNL     1      -9.439  13.372  69.433  1.00  0.00     0.000 HD 
ENDBRANCH  11  14
ENDBRANCH   8  11
ENDBRANCH   5   8
ENDBRANCH   2   5
TORSDOF 4
ENDMDL
MODEL      194
REMARK 921   NORMALIZED FREE ENERGY PREDICTED BY IDOCK:   -3.07 KCAL/MOL
REMARK 922        TOTAL FREE ENERGY PREDICTED BY IDOCK:   -4.02 KCAL/MOL
REMARK 923 INTER-LIGAND FREE ENERGY PREDICTED BY IDOCK:   -4.00 KCAL/MOL
REMARK 924 INTRA-LIGAND FREE ENERGY PREDICTED BY IDOCK:   -0.02 KCAL/MOL
REMARK 927      BINDING AFFINITY PREDICTED BY RF-SCORE:    0.00 PKD
ROOT
HETATM    1  C   UNL     1     -11.575   5.795  72.312  1.00  0.00    -0.241 C  
HETATM    2  C   UNL     1     -12.313   6.642  71.303  1.00  0.00    -0.273 C  
HETATM    3  O   UNL     1     -12.134   4.933  72.994  1.00  0.00    -0.145 OA 
HETATM    4  F   UNL     1     -11.720   6.612  70.080  1.00  0.00    -0.400 F  
ENDROOT
BRANCH   2   5
HETATM    5  C   UNL     1     -12.483   8.096  71.755  1.00  0.00    -0.330 C  
HETATM    6  O   UNL     1     -12.422   8.219  73.193  1.00  0.00    -0.648 OA 
HETATM    7  H   UNL     1     -12.527   9.120  73.474  1.00  0.00     0.000 HD 
BRANCH   5   8
HETATM    8  C   UNL     1     -11.481   9.131  71.195  1.00  0.00    -0.318 C  
HETATM    9  O   UNL     1     -12.026   9.573  69.922  1.00  0.00    -0.455 OA 
HETATM   10  H   UNL     1     -11.411  10.209  69.578  1.00  0.00     0.000 HD 
BRANCH   8  11
HETATM   11  C   UNL     1     -10.019   8.678  70.980  1.00  0.00    -0.215 C  
HETATM   12  H   UNL     1      -8.386   8.620  72.071  1.00  0.00     0.000 HD 
HETATM   13  O   UNL     1      -9.285   8.898  72.202  1.00  0.00    -0.364 OA 
BRANCH  11  14
HETATM   14  C   UNL     1      -9.264   9.394  69.849  1.00  0.00    -0.208 C  
HETATM   15  O   UNL     1      -8.127  10.101  70.345  1.00  0.00    -0.403 OA 
HETATM   16  H   UNL     1      -7.660  10.543  69.645  1.00  0.00     0.000 HD 
ENDBRANCH  11  14
ENDBRANCH   8  11
ENDBRANCH   5   8
ENDBRANCH   2   5
TORSDOF 4
ENDMDL
MODEL      195
REMARK 921   NORMALIZED FREE ENERGY PREDICTED BY IDOCK:   -3.06 KCAL/MOL
REMARK 922        TOTAL FREE ENERGY PREDICTED BY IDOCK:   -4.01 KCAL/MOL
REMARK 923 INTER-LIGAND FREE ENERGY PREDICTED BY IDOCK:   -3.84 KCAL/MOL
REMARK 924 INTRA-LIGAND FREE ENERGY PREDICTED BY IDOCK:   -0.18 KCAL/MOL
REMARK 927      BINDING AFFINITY PREDICTED BY RF-SCORE:    0.00 PKD
ROOT
HETATM    1  C   UNL     1      -8.310   8.561  71.092  1.00  0.00    -0.150 C  
HETATM    2  C   UNL     1      -9.412   8.844  70.099  1.00  0.00    -0.180 C  
HETATM    3  O   UNL     1      -8.205   7.485  71.684  1.00  0.00    -0.100 OA 
HETATM    4  F   UNL     1      -8.926   9.297  68.913  1.00  0.00    -0.129 F  
ENDROOT
BRANCH   2   5
HETATM    5  C   UNL     1     -10.460   9.826  70.634  1.00  0.00    -0.289 C  
HETATM    6  O   UNL     1     -10.494  11.044  69.858  1.00  0.00    -0.446 OA 
HETATM    7  H   UNL     1     -11.144  11.653  70.190  1.00  0.00     0.000 HD 
BRANCH   5   8
HETATM    8  C   UNL     1     -11.920   9.327  70.712  1.00  0.00    -0.210 C  
HETATM    9  O   UNL     1     -12.727  10.334  70.042  1.00  0.00    -0.554 OA 
HETATM   10  H   UNL     1     -13.625  10.028  70.090  1.00  0.00     0.000 HD 
BRANCH   8  11
HETATM   11  C   UNL     1     -12.519   9.061  72.113  1.00  0.00    -0.380 C  
HETATM   12  H   UNL     1     -12.226   7.749  73.544  1.00  0.00     0.000 HD 
HETATM   13  O   UNL     1     -11.859   7.913  72.684  1.00  0.00    -0.353 OA 
BRANCH  11  14
HETATM   14  C   UNL     1     -14.031   8.794  72.145  1.00  0.00    -0.460 C  
HETATM   15  O   UNL     1     -14.314   7.395  72.197  1.00  0.00    -0.585 OA 
HETATM   16  H   UNL     1     -15.249   7.229  72.217  1.00  0.00     0.000 HD 
ENDBRANCH  11  14
ENDBRANCH   8  11
ENDBRANCH   5   8
ENDBRANCH   2   5
TORSDOF 4
ENDMDL
MODEL      196
REMARK 921   NORMALIZED FREE ENERGY PREDICTED BY IDOCK:   -3.06 KCAL/MOL
REMARK 922        TOTAL FREE ENERGY PREDICTED BY IDOCK:   -4.01 KCAL/MOL
REMARK 923 INTER-LIGAND FREE ENERGY PREDICTED BY IDOCK:   -3.82 KCAL/MOL
REMARK 924 INTRA-LIGAND FREE ENERGY PREDICTED BY IDOCK:   -0.19 KCAL/MOL
REMARK 927      BINDING AFFINITY PREDICTED BY RF-SCORE:    0.00 PKD
ROOT
HETATM    1  C   UNL     1      -9.841   6.458  72.884  1.00  0.00    -0.167 C  
HETATM    2  C   UNL     1     -10.367   7.869  72.771  1.00  0.00    -0.333 C  
HETATM    3  O   UNL     1      -8.783   6.185  73.454  1.00  0.00    -0.126 OA 
HETATM    4  F   UNL     1     -11.652   7.970  73.204  1.00  0.00    -0.451 F  
ENDROOT
BRANCH   2   5
HETATM    5  C   UNL     1     -10.258   8.434  71.350  1.00  0.00    -0.220 C  
HETATM    6  O   UNL     1      -9.776   7.443  70.417  1.00  0.00    -0.176 OA 
HETATM    7  H   UNL     1      -9.708   7.794  69.536  1.00  0.00     0.000 HD 
BRANCH   5   8
HETATM    8  C   UNL     1     -11.543   9.022  70.724  1.00  0.00    -0.265 C  
HETATM    9  O   UNL     1     -11.347   8.976  69.284  1.00  0.00    -0.430 OA 
HETATM   10  H   UNL     1     -12.137   9.337  68.899  1.00  0.00     0.000 HD 
BRANCH   8  11
HETATM   11  C   UNL     1     -11.952  10.458  71.125  1.00  0.00    -0.362 C  
HETATM   12  H   UNL     1     -13.504  11.292  71.991  1.00  0.00     0.000 HD 
HETATM   13  O   UNL     1     -13.253  10.409  71.745  1.00  0.00    -0.420 OA 
BRANCH  11  14
HETATM   14  C   UNL     1     -12.021  11.472  69.973  1.00  0.00    -0.357 C  
HETATM   15  O   UNL     1     -11.882  12.812  70.447  1.00  0.00    -0.516 OA 
HETATM   16  H   UNL     1     -11.925  13.439  69.734  1.00  0.00     0.000 HD 
ENDBRANCH  11  14
ENDBRANCH   8  11
ENDBRANCH   5   8
ENDBRANCH   2   5
TORSDOF 4
ENDMDL
MODEL      197
REMARK 921   NORMALIZED FREE ENERGY PREDICTED BY IDOCK:   -3.03 KCAL/MOL
REMARK 922        TOTAL FREE ENERGY PREDICTED BY IDOCK:   -3.98 KCAL/MOL
REMARK 923 INTER-LIGAND FREE ENERGY PREDICTED BY IDOCK:   -3.49 KCAL/MOL
REMARK 924 INTRA-LIGAND FREE ENERGY PREDICTED BY IDOCK:   -0.49 KCAL/MOL
REMARK 927      BINDING AFFINITY PREDICTED BY RF-SCORE:    0.00 PKD
ROOT
HETATM    1  C   UNL     1     -12.211   9.289  71.910  1.00  0.00    -0.378 C  
HETATM    2  C   UNL     1     -11.751   7.980  72.505  1.00  0.00    -0.387 C  
HETATM    3  O   UNL     1     -13.300   9.798  72.181  1.00  0.00    -0.434 OA 
HETATM    4  F   UNL     1     -10.517   8.081  73.068  1.00  0.00    -0.352 F  
ENDROOT
BRANCH   2   5
HETATM    5  C   UNL     1     -11.759   6.829  71.493  1.00  0.00    -0.317 C  
HETATM    6  O   UNL     1     -12.613   7.117  70.364  1.00  0.00    -0.612 OA 
HETATM    7  H   UNL     1     -12.618   6.404  69.736  1.00  0.00     0.000 HD 
BRANCH   5   8
HETATM    8  C   UNL     1     -10.398   6.399  70.901  1.00  0.00    -0.204 C  
HETATM    9  O   UNL     1     -10.113   7.334  69.826  1.00  0.00    -0.187 OA 
HETATM   10  H   UNL     1      -9.276   7.070  69.462  1.00  0.00     0.000 HD 
BRANCH   8  11
HETATM   11  C   UNL     1     -10.271   4.958  70.355  1.00  0.00    -0.222 C  
HETATM   12  H   UNL     1      -9.275   3.342  70.859  1.00  0.00     0.000 HD 
HETATM   13  O   UNL     1      -9.353   4.227  71.194  1.00  0.00    -0.130 OA 
BRANCH  11  14
HETATM   14  C   UNL     1      -9.771   4.842  68.906  1.00  0.00    -0.174 C  
HETATM   15  O   UNL     1      -8.408   5.252  68.790  1.00  0.00    -0.092 OA 
HETATM   16  H   UNL     1      -8.099   5.179  67.894  1.00  0.00     0.000 HD 
ENDBRANCH  11  14
ENDBRANCH   8  11
ENDBRANCH   5   8
ENDBRANCH   2   5
TORSDOF 4
ENDMDL
MODEL      198
REMARK 921   NORMALIZED FREE ENERGY PREDICTED BY IDOCK:   -3.02 KCAL/MOL
REMARK 922        TOTAL FREE ENERGY PREDICTED BY IDOCK:   -3.97 KCAL/MOL
REMARK 923 INTER-LIGAND FREE ENERGY PREDICTED BY IDOCK:   -3.40 KCAL/MOL
REMARK 924 INTRA-LIGAND FREE ENERGY PREDICTED BY IDOCK:   -0.56 KCAL/MOL
REMARK 927      BINDING AFFINITY PREDICTED BY RF-SCORE:    0.00 PKD
ROOT
HETATM    1  C   UNL     1      -9.227   6.565  67.794  1.00  0.00    -0.113 C  
HETATM    2  C   UNL     1     -10.646   6.130  68.071  1.00  0.00    -0.268 C  
HETATM    3  O   UNL     1      -8.302   5.765  67.644  1.00  0.00    -0.105 OA 
HETATM    4  F   UNL     1     -11.531   6.693  67.206  1.00  0.00    -0.418 F  
ENDROOT
BRANCH   2   5
HETATM    5  C   UNL     1     -11.086   6.413  69.512  1.00  0.00    -0.396 C  
HETATM    6  O   UNL     1     -10.742   5.327  70.399  1.00  0.00    -0.250 OA 
HETATM    7  H   UNL     1     -11.014   5.502  71.292  1.00  0.00     0.000 HD 
BRANCH   5   8
HETATM    8  C   UNL     1     -10.541   7.697  70.177  1.00  0.00    -0.236 C  
HETATM    9  O   UNL     1      -9.485   7.267  71.078  1.00  0.00    -0.159 OA 
HETATM   10  H   UNL     1      -9.150   8.057  71.487  1.00  0.00     0.000 HD 
BRANCH   8  11
HETATM   11  C   UNL     1     -11.536   8.583  70.962  1.00  0.00    -0.273 C  
HETATM   12  H   UNL     1     -11.771  10.508  71.268  1.00  0.00     0.000 HD 
HETATM   13  O   UNL     1     -11.160   9.964  70.786  1.00  0.00    -0.303 OA 
BRANCH  11  14
HETATM   14  C   UNL     1     -11.615   8.310  72.472  1.00  0.00    -0.385 C  
HETATM   15  O   UNL     1     -11.953   6.949  72.740  1.00  0.00    -0.498 OA 
HETATM   16  H   UNL     1     -12.002   6.780  73.674  1.00  0.00     0.000 HD 
ENDBRANCH  11  14
ENDBRANCH   8  11
ENDBRANCH   5   8
ENDBRANCH   2   5
TORSDOF 4
ENDMDL
MODEL      199
REMARK 921   NORMALIZED FREE ENERGY PREDICTED BY IDOCK:   -3.02 KCAL/MOL
REMARK 922        TOTAL FREE ENERGY PREDICTED BY IDOCK:   -3.96 KCAL/MOL
REMARK 923 INTER-LIGAND FREE ENERGY PREDICTED BY IDOCK:   -3.67 KCAL/MOL
REMARK 924 INTRA-LIGAND FREE ENERGY PREDICTED BY IDOCK:   -0.29 KCAL/MOL
REMARK 927      BINDING AFFINITY PREDICTED BY RF-SCORE:    0.00 PKD
ROOT
HETATM    1  C   UNL     1     -11.324   5.806  73.168  1.00  0.00    -0.144 C  
HETATM    2  C   UNL     1     -10.759   7.149  72.771  1.00  0.00    -0.288 C  
HETATM    3  O   UNL     1     -10.702   5.001  73.863  1.00  0.00    -0.271 OA 
HETATM    4  F   UNL     1     -11.607   8.168  73.072  1.00  0.00    -0.454 F  
ENDROOT
BRANCH   2   5
HETATM    5  C   UNL     1     -10.375   7.221  71.289  1.00  0.00    -0.193 C  
HETATM    6  O   UNL     1     -10.082   5.913  70.750  1.00  0.00    -0.184 OA 
HETATM    7  H   UNL     1      -9.844   5.958  69.831  1.00  0.00     0.000 HD 
BRANCH   5   8
HETATM    8  C   UNL     1     -11.399   7.861  70.325  1.00  0.00    -0.150 C  
HETATM    9  O   UNL     1     -11.935   6.773  69.524  1.00  0.00    -0.634 OA 
HETATM   10  H   UNL     1     -12.564   7.166  68.932  1.00  0.00     0.000 HD 
BRANCH   8  11
HETATM   11  C   UNL     1     -10.900   8.976  69.378  1.00  0.00    -0.138 C  
HETATM   12  H   UNL     1      -9.176   9.838  69.000  1.00  0.00     0.000 HD 
HETATM   13  O   UNL     1      -9.483   9.153  69.582  1.00  0.00    -0.160 OA 
BRANCH  11  14
HETATM   14  C   UNL     1     -11.571  10.347  69.558  1.00  0.00    -0.219 C  
HETATM   15  O   UNL     1     -12.203  10.782  68.353  1.00  0.00    -0.832 OA 
HETATM   16  H   UNL     1     -12.618  11.630  68.465  1.00  0.00     0.000 HD 
ENDBRANCH  11  14
ENDBRANCH   8  11
ENDBRANCH   5   8
ENDBRANCH   2   5
TORSDOF 4
ENDMDL
MODEL      200
REMARK 921   NORMALIZED FREE ENERGY PREDICTED BY IDOCK:   -3.00 KCAL/MOL
REMARK 922        TOTAL FREE ENERGY PREDICTED BY IDOCK:   -3.94 KCAL/MOL
REMARK 923 INTER-LIGAND FREE ENERGY PREDICTED BY IDOCK:   -3.72 KCAL/MOL
REMARK 924 INTRA-LIGAND FREE ENERGY PREDICTED BY IDOCK:   -0.22 KCAL/MOL
REMARK 927      BINDING AFFINITY PREDICTED BY RF-SCORE:    0.00 PKD
ROOT
HETATM    1  C   UNL     1      -9.336  10.796  68.647  1.00  0.00    -0.184 C  
HETATM    2  C   UNL     1      -8.646  12.050  68.164  1.00  0.00    -0.173 C  
HETATM    3  O   UNL     1      -8.718   9.799  69.025  1.00  0.00    -0.132 OA 
HETATM    4  F   UNL     1      -9.094  13.159  68.809  1.00  0.00    -0.132 F  
ENDROOT
BRANCH   2   5
HETATM    5  C   UNL     1      -8.767  12.253  66.650  1.00  0.00    -0.132 C  
HETATM    6  O   UNL     1      -7.704  11.586  65.935  1.00  0.00    -0.366 OA 
HETATM    7  H   UNL     1      -7.779  11.712  64.996  1.00  0.00     0.000 HD 
BRANCH   5   8
HETATM    8  C   UNL     1     -10.083  11.797  65.980  1.00  0.00    -0.231 C  
HETATM    9  O   UNL     1      -9.801  11.704  64.557  1.00  0.00    -0.243 OA 
HETATM   10  H   UNL     1     -10.610  11.423  64.145  1.00  0.00     0.000 HD 
BRANCH   8  11
HETATM   11  C   UNL     1     -11.339  12.676  66.182  1.00  0.00    -0.330 C  
HETATM   12  H   UNL     1     -12.876  12.679  67.404  1.00  0.00     0.000 HD 
HETATM   13  O   UNL     1     -12.104  12.139  67.280  1.00  0.00    -0.565 OA 
BRANCH  11  14
HETATM   14  C   UNL     1     -12.276  12.779  64.968  1.00  0.00    -0.473 C  
HETATM   15  O   UNL     1     -13.277  13.779  65.164  1.00  0.00    -0.757 OA 
HETATM   16  H   UNL     1     -13.856  13.843  64.413  1.00  0.00     0.000 HD 
ENDBRANCH  11  14
ENDBRANCH   8  11
ENDBRANCH   5   8
ENDBRANCH   2   5
TORSDOF 4
ENDMDL
MODEL      201
REMARK 921   NORMALIZED FREE ENERGY PREDICTED BY IDOCK:   -2.99 KCAL/MOL
REMARK 922        TOTAL FREE ENERGY PREDICTED BY IDOCK:   -3.93 KCAL/MOL
REMARK 923 INTER-LIGAND FREE ENERGY PREDICTED BY IDOCK:   -3.36 KCAL/MOL
REMARK 924 INTRA-LIGAND FREE ENERGY PREDICTED BY IDOCK:   -0.56 KCAL/MOL
REMARK 927      BINDING AFFINITY PREDICTED BY RF-SCORE:    0.00 PKD
ROOT
HETATM    1  C   UNL     1      -7.860   9.764  69.554  1.00  0.00    -0.128 C  
HETATM    2  C   UNL     1      -9.339   9.908  69.283  1.00  0.00    -0.206 C  
HETATM    3  O   UNL     1      -7.259  10.477  70.360  1.00  0.00    -0.248 OA 
HETATM    4  F   UNL     1      -9.997   8.724  69.406  1.00  0.00    -0.179 F  
ENDROOT
BRANCH   2   5
HETATM    5  C   UNL     1      -9.637  10.520  67.909  1.00  0.00    -0.150 C  
HETATM    6  O   UNL     1     -10.657   9.778  67.205  1.00  0.00    -0.252 OA 
HETATM    7  H   UNL     1     -10.841  10.158  66.353  1.00  0.00     0.000 HD 
BRANCH   5   8
HETATM    8  C   UNL     1     -10.085  11.999  67.877  1.00  0.00    -0.195 C  
HETATM    9  O   UNL     1      -9.461  12.634  69.026  1.00  0.00    -0.377 OA 
HETATM   10  H   UNL     1      -9.736  13.543  69.006  1.00  0.00     0.000 HD 
BRANCH   8  11
HETATM   11  C   UNL     1     -11.602  12.295  67.908  1.00  0.00    -0.354 C  
HETATM   12  H   UNL     1     -13.072  12.255  66.607  1.00  0.00     0.000 HD 
HETATM   13  O   UNL     1     -12.140  12.073  66.588  1.00  0.00    -0.615 OA 
BRANCH  11  14
HETATM   14  C   UNL     1     -11.989  13.719  68.336  1.00  0.00    -0.360 C  
HETATM   15  O   UNL     1     -12.032  13.844  69.758  1.00  0.00    -0.298 OA 
HETATM   16  H   UNL     1     -12.271  14.724  70.023  1.00  0.00     0.000 HD 
ENDBRANCH  11  14
ENDBRANCH   8  11
ENDBRANCH   5   8
ENDBRANCH   2   5
TORSDOF 4
ENDMDL
MODEL      202
REMARK 921   NORMALIZED FREE ENERGY PREDICTED BY IDOCK:   -2.98 KCAL/MOL
REMARK 922        TOTAL FREE ENERGY PREDICTED BY IDOCK:   -3.91 KCAL/MOL
REMARK 923 INTER-LIGAND FREE ENERGY PREDICTED BY IDOCK:   -3.72 KCAL/MOL
REMARK 924 INTRA-LIGAND FREE ENERGY PREDICTED BY IDOCK:   -0.19 KCAL/MOL
REMARK 927      BINDING AFFINITY PREDICTED BY RF-SCORE:    0.00 PKD
ROOT
HETATM    1  C   UNL     1      -9.381   8.631  69.886  1.00  0.00    -0.159 C  
HETATM    2  C   UNL     1      -9.586   7.165  70.188  1.00  0.00    -0.168 C  
HETATM    3  O   UNL     1      -9.903   9.527  70.550  1.00  0.00    -0.248 OA 
HETATM    4  F   UNL     1      -8.406   6.498  70.301  1.00  0.00    -0.118 F  
ENDROOT
BRANCH   2   5
HETATM    5  C   UNL     1     -10.476   6.462  69.158  1.00  0.00    -0.229 C  
HETATM    6  O   UNL     1     -11.878   6.607  69.476  1.00  0.00    -0.658 OA 
HETATM    7  H   UNL     1     -12.430   6.172  68.837  1.00  0.00     0.000 HD 
BRANCH   5   8
HETATM    8  C   UNL     1     -10.326   6.896  67.682  1.00  0.00    -0.205 C  
HETATM    9  O   UNL     1     -11.653   6.800  67.096  1.00  0.00    -0.725 OA 
HETATM   10  H   UNL     1     -11.561   7.067  66.189  1.00  0.00     0.000 HD 
BRANCH   8  11
HETATM   11  C   UNL     1      -9.332   6.111  66.796  1.00  0.00    -0.140 C  
HETATM   12  H   UNL     1      -8.412   6.426  65.090  1.00  0.00     0.000 HD 
HETATM   13  O   UNL     1      -9.023   6.908  65.634  1.00  0.00    -0.079 OA 
BRANCH  11  14
HETATM   14  C   UNL     1      -9.825   4.742  66.303  1.00  0.00    -0.220 C  
HETATM   15  O   UNL     1     -11.045   4.859  65.568  1.00  0.00    -0.769 OA 
HETATM   16  H   UNL     1     -11.349   4.011  65.263  1.00  0.00     0.000 HD 
ENDBRANCH  11  14
ENDBRANCH   8  11
ENDBRANCH   5   8
ENDBRANCH   2   5
TORSDOF 4
ENDMDL
MODEL      203
REMARK 921   NORMALIZED FREE ENERGY PREDICTED BY IDOCK:   -2.97 KCAL/MOL
REMARK 922        TOTAL FREE ENERGY PREDICTED BY IDOCK:   -3.90 KCAL/MOL
REMARK 923 INTER-LIGAND FREE ENERGY PREDICTED BY IDOCK:   -4.16 KCAL/MOL
REMARK 924 INTRA-LIGAND FREE ENERGY PREDICTED BY IDOCK:    0.26 KCAL/MOL
REMARK 927      BINDING AFFINITY PREDICTED BY RF-SCORE:    0.00 PKD
ROOT
HETATM    1  C   UNL     1     -10.045  14.268  66.271  1.00  0.00    -0.298 C  
HETATM    2  C   UNL     1     -10.657  14.399  64.896  1.00  0.00    -0.434 C  
HETATM    3  O   UNL     1      -8.891  14.619  66.523  1.00  0.00    -0.238 OA 
HETATM    4  F   UNL     1     -11.850  15.051  64.929  1.00  0.00    -0.367 F  
ENDROOT
BRANCH   2   5
HETATM    5  C   UNL     1     -10.829  13.050  64.189  1.00  0.00    -0.405 C  
HETATM    6  O   UNL     1      -9.600  12.611  63.571  1.00  0.00    -0.614 OA 
HETATM    7  H   UNL     1      -9.706  11.775  63.132  1.00  0.00     0.000 HD 
BRANCH   5   8
HETATM    8  C   UNL     1     -11.324  11.862  65.045  1.00  0.00    -0.273 C  
HETATM    9  O   UNL     1     -12.405  12.380  65.867  1.00  0.00    -0.638 OA 
HETATM   10  H   UNL     1     -12.710  11.650  66.393  1.00  0.00     0.000 HD 
BRANCH   8  11
HETATM   11  C   UNL     1     -10.299  11.154  65.960  1.00  0.00    -0.254 C  
HETATM   12  H   UNL     1      -8.909   9.786  65.725  1.00  0.00     0.000 HD 
HETATM   13  O   UNL     1      -9.539  10.221  65.163  1.00  0.00    -0.230 OA 
BRANCH  11  14
HETATM   14  C   UNL     1     -10.895  10.377  67.144  1.00  0.00    -0.238 C  
HETATM   15  O   UNL     1      -9.972   9.414  67.655  1.00  0.00    -0.169 OA 
HETATM   16  H   UNL     1     -10.341   8.934  68.388  1.00  0.00     0.000 HD 
ENDBRANCH  11  14
ENDBRANCH   8  11
ENDBRANCH   5   8
ENDBRANCH   2   5
TORSDOF 4
ENDMDL
MODEL      204
REMARK 921   NORMALIZED FREE ENERGY PREDICTED BY IDOCK:   -2.96 KCAL/MOL
REMARK 922        TOTAL FREE ENERGY PREDICTED BY IDOCK:   -3.89 KCAL/MOL
REMARK 923 INTER-LIGAND FREE ENERGY PREDICTED BY IDOCK:   -3.66 KCAL/MOL
REMARK 924 INTRA-LIGAND FREE ENERGY PREDICTED BY IDOCK:   -0.23 KCAL/MOL
REMARK 927      BINDING AFFINITY PREDICTED BY RF-SCORE:    0.00 PKD
ROOT
HETATM    1  C   UNL     1      -8.336   8.844  68.091  1.00  0.00    -0.125 C  
HETATM    2  C   UNL     1      -9.142   8.651  66.828  1.00  0.00    -0.149 C  
HETATM    3  O   UNL     1      -7.975   7.903  68.801  1.00  0.00    -0.119 OA 
HETATM    4  F   UNL     1      -8.574   9.275  65.762  1.00  0.00    -0.127 F  
ENDROOT
BRANCH   2   5
HETATM    5  C   UNL     1     -10.598   9.105  66.974  1.00  0.00    -0.195 C  
HETATM    6  O   UNL     1     -11.250   8.459  68.089  1.00  0.00    -0.312 OA 
HETATM    7  H   UNL     1     -12.153   8.740  68.179  1.00  0.00     0.000 HD 
BRANCH   5   8
HETATM    8  C   UNL     1     -10.851  10.620  67.152  1.00  0.00    -0.270 C  
HETATM    9  O   UNL     1     -12.044  10.736  67.973  1.00  0.00    -0.778 OA 
HETATM   10  H   UNL     1     -12.199  11.667  68.083  1.00  0.00     0.000 HD 
BRANCH   8  11
HETATM   11  C   UNL     1     -11.039  11.475  65.878  1.00  0.00    -0.214 C  
HETATM   12  H   UNL     1      -9.883  12.584  64.741  1.00  0.00     0.000 HD 
HETATM   13  O   UNL     1      -9.768  12.058  65.524  1.00  0.00    -0.238 OA 
BRANCH  11  14
HETATM   14  C   UNL     1     -12.059  12.618  65.993  1.00  0.00    -0.364 C  
HETATM   15  O   UNL     1     -13.102  12.487  65.025  1.00  0.00    -0.765 OA 
HETATM   16  H   UNL     1     -13.733  13.194  65.096  1.00  0.00     0.000 HD 
ENDBRANCH  11  14
ENDBRANCH   8  11
ENDBRANCH   5   8
ENDBRANCH   2   5
TORSDOF 4
ENDMDL
MODEL      205
REMARK 921   NORMALIZED FREE ENERGY PREDICTED BY IDOCK:   -2.96 KCAL/MOL
REMARK 922        TOTAL FREE ENERGY PREDICTED BY IDOCK:   -3.89 KCAL/MOL
REMARK 923 INTER-LIGAND FREE ENERGY PREDICTED BY IDOCK:   -3.39 KCAL/MOL
REMARK 924 INTRA-LIGAND FREE ENERGY PREDICTED BY IDOCK:   -0.49 KCAL/MOL
REMARK 927      BINDING AFFINITY PREDICTED BY RF-SCORE:    0.00 PKD
ROOT
HETATM    1  C   UNL     1     -11.621   9.742  71.393  1.00  0.00    -0.378 C  
HETATM    2  C   UNL     1     -11.089   8.366  71.713  1.00  0.00    -0.290 C  
HETATM    3  O   UNL     1     -12.780  10.083  71.640  1.00  0.00    -0.369 OA 
HETATM    4  F   UNL     1      -9.936   8.419  72.432  1.00  0.00    -0.288 F  
ENDROOT
BRANCH   2   5
HETATM    5  C   UNL     1     -10.875   7.504  70.464  1.00  0.00    -0.240 C  
HETATM    6  O   UNL     1     -12.043   6.711  70.157  1.00  0.00    -0.610 OA 
HETATM    7  H   UNL     1     -11.911   6.176  69.382  1.00  0.00     0.000 HD 
BRANCH   5   8
HETATM    8  C   UNL     1     -10.500   8.236  69.156  1.00  0.00    -0.206 C  
HETATM    9  O   UNL     1     -11.089   7.462  68.076  1.00  0.00    -0.470 OA 
HETATM   10  H   UNL     1     -10.859   7.912  67.272  1.00  0.00     0.000 HD 
BRANCH   8  11
HETATM   11  C   UNL     1      -8.999   8.450  68.853  1.00  0.00    -0.146 C  
HETATM   12  H   UNL     1      -7.581   9.634  69.521  1.00  0.00     0.000 HD 
HETATM   13  O   UNL     1      -8.504   9.503  69.706  1.00  0.00    -0.142 OA 
BRANCH  11  14
HETATM   14  C   UNL     1      -8.665   8.831  67.403  1.00  0.00    -0.130 C  
HETATM   15  O   UNL     1      -8.599   7.678  66.562  1.00  0.00    -0.125 OA 
HETATM   16  H   UNL     1      -8.392   7.913  65.665  1.00  0.00     0.000 HD 
ENDBRANCH  11  14
ENDBRANCH   8  11
ENDBRANCH   5   8
ENDBRANCH   2   5
TORSDOF 4
ENDMDL
MODEL      206
REMARK 921   NORMALIZED FREE ENERGY PREDICTED BY IDOCK:   -2.94 KCAL/MOL
REMARK 922        TOTAL FREE ENERGY PREDICTED BY IDOCK:   -3.87 KCAL/MOL
REMARK 923 INTER-LIGAND FREE ENERGY PREDICTED BY IDOCK:   -3.41 KCAL/MOL
REMARK 924 INTRA-LIGAND FREE ENERGY PREDICTED BY IDOCK:   -0.45 KCAL/MOL
REMARK 927      BINDING AFFINITY PREDICTED BY RF-SCORE:    0.00 PKD
ROOT
HETATM    1  C   UNL     1      -9.022   6.894  69.671  1.00  0.00    -0.144 C  
HETATM    2  C   UNL     1      -9.276   6.533  71.115  1.00  0.00    -0.156 C  
HETATM    3  O   UNL     1      -9.047   8.056  69.260  1.00  0.00    -0.148 OA 
HETATM    4  F   UNL     1      -8.286   5.755  71.628  1.00  0.00    -0.116 F  
ENDROOT
BRANCH   2   5
HETATM    5  C   UNL     1     -10.630   5.847  71.329  1.00  0.00    -0.252 C  
HETATM    6  O   UNL     1     -10.505   4.660  72.141  1.00  0.00    -0.197 OA 
HETATM    7  H   UNL     1     -11.345   4.235  72.274  1.00  0.00     0.000 HD 
BRANCH   5   8
HETATM    8  C   UNL     1     -11.754   6.690  71.974  1.00  0.00    -0.313 C  
HETATM    9  O   UNL     1     -12.607   5.750  72.682  1.00  0.00    -0.499 OA 
HETATM   10  H   UNL     1     -13.298   6.268  73.079  1.00  0.00     0.000 HD 
BRANCH   8  11
HETATM   11  C   UNL     1     -12.633   7.556  71.043  1.00  0.00    -0.189 C  
HETATM   12  H   UNL     1     -12.541   9.374  70.306  1.00  0.00     0.000 HD 
HETATM   13  O   UNL     1     -12.001   8.842  70.878  1.00  0.00    -0.279 OA 
BRANCH  11  14
HETATM   14  C   UNL     1     -14.069   7.802  71.530  1.00  0.00    -0.404 C  
HETATM   15  O   UNL     1     -14.087   8.370  72.840  1.00  0.00    -0.717 OA 
HETATM   16  H   UNL     1     -14.975   8.522  73.141  1.00  0.00     0.000 HD 
ENDBRANCH  11  14
ENDBRANCH   8  11
ENDBRANCH   5   8
ENDBRANCH   2   5
TORSDOF 4
ENDMDL
MODEL      207
REMARK 921   NORMALIZED FREE ENERGY PREDICTED BY IDOCK:   -2.94 KCAL/MOL
REMARK 922        TOTAL FREE ENERGY PREDICTED BY IDOCK:   -3.86 KCAL/MOL
REMARK 923 INTER-LIGAND FREE ENERGY PREDICTED BY IDOCK:   -3.49 KCAL/MOL
REMARK 924 INTRA-LIGAND FREE ENERGY PREDICTED BY IDOCK:   -0.37 KCAL/MOL
REMARK 927      BINDING AFFINITY PREDICTED BY RF-SCORE:    0.00 PKD
ROOT
HETATM    1  C   UNL     1     -10.362   7.353  68.065  1.00  0.00    -0.199 C  
HETATM    2  C   UNL     1      -9.180   7.557  68.983  1.00  0.00    -0.146 C  
HETATM    3  O   UNL     1     -10.493   7.963  67.002  1.00  0.00    -0.315 OA 
HETATM    4  F   UNL     1      -8.577   6.382  69.306  1.00  0.00    -0.121 F  
ENDROOT
BRANCH   2   5
HETATM    5  C   UNL     1      -9.543   8.317  70.263  1.00  0.00    -0.168 C  
HETATM    6  O   UNL     1      -8.394   8.979  70.835  1.00  0.00    -0.167 OA 
HETATM    7  H   UNL     1      -8.619   9.450  71.629  1.00  0.00     0.000 HD 
BRANCH   5   8
HETATM    8  C   UNL     1     -10.647   9.395  70.156  1.00  0.00    -0.240 C  
HETATM    9  O   UNL     1      -9.980  10.614  69.729  1.00  0.00    -0.429 OA 
HETATM   10  H   UNL     1     -10.658  11.276  69.663  1.00  0.00     0.000 HD 
BRANCH   8  11
HETATM   11  C   UNL     1     -11.483   9.700  71.419  1.00  0.00    -0.385 C  
HETATM   12  H   UNL     1     -12.208   8.657  72.916  1.00  0.00     0.000 HD 
HETATM   13  O   UNL     1     -11.695   8.469  72.140  1.00  0.00    -0.333 OA 
BRANCH  11  14
HETATM   14  C   UNL     1     -12.859  10.334  71.164  1.00  0.00    -0.408 C  
HETATM   15  O   UNL     1     -13.144  10.420  69.767  1.00  0.00    -0.577 OA 
HETATM   16  H   UNL     1     -13.995  10.812  69.610  1.00  0.00     0.000 HD 
ENDBRANCH  11  14
ENDBRANCH   8  11
ENDBRANCH   5   8
ENDBRANCH   2   5
TORSDOF 4
ENDMDL
MODEL      208
REMARK 921   NORMALIZED FREE ENERGY PREDICTED BY IDOCK:   -2.94 KCAL/MOL
REMARK 922        TOTAL FREE ENERGY PREDICTED BY IDOCK:   -3.86 KCAL/MOL
REMARK 923 INTER-LIGAND FREE ENERGY PREDICTED BY IDOCK:   -3.48 KCAL/MOL
REMARK 924 INTRA-LIGAND FREE ENERGY PREDICTED BY IDOCK:   -0.38 KCAL/MOL
REMARK 927      BINDING AFFINITY PREDICTED BY RF-SCORE:    0.00 PKD
ROOT
HETATM    1  C   UNL     1     -10.380  15.774  67.520  1.00  0.00    -0.280 C  
HETATM    2  C   UNL     1     -10.051  16.767  66.430  1.00  0.00    -0.317 C  
HETATM    3  O   UNL     1     -11.519  15.342  67.705  1.00  0.00    -0.335 OA 
HETATM    4  F   UNL     1      -9.018  16.347  65.653  1.00  0.00    -0.306 F  
ENDROOT
BRANCH   2   5
HETATM    5  C   UNL     1      -9.749  18.169  66.971  1.00  0.00    -0.307 C  
HETATM    6  O   UNL     1     -10.279  18.352  68.302  1.00  0.00    -0.363 OA 
HETATM    7  H   UNL     1     -10.092  19.222  68.638  1.00  0.00     0.000 HD 
BRANCH   5   8
HETATM    8  C   UNL     1      -8.265  18.595  67.039  1.00  0.00    -0.253 C  
HETATM    9  O   UNL     1      -7.867  18.888  65.672  1.00  0.00    -0.459 OA 
HETATM   10  H   UNL     1      -6.955  19.150  65.714  1.00  0.00     0.000 HD 
BRANCH   8  11
HETATM   11  C   UNL     1      -7.254  17.598  67.649  1.00  0.00    -0.178 C  
HETATM   12  H   UNL     1      -6.729  17.055  69.462  1.00  0.00     0.000 HD 
HETATM   13  O   UNL     1      -7.350  17.668  69.087  1.00  0.00    -0.223 OA 
BRANCH  11  14
HETATM   14  C   UNL     1      -5.784  17.830  67.268  1.00  0.00    -0.138 C  
HETATM   15  O   UNL     1      -5.453  17.179  66.040  1.00  0.00    -0.318 OA 
HETATM   16  H   UNL     1      -4.544  17.323  65.805  1.00  0.00     0.000 HD 
ENDBRANCH  11  14
ENDBRANCH   8  11
ENDBRANCH   5   8
ENDBRANCH   2   5
TORSDOF 4
ENDMDL
MODEL      209
REMARK 921   NORMALIZED FREE ENERGY PREDICTED BY IDOCK:   -2.94 KCAL/MOL
REMARK 922        TOTAL FREE ENERGY PREDICTED BY IDOCK:   -3.86 KCAL/MOL
REMARK 923 INTER-LIGAND FREE ENERGY PREDICTED BY IDOCK:   -3.28 KCAL/MOL
REMARK 924 INTRA-LIGAND FREE ENERGY PREDICTED BY IDOCK:   -0.57 KCAL/MOL
REMARK 927      BINDING AFFINITY PREDICTED BY RF-SCORE:    0.00 PKD
ROOT
HETATM    1  C   UNL     1     -11.759   7.325  70.839  1.00  0.00    -0.315 C  
HETATM    2  C   UNL     1     -11.077   8.596  71.288  1.00  0.00    -0.272 C  
HETATM    3  O   UNL     1     -11.169   6.246  70.760  1.00  0.00    -0.293 OA 
HETATM    4  F   UNL     1     -11.753   9.208  72.296  1.00  0.00    -0.418 F  
ENDROOT
BRANCH   2   5
HETATM    5  C   UNL     1     -10.854   9.590  70.142  1.00  0.00    -0.258 C  
HETATM    6  O   UNL     1     -11.048  10.954  70.574  1.00  0.00    -0.449 OA 
HETATM    7  H   UNL     1     -10.910  11.570  69.864  1.00  0.00     0.000 HD 
BRANCH   5   8
HETATM    8  C   UNL     1      -9.479   9.556  69.437  1.00  0.00    -0.176 C  
HETATM    9  O   UNL     1      -8.510  10.014  70.420  1.00  0.00    -0.339 OA 
HETATM   10  H   UNL     1      -7.665   9.994  69.986  1.00  0.00     0.000 HD 
BRANCH   8  11
HETATM   11  C   UNL     1      -9.309  10.389  68.146  1.00  0.00    -0.145 C  
HETATM   12  H   UNL     1      -8.723  10.032  66.305  1.00  0.00     0.000 HD 
HETATM   13  O   UNL     1      -8.827   9.521  67.099  1.00  0.00    -0.130 OA 
BRANCH  11  14
HETATM   14  C   UNL     1      -8.341  11.578  68.247  1.00  0.00    -0.154 C  
HETATM   15  O   UNL     1      -8.910  12.652  68.997  1.00  0.00    -0.333 OA 
HETATM   16  H   UNL     1      -8.311  13.387  69.060  1.00  0.00     0.000 HD 
ENDBRANCH  11  14
ENDBRANCH   8  11
ENDBRANCH   5   8
ENDBRANCH   2   5
TORSDOF 4
ENDMDL
MODEL      210
REMARK 921   NORMALIZED FREE ENERGY PREDICTED BY IDOCK:   -2.92 KCAL/MOL
REMARK 922        TOTAL FREE ENERGY PREDICTED BY IDOCK:   -3.84 KCAL/MOL
REMARK 923 INTER-LIGAND FREE ENERGY PREDICTED BY IDOCK:   -3.70 KCAL/MOL
REMARK 924 INTRA-LIGAND FREE ENERGY PREDICTED BY IDOCK:   -0.13 KCAL/MOL
REMARK 927      BINDING AFFINITY PREDICTED BY RF-SCORE:    0.00 PKD
ROOT
HETATM    1  C   UNL     1      -8.397  10.577  68.875  1.00  0.00    -0.147 C  
HETATM    2  C   UNL     1      -8.992  11.851  68.324  1.00  0.00    -0.178 C  
HETATM    3  O   UNL     1      -8.213   9.574  68.183  1.00  0.00    -0.112 OA 
HETATM    4  F   UNL     1      -8.220  12.936  68.603  1.00  0.00    -0.144 F  
ENDROOT
BRANCH   2   5
HETATM    5  C   UNL     1     -10.423  12.100  68.811  1.00  0.00    -0.176 C  
HETATM    6  O   UNL     1     -10.600  13.455  69.279  1.00  0.00    -0.438 OA 
HETATM    7  H   UNL     1     -11.487  13.610  69.581  1.00  0.00     0.000 HD 
BRANCH   5   8
HETATM    8  C   UNL     1     -11.567  11.844  67.803  1.00  0.00    -0.323 C  
HETATM    9  O   UNL     1     -12.010  10.479  68.034  1.00  0.00    -0.758 OA 
HETATM   10  H   UNL     1     -12.713  10.322  67.415  1.00  0.00     0.000 HD 
BRANCH   8  11
HETATM   11  C   UNL     1     -11.256  12.019  66.299  1.00  0.00    -0.342 C  
HETATM   12  H   UNL     1     -12.267  12.562  64.705  1.00  0.00     0.000 HD 
HETATM   13  O   UNL     1     -12.457  12.454  65.629  1.00  0.00    -0.640 OA 
BRANCH  11  14
HETATM   14  C   UNL     1     -10.750  10.761  65.577  1.00  0.00    -0.075 C  
HETATM   15  O   UNL     1     -10.575  10.994  64.179  1.00  0.00    -0.371 OA 
HETATM   16  H   UNL     1     -10.262  10.216  63.733  1.00  0.00     0.000 HD 
ENDBRANCH  11  14
ENDBRANCH   8  11
ENDBRANCH   5   8
ENDBRANCH   2   5
TORSDOF 4
ENDMDL
MODEL      211
REMARK 921   NORMALIZED FREE ENERGY PREDICTED BY IDOCK:   -2.92 KCAL/MOL
REMARK 922        TOTAL FREE ENERGY PREDICTED BY IDOCK:   -3.84 KCAL/MOL
REMARK 923 INTER-LIGAND FREE ENERGY PREDICTED BY IDOCK:   -3.61 KCAL/MOL
REMARK 924 INTRA-LIGAND FREE ENERGY PREDICTED BY IDOCK:   -0.22 KCAL/MOL
REMARK 927      BINDING AFFINITY PREDICTED BY RF-SCORE:    0.00 PKD
ROOT
HETATM    1  C   UNL     1      -5.768  17.327  69.350  1.00  0.00    -0.204 C  
HETATM    2  C   UNL     1      -7.080  16.902  68.734  1.00  0.00    -0.216 C  
HETATM    3  O   UNL     1      -5.618  17.469  70.565  1.00  0.00    -0.248 OA 
HETATM    4  F   UNL     1      -6.932  15.837  67.902  1.00  0.00    -0.110 F  
ENDROOT
BRANCH   2   5
HETATM    5  C   UNL     1      -7.785  18.041  67.988  1.00  0.00    -0.250 C  
HETATM    6  O   UNL     1      -6.901  19.163  67.769  1.00  0.00    -0.214 OA 
HETATM    7  H   UNL     1      -7.338  19.869  67.306  1.00  0.00     0.000 HD 
BRANCH   5   8
HETATM    8  C   UNL     1      -8.402  17.708  66.611  1.00  0.00    -0.260 C  
HETATM    9  O   UNL     1      -8.347  18.937  65.836  1.00  0.00    -0.483 OA 
HETATM   10  H   UNL     1      -8.726  18.732  64.989  1.00  0.00     0.000 HD 
BRANCH   8  11
HETATM   11  C   UNL     1      -9.849  17.164  66.580  1.00  0.00    -0.289 C  
HETATM   12  H   UNL     1     -11.355  17.236  65.322  1.00  0.00     0.000 HD 
HETATM   13  O   UNL     1     -10.466  17.570  65.341  1.00  0.00    -0.647 OA 
BRANCH  11  14
HETATM   14  C   UNL     1     -10.756  17.634  67.728  1.00  0.00    -0.332 C  
HETATM   15  O   UNL     1     -11.241  16.531  68.496  1.00  0.00    -0.360 OA 
HETATM   16  H   UNL     1     -11.802  16.822  69.206  1.00  0.00     0.000 HD 
ENDBRANCH  11  14
ENDBRANCH   8  11
ENDBRANCH   5   8
ENDBRANCH   2   5
TORSDOF 4
ENDMDL
MODEL      212
REMARK 921   NORMALIZED FREE ENERGY PREDICTED BY IDOCK:   -2.90 KCAL/MOL
REMARK 922        TOTAL FREE ENERGY PREDICTED BY IDOCK:   -3.82 KCAL/MOL
REMARK 923 INTER-LIGAND FREE ENERGY PREDICTED BY IDOCK:   -3.46 KCAL/MOL
REMARK 924 INTRA-LIGAND FREE ENERGY PREDICTED BY IDOCK:   -0.36 KCAL/MOL
REMARK 927      BINDING AFFINITY PREDICTED BY RF-SCORE:    0.00 PKD
ROOT
HETATM    1  C   UNL     1     -10.503  10.823  66.844  1.00  0.00    -0.252 C  
HETATM    2  C   UNL     1     -11.354  10.678  68.083  1.00  0.00    -0.284 C  
HETATM    3  O   UNL     1     -10.748  10.225  65.794  1.00  0.00    -0.065 OA 
HETATM    4  F   UNL     1     -11.748  11.883  68.575  1.00  0.00    -0.293 F  
ENDROOT
BRANCH   2   5
HETATM    5  C   UNL     1     -10.665   9.873  69.190  1.00  0.00    -0.224 C  
HETATM    6  O   UNL     1      -9.612  10.631  69.825  1.00  0.00    -0.427 OA 
HETATM    7  H   UNL     1      -9.184  10.132  70.511  1.00  0.00     0.000 HD 
BRANCH   5   8
HETATM    8  C   UNL     1     -11.556   9.338  70.334  1.00  0.00    -0.173 C  
HETATM    9  O   UNL     1     -11.696  10.432  71.281  1.00  0.00    -0.338 OA 
HETATM   10  H   UNL     1     -12.244  10.103  71.984  1.00  0.00     0.000 HD 
BRANCH   8  11
HETATM   11  C   UNL     1     -11.078   8.080  71.094  1.00  0.00    -0.252 C  
HETATM   12  H   UNL     1      -9.429   7.014  71.161  1.00  0.00     0.000 HD 
HETATM   13  O   UNL     1      -9.723   7.787  70.693  1.00  0.00    -0.177 OA 
BRANCH  11  14
HETATM   14  C   UNL     1     -11.915   6.811  70.866  1.00  0.00    -0.383 C  
HETATM   15  O   UNL     1     -11.843   6.375  69.508  1.00  0.00    -0.592 OA 
HETATM   16  H   UNL     1     -12.361   5.590  69.368  1.00  0.00     0.000 HD 
ENDBRANCH  11  14
ENDBRANCH   8  11
ENDBRANCH   5   8
ENDBRANCH   2   5
TORSDOF 4
ENDMDL
MODEL      213
REMARK 921   NORMALIZED FREE ENERGY PREDICTED BY IDOCK:   -2.90 KCAL/MOL
REMARK 922        TOTAL FREE ENERGY PREDICTED BY IDOCK:   -3.81 KCAL/MOL
REMARK 923 INTER-LIGAND FREE ENERGY PREDICTED BY IDOCK:   -3.53 KCAL/MOL
REMARK 924 INTRA-LIGAND FREE ENERGY PREDICTED BY IDOCK:   -0.28 KCAL/MOL
REMARK 927      BINDING AFFINITY PREDICTED BY RF-SCORE:    0.00 PKD
ROOT
HETATM    1  C   UNL     1     -10.411   8.399  67.422  1.00  0.00    -0.283 C  
HETATM    2  C   UNL     1      -9.432   9.425  66.905  1.00  0.00    -0.156 C  
HETATM    3  O   UNL     1     -10.741   7.405  66.771  1.00  0.00    -0.319 OA 
HETATM    4  F   UNL     1      -8.425   9.660  67.788  1.00  0.00    -0.121 F  
ENDROOT
BRANCH   2   5
HETATM    5  C   UNL     1     -10.102  10.751  66.526  1.00  0.00    -0.228 C  
HETATM    6  O   UNL     1     -10.604  10.728  65.172  1.00  0.00    -0.259 OA 
HETATM    7  H   UNL     1     -11.019  11.549  64.937  1.00  0.00     0.000 HD 
BRANCH   5   8
HETATM    8  C   UNL     1     -11.277  11.226  67.410  1.00  0.00    -0.303 C  
HETATM    9  O   UNL     1     -11.992  12.222  66.629  1.00  0.00    -0.598 OA 
HETATM   10  H   UNL     1     -12.715  12.513  67.172  1.00  0.00     0.000 HD 
BRANCH   8  11
HETATM   11  C   UNL     1     -10.944  11.825  68.796  1.00  0.00    -0.234 C  
HETATM   12  H   UNL     1     -11.051  11.213  70.659  1.00  0.00     0.000 HD 
HETATM   13  O   UNL     1     -11.256  10.845  69.807  1.00  0.00    -0.252 OA 
BRANCH  11  14
HETATM   14  C   UNL     1     -11.691  13.118  69.154  1.00  0.00    -0.325 C  
HETATM   15  O   UNL     1     -10.817  14.080  69.747  1.00  0.00    -0.453 OA 
HETATM   16  H   UNL     1     -11.279  14.880  69.969  1.00  0.00     0.000 HD 
ENDBRANCH  11  14
ENDBRANCH   8  11
ENDBRANCH   5   8
ENDBRANCH   2   5
TORSDOF 4
ENDMDL
MODEL      214
REMARK 921   NORMALIZED FREE ENERGY PREDICTED BY IDOCK:   -2.90 KCAL/MOL
REMARK 922        TOTAL FREE ENERGY PREDICTED BY IDOCK:   -3.81 KCAL/MOL
REMARK 923 INTER-LIGAND FREE ENERGY PREDICTED BY IDOCK:   -3.04 KCAL/MOL
REMARK 924 INTRA-LIGAND FREE ENERGY PREDICTED BY IDOCK:   -0.77 KCAL/MOL
REMARK 927      BINDING AFFINITY PREDICTED BY RF-SCORE:    0.00 PKD
ROOT
HETATM    1  C   UNL     1     -11.197  10.896  67.340  1.00  0.00    -0.273 C  
HETATM    2  C   UNL     1     -10.299   9.816  66.782  1.00  0.00    -0.218 C  
HETATM    3  O   UNL     1     -10.830  11.677  68.220  1.00  0.00    -0.197 OA 
HETATM    4  F   UNL     1     -10.236   9.857  65.425  1.00  0.00    -0.372 F  
ENDROOT
BRANCH   2   5
HETATM    5  C   UNL     1     -10.707   8.410  67.235  1.00  0.00    -0.160 C  
HETATM    6  O   UNL     1     -10.361   7.411  66.250  1.00  0.00    -0.460 OA 
HETATM    7  H   UNL     1     -10.613   6.539  66.531  1.00  0.00     0.000 HD 
BRANCH   5   8
HETATM    8  C   UNL     1     -10.129   7.905  68.577  1.00  0.00    -0.197 C  
HETATM    9  O   UNL     1     -11.078   8.307  69.601  1.00  0.00    -0.421 OA 
HETATM   10  H   UNL     1     -10.723   7.996  70.426  1.00  0.00     0.000 HD 
BRANCH   8  11
HETATM   11  C   UNL     1      -8.719   8.391  68.985  1.00  0.00    -0.142 C  
HETATM   12  H   UNL     1      -6.982   7.544  69.334  1.00  0.00     0.000 HD 
HETATM   13  O   UNL     1      -7.848   7.246  69.083  1.00  0.00    -0.112 OA 
BRANCH  11  14
HETATM   14  C   UNL     1      -8.643   9.150  70.319  1.00  0.00    -0.198 C  
HETATM   15  O   UNL     1      -9.321  10.405  70.245  1.00  0.00    -0.286 OA 
HETATM   16  H   UNL     1      -9.274  10.875  71.070  1.00  0.00     0.000 HD 
ENDBRANCH  11  14
ENDBRANCH   8  11
ENDBRANCH   5   8
ENDBRANCH   2   5
TORSDOF 4
ENDMDL
MODEL      215
REMARK 921   NORMALIZED FREE ENERGY PREDICTED BY IDOCK:   -2.89 KCAL/MOL
REMARK 922        TOTAL FREE ENERGY PREDICTED BY IDOCK:   -3.80 KCAL/MOL
REMARK 923 INTER-LIGAND FREE ENERGY PREDICTED BY IDOCK:   -3.50 KCAL/MOL
REMARK 924 INTRA-LIGAND FREE ENERGY PREDICTED BY IDOCK:   -0.30 KCAL/MOL
REMARK 927      BINDING AFFINITY PREDICTED BY RF-SCORE:    0.00 PKD
ROOT
HETATM    1  C   UNL     1      -7.262  10.318  65.578  1.00  0.00    -0.149 C  
HETATM    2  C   UNL     1      -7.998   9.119  66.126  1.00  0.00    -0.103 C  
HETATM    3  O   UNL     1      -6.620  11.090  66.294  1.00  0.00    -0.130 OA 
HETATM    4  F   UNL     1      -7.667   7.975  65.470  1.00  0.00    -0.078 F  
ENDROOT
BRANCH   2   5
HETATM    5  C   UNL     1      -9.520   9.296  66.114  1.00  0.00    -0.236 C  
HETATM    6  O   UNL     1     -10.206   8.029  66.217  1.00  0.00    -0.481 OA 
HETATM    7  H   UNL     1     -11.150   8.139  66.209  1.00  0.00     0.000 HD 
BRANCH   5   8
HETATM    8  C   UNL     1     -10.134  10.203  67.205  1.00  0.00    -0.209 C  
HETATM    9  O   UNL     1     -11.195   9.427  67.825  1.00  0.00    -0.492 OA 
HETATM   10  H   UNL     1     -11.572   9.985  68.495  1.00  0.00     0.000 HD 
BRANCH   8  11
HETATM   11  C   UNL     1     -10.708  11.571  66.768  1.00  0.00    -0.270 C  
HETATM   12  H   UNL     1     -12.399  12.536  67.022  1.00  0.00     0.000 HD 
HETATM   13  O   UNL     1     -12.047  11.695  67.290  1.00  0.00    -0.595 OA 
BRANCH  11  14
HETATM   14  C   UNL     1     -10.776  11.805  65.251  1.00  0.00    -0.287 C  
HETATM   15  O   UNL     1      -9.938  12.890  64.851  1.00  0.00    -0.470 OA 
HETATM   16  H   UNL     1      -9.980  13.034  63.913  1.00  0.00     0.000 HD 
ENDBRANCH  11  14
ENDBRANCH   8  11
ENDBRANCH   5   8
ENDBRANCH   2   5
TORSDOF 4
ENDMDL
MODEL      216
REMARK 921   NORMALIZED FREE ENERGY PREDICTED BY IDOCK:   -2.88 KCAL/MOL
REMARK 922        TOTAL FREE ENERGY PREDICTED BY IDOCK:   -3.79 KCAL/MOL
REMARK 923 INTER-LIGAND FREE ENERGY PREDICTED BY IDOCK:   -3.51 KCAL/MOL
REMARK 924 INTRA-LIGAND FREE ENERGY PREDICTED BY IDOCK:   -0.28 KCAL/MOL
REMARK 927      BINDING AFFINITY PREDICTED BY RF-SCORE:    0.00 PKD
ROOT
HETATM    1  C   UNL     1      -9.268   7.988  67.886  1.00  0.00    -0.131 C  
HETATM    2  C   UNL     1     -10.354   8.725  68.633  1.00  0.00    -0.205 C  
HETATM    3  O   UNL     1      -9.495   7.303  66.887  1.00  0.00    -0.149 OA 
HETATM    4  F   UNL     1     -10.053  10.040  68.804  1.00  0.00    -0.162 F  
ENDROOT
BRANCH   2   5
HETATM    5  C   UNL     1     -10.678   8.093  69.991  1.00  0.00    -0.243 C  
HETATM    6  O   UNL     1      -9.480   7.699  70.696  1.00  0.00    -0.163 OA 
HETATM    7  H   UNL     1      -9.681   7.306  71.538  1.00  0.00     0.000 HD 
BRANCH   5   8
HETATM    8  C   UNL     1     -11.500   8.941  70.988  1.00  0.00    -0.294 C  
HETATM    9  O   UNL     1     -10.537   9.740  71.728  1.00  0.00     0.070 OA 
HETATM   10  H   UNL     1     -11.042  10.262  72.340  1.00  0.00     0.000 HD 
BRANCH   8  11
HETATM   11  C   UNL     1     -12.407   8.197  71.994  1.00  0.00    -0.338 C  
HETATM   12  H   UNL     1     -12.834   6.321  72.386  1.00  0.00     0.000 HD 
HETATM   13  O   UNL     1     -12.277   6.778  71.768  1.00  0.00    -0.333 OA 
BRANCH  11  14
HETATM   14  C   UNL     1     -13.902   8.545  71.919  1.00  0.00    -0.424 C  
HETATM   15  O   UNL     1     -14.402   8.979  73.185  1.00  0.00    -1.136 OA 
HETATM   16  H   UNL     1     -15.326   9.194  73.138  1.00  0.00     0.000 HD 
ENDBRANCH  11  14
ENDBRANCH   8  11
ENDBRANCH   5   8
ENDBRANCH   2   5
TORSDOF 4
ENDMDL
MODEL      217
REMARK 921   NORMALIZED FREE ENERGY PREDICTED BY IDOCK:   -2.87 KCAL/MOL
REMARK 922        TOTAL FREE ENERGY PREDICTED BY IDOCK:   -3.78 KCAL/MOL
REMARK 923 INTER-LIGAND FREE ENERGY PREDICTED BY IDOCK:   -3.36 KCAL/MOL
REMARK 924 INTRA-LIGAND FREE ENERGY PREDICTED BY IDOCK:   -0.41 KCAL/MOL
REMARK 927      BINDING AFFINITY PREDICTED BY RF-SCORE:    0.00 PKD
ROOT
HETATM    1  C   UNL     1     -10.671  14.289  65.492  1.00  0.00    -0.331 C  
HETATM    2  C   UNL     1     -11.683  13.483  66.271  1.00  0.00    -0.367 C  
HETATM    3  O   UNL     1      -9.983  13.803  64.592  1.00  0.00    -0.277 OA 
HETATM    4  F   UNL     1     -12.906  14.076  66.283  1.00  0.00    -0.463 F  
ENDROOT
BRANCH   2   5
HETATM    5  C   UNL     1     -11.237  13.197  67.710  1.00  0.00    -0.277 C  
HETATM    6  O   UNL     1     -12.309  13.414  68.653  1.00  0.00    -0.203 OA 
HETATM    7  H   UNL     1     -12.033  13.237  69.545  1.00  0.00     0.000 HD 
BRANCH   5   8
HETATM    8  C   UNL     1     -10.683  11.786  68.010  1.00  0.00    -0.208 C  
HETATM    9  O   UNL     1     -10.772  11.616  69.451  1.00  0.00    -0.407 OA 
HETATM   10  H   UNL     1     -10.431  10.749  69.635  1.00  0.00     0.000 HD 
BRANCH   8  11
HETATM   11  C   UNL     1      -9.240  11.466  67.559  1.00  0.00    -0.160 C  
HETATM   12  H   UNL     1      -7.939  10.036  67.905  1.00  0.00     0.000 HD 
HETATM   13  O   UNL     1      -8.826  10.233  68.182  1.00  0.00    -0.121 OA 
BRANCH  11  14
HETATM   14  C   UNL     1      -8.189  12.535  67.897  1.00  0.00    -0.165 C  
HETATM   15  O   UNL     1      -7.828  13.297  66.743  1.00  0.00    -0.382 OA 
HETATM   16  H   UNL     1      -7.178  13.958  66.953  1.00  0.00     0.000 HD 
ENDBRANCH  11  14
ENDBRANCH   8  11
ENDBRANCH   5   8
ENDBRANCH   2   5
TORSDOF 4
ENDMDL
MODEL      218
REMARK 921   NORMALIZED FREE ENERGY PREDICTED BY IDOCK:   -2.87 KCAL/MOL
REMARK 922        TOTAL FREE ENERGY PREDICTED BY IDOCK:   -3.78 KCAL/MOL
REMARK 923 INTER-LIGAND FREE ENERGY PREDICTED BY IDOCK:   -3.50 KCAL/MOL
REMARK 924 INTRA-LIGAND FREE ENERGY PREDICTED BY IDOCK:   -0.27 KCAL/MOL
REMARK 927      BINDING AFFINITY PREDICTED BY RF-SCORE:    0.00 PKD
ROOT
HETATM    1  C   UNL     1      -9.633  11.888  65.758  1.00  0.00    -0.224 C  
HETATM    2  C   UNL     1     -11.079  12.296  65.910  1.00  0.00    -0.322 C  
HETATM    3  O   UNL     1      -9.224  10.763  66.050  1.00  0.00    -0.174 OA 
HETATM    4  F   UNL     1     -11.582  12.829  64.765  1.00  0.00    -0.321 F  
ENDROOT
BRANCH   2   5
HETATM    5  C   UNL     1     -11.304  13.271  67.071  1.00  0.00    -0.312 C  
HETATM    6  O   UNL     1     -12.070  12.665  68.135  1.00  0.00    -0.278 OA 
HETATM    7  H   UNL     1     -12.210  13.269  68.856  1.00  0.00     0.000 HD 
BRANCH   5   8
HETATM    8  C   UNL     1     -10.049  13.876  67.740  1.00  0.00    -0.241 C  
HETATM    9  O   UNL     1     -10.156  13.565  69.156  1.00  0.00    -0.425 OA 
HETATM   10  H   UNL     1      -9.385  13.937  69.566  1.00  0.00     0.000 HD 
BRANCH   8  11
HETATM   11  C   UNL     1      -9.806  15.394  67.580  1.00  0.00    -0.217 C  
HETATM   12  H   UNL     1      -9.976  16.978  68.729  1.00  0.00     0.000 HD 
HETATM   13  O   UNL     1     -10.126  16.045  68.827  1.00  0.00    -0.210 OA 
BRANCH  11  14
HETATM   14  C   UNL     1     -10.621  16.081  66.473  1.00  0.00    -0.284 C  
HETATM   15  O   UNL     1      -9.775  16.585  65.438  1.00  0.00    -0.496 OA 
HETATM   16  H   UNL     1     -10.279  17.010  64.754  1.00  0.00     0.000 HD 
ENDBRANCH  11  14
ENDBRANCH   8  11
ENDBRANCH   5   8
ENDBRANCH   2   5
TORSDOF 4
ENDMDL
MODEL      219
REMARK 921   NORMALIZED FREE ENERGY PREDICTED BY IDOCK:   -2.85 KCAL/MOL
REMARK 922        TOTAL FREE ENERGY PREDICTED BY IDOCK:   -3.75 KCAL/MOL
REMARK 923 INTER-LIGAND FREE ENERGY PREDICTED BY IDOCK:   -3.31 KCAL/MOL
REMARK 924 INTRA-LIGAND FREE ENERGY PREDICTED BY IDOCK:   -0.43 KCAL/MOL
REMARK 927      BINDING AFFINITY PREDICTED BY RF-SCORE:    0.00 PKD
ROOT
HETATM    1  C   UNL     1      -8.905  15.846  66.488  1.00  0.00    -0.305 C  
HETATM    2  C   UNL     1      -8.681  17.195  65.846  1.00  0.00     0.026 C  
HETATM    3  O   UNL     1      -9.631  14.984  65.991  1.00  0.00    -0.295 OA 
HETATM    4  F   UNL     1      -7.359  17.481  65.709  1.00  0.00    -0.328 F  
ENDROOT
BRANCH   2   5
HETATM    5  C   UNL     1      -9.378  18.336  66.596  1.00  0.00    -0.303 C  
HETATM    6  O   UNL     1     -10.801  18.347  66.346  1.00  0.00    -0.232 OA 
HETATM    7  H   UNL     1     -11.233  19.054  66.811  1.00  0.00     0.000 HD 
BRANCH   5   8
HETATM    8  C   UNL     1      -9.213  18.375  68.132  1.00  0.00    -0.312 C  
HETATM    9  O   UNL     1     -10.361  19.108  68.642  1.00  0.00    -0.466 OA 
HETATM   10  H   UNL     1     -10.260  19.132  69.586  1.00  0.00     0.000 HD 
BRANCH   8  11
HETATM   11  C   UNL     1      -7.924  19.009  68.704  1.00  0.00    -0.352 C  
HETATM   12  H   UNL     1      -6.672  20.412  68.139  1.00  0.00     0.000 HD 
HETATM   13  O   UNL     1      -7.464  20.023  67.787  1.00  0.00    -0.280 OA 
BRANCH  11  14
HETATM   14  C   UNL     1      -6.760  18.035  68.945  1.00  0.00    -0.245 C  
HETATM   15  O   UNL     1      -7.226  16.765  69.402  1.00  0.00    -0.221 OA 
HETATM   16  H   UNL     1      -6.506  16.163  69.551  1.00  0.00     0.000 HD 
ENDBRANCH  11  14
ENDBRANCH   8  11
ENDBRANCH   5   8
ENDBRANCH   2   5
TORSDOF 4
ENDMDL
MODEL      220
REMARK 921   NORMALIZED FREE ENERGY PREDICTED BY IDOCK:   -2.84 KCAL/MOL
REMARK 922        TOTAL FREE ENERGY PREDICTED BY IDOCK:   -3.74 KCAL/MOL
REMARK 923 INTER-LIGAND FREE ENERGY PREDICTED BY IDOCK:   -3.43 KCAL/MOL
REMARK 924 INTRA-LIGAND FREE ENERGY PREDICTED BY IDOCK:   -0.31 KCAL/MOL
REMARK 927      BINDING AFFINITY PREDICTED BY RF-SCORE:    0.00 PKD
ROOT
HETATM    1  C   UNL     1      -9.329   8.469  67.547  1.00  0.00    -0.144 C  
HETATM    2  C   UNL     1     -10.588   9.283  67.732  1.00  0.00    -0.246 C  
HETATM    3  O   UNL     1      -9.298   7.247  67.702  1.00  0.00    -0.128 OA 
HETATM    4  F   UNL     1     -10.847  10.073  66.656  1.00  0.00    -0.263 F  
ENDROOT
BRANCH   2   5
HETATM    5  C   UNL     1     -10.563  10.140  69.003  1.00  0.00    -0.223 C  
HETATM    6  O   UNL     1      -9.654  11.255  68.877  1.00  0.00    -0.306 OA 
HETATM    7  H   UNL     1      -9.638  11.787  69.665  1.00  0.00     0.000 HD 
BRANCH   5   8
HETATM    8  C   UNL     1     -11.907  10.735  69.480  1.00  0.00    -0.308 C  
HETATM    9  O   UNL     1     -12.257  11.765  68.517  1.00  0.00    -0.430 OA 
HETATM   10  H   UNL     1     -13.083  12.131  68.810  1.00  0.00     0.000 HD 
BRANCH   8  11
HETATM   11  C   UNL     1     -11.964  11.342  70.901  1.00  0.00    -0.166 C  
HETATM   12  H   UNL     1     -12.877  10.907  72.584  1.00  0.00     0.000 HD 
HETATM   13  O   UNL     1     -12.842  10.534  71.711  1.00  0.00    -0.429 OA 
BRANCH  11  14
HETATM   14  C   UNL     1     -12.462  12.794  70.980  1.00  0.00    -0.277 C  
HETATM   15  O   UNL     1     -11.517  13.702  70.412  1.00  0.00    -0.509 OA 
HETATM   16  H   UNL     1     -11.825  14.600  70.461  1.00  0.00     0.000 HD 
ENDBRANCH  11  14
ENDBRANCH   8  11
ENDBRANCH   5   8
ENDBRANCH   2   5
TORSDOF 4
ENDMDL
MODEL      221
REMARK 921   NORMALIZED FREE ENERGY PREDICTED BY IDOCK:   -2.84 KCAL/MOL
REMARK 922        TOTAL FREE ENERGY PREDICTED BY IDOCK:   -3.74 KCAL/MOL
REMARK 923 INTER-LIGAND FREE ENERGY PREDICTED BY IDOCK:   -3.31 KCAL/MOL
REMARK 924 INTRA-LIGAND FREE ENERGY PREDICTED BY IDOCK:   -0.43 KCAL/MOL
REMARK 927      BINDING AFFINITY PREDICTED BY RF-SCORE:    0.00 PKD
ROOT
HETATM    1  C   UNL     1     -12.293   6.817  71.315  1.00  0.00    -0.344 C  
HETATM    2  C   UNL     1     -11.315   6.429  72.399  1.00  0.00    -0.287 C  
HETATM    3  O   UNL     1     -12.004   6.790  70.117  1.00  0.00    -0.328 OA 
HETATM    4  F   UNL     1     -11.835   5.501  73.246  1.00  0.00    -0.247 F  
ENDROOT
BRANCH   2   5
HETATM    5  C   UNL     1     -10.808   7.631  73.203  1.00  0.00    -0.382 C  
HETATM    6  O   UNL     1     -10.239   7.225  74.468  1.00  0.00    -0.401 OA 
HETATM    7  H   UNL     1      -9.924   7.970  74.966  1.00  0.00     0.000 HD 
BRANCH   5   8
HETATM    8  C   UNL     1      -9.752   8.536  72.530  1.00  0.00    -0.256 C  
HETATM    9  O   UNL     1     -10.480   9.380  71.597  1.00  0.00    -0.325 OA 
HETATM   10  H   UNL     1      -9.830   9.937  71.184  1.00  0.00     0.000 HD 
BRANCH   8  11
HETATM   11  C   UNL     1      -8.587   7.851  71.778  1.00  0.00    -0.119 C  
HETATM   12  H   UNL     1      -7.249   6.479  72.202  1.00  0.00     0.000 HD 
HETATM   13  O   UNL     1      -7.964   6.900  72.664  1.00  0.00    -0.101 OA 
BRANCH  11  14
HETATM   14  C   UNL     1      -7.490   8.794  71.260  1.00  0.00    -0.108 C  
HETATM   15  O   UNL     1      -8.046   9.974  70.679  1.00  0.00    -0.411 OA 
HETATM   16  H   UNL     1      -7.367  10.557  70.358  1.00  0.00     0.000 HD 
ENDBRANCH  11  14
ENDBRANCH   8  11
ENDBRANCH   5   8
ENDBRANCH   2   5
TORSDOF 4
ENDMDL
MODEL      222
REMARK 921   NORMALIZED FREE ENERGY PREDICTED BY IDOCK:   -2.83 KCAL/MOL
REMARK 922        TOTAL FREE ENERGY PREDICTED BY IDOCK:   -3.73 KCAL/MOL
REMARK 923 INTER-LIGAND FREE ENERGY PREDICTED BY IDOCK:   -3.38 KCAL/MOL
REMARK 924 INTRA-LIGAND FREE ENERGY PREDICTED BY IDOCK:   -0.35 KCAL/MOL
REMARK 927      BINDING AFFINITY PREDICTED BY RF-SCORE:    0.00 PKD
ROOT
HETATM    1  C   UNL     1      -6.900  13.508  67.948  1.00  0.00    -0.151 C  
HETATM    2  C   UNL     1      -8.317  13.735  67.477  1.00  0.00    -0.192 C  
HETATM    3  O   UNL     1      -5.923  13.999  67.379  1.00  0.00    -0.350 OA 
HETATM    4  F   UNL     1      -9.123  14.177  68.479  1.00  0.00    -0.180 F  
ENDROOT
BRANCH   2   5
HETATM    5  C   UNL     1      -8.937  12.490  66.832  1.00  0.00    -0.212 C  
HETATM    6  O   UNL     1      -8.336  11.275  67.329  1.00  0.00    -0.136 OA 
HETATM    7  H   UNL     1      -8.720  10.503  66.930  1.00  0.00     0.000 HD 
BRANCH   5   8
HETATM    8  C   UNL     1     -10.464  12.303  66.982  1.00  0.00    -0.216 C  
HETATM    9  O   UNL     1     -10.653  11.426  68.125  1.00  0.00    -0.175 OA 
HETATM   10  H   UNL     1     -11.591  11.311  68.218  1.00  0.00     0.000 HD 
BRANCH   8  11
HETATM   11  C   UNL     1     -11.243  11.726  65.778  1.00  0.00    -0.281 C  
HETATM   12  H   UNL     1     -10.812  10.597  64.230  1.00  0.00     0.000 HD 
HETATM   13  O   UNL     1     -10.333  10.952  64.970  1.00  0.00    -0.285 OA 
BRANCH  11  14
HETATM   14  C   UNL     1     -11.910  12.765  64.862  1.00  0.00    -0.379 C  
HETATM   15  O   UNL     1     -13.272  12.429  64.597  1.00  0.00    -0.822 OA 
HETATM   16  H   UNL     1     -13.685  13.072  64.030  1.00  0.00     0.000 HD 
ENDBRANCH  11  14
ENDBRANCH   8  11
ENDBRANCH   5   8
ENDBRANCH   2   5
TORSDOF 4
ENDMDL
MODEL      223
REMARK 921   NORMALIZED FREE ENERGY PREDICTED BY IDOCK:   -2.82 KCAL/MOL
REMARK 922        TOTAL FREE ENERGY PREDICTED BY IDOCK:   -3.72 KCAL/MOL
REMARK 923 INTER-LIGAND FREE ENERGY PREDICTED BY IDOCK:   -3.52 KCAL/MOL
REMARK 924 INTRA-LIGAND FREE ENERGY PREDICTED BY IDOCK:   -0.19 KCAL/MOL
REMARK 927      BINDING AFFINITY PREDICTED BY RF-SCORE:    0.00 PKD
ROOT
HETATM    1  C   UNL     1     -10.068  19.074  66.094  1.00  0.00    -0.406 C  
HETATM    2  C   UNL     1      -8.952  19.945  66.619  1.00  0.00    -0.372 C  
HETATM    3  O   UNL     1     -11.104  19.536  65.614  1.00  0.00    -0.318 OA 
HETATM    4  F   UNL     1      -7.749  19.615  66.078  1.00  0.00    -0.275 F  
ENDROOT
BRANCH   2   5
HETATM    5  C   UNL     1      -8.849  19.926  68.149  1.00  0.00    -0.248 C  
HETATM    6  O   UNL     1     -10.091  19.517  68.762  1.00  0.00    -0.436 OA 
HETATM    7  H   UNL     1     -10.028  19.505  69.710  1.00  0.00     0.000 HD 
BRANCH   5   8
HETATM    8  C   UNL     1      -7.751  19.034  68.772  1.00  0.00    -0.347 C  
HETATM    9  O   UNL     1      -6.498  19.747  68.585  1.00  0.00    -0.262 OA 
HETATM   10  H   UNL     1      -5.823  19.199  68.968  1.00  0.00     0.000 HD 
BRANCH   8  11
HETATM   11  C   UNL     1      -7.592  17.597  68.226  1.00  0.00    -0.257 C  
HETATM   12  H   UNL     1      -8.538  15.890  68.452  1.00  0.00     0.000 HD 
HETATM   13  O   UNL     1      -8.635  16.774  68.787  1.00  0.00    -0.249 OA 
BRANCH  11  14
HETATM   14  C   UNL     1      -6.248  16.918  68.531  1.00  0.00    -0.146 C  
HETATM   15  O   UNL     1      -6.218  16.391  69.858  1.00  0.00    -0.208 OA 
HETATM   16  H   UNL     1      -5.387  15.971  70.047  1.00  0.00     0.000 HD 
ENDBRANCH  11  14
ENDBRANCH   8  11
ENDBRANCH   5   8
ENDBRANCH   2   5
TORSDOF 4
ENDMDL
MODEL      224
REMARK 921   NORMALIZED FREE ENERGY PREDICTED BY IDOCK:   -2.82 KCAL/MOL
REMARK 922        TOTAL FREE ENERGY PREDICTED BY IDOCK:   -3.71 KCAL/MOL
REMARK 923 INTER-LIGAND FREE ENERGY PREDICTED BY IDOCK:   -3.67 KCAL/MOL
REMARK 924 INTRA-LIGAND FREE ENERGY PREDICTED BY IDOCK:   -0.04 KCAL/MOL
REMARK 927      BINDING AFFINITY PREDICTED BY RF-SCORE:    0.00 PKD
ROOT
HETATM    1  C   UNL     1      -9.954  19.557  67.545  1.00  0.00    -0.380 C  
HETATM    2  C   UNL     1      -8.612  19.902  66.944  1.00  0.00    -0.332 C  
HETATM    3  O   UNL     1     -10.458  20.204  68.464  1.00  0.00    -0.385 OA 
HETATM    4  F   UNL     1      -8.674  20.015  65.590  1.00  0.00    -0.342 F  
ENDROOT
BRANCH   2   5
HETATM    5  C   UNL     1      -7.513  18.904  67.325  1.00  0.00    -0.225 C  
HETATM    6  O   UNL     1      -7.088  19.076  68.695  1.00  0.00    -0.281 OA 
HETATM    7  H   UNL     1      -6.407  18.457  68.932  1.00  0.00     0.000 HD 
BRANCH   5   8
HETATM    8  C   UNL     1      -7.837  17.401  67.164  1.00  0.00    -0.202 C  
HETATM    9  O   UNL     1      -8.521  17.270  65.888  1.00  0.00    -0.533 OA 
HETATM   10  H   UNL     1      -8.720  16.347  65.789  1.00  0.00     0.000 HD 
BRANCH   8  11
HETATM   11  C   UNL     1      -8.693  16.725  68.260  1.00  0.00    -0.227 C  
HETATM   12  H   UNL     1      -8.340  15.824  69.969  1.00  0.00     0.000 HD 
HETATM   13  O   UNL     1      -7.814  16.239  69.295  1.00  0.00    -0.238 OA 
BRANCH  11  14
HETATM   14  C   UNL     1      -9.556  15.544  67.790  1.00  0.00    -0.209 C  
HETATM   15  O   UNL     1     -10.775  15.991  67.194  1.00  0.00    -0.314 OA 
HETATM   16  H   UNL     1     -11.309  15.261  66.904  1.00  0.00     0.000 HD 
ENDBRANCH  11  14
ENDBRANCH   8  11
ENDBRANCH   5   8
ENDBRANCH   2   5
TORSDOF 4
ENDMDL
MODEL      225
REMARK 921   NORMALIZED FREE ENERGY PREDICTED BY IDOCK:   -2.81 KCAL/MOL
REMARK 922        TOTAL FREE ENERGY PREDICTED BY IDOCK:   -3.71 KCAL/MOL
REMARK 923 INTER-LIGAND FREE ENERGY PREDICTED BY IDOCK:   -3.43 KCAL/MOL
REMARK 924 INTRA-LIGAND FREE ENERGY PREDICTED BY IDOCK:   -0.27 KCAL/MOL
REMARK 927      BINDING AFFINITY PREDICTED BY RF-SCORE:    0.00 PKD
ROOT
HETATM    1  C   UNL     1      -9.040   7.935  67.720  1.00  0.00    -0.134 C  
HETATM    2  C   UNL     1     -10.328   8.658  68.037  1.00  0.00    -0.223 C  
HETATM    3  O   UNL     1      -9.011   6.863  67.112  1.00  0.00    -0.117 OA 
HETATM    4  F   UNL     1     -10.300   9.954  67.627  1.00  0.00    -0.204 F  
ENDROOT
BRANCH   2   5
HETATM    5  C   UNL     1     -10.695   8.598  69.524  1.00  0.00    -0.182 C  
HETATM    6  O   UNL     1     -11.877   9.376  69.814  1.00  0.00    -0.440 OA 
HETATM    7  H   UNL     1     -12.105   9.339  70.736  1.00  0.00     0.000 HD 
BRANCH   5   8
HETATM    8  C   UNL     1     -10.943   7.200  70.134  1.00  0.00    -0.267 C  
HETATM    9  O   UNL     1     -11.870   6.528  69.238  1.00  0.00    -0.608 OA 
HETATM   10  H   UNL     1     -12.022   5.668  69.613  1.00  0.00     0.000 HD 
BRANCH   8  11
HETATM   11  C   UNL     1     -11.503   7.129  71.573  1.00  0.00    -0.268 C  
HETATM   12  H   UNL     1     -13.265   7.344  72.413  1.00  0.00     0.000 HD 
HETATM   13  O   UNL     1     -12.921   7.388  71.529  1.00  0.00    -0.355 OA 
BRANCH  11  14
HETATM   14  C   UNL     1     -10.881   8.115  72.574  1.00  0.00    -0.361 C  
HETATM   15  O   UNL     1      -9.922   7.472  73.415  1.00  0.00    -0.274 OA 
HETATM   16  H   UNL     1      -9.537   8.082  74.034  1.00  0.00     0.000 HD 
ENDBRANCH  11  14
ENDBRANCH   8  11
ENDBRANCH   5   8
ENDBRANCH   2   5
TORSDOF 4
ENDMDL
MODEL      226
REMARK 921   NORMALIZED FREE ENERGY PREDICTED BY IDOCK:   -2.81 KCAL/MOL
REMARK 922        TOTAL FREE ENERGY PREDICTED BY IDOCK:   -3.70 KCAL/MOL
REMARK 923 INTER-LIGAND FREE ENERGY PREDICTED BY IDOCK:   -3.40 KCAL/MOL
REMARK 924 INTRA-LIGAND FREE ENERGY PREDICTED BY IDOCK:   -0.30 KCAL/MOL
REMARK 927      BINDING AFFINITY PREDICTED BY RF-SCORE:    0.00 PKD
ROOT
HETATM    1  C   UNL     1     -10.333   7.224  67.784  1.00  0.00    -0.209 C  
HETATM    2  C   UNL     1     -10.658   8.527  67.094  1.00  0.00    -0.243 C  
HETATM    3  O   UNL     1     -11.118   6.275  67.819  1.00  0.00    -0.334 OA 
HETATM    4  F   UNL     1      -9.689   8.893  66.213  1.00  0.00    -0.254 F  
ENDROOT
BRANCH   2   5
HETATM    5  C   UNL     1     -10.917   9.674  68.078  1.00  0.00    -0.140 C  
HETATM    6  O   UNL     1     -11.178   9.185  69.411  1.00  0.00    -0.436 OA 
HETATM    7  H   UNL     1     -11.339   9.895  70.021  1.00  0.00     0.000 HD 
BRANCH   5   8
HETATM    8  C   UNL     1      -9.810  10.742  68.224  1.00  0.00    -0.166 C  
HETATM    9  O   UNL     1      -9.478  10.788  69.639  1.00  0.00    -0.421 OA 
HETATM   10  H   UNL     1      -8.797  11.445  69.729  1.00  0.00     0.000 HD 
BRANCH   8  11
HETATM   11  C   UNL     1     -10.121  12.177  67.739  1.00  0.00    -0.199 C  
HETATM   12  H   UNL     1     -11.743  13.200  67.314  1.00  0.00     0.000 HD 
HETATM   13  O   UNL     1     -11.551  12.319  67.612  1.00  0.00    -0.319 OA 
BRANCH  11  14
HETATM   14  C   UNL     1      -9.493  12.571  66.394  1.00  0.00    -0.233 C  
HETATM   15  O   UNL     1      -9.066  13.935  66.396  1.00  0.00    -0.443 OA 
HETATM   16  H   UNL     1      -8.677  14.178  65.564  1.00  0.00     0.000 HD 
ENDBRANCH  11  14
ENDBRANCH   8  11
ENDBRANCH   5   8
ENDBRANCH   2   5
TORSDOF 4
ENDMDL
MODEL      227
REMARK 921   NORMALIZED FREE ENERGY PREDICTED BY IDOCK:   -2.79 KCAL/MOL
REMARK 922        TOTAL FREE ENERGY PREDICTED BY IDOCK:   -3.68 KCAL/MOL
REMARK 923 INTER-LIGAND FREE ENERGY PREDICTED BY IDOCK:   -3.36 KCAL/MOL
REMARK 924 INTRA-LIGAND FREE ENERGY PREDICTED BY IDOCK:   -0.32 KCAL/MOL
REMARK 927      BINDING AFFINITY PREDICTED BY RF-SCORE:    0.00 PKD
ROOT
HETATM    1  C   UNL     1      -9.137   4.384  73.162  1.00  0.00    -0.118 C  
HETATM    2  C   UNL     1     -10.469   4.896  73.657  1.00  0.00    -0.241 C  
HETATM    3  O   UNL     1      -8.061   4.816  73.580  1.00  0.00    -0.104 OA 
HETATM    4  F   UNL     1     -11.282   3.886  74.066  1.00  0.00    -0.269 F  
ENDROOT
BRANCH   2   5
HETATM    5  C   UNL     1     -11.200   5.756  72.620  1.00  0.00    -0.301 C  
HETATM    6  O   UNL     1     -12.631   5.726  72.815  1.00  0.00    -0.511 OA 
HETATM    7  H   UNL     1     -13.084   6.259  72.172  1.00  0.00     0.000 HD 
BRANCH   5   8
HETATM    8  C   UNL     1     -10.811   7.249  72.540  1.00  0.00    -0.272 C  
HETATM    9  O   UNL     1     -10.389   7.628  73.878  1.00  0.00    -0.350 OA 
HETATM   10  H   UNL     1     -10.150   8.546  73.829  1.00  0.00     0.000 HD 
BRANCH   8  11
HETATM   11  C   UNL     1     -11.884   8.250  72.054  1.00  0.00    -0.347 C  
HETATM   12  H   UNL     1     -13.272   8.265  70.665  1.00  0.00     0.000 HD 
HETATM   13  O   UNL     1     -12.613   7.649  70.964  1.00  0.00    -0.255 OA 
BRANCH  11  14
HETATM   14  C   UNL     1     -11.350   9.606  71.566  1.00  0.00    -0.350 C  
HETATM   15  O   UNL     1     -10.919   9.540  70.205  1.00  0.00    -0.237 OA 
HETATM   16  H   UNL     1     -10.589  10.378  69.904  1.00  0.00     0.000 HD 
ENDBRANCH  11  14
ENDBRANCH   8  11
ENDBRANCH   5   8
ENDBRANCH   2   5
TORSDOF 4
ENDMDL
MODEL      228
REMARK 921   NORMALIZED FREE ENERGY PREDICTED BY IDOCK:   -2.79 KCAL/MOL
REMARK 922        TOTAL FREE ENERGY PREDICTED BY IDOCK:   -3.68 KCAL/MOL
REMARK 923 INTER-LIGAND FREE ENERGY PREDICTED BY IDOCK:   -3.21 KCAL/MOL
REMARK 924 INTRA-LIGAND FREE ENERGY PREDICTED BY IDOCK:   -0.47 KCAL/MOL
REMARK 927      BINDING AFFINITY PREDICTED BY RF-SCORE:    0.00 PKD
ROOT
HETATM    1  C   UNL     1     -12.943   7.270  71.688  1.00  0.00    -0.372 C  
HETATM    2  C   UNL     1     -11.673   7.042  70.903  1.00  0.00    -0.343 C  
HETATM    3  O   UNL     1     -14.055   7.315  71.158  1.00  0.00    -0.335 OA 
HETATM    4  F   UNL     1     -10.933   6.023  71.415  1.00  0.00    -0.285 F  
ENDROOT
BRANCH   2   5
HETATM    5  C   UNL     1     -10.806   8.301  70.792  1.00  0.00    -0.227 C  
HETATM    6  O   UNL     1      -9.593   8.183  71.567  1.00  0.00    -0.156 OA 
HETATM    7  H   UNL     1      -9.055   8.963  71.499  1.00  0.00     0.000 HD 
BRANCH   5   8
HETATM    8  C   UNL     1     -10.367   8.734  69.375  1.00  0.00    -0.214 C  
HETATM    9  O   UNL     1     -11.451   9.546  68.848  1.00  0.00    -0.452 OA 
HETATM   10  H   UNL     1     -11.181   9.812  67.976  1.00  0.00     0.000 HD 
BRANCH   8  11
HETATM   11  C   UNL     1     -10.034   7.624  68.351  1.00  0.00    -0.176 C  
HETATM   12  H   UNL     1      -8.434   6.600  67.854  1.00  0.00     0.000 HD 
HETATM   13  O   UNL     1      -8.639   7.282  68.483  1.00  0.00    -0.124 OA 
BRANCH  11  14
HETATM   14  C   UNL     1     -10.288   7.984  66.880  1.00  0.00    -0.338 C  
HETATM   15  O   UNL     1      -9.630   9.198  66.517  1.00  0.00    -0.188 OA 
HETATM   16  H   UNL     1      -9.788   9.421  65.606  1.00  0.00     0.000 HD 
ENDBRANCH  11  14
ENDBRANCH   8  11
ENDBRANCH   5   8
ENDBRANCH   2   5
TORSDOF 4
ENDMDL
MODEL      229
REMARK 921   NORMALIZED FREE ENERGY PREDICTED BY IDOCK:   -2.79 KCAL/MOL
REMARK 922        TOTAL FREE ENERGY PREDICTED BY IDOCK:   -3.67 KCAL/MOL
REMARK 923 INTER-LIGAND FREE ENERGY PREDICTED BY IDOCK:   -3.19 KCAL/MOL
REMARK 924 INTRA-LIGAND FREE ENERGY PREDICTED BY IDOCK:   -0.49 KCAL/MOL
REMARK 927      BINDING AFFINITY PREDICTED BY RF-SCORE:    0.00 PKD
ROOT
HETATM    1  C   UNL     1      -9.856   4.399  69.463  1.00  0.00    -0.188 C  
HETATM    2  C   UNL     1      -9.695   5.202  70.732  1.00  0.00    -0.190 C  
HETATM    3  O   UNL     1      -8.992   3.621  69.054  1.00  0.00    -0.098 OA 
HETATM    4  F   UNL     1     -10.755   5.048  71.570  1.00  0.00    -0.278 F  
ENDROOT
BRANCH   2   5
HETATM    5  C   UNL     1      -9.462   6.693  70.468  1.00  0.00    -0.166 C  
HETATM    6  O   UNL     1      -8.827   6.916  69.190  1.00  0.00    -0.134 OA 
HETATM    7  H   UNL     1      -8.682   7.841  69.027  1.00  0.00     0.000 HD 
BRANCH   5   8
HETATM    8  C   UNL     1     -10.699   7.618  70.498  1.00  0.00    -0.236 C  
HETATM    9  O   UNL     1     -10.819   8.174  69.160  1.00  0.00    -0.387 OA 
HETATM   10  H   UNL     1     -11.580   8.742  69.178  1.00  0.00     0.000 HD 
BRANCH   8  11
HETATM   11  C   UNL     1     -10.711   8.777  71.521  1.00  0.00    -0.301 C  
HETATM   12  H   UNL     1     -10.479   8.944  73.464  1.00  0.00     0.000 HD 
HETATM   13  O   UNL     1     -10.472   8.232  72.835  1.00  0.00    -0.314 OA 
BRANCH  11  14
HETATM   14  C   UNL     1     -12.013   9.590  71.584  1.00  0.00    -0.401 C  
HETATM   15  O   UNL     1     -12.944   9.164  70.588  1.00  0.00    -0.493 OA 
HETATM   16  H   UNL     1     -13.750   9.667  70.627  1.00  0.00     0.000 HD 
ENDBRANCH  11  14
ENDBRANCH   8  11
ENDBRANCH   5   8
ENDBRANCH   2   5
TORSDOF 4
ENDMDL
MODEL      230
REMARK 921   NORMALIZED FREE ENERGY PREDICTED BY IDOCK:   -2.78 KCAL/MOL
REMARK 922        TOTAL FREE ENERGY PREDICTED BY IDOCK:   -3.67 KCAL/MOL
REMARK 923 INTER-LIGAND FREE ENERGY PREDICTED BY IDOCK:   -3.20 KCAL/MOL
REMARK 924 INTRA-LIGAND FREE ENERGY PREDICTED BY IDOCK:   -0.47 KCAL/MOL
REMARK 927      BINDING AFFINITY PREDICTED BY RF-SCORE:    0.00 PKD
ROOT
HETATM    1  C   UNL     1     -13.161   7.643  71.574  1.00  0.00    -0.338 C  
HETATM    2  C   UNL     1     -12.104   6.592  71.818  1.00  0.00    -0.342 C  
HETATM    3  O   UNL     1     -14.351   7.366  71.417  1.00  0.00    -0.445 OA 
HETATM    4  F   UNL     1     -11.357   6.867  72.920  1.00  0.00    -0.276 F  
ENDROOT
BRANCH   2   5
HETATM    5  C   UNL     1     -11.182   6.382  70.612  1.00  0.00    -0.339 C  
HETATM    6  O   UNL     1     -11.868   6.631  69.366  1.00  0.00    -0.651 OA 
HETATM    7  H   UNL     1     -11.296   6.501  68.618  1.00  0.00     0.000 HD 
BRANCH   5   8
HETATM    8  C   UNL     1      -9.885   7.221  70.560  1.00  0.00    -0.183 C  
HETATM    9  O   UNL     1     -10.209   8.419  69.804  1.00  0.00    -0.197 OA 
HETATM   10  H   UNL     1      -9.412   8.935  69.772  1.00  0.00     0.000 HD 
BRANCH   8  11
HETATM   11  C   UNL     1      -8.626   6.568  69.944  1.00  0.00    -0.139 C  
HETATM   12  H   UNL     1      -8.260   5.013  68.802  1.00  0.00     0.000 HD 
HETATM   13  O   UNL     1      -9.034   5.414  69.181  1.00  0.00    -0.103 OA 
BRANCH  11  14
HETATM   14  C   UNL     1      -7.559   6.109  70.950  1.00  0.00    -0.097 C  
HETATM   15  O   UNL     1      -7.856   4.813  71.471  1.00  0.00    -0.094 OA 
HETATM   16  H   UNL     1      -7.196   4.529  72.094  1.00  0.00     0.000 HD 
ENDBRANCH  11  14
ENDBRANCH   8  11
ENDBRANCH   5   8
ENDBRANCH   2   5
TORSDOF 4
ENDMDL
MODEL      231
REMARK 921   NORMALIZED FREE ENERGY PREDICTED BY IDOCK:   -2.77 KCAL/MOL
REMARK 922        TOTAL FREE ENERGY PREDICTED BY IDOCK:   -3.65 KCAL/MOL
REMARK 923 INTER-LIGAND FREE ENERGY PREDICTED BY IDOCK:   -3.38 KCAL/MOL
REMARK 924 INTRA-LIGAND FREE ENERGY PREDICTED BY IDOCK:   -0.27 KCAL/MOL
REMARK 927      BINDING AFFINITY PREDICTED BY RF-SCORE:    0.00 PKD
ROOT
HETATM    1  C   UNL     1     -11.219  15.584  64.232  1.00  0.00    -0.081 C  
HETATM    2  C   UNL     1     -10.596  15.933  65.562  1.00  0.00    -0.401 C  
HETATM    3  O   UNL     1     -12.288  16.064  63.850  1.00  0.00    -0.855 OA 
HETATM    4  F   UNL     1      -9.304  16.334  65.431  1.00  0.00    -0.219 F  
ENDROOT
BRANCH   2   5
HETATM    5  C   UNL     1     -10.678  14.788  66.578  1.00  0.00    -0.319 C  
HETATM    6  O   UNL     1     -11.924  14.066  66.469  1.00  0.00    -0.401 OA 
HETATM    7  H   UNL     1     -11.975  13.356  67.099  1.00  0.00     0.000 HD 
BRANCH   5   8
HETATM    8  C   UNL     1      -9.561  13.720  66.530  1.00  0.00    -0.285 C  
HETATM    9  O   UNL     1     -10.233  12.432  66.558  1.00  0.00    -0.222 OA 
HETATM   10  H   UNL     1      -9.546  11.776  66.529  1.00  0.00     0.000 HD 
BRANCH   8  11
HETATM   11  C   UNL     1      -8.488  13.747  67.642  1.00  0.00    -0.183 C  
HETATM   12  H   UNL     1      -6.838  14.756  67.986  1.00  0.00     0.000 HD 
HETATM   13  O   UNL     1      -7.498  14.739  67.302  1.00  0.00    -0.197 OA 
BRANCH  11  14
HETATM   14  C   UNL     1      -7.753  12.420  67.884  1.00  0.00    -0.135 C  
HETATM   15  O   UNL     1      -6.336  12.593  67.852  1.00  0.00    -0.082 OA 
HETATM   16  H   UNL     1      -5.882  11.772  68.002  1.00  0.00     0.000 HD 
ENDBRANCH  11  14
ENDBRANCH   8  11
ENDBRANCH   5   8
ENDBRANCH   2   5
TORSDOF 4
ENDMDL
MODEL      232
REMARK 921   NORMALIZED FREE ENERGY PREDICTED BY IDOCK:   -2.77 KCAL/MOL
REMARK 922        TOTAL FREE ENERGY PREDICTED BY IDOCK:   -3.65 KCAL/MOL
REMARK 923 INTER-LIGAND FREE ENERGY PREDICTED BY IDOCK:   -3.43 KCAL/MOL
REMARK 924 INTRA-LIGAND FREE ENERGY PREDICTED BY IDOCK:   -0.23 KCAL/MOL
REMARK 927      BINDING AFFINITY PREDICTED BY RF-SCORE:    0.00 PKD
ROOT
HETATM    1  C   UNL     1     -12.142  13.773  65.318  1.00  0.00    -0.407 C  
HETATM    2  C   UNL     1     -11.317  12.836  66.167  1.00  0.00    -0.328 C  
HETATM    3  O   UNL     1     -13.355  13.923  65.478  1.00  0.00    -0.662 OA 
HETATM    4  F   UNL     1     -10.231  13.455  66.702  1.00  0.00    -0.255 F  
ENDROOT
BRANCH   2   5
HETATM    5  C   UNL     1     -10.870  11.581  65.408  1.00  0.00    -0.259 C  
HETATM    6  O   UNL     1     -11.314  11.603  64.034  1.00  0.00    -0.366 OA 
HETATM    7  H   UNL     1     -11.037  10.825  63.563  1.00  0.00     0.000 HD 
BRANCH   5   8
HETATM    8  C   UNL     1      -9.354  11.286  65.363  1.00  0.00    -0.210 C  
HETATM    9  O   UNL     1      -8.985  11.283  63.957  1.00  0.00    -0.391 OA 
HETATM   10  H   UNL     1      -8.053  11.101  63.930  1.00  0.00     0.000 HD 
BRANCH   8  11
HETATM   11  C   UNL     1      -8.854   9.974  66.012  1.00  0.00    -0.145 C  
HETATM   12  H   UNL     1      -9.197   8.057  65.760  1.00  0.00     0.000 HD 
HETATM   13  O   UNL     1      -9.504   8.863  65.362  1.00  0.00    -0.172 OA 
BRANCH  11  14
HETATM   14  C   UNL     1      -9.109   9.844  67.522  1.00  0.00    -0.134 C  
HETATM   15  O   UNL     1      -8.006   9.226  68.186  1.00  0.00    -0.098 OA 
HETATM   16  H   UNL     1      -8.164   9.145  69.120  1.00  0.00     0.000 HD 
ENDBRANCH  11  14
ENDBRANCH   8  11
ENDBRANCH   5   8
ENDBRANCH   2   5
TORSDOF 4
ENDMDL
MODEL      233
REMARK 921   NORMALIZED FREE ENERGY PREDICTED BY IDOCK:   -2.76 KCAL/MOL
REMARK 922        TOTAL FREE ENERGY PREDICTED BY IDOCK:   -3.64 KCAL/MOL
REMARK 923 INTER-LIGAND FREE ENERGY PREDICTED BY IDOCK:   -3.97 KCAL/MOL
REMARK 924 INTRA-LIGAND FREE ENERGY PREDICTED BY IDOCK:    0.32 KCAL/MOL
REMARK 927      BINDING AFFINITY PREDICTED BY RF-SCORE:    0.00 PKD
ROOT
HETATM    1  C   UNL     1     -10.477  11.917  64.658  1.00  0.00    -0.295 C  
HETATM    2  C   UNL     1     -10.010  12.727  65.844  1.00  0.00    -0.266 C  
HETATM    3  O   UNL     1     -10.698  12.419  63.554  1.00  0.00    -0.442 OA 
HETATM    4  F   UNL     1      -8.893  12.201  66.413  1.00  0.00    -0.198 F  
ENDROOT
BRANCH   2   5
HETATM    5  C   UNL     1     -11.096  12.901  66.911  1.00  0.00    -0.278 C  
HETATM    6  O   UNL     1     -12.230  12.041  66.665  1.00  0.00    -0.550 OA 
HETATM    7  H   UNL     1     -12.903  12.148  67.327  1.00  0.00     0.000 HD 
BRANCH   5   8
HETATM    8  C   UNL     1     -10.687  12.658  68.382  1.00  0.00    -0.242 C  
HETATM    9  O   UNL     1      -9.410  13.329  68.561  1.00  0.00    -0.315 OA 
HETATM   10  H   UNL     1      -9.159  13.180  69.465  1.00  0.00     0.000 HD 
BRANCH   8  11
HETATM   11  C   UNL     1     -10.552  11.195  68.861  1.00  0.00    -0.207 C  
HETATM   12  H   UNL     1     -10.530   9.427  68.006  1.00  0.00     0.000 HD 
HETATM   13  O   UNL     1     -10.613  10.326  67.711  1.00  0.00    -0.211 OA 
BRANCH  11  14
HETATM   14  C   UNL     1     -11.623  10.724  69.858  1.00  0.00    -0.331 C  
HETATM   15  O   UNL     1     -12.906  10.624  69.238  1.00  0.00    -0.630 OA 
HETATM   16  H   UNL     1     -13.568  10.333  69.855  1.00  0.00     0.000 HD 
ENDBRANCH  11  14
ENDBRANCH   8  11
ENDBRANCH   5   8
ENDBRANCH   2   5
TORSDOF 4
ENDMDL
MODEL      234
REMARK 921   NORMALIZED FREE ENERGY PREDICTED BY IDOCK:   -2.76 KCAL/MOL
REMARK 922        TOTAL FREE ENERGY PREDICTED BY IDOCK:   -3.64 KCAL/MOL
REMARK 923 INTER-LIGAND FREE ENERGY PREDICTED BY IDOCK:   -3.42 KCAL/MOL
REMARK 924 INTRA-LIGAND FREE ENERGY PREDICTED BY IDOCK:   -0.22 KCAL/MOL
REMARK 927      BINDING AFFINITY PREDICTED BY RF-SCORE:    0.00 PKD
ROOT
HETATM    1  C   UNL     1      -8.867   7.944  70.240  1.00  0.00    -0.140 C  
HETATM    2  C   UNL     1      -9.643   9.201  70.556  1.00  0.00    -0.243 C  
HETATM    3  O   UNL     1      -7.792   7.958  69.639  1.00  0.00    -0.101 OA 
HETATM    4  F   UNL     1      -9.967   9.282  71.874  1.00  0.00    -0.388 F  
ENDROOT
BRANCH   2   5
HETATM    5  C   UNL     1     -10.910   9.349  69.706  1.00  0.00    -0.232 C  
HETATM    6  O   UNL     1     -12.106   9.229  70.505  1.00  0.00    -0.464 OA 
HETATM    7  H   UNL     1     -12.892   9.321  69.978  1.00  0.00     0.000 HD 
BRANCH   5   8
HETATM    8  C   UNL     1     -11.067  10.656  68.896  1.00  0.00    -0.261 C  
HETATM    9  O   UNL     1     -12.497  10.875  68.757  1.00  0.00    -0.767 OA 
HETATM   10  H   UNL     1     -12.594  11.679  68.259  1.00  0.00     0.000 HD 
BRANCH   8  11
HETATM   11  C   UNL     1     -10.415  10.721  67.495  1.00  0.00    -0.220 C  
HETATM   12  H   UNL     1      -9.688   9.420  66.217  1.00  0.00     0.000 HD 
HETATM   13  O   UNL     1     -10.088   9.380  67.078  1.00  0.00    -0.206 OA 
BRANCH  11  14
HETATM   14  C   UNL     1      -9.134  11.564  67.401  1.00  0.00    -0.166 C  
HETATM   15  O   UNL     1      -9.378  12.815  66.756  1.00  0.00    -0.230 OA 
HETATM   16  H   UNL     1      -8.585  13.336  66.698  1.00  0.00     0.000 HD 
ENDBRANCH  11  14
ENDBRANCH   8  11
ENDBRANCH   5   8
ENDBRANCH   2   5
TORSDOF 4
ENDMDL
MODEL      235
REMARK 921   NORMALIZED FREE ENERGY PREDICTED BY IDOCK:   -2.75 KCAL/MOL
REMARK 922        TOTAL FREE ENERGY PREDICTED BY IDOCK:   -3.63 KCAL/MOL
REMARK 923 INTER-LIGAND FREE ENERGY PREDICTED BY IDOCK:   -3.38 KCAL/MOL
REMARK 924 INTRA-LIGAND FREE ENERGY PREDICTED BY IDOCK:   -0.25 KCAL/MOL
REMARK 927      BINDING AFFINITY PREDICTED BY RF-SCORE:    0.00 PKD
ROOT
HETATM    1  C   UNL     1     -10.804   7.159  69.620  1.00  0.00    -0.234 C  
HETATM    2  C   UNL     1     -10.605   8.400  70.457  1.00  0.00    -0.216 C  
HETATM    3  O   UNL     1     -11.521   6.222  69.977  1.00  0.00    -0.412 OA 
HETATM    4  F   UNL     1     -10.851   9.536  69.751  1.00  0.00    -0.219 F  
ENDROOT
BRANCH   2   5
HETATM    5  C   UNL     1      -9.210   8.478  71.087  1.00  0.00    -0.197 C  
HETATM    6  O   UNL     1      -8.546   9.718  70.760  1.00  0.00    -0.356 OA 
HETATM    7  H   UNL     1      -7.680   9.766  71.150  1.00  0.00     0.000 HD 
BRANCH   5   8
HETATM    8  C   UNL     1      -9.120   8.337  72.623  1.00  0.00    -0.257 C  
HETATM    9  O   UNL     1      -7.852   8.934  73.009  1.00  0.00    -0.378 OA 
HETATM   10  H   UNL     1      -7.796   8.848  73.953  1.00  0.00     0.000 HD 
BRANCH   8  11
HETATM   11  C   UNL     1      -9.204   6.915  73.224  1.00  0.00    -0.138 C  
HETATM   12  H   UNL     1      -8.826   5.094  72.595  1.00  0.00     0.000 HD 
HETATM   13  O   UNL     1      -8.774   5.968  72.226  1.00  0.00    -0.131 OA 
BRANCH  11  14
HETATM   14  C   UNL     1     -10.597   6.483  73.708  1.00  0.00    -0.266 C  
HETATM   15  O   UNL     1     -11.594   7.443  73.354  1.00  0.00    -0.580 OA 
HETATM   16  H   UNL     1     -12.455   7.176  73.654  1.00  0.00     0.000 HD 
ENDBRANCH  11  14
ENDBRANCH   8  11
ENDBRANCH   5   8
ENDBRANCH   2   5
TORSDOF 4
ENDMDL
MODEL      236
REMARK 921   NORMALIZED FREE ENERGY PREDICTED BY IDOCK:   -2.75 KCAL/MOL
REMARK 922        TOTAL FREE ENERGY PREDICTED BY IDOCK:   -3.63 KCAL/MOL
REMARK 923 INTER-LIGAND FREE ENERGY PREDICTED BY IDOCK:   -3.84 KCAL/MOL
REMARK 924 INTRA-LIGAND FREE ENERGY PREDICTED BY IDOCK:    0.21 KCAL/MOL
REMARK 927      BINDING AFFINITY PREDICTED BY RF-SCORE:    0.00 PKD
ROOT
HETATM    1  C   UNL     1     -10.247   8.381  69.062  1.00  0.00    -0.207 C  
HETATM    2  C   UNL     1     -10.361   9.812  69.528  1.00  0.00    -0.230 C  
HETATM    3  O   UNL     1     -10.656   8.004  67.962  1.00  0.00    -0.200 OA 
HETATM    4  F   UNL     1      -9.167  10.307  69.951  1.00  0.00    -0.219 F  
ENDROOT
BRANCH   2   5
HETATM    5  C   UNL     1     -11.413  10.000  70.627  1.00  0.00    -0.345 C  
HETATM    6  O   UNL     1     -12.754   9.979  70.092  1.00  0.00    -0.535 OA 
HETATM    7  H   UNL     1     -13.406  10.096  70.773  1.00  0.00     0.000 HD 
BRANCH   5   8
HETATM    8  C   UNL     1     -11.403   8.986  71.794  1.00  0.00    -0.377 C  
HETATM    9  O   UNL     1     -10.013   8.844  72.193  1.00  0.00    -0.322 OA 
HETATM   10  H   UNL     1     -10.007   8.221  72.910  1.00  0.00     0.000 HD 
BRANCH   8  11
HETATM   11  C   UNL     1     -11.993   7.581  71.535  1.00  0.00    -0.307 C  
HETATM   12  H   UNL     1     -13.786   6.779  71.556  1.00  0.00     0.000 HD 
HETATM   13  O   UNL     1     -13.423   7.643  71.715  1.00  0.00    -0.344 OA 
BRANCH  11  14
HETATM   14  C   UNL     1     -11.458   6.462  72.441  1.00  0.00    -0.282 C  
HETATM   15  O   UNL     1     -12.491   5.547  72.808  1.00  0.00    -0.470 OA 
HETATM   16  H   UNL     1     -12.160   4.855  73.369  1.00  0.00     0.000 HD 
ENDBRANCH  11  14
ENDBRANCH   8  11
ENDBRANCH   5   8
ENDBRANCH   2   5
TORSDOF 4
ENDMDL
MODEL      237
REMARK 921   NORMALIZED FREE ENERGY PREDICTED BY IDOCK:   -2.74 KCAL/MOL
REMARK 922        TOTAL FREE ENERGY PREDICTED BY IDOCK:   -3.62 KCAL/MOL
REMARK 923 INTER-LIGAND FREE ENERGY PREDICTED BY IDOCK:   -3.38 KCAL/MOL
REMARK 924 INTRA-LIGAND FREE ENERGY PREDICTED BY IDOCK:   -0.23 KCAL/MOL
REMARK 927      BINDING AFFINITY PREDICTED BY RF-SCORE:    0.00 PKD
ROOT
HETATM    1  C   UNL     1     -11.567  14.192  65.857  1.00  0.00    -0.348 C  
HETATM    2  C   UNL     1     -11.589  15.546  65.189  1.00  0.00    -0.060 C  
HETATM    3  O   UNL     1     -12.439  13.824  66.646  1.00  0.00    -0.386 OA 
HETATM    4  F   UNL     1     -11.465  15.450  63.838  1.00  0.00    -0.132 F  
ENDROOT
BRANCH   2   5
HETATM    5  C   UNL     1     -10.520  16.499  65.736  1.00  0.00    -0.329 C  
HETATM    6  O   UNL     1     -10.769  17.865  65.339  1.00  0.00    -0.634 OA 
HETATM    7  H   UNL     1     -10.107  18.456  65.678  1.00  0.00     0.000 HD 
BRANCH   5   8
HETATM    8  C   UNL     1     -10.319  16.529  67.268  1.00  0.00    -0.296 C  
HETATM    9  O   UNL     1     -10.834  17.812  67.717  1.00  0.00    -0.371 OA 
HETATM   10  H   UNL     1     -10.711  17.831  68.659  1.00  0.00     0.000 HD 
BRANCH   8  11
HETATM   11  C   UNL     1      -8.883  16.351  67.812  1.00  0.00    -0.189 C  
HETATM   12  H   UNL     1      -7.504  17.529  68.563  1.00  0.00     0.000 HD 
HETATM   13  O   UNL     1      -8.386  17.639  68.229  1.00  0.00    -0.256 OA 
BRANCH  11  14
HETATM   14  C   UNL     1      -7.870  15.759  66.821  1.00  0.00    -0.213 C  
HETATM   15  O   UNL     1      -6.538  15.823  67.334  1.00  0.00    -0.171 OA 
HETATM   16  H   UNL     1      -5.911  15.457  66.720  1.00  0.00     0.000 HD 
ENDBRANCH  11  14
ENDBRANCH   8  11
ENDBRANCH   5   8
ENDBRANCH   2   5
TORSDOF 4
ENDMDL
MODEL      238
REMARK 921   NORMALIZED FREE ENERGY PREDICTED BY IDOCK:   -2.73 KCAL/MOL
REMARK 922        TOTAL FREE ENERGY PREDICTED BY IDOCK:   -3.60 KCAL/MOL
REMARK 923 INTER-LIGAND FREE ENERGY PREDICTED BY IDOCK:   -3.36 KCAL/MOL
REMARK 924 INTRA-LIGAND FREE ENERGY PREDICTED BY IDOCK:   -0.24 KCAL/MOL
REMARK 927      BINDING AFFINITY PREDICTED BY RF-SCORE:    0.00 PKD
ROOT
HETATM    1  C   UNL     1     -11.023  13.103  65.880  1.00  0.00    -0.271 C  
HETATM    2  C   UNL     1     -10.691  13.044  67.352  1.00  0.00    -0.245 C  
HETATM    3  O   UNL     1     -12.179  13.174  65.459  1.00  0.00    -0.411 OA 
HETATM    4  F   UNL     1      -9.778  13.986  67.708  1.00  0.00    -0.210 F  
ENDROOT
BRANCH   2   5
HETATM    5  C   UNL     1     -10.203  11.661  67.798  1.00  0.00    -0.186 C  
HETATM    6  O   UNL     1      -9.852  11.645  69.199  1.00  0.00    -0.412 OA 
HETATM    7  H   UNL     1      -9.550  10.788  69.475  1.00  0.00     0.000 HD 
BRANCH   5   8
HETATM    8  C   UNL     1     -11.165  10.470  67.584  1.00  0.00    -0.265 C  
HETATM    9  O   UNL     1     -11.306   9.828  68.881  1.00  0.00    -0.455 OA 
HETATM   10  H   UNL     1     -11.897   9.096  68.750  1.00  0.00     0.000 HD 
BRANCH   8  11
HETATM   11  C   UNL     1     -10.769   9.401  66.540  1.00  0.00     0.058 C  
HETATM   12  H   UNL     1     -10.380   7.476  66.572  1.00  0.00     0.000 HD 
HETATM   13  O   UNL     1     -10.623   8.133  67.213  1.00  0.00    -0.299 OA 
BRANCH  11  14
HETATM   14  C   UNL     1      -9.466   9.675  65.774  1.00  0.00    -0.246 C  
HETATM   15  O   UNL     1      -9.107   8.571  64.942  1.00  0.00    -0.418 OA 
HETATM   16  H   UNL     1      -8.300   8.740  64.468  1.00  0.00     0.000 HD 
ENDBRANCH  11  14
ENDBRANCH   8  11
ENDBRANCH   5   8
ENDBRANCH   2   5
TORSDOF 4
ENDMDL
MODEL      239
REMARK 921   NORMALIZED FREE ENERGY PREDICTED BY IDOCK:   -2.73 KCAL/MOL
REMARK 922        TOTAL FREE ENERGY PREDICTED BY IDOCK:   -3.60 KCAL/MOL
REMARK 923 INTER-LIGAND FREE ENERGY PREDICTED BY IDOCK:   -3.40 KCAL/MOL
REMARK 924 INTRA-LIGAND FREE ENERGY PREDICTED BY IDOCK:   -0.20 KCAL/MOL
REMARK 927      BINDING AFFINITY PREDICTED BY RF-SCORE:    0.00 PKD
ROOT
HETATM    1  C   UNL     1      -8.272  17.594  67.943  1.00  0.00    -0.234 C  
HETATM    2  C   UNL     1      -8.271  16.453  68.933  1.00  0.00    -0.235 C  
HETATM    3  O   UNL     1      -8.283  18.776  68.290  1.00  0.00    -0.303 OA 
HETATM    4  F   UNL     1      -7.267  15.569  68.691  1.00  0.00    -0.111 F  
ENDROOT
BRANCH   2   5
HETATM    5  C   UNL     1      -9.609  15.707  68.985  1.00  0.00    -0.243 C  
HETATM    6  O   UNL     1     -10.713  16.606  69.228  1.00  0.00    -0.319 OA 
HETATM    7  H   UNL     1     -11.542  16.144  69.260  1.00  0.00     0.000 HD 
BRANCH   5   8
HETATM    8  C   UNL     1     -10.002  14.874  67.743  1.00  0.00    -0.222 C  
HETATM    9  O   UNL     1     -11.155  15.540  67.159  1.00  0.00    -0.317 OA 
HETATM   10  H   UNL     1     -11.396  15.029  66.396  1.00  0.00     0.000 HD 
BRANCH   8  11
HETATM   11  C   UNL     1     -10.343  13.381  67.953  1.00  0.00    -0.238 C  
HETATM   12  H   UNL     1      -9.918  11.696  67.039  1.00  0.00     0.000 HD 
HETATM   13  O   UNL     1      -9.708  12.614  66.910  1.00  0.00    -0.222 OA 
BRANCH  11  14
HETATM   14  C   UNL     1     -11.841  13.037  67.939  1.00  0.00    -0.343 C  
HETATM   15  O   UNL     1     -12.052  11.627  67.844  1.00  0.00    -0.613 OA 
HETATM   16  H   UNL     1     -12.978  11.414  67.836  1.00  0.00     0.000 HD 
ENDBRANCH  11  14
ENDBRANCH   8  11
ENDBRANCH   5   8
ENDBRANCH   2   5
TORSDOF 4
ENDMDL
MODEL      240
REMARK 921   NORMALIZED FREE ENERGY PREDICTED BY IDOCK:   -2.73 KCAL/MOL
REMARK 922        TOTAL FREE ENERGY PREDICTED BY IDOCK:   -3.60 KCAL/MOL
REMARK 923 INTER-LIGAND FREE ENERGY PREDICTED BY IDOCK:   -3.13 KCAL/MOL
REMARK 924 INTRA-LIGAND FREE ENERGY PREDICTED BY IDOCK:   -0.47 KCAL/MOL
REMARK 927      BINDING AFFINITY PREDICTED BY RF-SCORE:    0.00 PKD
ROOT
HETATM    1  C   UNL     1      -7.838   8.676  69.601  1.00  0.00    -0.094 C  
HETATM    2  C   UNL     1      -8.862   8.882  68.510  1.00  0.00    -0.134 C  
HETATM    3  O   UNL     1      -7.749   7.627  70.242  1.00  0.00    -0.087 OA 
HETATM    4  F   UNL     1      -8.294   9.308  67.351  1.00  0.00    -0.117 F  
ENDROOT
BRANCH   2   5
HETATM    5  C   UNL     1      -9.982   9.846  68.918  1.00  0.00    -0.181 C  
HETATM    6  O   UNL     1      -9.970  10.108  70.338  1.00  0.00    -0.397 OA 
HETATM    7  H   UNL     1     -10.664  10.706  70.591  1.00  0.00     0.000 HD 
BRANCH   5   8
HETATM    8  C   UNL     1     -10.008  11.230  68.229  1.00  0.00    -0.195 C  
HETATM    9  O   UNL     1      -8.916  11.992  68.813  1.00  0.00    -0.369 OA 
HETATM   10  H   UNL     1      -8.932  12.842  68.390  1.00  0.00     0.000 HD 
BRANCH   8  11
HETATM   11  C   UNL     1     -11.306  12.062  68.330  1.00  0.00    -0.286 C  
HETATM   12  H   UNL     1     -13.173  11.708  68.825  1.00  0.00     0.000 HD 
HETATM   13  O   UNL     1     -12.375  11.196  68.763  1.00  0.00    -0.539 OA 
BRANCH  11  14
HETATM   14  C   UNL     1     -11.757  12.744  67.028  1.00  0.00    -0.374 C  
HETATM   15  O   UNL     1     -11.571  11.889  65.899  1.00  0.00    -0.359 OA 
HETATM   16  H   UNL     1     -11.850  12.311  65.094  1.00  0.00     0.000 HD 
ENDBRANCH  11  14
ENDBRANCH   8  11
ENDBRANCH   5   8
ENDBRANCH   2   5
TORSDOF 4
ENDMDL
MODEL      241
REMARK 921   NORMALIZED FREE ENERGY PREDICTED BY IDOCK:   -2.72 KCAL/MOL
REMARK 922        TOTAL FREE ENERGY PREDICTED BY IDOCK:   -3.59 KCAL/MOL
REMARK 923 INTER-LIGAND FREE ENERGY PREDICTED BY IDOCK:   -3.21 KCAL/MOL
REMARK 924 INTRA-LIGAND FREE ENERGY PREDICTED BY IDOCK:   -0.37 KCAL/MOL
REMARK 927      BINDING AFFINITY PREDICTED BY RF-SCORE:    0.00 PKD
ROOT
HETATM    1  C   UNL     1     -11.224   5.484  72.641  1.00  0.00    -0.295 C  
HETATM    2  C   UNL     1     -11.547   6.833  72.042  1.00  0.00    -0.291 C  
HETATM    3  O   UNL     1     -10.827   5.348  73.799  1.00  0.00    -0.284 OA 
HETATM    4  F   UNL     1     -12.788   6.861  71.487  1.00  0.00    -0.379 F  
ENDROOT
BRANCH   2   5
HETATM    5  C   UNL     1     -10.512   7.289  71.008  1.00  0.00    -0.215 C  
HETATM    6  O   UNL     1      -9.219   6.692  71.247  1.00  0.00    -0.154 OA 
HETATM    7  H   UNL     1      -8.577   6.975  70.606  1.00  0.00     0.000 HD 
BRANCH   5   8
HETATM    8  C   UNL     1     -10.836   7.024  69.520  1.00  0.00    -0.238 C  
HETATM    9  O   UNL     1     -10.897   5.579  69.372  1.00  0.00    -0.298 OA 
HETATM   10  H   UNL     1     -11.096   5.416  68.457  1.00  0.00     0.000 HD 
BRANCH   8  11
HETATM   11  C   UNL     1      -9.868   7.593  68.457  1.00  0.00    -0.167 C  
HETATM   12  H   UNL     1      -8.585   9.077  68.370  1.00  0.00     0.000 HD 
HETATM   13  O   UNL     1      -9.179   8.727  69.023  1.00  0.00    -0.141 OA 
BRANCH  11  14
HETATM   14  C   UNL     1     -10.523   8.053  67.145  1.00  0.00    -0.338 C  
HETATM   15  O   UNL     1      -9.652   7.860  66.030  1.00  0.00    -0.412 OA 
HETATM   16  H   UNL     1     -10.057   8.144  65.219  1.00  0.00     0.000 HD 
ENDBRANCH  11  14
ENDBRANCH   8  11
ENDBRANCH   5   8
ENDBRANCH   2   5
TORSDOF 4
ENDMDL
MODEL      242
REMARK 921   NORMALIZED FREE ENERGY PREDICTED BY IDOCK:   -2.71 KCAL/MOL
REMARK 922        TOTAL FREE ENERGY PREDICTED BY IDOCK:   -3.58 KCAL/MOL
REMARK 923 INTER-LIGAND FREE ENERGY PREDICTED BY IDOCK:   -3.16 KCAL/MOL
REMARK 924 INTRA-LIGAND FREE ENERGY PREDICTED BY IDOCK:   -0.42 KCAL/MOL
REMARK 927      BINDING AFFINITY PREDICTED BY RF-SCORE:    0.00 PKD
ROOT
HETATM    1  C   UNL     1     -12.807  11.781  70.526  1.00  0.00     0.067 C  
HETATM    2  C   UNL     1     -11.963  12.946  70.066  1.00  0.00    -0.309 C  
HETATM    3  O   UNL     1     -12.602  11.189  71.587  1.00  0.00    -0.351 OA 
HETATM    4  F   UNL     1     -12.720  14.028  69.742  1.00  0.00    -0.357 F  
ENDROOT
BRANCH   2   5
HETATM    5  C   UNL     1     -11.046  12.590  68.890  1.00  0.00    -0.260 C  
HETATM    6  O   UNL     1      -9.763  13.244  68.997  1.00  0.00    -0.401 OA 
HETATM    7  H   UNL     1      -9.194  13.023  68.268  1.00  0.00     0.000 HD 
BRANCH   5   8
HETATM    8  C   UNL     1     -10.745  11.092  68.657  1.00  0.00    -0.198 C  
HETATM    9  O   UNL     1      -9.790  10.709  69.683  1.00  0.00    -0.413 OA 
HETATM   10  H   UNL     1      -9.605   9.788  69.540  1.00  0.00     0.000 HD 
BRANCH   8  11
HETATM   11  C   UNL     1     -10.189  10.673  67.277  1.00  0.00    -0.208 C  
HETATM   12  H   UNL     1     -10.299  11.367  65.443  1.00  0.00     0.000 HD 
HETATM   13  O   UNL     1     -10.641  11.624  66.291  1.00  0.00    -0.241 OA 
BRANCH  11  14
HETATM   14  C   UNL     1     -10.600   9.273  66.796  1.00  0.00    -0.137 C  
HETATM   15  O   UNL     1     -10.551   8.320  67.859  1.00  0.00    -0.352 OA 
HETATM   16  H   UNL     1     -10.805   7.454  67.561  1.00  0.00     0.000 HD 
ENDBRANCH  11  14
ENDBRANCH   8  11
ENDBRANCH   5   8
ENDBRANCH   2   5
TORSDOF 4
ENDMDL
MODEL      243
REMARK 921   NORMALIZED FREE ENERGY PREDICTED BY IDOCK:   -2.70 KCAL/MOL
REMARK 922        TOTAL FREE ENERGY PREDICTED BY IDOCK:   -3.57 KCAL/MOL
REMARK 923 INTER-LIGAND FREE ENERGY PREDICTED BY IDOCK:   -3.30 KCAL/MOL
REMARK 924 INTRA-LIGAND FREE ENERGY PREDICTED BY IDOCK:   -0.27 KCAL/MOL
REMARK 927      BINDING AFFINITY PREDICTED BY RF-SCORE:    0.00 PKD
ROOT
HETATM    1  C   UNL     1      -9.983   4.485  66.470  1.00  0.00    -0.240 C  
HETATM    2  C   UNL     1      -9.598   5.885  66.887  1.00  0.00    -0.142 C  
HETATM    3  O   UNL     1      -9.767   4.043  65.340  1.00  0.00    -0.174 OA 
HETATM    4  F   UNL     1      -8.866   5.893  68.032  1.00  0.00    -0.112 F  
ENDROOT
BRANCH   2   5
HETATM    5  C   UNL     1     -10.807   6.814  67.044  1.00  0.00    -0.383 C  
HETATM    6  O   UNL     1     -11.598   6.470  68.202  1.00  0.00    -0.570 OA 
HETATM    7  H   UNL     1     -12.347   7.046  68.300  1.00  0.00     0.000 HD 
BRANCH   5   8
HETATM    8  C   UNL     1     -10.523   8.329  67.156  1.00  0.00    -0.316 C  
HETATM    9  O   UNL     1      -9.860   8.708  65.919  1.00  0.00    -0.452 OA 
HETATM   10  H   UNL     1      -9.686   9.639  65.988  1.00  0.00     0.000 HD 
BRANCH   8  11
HETATM   11  C   UNL     1      -9.668   8.818  68.348  1.00  0.00    -0.162 C  
HETATM   12  H   UNL     1      -9.896   8.923  70.296  1.00  0.00     0.000 HD 
HETATM   13  O   UNL     1     -10.421   8.623  69.563  1.00  0.00    -0.216 OA 
BRANCH  11  14
HETATM   14  C   UNL     1      -9.242  10.293  68.295  1.00  0.00    -0.139 C  
HETATM   15  O   UNL     1      -8.909  10.788  69.593  1.00  0.00    -0.392 OA 
HETATM   16  H   UNL     1      -8.645  11.700  69.560  1.00  0.00     0.000 HD 
ENDBRANCH  11  14
ENDBRANCH   8  11
ENDBRANCH   5   8
ENDBRANCH   2   5
TORSDOF 4
ENDMDL
MODEL      244
REMARK 921   NORMALIZED FREE ENERGY PREDICTED BY IDOCK:   -2.70 KCAL/MOL
REMARK 922        TOTAL FREE ENERGY PREDICTED BY IDOCK:   -3.56 KCAL/MOL
REMARK 923 INTER-LIGAND FREE ENERGY PREDICTED BY IDOCK:   -3.43 KCAL/MOL
REMARK 924 INTRA-LIGAND FREE ENERGY PREDICTED BY IDOCK:   -0.13 KCAL/MOL
REMARK 927      BINDING AFFINITY PREDICTED BY RF-SCORE:    0.00 PKD
ROOT
HETATM    1  C   UNL     1      -6.502  18.117  68.360  1.00  0.00    -0.208 C  
HETATM    2  C   UNL     1      -7.012  16.907  67.614  1.00  0.00    -0.137 C  
HETATM    3  O   UNL     1      -6.410  18.152  69.589  1.00  0.00    -0.248 OA 
HETATM    4  F   UNL     1      -6.156  16.514  66.634  1.00  0.00    -0.201 F  
ENDROOT
BRANCH   2   5
HETATM    5  C   UNL     1      -8.409  17.118  67.020  1.00  0.00    -0.207 C  
HETATM    6  O   UNL     1      -8.344  17.600  65.660  1.00  0.00    -0.467 OA 
HETATM    7  H   UNL     1      -9.210  17.731  65.292  1.00  0.00     0.000 HD 
BRANCH   5   8
HETATM    8  C   UNL     1      -9.358  15.898  66.996  1.00  0.00    -0.215 C  
HETATM    9  O   UNL     1      -9.907  15.841  65.651  1.00  0.00    -0.329 OA 
HETATM   10  H   UNL     1     -10.489  15.091  65.636  1.00  0.00     0.000 HD 
BRANCH   8  11
HETATM   11  C   UNL     1     -10.523  15.869  68.011  1.00  0.00    -0.274 C  
HETATM   12  H   UNL     1     -10.689  15.870  69.968  1.00  0.00     0.000 HD 
HETATM   13  O   UNL     1      -9.973  15.888  69.344  1.00  0.00    -0.242 OA 
BRANCH  11  14
HETATM   14  C   UNL     1     -11.457  14.653  67.910  1.00  0.00    -0.329 C  
HETATM   15  O   UNL     1     -12.454  14.673  68.933  1.00  0.00    -0.576 OA 
HETATM   16  H   UNL     1     -13.032  13.921  68.870  1.00  0.00     0.000 HD 
ENDBRANCH  11  14
ENDBRANCH   8  11
ENDBRANCH   5   8
ENDBRANCH   2   5
TORSDOF 4
ENDMDL
MODEL      245
REMARK 921   NORMALIZED FREE ENERGY PREDICTED BY IDOCK:   -2.70 KCAL/MOL
REMARK 922        TOTAL FREE ENERGY PREDICTED BY IDOCK:   -3.56 KCAL/MOL
REMARK 923 INTER-LIGAND FREE ENERGY PREDICTED BY IDOCK:   -3.05 KCAL/MOL
REMARK 924 INTRA-LIGAND FREE ENERGY PREDICTED BY IDOCK:   -0.51 KCAL/MOL
REMARK 927      BINDING AFFINITY PREDICTED BY RF-SCORE:    0.00 PKD
ROOT
HETATM    1  C   UNL     1      -7.604  10.973  67.853  1.00  0.00    -0.095 C  
HETATM    2  C   UNL     1      -8.921  11.706  67.940  1.00  0.00    -0.170 C  
HETATM    3  O   UNL     1      -7.332  10.198  66.934  1.00  0.00    -0.090 OA 
HETATM    4  F   UNL     1      -8.749  13.045  68.102  1.00  0.00    -0.163 F  
ENDROOT
BRANCH   2   5
HETATM    5  C   UNL     1      -9.831  11.168  69.050  1.00  0.00    -0.114 C  
HETATM    6  O   UNL     1     -10.799  12.154  69.471  1.00  0.00    -0.447 OA 
HETATM    7  H   UNL     1     -11.363  11.820  70.159  1.00  0.00     0.000 HD 
BRANCH   5   8
HETATM    8  C   UNL     1     -10.635   9.884  68.743  1.00  0.00    -0.222 C  
HETATM    9  O   UNL     1     -12.030  10.287  68.683  1.00  0.00    -0.692 OA 
HETATM   10  H   UNL     1     -12.524   9.497  68.494  1.00  0.00     0.000 HD 
BRANCH   8  11
HETATM   11  C   UNL     1     -10.502   8.697  69.725  1.00  0.00    -0.220 C  
HETATM   12  H   UNL     1     -10.486   6.739  69.574  1.00  0.00     0.000 HD 
HETATM   13  O   UNL     1     -10.568   7.468  68.972  1.00  0.00    -0.213 OA 
BRANCH  11  14
HETATM   14  C   UNL     1     -11.570   8.626  70.826  1.00  0.00    -0.242 C  
HETATM   15  O   UNL     1     -11.708   9.877  71.502  1.00  0.00    -0.380 OA 
HETATM   16  H   UNL     1     -12.369   9.833  72.184  1.00  0.00     0.000 HD 
ENDBRANCH  11  14
ENDBRANCH   8  11
ENDBRANCH   5   8
ENDBRANCH   2   5
TORSDOF 4
ENDMDL
MODEL      246
REMARK 921   NORMALIZED FREE ENERGY PREDICTED BY IDOCK:   -2.69 KCAL/MOL
REMARK 922        TOTAL FREE ENERGY PREDICTED BY IDOCK:   -3.56 KCAL/MOL
REMARK 923 INTER-LIGAND FREE ENERGY PREDICTED BY IDOCK:   -3.27 KCAL/MOL
REMARK 924 INTRA-LIGAND FREE ENERGY PREDICTED BY IDOCK:   -0.29 KCAL/MOL
REMARK 927      BINDING AFFINITY PREDICTED BY RF-SCORE:    0.00 PKD
ROOT
HETATM    1  C   UNL     1      -7.238  13.232  68.021  1.00  0.00    -0.121 C  
HETATM    2  C   UNL     1      -8.708  13.374  67.703  1.00  0.00    -0.198 C  
HETATM    3  O   UNL     1      -6.351  13.568  67.234  1.00  0.00    -0.294 OA 
HETATM    4  F   UNL     1      -9.379  14.042  68.679  1.00  0.00    -0.196 F  
ENDROOT
BRANCH   2   5
HETATM    5  C   UNL     1      -9.393  12.030  67.436  1.00  0.00    -0.178 C  
HETATM    6  O   UNL     1      -8.522  11.117  66.732  1.00  0.00    -0.141 OA 
HETATM    7  H   UNL     1      -8.947  10.283  66.567  1.00  0.00     0.000 HD 
BRANCH   5   8
HETATM    8  C   UNL     1      -9.925  11.253  68.662  1.00  0.00    -0.204 C  
HETATM    9  O   UNL     1      -9.101  10.061  68.773  1.00  0.00    -0.136 OA 
HETATM   10  H   UNL     1      -9.428   9.583  69.526  1.00  0.00     0.000 HD 
BRANCH   8  11
HETATM   11  C   UNL     1     -11.412  10.831  68.660  1.00  0.00    -0.295 C  
HETATM   12  H   UNL     1     -13.033  11.383  67.697  1.00  0.00     0.000 HD 
HETATM   13  O   UNL     1     -12.119  11.643  67.699  1.00  0.00    -0.615 OA 
BRANCH  11  14
HETATM   14  C   UNL     1     -12.139  10.965  70.007  1.00  0.00    -0.355 C  
HETATM   15  O   UNL     1     -12.861   9.776  70.332  1.00  0.00    -0.535 OA 
HETATM   16  H   UNL     1     -13.311   9.859  71.165  1.00  0.00     0.000 HD 
ENDBRANCH  11  14
ENDBRANCH   8  11
ENDBRANCH   5   8
ENDBRANCH   2   5
TORSDOF 4
ENDMDL
MODEL      247
REMARK 921   NORMALIZED FREE ENERGY PREDICTED BY IDOCK:   -2.69 KCAL/MOL
REMARK 922        TOTAL FREE ENERGY PREDICTED BY IDOCK:   -3.56 KCAL/MOL
REMARK 923 INTER-LIGAND FREE ENERGY PREDICTED BY IDOCK:   -3.41 KCAL/MOL
REMARK 924 INTRA-LIGAND FREE ENERGY PREDICTED BY IDOCK:   -0.15 KCAL/MOL
REMARK 927      BINDING AFFINITY PREDICTED BY RF-SCORE:    0.00 PKD
ROOT
HETATM    1  C   UNL     1     -10.144  14.800  68.124  1.00  0.00    -0.221 C  
HETATM    2  C   UNL     1      -9.284  14.792  66.882  1.00  0.00    -0.245 C  
HETATM    3  O   UNL     1     -11.335  14.483  68.111  1.00  0.00    -0.271 OA 
HETATM    4  F   UNL     1      -8.140  14.080  67.059  1.00  0.00    -0.189 F  
ENDROOT
BRANCH   2   5
HETATM    5  C   UNL     1      -8.940  16.201  66.386  1.00  0.00    -0.318 C  
HETATM    6  O   UNL     1      -9.695  16.550  65.205  1.00  0.00    -0.440 OA 
HETATM    7  H   UNL     1      -9.482  17.424  64.898  1.00  0.00     0.000 HD 
BRANCH   5   8
HETATM    8  C   UNL     1      -9.138  17.368  67.380  1.00  0.00    -0.236 C  
HETATM    9  O   UNL     1     -10.546  17.722  67.311  1.00  0.00    -0.362 OA 
HETATM   10  H   UNL     1     -10.668  18.439  67.923  1.00  0.00     0.000 HD 
BRANCH   8  11
HETATM   11  C   UNL     1      -8.293  18.645  67.172  1.00  0.00    -0.264 C  
HETATM   12  H   UNL     1      -7.578  19.627  65.629  1.00  0.00     0.000 HD 
HETATM   13  O   UNL     1      -8.097  18.842  65.757  1.00  0.00    -0.473 OA 
BRANCH  11  14
HETATM   14  C   UNL     1      -6.908  18.637  67.837  1.00  0.00    -0.212 C  
HETATM   15  O   UNL     1      -5.947  19.346  67.053  1.00  0.00    -0.178 OA 
HETATM   16  H   UNL     1      -5.090  19.340  67.464  1.00  0.00     0.000 HD 
ENDBRANCH  11  14
ENDBRANCH   8  11
ENDBRANCH   5   8
ENDBRANCH   2   5
TORSDOF 4
ENDMDL
MODEL      248
REMARK 921   NORMALIZED FREE ENERGY PREDICTED BY IDOCK:   -2.69 KCAL/MOL
REMARK 922        TOTAL FREE ENERGY PREDICTED BY IDOCK:   -3.55 KCAL/MOL
REMARK 923 INTER-LIGAND FREE ENERGY PREDICTED BY IDOCK:   -3.11 KCAL/MOL
REMARK 924 INTRA-LIGAND FREE ENERGY PREDICTED BY IDOCK:   -0.44 KCAL/MOL
REMARK 927      BINDING AFFINITY PREDICTED BY RF-SCORE:    0.00 PKD
ROOT
HETATM    1  C   UNL     1     -10.884   6.803  67.952  1.00  0.00    -0.247 C  
HETATM    2  C   UNL     1     -11.031   5.960  69.197  1.00  0.00    -0.312 C  
HETATM    3  O   UNL     1     -10.732   6.313  66.831  1.00  0.00    -0.286 OA 
HETATM    4  F   UNL     1     -12.135   6.300  69.915  1.00  0.00    -0.437 F  
ENDROOT
BRANCH   2   5
HETATM    5  C   UNL     1      -9.795   6.012  70.101  1.00  0.00    -0.173 C  
HETATM    6  O   UNL     1      -8.693   6.692  69.461  1.00  0.00    -0.134 OA 
HETATM    7  H   UNL     1      -7.926   6.724  70.021  1.00  0.00     0.000 HD 
BRANCH   5   8
HETATM    8  C   UNL     1      -9.960   6.677  71.486  1.00  0.00    -0.175 C  
HETATM    9  O   UNL     1      -8.942   7.711  71.562  1.00  0.00    -0.129 OA 
HETATM   10  H   UNL     1      -9.043   8.120  72.413  1.00  0.00     0.000 HD 
BRANCH   8  11
HETATM   11  C   UNL     1      -9.848   5.776  72.738  1.00  0.00    -0.160 C  
HETATM   12  H   UNL     1     -10.711   4.129  73.371  1.00  0.00     0.000 HD 
HETATM   13  O   UNL     1     -10.780   4.683  72.603  1.00  0.00    -0.206 OA 
BRANCH  11  14
HETATM   14  C   UNL     1     -10.134   6.469  74.079  1.00  0.00    -0.326 C  
HETATM   15  O   UNL     1     -11.035   7.565  73.919  1.00  0.00    -0.528 OA 
HETATM   16  H   UNL     1     -11.212   7.994  74.749  1.00  0.00     0.000 HD 
ENDBRANCH  11  14
ENDBRANCH   8  11
ENDBRANCH   5   8
ENDBRANCH   2   5
TORSDOF 4
ENDMDL
MODEL      249
REMARK 921   NORMALIZED FREE ENERGY PREDICTED BY IDOCK:   -2.68 KCAL/MOL
REMARK 922        TOTAL FREE ENERGY PREDICTED BY IDOCK:   -3.55 KCAL/MOL
REMARK 923 INTER-LIGAND FREE ENERGY PREDICTED BY IDOCK:   -3.16 KCAL/MOL
REMARK 924 INTRA-LIGAND FREE ENERGY PREDICTED BY IDOCK:   -0.39 KCAL/MOL
REMARK 927      BINDING AFFINITY PREDICTED BY RF-SCORE:    0.00 PKD
ROOT
HETATM    1  C   UNL     1     -11.282  10.869  67.697  1.00  0.00    -0.309 C  
HETATM    2  C   UNL     1     -10.123  10.341  68.509  1.00  0.00    -0.165 C  
HETATM    3  O   UNL     1     -12.196  11.530  68.193  1.00  0.00    -0.576 OA 
HETATM    4  F   UNL     1      -8.923  10.683  67.967  1.00  0.00    -0.131 F  
ENDROOT
BRANCH   2   5
HETATM    5  C   UNL     1     -10.179   8.823  68.712  1.00  0.00    -0.206 C  
HETATM    6  O   UNL     1      -9.369   8.124  67.743  1.00  0.00    -0.133 OA 
HETATM    7  H   UNL     1      -9.404   7.183  67.869  1.00  0.00     0.000 HD 
BRANCH   5   8
HETATM    8  C   UNL     1      -9.755   8.280  70.096  1.00  0.00    -0.176 C  
HETATM    9  O   UNL     1      -8.324   8.516  70.200  1.00  0.00    -0.115 OA 
HETATM   10  H   UNL     1      -8.063   8.182  71.050  1.00  0.00     0.000 HD 
BRANCH   8  11
HETATM   11  C   UNL     1     -10.038   6.792  70.405  1.00  0.00    -0.183 C  
HETATM   12  H   UNL     1      -9.175   5.077  69.993  1.00  0.00     0.000 HD 
HETATM   13  O   UNL     1      -9.001   5.991  69.803  1.00  0.00    -0.131 OA 
BRANCH  11  14
HETATM   14  C   UNL     1     -11.389   6.258  69.905  1.00  0.00    -0.434 C  
HETATM   15  O   UNL     1     -12.481   6.895  70.569  1.00  0.00    -0.601 OA 
HETATM   16  H   UNL     1     -13.317   6.564  70.259  1.00  0.00     0.000 HD 
ENDBRANCH  11  14
ENDBRANCH   8  11
ENDBRANCH   5   8
ENDBRANCH   2   5
TORSDOF 4
ENDMDL
MODEL      250
REMARK 921   NORMALIZED FREE ENERGY PREDICTED BY IDOCK:   -2.68 KCAL/MOL
REMARK 922        TOTAL FREE ENERGY PREDICTED BY IDOCK:   -3.55 KCAL/MOL
REMARK 923 INTER-LIGAND FREE ENERGY PREDICTED BY IDOCK:   -3.12 KCAL/MOL
REMARK 924 INTRA-LIGAND FREE ENERGY PREDICTED BY IDOCK:   -0.42 KCAL/MOL
REMARK 927      BINDING AFFINITY PREDICTED BY RF-SCORE:    0.00 PKD
ROOT
HETATM    1  C   UNL     1      -9.887   7.912  67.919  1.00  0.00    -0.165 C  
HETATM    2  C   UNL     1     -10.307   8.538  69.228  1.00  0.00    -0.221 C  
HETATM    3  O   UNL     1     -10.481   8.121  66.860  1.00  0.00    -0.328 OA 
HETATM    4  F   UNL     1      -9.273   9.167  69.847  1.00  0.00    -0.146 F  
ENDROOT
BRANCH   2   5
HETATM    5  C   UNL     1     -10.947   7.533  70.191  1.00  0.00    -0.254 C  
HETATM    6  O   UNL     1     -11.754   6.562  69.490  1.00  0.00    -0.640 OA 
HETATM    7  H   UNL     1     -12.151   5.938  70.088  1.00  0.00     0.000 HD 
BRANCH   5   8
HETATM    8  C   UNL     1      -9.997   6.722  71.101  1.00  0.00    -0.181 C  
HETATM    9  O   UNL     1      -9.489   5.632  70.284  1.00  0.00    -0.154 OA 
HETATM   10  H   UNL     1      -8.904   5.134  70.843  1.00  0.00     0.000 HD 
BRANCH   8  11
HETATM   11  C   UNL     1     -10.574   6.137  72.410  1.00  0.00    -0.210 C  
HETATM   12  H   UNL     1     -12.369   5.831  73.146  1.00  0.00     0.000 HD 
HETATM   13  O   UNL     1     -12.014   6.191  72.342  1.00  0.00    -0.290 OA 
BRANCH  11  14
HETATM   14  C   UNL     1     -10.142   6.849  73.701  1.00  0.00    -0.318 C  
HETATM   15  O   UNL     1      -9.035   7.723  73.470  1.00  0.00    -0.215 OA 
HETATM   16  H   UNL     1      -8.768   8.163  74.268  1.00  0.00     0.000 HD 
ENDBRANCH  11  14
ENDBRANCH   8  11
ENDBRANCH   5   8
ENDBRANCH   2   5
TORSDOF 4
ENDMDL
MODEL      251
REMARK 921   NORMALIZED FREE ENERGY PREDICTED BY IDOCK:   -2.68 KCAL/MOL
REMARK 922        TOTAL FREE ENERGY PREDICTED BY IDOCK:   -3.54 KCAL/MOL
REMARK 923 INTER-LIGAND FREE ENERGY PREDICTED BY IDOCK:   -3.26 KCAL/MOL
REMARK 924 INTRA-LIGAND FREE ENERGY PREDICTED BY IDOCK:   -0.28 KCAL/MOL
REMARK 927      BINDING AFFINITY PREDICTED BY RF-SCORE:    0.00 PKD
ROOT
HETATM    1  C   UNL     1      -8.511   5.849  67.723  1.00  0.00    -0.107 C  
HETATM    2  C   UNL     1      -9.653   6.834  67.636  1.00  0.00    -0.125 C  
HETATM    3  O   UNL     1      -8.652   4.645  67.497  1.00  0.00    -0.104 OA 
HETATM    4  F   UNL     1      -9.352   7.895  66.841  1.00  0.00    -0.151 F  
ENDROOT
BRANCH   2   5
HETATM    5  C   UNL     1     -10.113   7.336  69.010  1.00  0.00    -0.186 C  
HETATM    6  O   UNL     1     -10.932   8.520  68.898  1.00  0.00    -0.429 OA 
HETATM    7  H   UNL     1     -11.217   8.832  69.749  1.00  0.00     0.000 HD 
BRANCH   5   8
HETATM    8  C   UNL     1     -10.908   6.348  69.893  1.00  0.00    -0.310 C  
HETATM    9  O   UNL     1     -12.292   6.788  69.844  1.00  0.00    -0.581 OA 
HETATM   10  H   UNL     1     -12.781   6.180  70.387  1.00  0.00     0.000 HD 
BRANCH   8  11
HETATM   11  C   UNL     1     -10.484   6.200  71.372  1.00  0.00    -0.225 C  
HETATM   12  H   UNL     1      -9.531   4.853  72.438  1.00  0.00     0.000 HD 
HETATM   13  O   UNL     1      -9.792   4.944  71.529  1.00  0.00    -0.167 OA 
BRANCH  11  14
HETATM   14  C   UNL     1     -11.631   6.230  72.395  1.00  0.00    -0.282 C  
HETATM   15  O   UNL     1     -11.765   7.521  72.991  1.00  0.00    -0.594 OA 
HETATM   16  H   UNL     1     -12.474   7.539  73.624  1.00  0.00     0.000 HD 
ENDBRANCH  11  14
ENDBRANCH   8  11
ENDBRANCH   5   8
ENDBRANCH   2   5
TORSDOF 4
ENDMDL
MODEL      252
REMARK 921   NORMALIZED FREE ENERGY PREDICTED BY IDOCK:   -2.68 KCAL/MOL
REMARK 922        TOTAL FREE ENERGY PREDICTED BY IDOCK:   -3.54 KCAL/MOL
REMARK 923 INTER-LIGAND FREE ENERGY PREDICTED BY IDOCK:   -3.51 KCAL/MOL
REMARK 924 INTRA-LIGAND FREE ENERGY PREDICTED BY IDOCK:   -0.04 KCAL/MOL
REMARK 927      BINDING AFFINITY PREDICTED BY RF-SCORE:    0.00 PKD
ROOT
HETATM    1  C   UNL     1     -11.643  16.036  68.296  1.00  0.00    -0.232 C  
HETATM    2  C   UNL     1     -10.631  17.132  68.057  1.00  0.00    -0.374 C  
HETATM    3  O   UNL     1     -11.578  15.268  69.258  1.00  0.00    -0.292 OA 
HETATM    4  F   UNL     1     -11.224  18.342  67.878  1.00  0.00    -0.296 F  
ENDROOT
BRANCH   2   5
HETATM    5  C   UNL     1      -9.700  16.836  66.876  1.00  0.00    -0.257 C  
HETATM    6  O   UNL     1     -10.425  16.305  65.745  1.00  0.00    -0.347 OA 
HETATM    7  H   UNL     1      -9.848  16.122  65.012  1.00  0.00     0.000 HD 
BRANCH   5   8
HETATM    8  C   UNL     1      -8.859  18.012  66.329  1.00  0.00    -0.170 C  
HETATM    9  O   UNL     1      -7.689  17.415  65.706  1.00  0.00    -0.508 OA 
HETATM   10  H   UNL     1      -7.172  18.137  65.369  1.00  0.00     0.000 HD 
BRANCH   8  11
HETATM   11  C   UNL     1      -8.392  19.093  67.330  1.00  0.00    -0.281 C  
HETATM   12  H   UNL     1      -7.822  20.969  67.216  1.00  0.00     0.000 HD 
HETATM   13  O   UNL     1      -8.109  20.304  66.600  1.00  0.00    -0.295 OA 
BRANCH  11  14
HETATM   14  C   UNL     1      -7.141  18.740  68.149  1.00  0.00    -0.250 C  
HETATM   15  O   UNL     1      -7.445  17.819  69.198  1.00  0.00    -0.206 OA 
HETATM   16  H   UNL     1      -6.671  17.601  69.705  1.00  0.00     0.000 HD 
ENDBRANCH  11  14
ENDBRANCH   8  11
ENDBRANCH   5   8
ENDBRANCH   2   5
TORSDOF 4
ENDMDL
MODEL      253
REMARK 921   NORMALIZED FREE ENERGY PREDICTED BY IDOCK:   -2.66 KCAL/MOL
REMARK 922        TOTAL FREE ENERGY PREDICTED BY IDOCK:   -3.52 KCAL/MOL
REMARK 923 INTER-LIGAND FREE ENERGY PREDICTED BY IDOCK:   -3.15 KCAL/MOL
REMARK 924 INTRA-LIGAND FREE ENERGY PREDICTED BY IDOCK:   -0.36 KCAL/MOL
REMARK 927      BINDING AFFINITY PREDICTED BY RF-SCORE:    0.00 PKD
ROOT
HETATM    1  C   UNL     1     -10.407   8.304  68.007  1.00  0.00    -0.213 C  
HETATM    2  C   UNL     1      -9.644   9.601  67.871  1.00  0.00    -0.139 C  
HETATM    3  O   UNL     1     -10.786   7.650  67.033  1.00  0.00    -0.334 OA 
HETATM    4  F   UNL     1      -8.495   9.594  68.599  1.00  0.00    -0.111 F  
ENDROOT
BRANCH   2   5
HETATM    5  C   UNL     1     -10.482  10.828  68.246  1.00  0.00    -0.181 C  
HETATM    6  O   UNL     1     -10.498  11.048  69.674  1.00  0.00    -0.420 OA 
HETATM    7  H   UNL     1     -11.018  11.808  69.906  1.00  0.00     0.000 HD 
BRANCH   5   8
HETATM    8  C   UNL     1     -10.080  12.178  67.610  1.00  0.00    -0.199 C  
HETATM    9  O   UNL     1      -9.320  12.891  68.624  1.00  0.00    -0.385 OA 
HETATM   10  H   UNL     1      -9.073  13.721  68.233  1.00  0.00     0.000 HD 
BRANCH   8  11
HETATM   11  C   UNL     1     -11.211  13.099  67.096  1.00  0.00    -0.294 C  
HETATM   12  H   UNL     1     -11.332  14.644  65.890  1.00  0.00     0.000 HD 
HETATM   13  O   UNL     1     -10.637  14.078  66.206  1.00  0.00    -0.276 OA 
BRANCH  11  14
HETATM   14  C   UNL     1     -11.991  13.857  68.182  1.00  0.00    -0.350 C  
HETATM   15  O   UNL     1     -11.246  14.969  68.681  1.00  0.00    -0.252 OA 
HETATM   16  H   UNL     1     -11.729  15.437  69.352  1.00  0.00     0.000 HD 
ENDBRANCH  11  14
ENDBRANCH   8  11
ENDBRANCH   5   8
ENDBRANCH   2   5
TORSDOF 4
ENDMDL
MODEL      254
REMARK 921   NORMALIZED FREE ENERGY PREDICTED BY IDOCK:   -2.64 KCAL/MOL
REMARK 922        TOTAL FREE ENERGY PREDICTED BY IDOCK:   -3.49 KCAL/MOL
REMARK 923 INTER-LIGAND FREE ENERGY PREDICTED BY IDOCK:   -3.23 KCAL/MOL
REMARK 924 INTRA-LIGAND FREE ENERGY PREDICTED BY IDOCK:   -0.25 KCAL/MOL
REMARK 927      BINDING AFFINITY PREDICTED BY RF-SCORE:    0.00 PKD
ROOT
HETATM    1  C   UNL     1      -7.135   8.939  69.940  1.00  0.00    -0.055 C  
HETATM    2  C   UNL     1      -8.434   9.327  69.273  1.00  0.00    -0.137 C  
HETATM    3  O   UNL     1      -6.303   8.206  69.401  1.00  0.00    -0.034 OA 
HETATM    4  F   UNL     1      -8.621  10.674  69.267  1.00  0.00    -0.147 F  
ENDROOT
BRANCH   2   5
HETATM    5  C   UNL     1      -9.653   8.642  69.900  1.00  0.00    -0.172 C  
HETATM    6  O   UNL     1      -9.337   7.313  70.369  1.00  0.00    -0.158 OA 
HETATM    7  H   UNL     1     -10.093   6.889  70.757  1.00  0.00     0.000 HD 
BRANCH   5   8
HETATM    8  C   UNL     1     -10.336   9.362  71.085  1.00  0.00    -0.307 C  
HETATM    9  O   UNL     1      -9.644   8.914  72.282  1.00  0.00    -0.295 OA 
HETATM   10  H   UNL     1     -10.064   9.357  73.010  1.00  0.00     0.000 HD 
BRANCH   8  11
HETATM   11  C   UNL     1     -11.855   9.151  71.280  1.00  0.00    -0.327 C  
HETATM   12  H   UNL     1     -13.409  10.307  71.608  1.00  0.00     0.000 HD 
HETATM   13  O   UNL     1     -12.475  10.437  71.489  1.00  0.00    -0.376 OA 
BRANCH  11  14
HETATM   14  C   UNL     1     -12.251   8.246  72.457  1.00  0.00    -0.307 C  
HETATM   15  O   UNL     1     -13.406   8.745  73.134  1.00  0.00    -0.918 OA 
HETATM   16  H   UNL     1     -13.651   8.185  73.862  1.00  0.00     0.000 HD 
ENDBRANCH  11  14
ENDBRANCH   8  11
ENDBRANCH   5   8
ENDBRANCH   2   5
TORSDOF 4
ENDMDL
MODEL      255
REMARK 921   NORMALIZED FREE ENERGY PREDICTED BY IDOCK:   -2.64 KCAL/MOL
REMARK 922        TOTAL FREE ENERGY PREDICTED BY IDOCK:   -3.49 KCAL/MOL
REMARK 923 INTER-LIGAND FREE ENERGY PREDICTED BY IDOCK:   -3.27 KCAL/MOL
REMARK 924 INTRA-LIGAND FREE ENERGY PREDICTED BY IDOCK:   -0.22 KCAL/MOL
REMARK 927      BINDING AFFINITY PREDICTED BY RF-SCORE:    0.00 PKD
ROOT
HETATM    1  C   UNL     1      -6.642  17.199  68.726  1.00  0.00    -0.191 C  
HETATM    2  C   UNL     1      -7.502  16.123  68.106  1.00  0.00    -0.132 C  
HETATM    3  O   UNL     1      -6.338  17.203  69.921  1.00  0.00    -0.209 OA 
HETATM    4  F   UNL     1      -6.920  15.576  67.007  1.00  0.00    -0.219 F  
ENDROOT
BRANCH   2   5
HETATM    5  C   UNL     1      -8.909  16.616  67.751  1.00  0.00    -0.206 C  
HETATM    6  O   UNL     1      -9.132  17.969  68.207  1.00  0.00    -0.265 OA 
HETATM    7  H   UNL     1     -10.004  18.274  67.986  1.00  0.00     0.000 HD 
BRANCH   5   8
HETATM    8  C   UNL     1      -9.308  16.597  66.258  1.00  0.00    -0.292 C  
HETATM    9  O   UNL     1      -8.899  17.882  65.715  1.00  0.00    -0.495 OA 
HETATM   10  H   UNL     1      -9.144  17.870  64.797  1.00  0.00     0.000 HD 
BRANCH   8  11
HETATM   11  C   UNL     1     -10.796  16.361  65.911  1.00  0.00    -0.114 C  
HETATM   12  H   UNL     1     -12.024  14.829  65.941  1.00  0.00     0.000 HD 
HETATM   13  O   UNL     1     -11.110  14.974  66.154  1.00  0.00    -0.336 OA 
BRANCH  11  14
HETATM   14  C   UNL     1     -11.195  16.681  64.462  1.00  0.00     0.081 C  
HETATM   15  O   UNL     1     -12.361  15.956  64.069  1.00  0.00    -0.894 OA 
HETATM   16  H   UNL     1     -12.608  16.154  63.173  1.00  0.00     0.000 HD 
ENDBRANCH  11  14
ENDBRANCH   8  11
ENDBRANCH   5   8
ENDBRANCH   2   5
TORSDOF 4
ENDMDL
MODEL      256
REMARK 921   NORMALIZED FREE ENERGY PREDICTED BY IDOCK:   -2.62 KCAL/MOL
REMARK 922        TOTAL FREE ENERGY PREDICTED BY IDOCK:   -3.47 KCAL/MOL
REMARK 923 INTER-LIGAND FREE ENERGY PREDICTED BY IDOCK:   -3.16 KCAL/MOL
REMARK 924 INTRA-LIGAND FREE ENERGY PREDICTED BY IDOCK:   -0.30 KCAL/MOL
REMARK 927      BINDING AFFINITY PREDICTED BY RF-SCORE:    0.00 PKD
ROOT
HETATM    1  C   UNL     1     -10.732  12.369  66.416  1.00  0.00    -0.247 C  
HETATM    2  C   UNL     1     -10.248  13.786  66.610  1.00  0.00    -0.276 C  
HETATM    3  O   UNL     1     -11.058  11.921  65.316  1.00  0.00    -0.301 OA 
HETATM    4  F   UNL     1      -9.063  13.834  67.274  1.00  0.00    -0.193 F  
ENDROOT
BRANCH   2   5
HETATM    5  C   UNL     1     -11.273  14.674  67.324  1.00  0.00    -0.337 C  
HETATM    6  O   UNL     1     -12.623  14.200  67.122  1.00  0.00    -0.533 OA 
HETATM    7  H   UNL     1     -13.258  14.751  67.565  1.00  0.00     0.000 HD 
BRANCH   5   8
HETATM    8  C   UNL     1     -11.108  14.856  68.850  1.00  0.00    -0.257 C  
HETATM    9  O   UNL     1     -12.371  14.449  69.444  1.00  0.00    -0.486 OA 
HETATM   10  H   UNL     1     -12.269  14.561  70.382  1.00  0.00     0.000 HD 
BRANCH   8  11
HETATM   11  C   UNL     1     -10.742  16.263  69.374  1.00  0.00    -0.318 C  
HETATM   12  H   UNL     1     -11.621  17.630  70.477  1.00  0.00     0.000 HD 
HETATM   13  O   UNL     1     -11.846  16.765  70.155  1.00  0.00     0.510 OA 
BRANCH  11  14
HETATM   14  C   UNL     1     -10.421  17.309  68.295  1.00  0.00    -0.385 C  
HETATM   15  O   UNL     1      -9.743  18.438  68.846  1.00  0.00    -0.341 OA 
HETATM   16  H   UNL     1      -9.545  19.085  68.178  1.00  0.00     0.000 HD 
ENDBRANCH  11  14
ENDBRANCH   8  11
ENDBRANCH   5   8
ENDBRANCH   2   5
TORSDOF 4
ENDMDL
MODEL      257
REMARK 921   NORMALIZED FREE ENERGY PREDICTED BY IDOCK:   -2.61 KCAL/MOL
REMARK 922        TOTAL FREE ENERGY PREDICTED BY IDOCK:   -3.46 KCAL/MOL
REMARK 923 INTER-LIGAND FREE ENERGY PREDICTED BY IDOCK:   -3.29 KCAL/MOL
REMARK 924 INTRA-LIGAND FREE ENERGY PREDICTED BY IDOCK:   -0.17 KCAL/MOL
REMARK 927      BINDING AFFINITY PREDICTED BY RF-SCORE:    0.00 PKD
ROOT
HETATM    1  C   UNL     1      -9.379   4.013  72.575  1.00  0.00    -0.120 C  
HETATM    2  C   UNL     1     -10.404   5.116  72.692  1.00  0.00    -0.200 C  
HETATM    3  O   UNL     1      -8.298   4.043  73.167  1.00  0.00    -0.088 OA 
HETATM    4  F   UNL     1     -11.631   4.637  73.031  1.00  0.00    -0.319 F  
ENDROOT
BRANCH   2   5
HETATM    5  C   UNL     1     -10.517   5.962  71.419  1.00  0.00    -0.236 C  
HETATM    6  O   UNL     1     -10.612   5.137  70.237  1.00  0.00    -0.262 OA 
HETATM    7  H   UNL     1     -10.682   5.662  69.447  1.00  0.00     0.000 HD 
BRANCH   5   8
HETATM    8  C   UNL     1     -11.693   6.961  71.338  1.00  0.00    -0.316 C  
HETATM    9  O   UNL     1     -12.302   6.763  70.033  1.00  0.00    -0.605 OA 
HETATM   10  H   UNL     1     -13.025   7.377  69.983  1.00  0.00     0.000 HD 
BRANCH   8  11
HETATM   11  C   UNL     1     -11.377   8.464  71.516  1.00  0.00    -0.276 C  
HETATM   12  H   UNL     1     -11.421  10.059  70.371  1.00  0.00     0.000 HD 
HETATM   13  O   UNL     1     -11.615   9.136  70.262  1.00  0.00    -0.210 OA 
BRANCH  11  14
HETATM   14  C   UNL     1      -9.941   8.791  71.954  1.00  0.00    -0.331 C  
HETATM   15  O   UNL     1      -9.330   9.738  71.078  1.00  0.00    -0.324 OA 
HETATM   16  H   UNL     1      -8.442   9.940  71.350  1.00  0.00     0.000 HD 
ENDBRANCH  11  14
ENDBRANCH   8  11
ENDBRANCH   5   8
ENDBRANCH   2   5
TORSDOF 4
ENDMDL
MODEL      258
REMARK 921   NORMALIZED FREE ENERGY PREDICTED BY IDOCK:   -2.61 KCAL/MOL
REMARK 922        TOTAL FREE ENERGY PREDICTED BY IDOCK:   -3.46 KCAL/MOL
REMARK 923 INTER-LIGAND FREE ENERGY PREDICTED BY IDOCK:   -3.03 KCAL/MOL
REMARK 924 INTRA-LIGAND FREE ENERGY PREDICTED BY IDOCK:   -0.42 KCAL/MOL
REMARK 927      BINDING AFFINITY PREDICTED BY RF-SCORE:    0.00 PKD
ROOT
HETATM    1  C   UNL     1     -10.250   4.535  65.986  1.00  0.00    -0.260 C  
HETATM    2  C   UNL     1      -9.780   4.914  67.371  1.00  0.00    -0.165 C  
HETATM    3  O   UNL     1      -9.491   4.487  65.016  1.00  0.00    -0.159 OA 
HETATM    4  F   UNL     1     -10.148   3.996  68.303  1.00  0.00    -0.149 F  
ENDROOT
BRANCH   2   5
HETATM    5  C   UNL     1     -10.258   6.305  67.803  1.00  0.00    -0.170 C  
HETATM    6  O   UNL     1     -11.499   6.666  67.160  1.00  0.00    -0.779 OA 
HETATM    7  H   UNL     1     -11.796   7.529  67.428  1.00  0.00     0.000 HD 
BRANCH   5   8
HETATM    8  C   UNL     1     -10.476   6.538  69.316  1.00  0.00    -0.219 C  
HETATM    9  O   UNL     1     -11.481   7.583  69.422  1.00  0.00    -0.440 OA 
HETATM   10  H   UNL     1     -11.615   7.726  70.351  1.00  0.00     0.000 HD 
BRANCH   8  11
HETATM   11  C   UNL     1      -9.251   6.937  70.169  1.00  0.00    -0.155 C  
HETATM   12  H   UNL     1      -7.858   5.980  71.170  1.00  0.00     0.000 HD 
HETATM   13  O   UNL     1      -8.611   5.735  70.646  1.00  0.00    -0.128 OA 
BRANCH  11  14
HETATM   14  C   UNL     1      -9.555   7.818  71.391  1.00  0.00    -0.155 C  
HETATM   15  O   UNL     1      -9.716   9.188  71.020  1.00  0.00    -0.253 OA 
HETATM   16  H   UNL     1      -9.904   9.733  71.776  1.00  0.00     0.000 HD 
ENDBRANCH  11  14
ENDBRANCH   8  11
ENDBRANCH   5   8
ENDBRANCH   2   5
TORSDOF 4
ENDMDL
MODEL      259
REMARK 921   NORMALIZED FREE ENERGY PREDICTED BY IDOCK:   -2.60 KCAL/MOL
REMARK 922        TOTAL FREE ENERGY PREDICTED BY IDOCK:   -3.44 KCAL/MOL
REMARK 923 INTER-LIGAND FREE ENERGY PREDICTED BY IDOCK:   -3.01 KCAL/MOL
REMARK 924 INTRA-LIGAND FREE ENERGY PREDICTED BY IDOCK:   -0.43 KCAL/MOL
REMARK 927      BINDING AFFINITY PREDICTED BY RF-SCORE:    0.00 PKD
ROOT
HETATM    1  C   UNL     1     -11.174  10.984  67.068  1.00  0.00    -0.181 C  
HETATM    2  C   UNL     1     -10.165  11.228  68.165  1.00  0.00    -0.180 C  
HETATM    3  O   UNL     1     -12.161  11.704  66.899  1.00  0.00    -0.512 OA 
HETATM    4  F   UNL     1      -8.893  11.275  67.686  1.00  0.00    -0.132 F  
ENDROOT
BRANCH   2   5
HETATM    5  C   UNL     1     -10.250  10.195  69.294  1.00  0.00    -0.223 C  
HETATM    6  O   UNL     1     -10.951  10.718  70.444  1.00  0.00    -0.452 OA 
HETATM    7  H   UNL     1     -11.004  10.078  71.144  1.00  0.00     0.000 HD 
BRANCH   5   8
HETATM    8  C   UNL     1     -10.920   8.842  68.965  1.00  0.00     0.054 C  
HETATM    9  O   UNL     1     -11.474   8.351  70.215  1.00  0.00    -0.430 OA 
HETATM   10  H   UNL     1     -11.886   7.520  70.013  1.00  0.00     0.000 HD 
BRANCH   8  11
HETATM   11  C   UNL     1     -10.040   7.734  68.341  1.00  0.00    -0.192 C  
HETATM   12  H   UNL     1     -10.134   6.589  66.748  1.00  0.00     0.000 HD 
HETATM   13  O   UNL     1     -10.675   7.270  67.131  1.00  0.00    -0.315 OA 
BRANCH  11  14
HETATM   14  C   UNL     1      -9.788   6.509  69.234  1.00  0.00    -0.148 C  
HETATM   15  O   UNL     1     -10.949   5.683  69.328  1.00  0.00    -0.304 OA 
HETATM   16  H   UNL     1     -10.793   4.925  69.880  1.00  0.00     0.000 HD 
ENDBRANCH  11  14
ENDBRANCH   8  11
ENDBRANCH   5   8
ENDBRANCH   2   5
TORSDOF 4
ENDMDL
MODEL      260
REMARK 921   NORMALIZED FREE ENERGY PREDICTED BY IDOCK:   -2.60 KCAL/MOL
REMARK 922        TOTAL FREE ENERGY PREDICTED BY IDOCK:   -3.44 KCAL/MOL
REMARK 923 INTER-LIGAND FREE ENERGY PREDICTED BY IDOCK:   -2.95 KCAL/MOL
REMARK 924 INTRA-LIGAND FREE ENERGY PREDICTED BY IDOCK:   -0.48 KCAL/MOL
REMARK 927      BINDING AFFINITY PREDICTED BY RF-SCORE:    0.00 PKD
ROOT
HETATM    1  C   UNL     1      -9.774   8.984  70.543  1.00  0.00    -0.216 C  
HETATM    2  C   UNL     1     -10.759   9.111  69.405  1.00  0.00    -0.198 C  
HETATM    3  O   UNL     1     -10.101   9.111  71.725  1.00  0.00    -0.329 OA 
HETATM    4  F   UNL     1     -10.713   8.041  68.569  1.00  0.00    -0.220 F  
ENDROOT
BRANCH   2   5
HETATM    5  C   UNL     1     -10.574  10.402  68.599  1.00  0.00    -0.209 C  
HETATM    6  O   UNL     1      -9.977  11.448  69.395  1.00  0.00    -0.426 OA 
HETATM    7  H   UNL     1      -9.863  12.248  68.895  1.00  0.00     0.000 HD 
BRANCH   5   8
HETATM    8  C   UNL     1      -9.729  10.312  67.308  1.00  0.00    -0.166 C  
HETATM    9  O   UNL     1      -8.342  10.426  67.725  1.00  0.00    -0.113 OA 
HETATM   10  H   UNL     1      -7.822  10.370  66.932  1.00  0.00     0.000 HD 
BRANCH   8  11
HETATM   11  C   UNL     1     -10.000  11.349  66.194  1.00  0.00    -0.227 C  
HETATM   12  H   UNL     1     -11.238  12.852  65.938  1.00  0.00     0.000 HD 
HETATM   13  O   UNL     1     -11.072  12.215  66.622  1.00  0.00    -0.274 OA 
BRANCH  11  14
HETATM   14  C   UNL     1     -10.391  10.766  64.827  1.00  0.00    -0.310 C  
HETATM   15  O   UNL     1      -9.927   9.423  64.681  1.00  0.00    -0.267 OA 
HETATM   16  H   UNL     1     -10.169   9.062  63.835  1.00  0.00     0.000 HD 
ENDBRANCH  11  14
ENDBRANCH   8  11
ENDBRANCH   5   8
ENDBRANCH   2   5
TORSDOF 4
ENDMDL
MODEL      261
REMARK 921   NORMALIZED FREE ENERGY PREDICTED BY IDOCK:   -2.59 KCAL/MOL
REMARK 922        TOTAL FREE ENERGY PREDICTED BY IDOCK:   -3.43 KCAL/MOL
REMARK 923 INTER-LIGAND FREE ENERGY PREDICTED BY IDOCK:   -3.77 KCAL/MOL
REMARK 924 INTRA-LIGAND FREE ENERGY PREDICTED BY IDOCK:    0.34 KCAL/MOL
REMARK 927      BINDING AFFINITY PREDICTED BY RF-SCORE:    0.00 PKD
ROOT
HETATM    1  C   UNL     1     -10.264  16.738  66.970  1.00  0.00    -0.292 C  
HETATM    2  C   UNL     1     -10.124  15.866  68.195  1.00  0.00    -0.229 C  
HETATM    3  O   UNL     1     -10.900  17.794  66.973  1.00  0.00    -0.240 OA 
HETATM    4  F   UNL     1      -8.825  15.569  68.464  1.00  0.00    -0.165 F  
ENDROOT
BRANCH   2   5
HETATM    5  C   UNL     1     -10.938  14.570  68.100  1.00  0.00    -0.251 C  
HETATM    6  O   UNL     1     -12.262  14.809  67.575  1.00  0.00    -0.547 OA 
HETATM    7  H   UNL     1     -12.766  14.006  67.516  1.00  0.00     0.000 HD 
BRANCH   5   8
HETATM    8  C   UNL     1     -10.342  13.423  67.253  1.00  0.00    -0.244 C  
HETATM    9  O   UNL     1      -9.037  13.884  66.810  1.00  0.00    -0.249 OA 
HETATM   10  H   UNL     1      -8.671  13.179  66.290  1.00  0.00     0.000 HD 
BRANCH   8  11
HETATM   11  C   UNL     1     -11.144  12.942  66.022  1.00  0.00    -0.281 C  
HETATM   12  H   UNL     1     -12.713  11.800  65.720  1.00  0.00     0.000 HD 
HETATM   13  O   UNL     1     -12.220  12.095  66.476  1.00  0.00    -0.584 OA 
BRANCH  11  14
HETATM   14  C   UNL     1     -10.341  12.155  64.975  1.00  0.00    -0.287 C  
HETATM   15  O   UNL     1     -10.956  12.218  63.688  1.00  0.00    -0.399 OA 
HETATM   16  H   UNL     1     -10.459  11.730  63.041  1.00  0.00     0.000 HD 
ENDBRANCH  11  14
ENDBRANCH   8  11
ENDBRANCH   5   8
ENDBRANCH   2   5
TORSDOF 4
ENDMDL
MODEL      262
REMARK 921   NORMALIZED FREE ENERGY PREDICTED BY IDOCK:   -2.58 KCAL/MOL
REMARK 922        TOTAL FREE ENERGY PREDICTED BY IDOCK:   -3.42 KCAL/MOL
REMARK 923 INTER-LIGAND FREE ENERGY PREDICTED BY IDOCK:   -3.02 KCAL/MOL
REMARK 924 INTRA-LIGAND FREE ENERGY PREDICTED BY IDOCK:   -0.40 KCAL/MOL
REMARK 927      BINDING AFFINITY PREDICTED BY RF-SCORE:    0.00 PKD
ROOT
HETATM    1  C   UNL     1     -10.927  10.907  66.965  1.00  0.00    -0.247 C  
HETATM    2  C   UNL     1      -9.851   9.864  66.776  1.00  0.00    -0.201 C  
HETATM    3  O   UNL     1     -10.712  12.115  66.844  1.00  0.00    -0.224 OA 
HETATM    4  F   UNL     1     -10.224   8.899  65.894  1.00  0.00    -0.355 F  
ENDROOT
BRANCH   2   5
HETATM    5  C   UNL     1      -9.414   9.214  68.094  1.00  0.00    -0.142 C  
HETATM    6  O   UNL     1      -8.019   8.839  68.067  1.00  0.00    -0.105 OA 
HETATM    7  H   UNL     1      -7.748   8.435  68.884  1.00  0.00     0.000 HD 
BRANCH   5   8
HETATM    8  C   UNL     1      -9.610  10.037  69.387  1.00  0.00    -0.222 C  
HETATM    9  O   UNL     1      -8.395  10.817  69.557  1.00  0.00    -0.365 OA 
HETATM   10  H   UNL     1      -8.516  11.323  70.352  1.00  0.00     0.000 HD 
BRANCH   8  11
HETATM   11  C   UNL     1      -9.895   9.267  70.697  1.00  0.00    -0.270 C  
HETATM   12  H   UNL     1      -8.860   8.127  71.916  1.00  0.00     0.000 HD 
HETATM   13  O   UNL     1      -8.685   8.599  71.110  1.00  0.00    -0.160 OA 
BRANCH  11  14
HETATM   14  C   UNL     1     -11.006   8.209  70.614  1.00  0.00    -0.244 C  
HETATM   15  O   UNL     1     -12.300   8.796  70.759  1.00  0.00    -0.489 OA 
HETATM   16  H   UNL     1     -12.986   8.141  70.707  1.00  0.00     0.000 HD 
ENDBRANCH  11  14
ENDBRANCH   8  11
ENDBRANCH   5   8
ENDBRANCH   2   5
TORSDOF 4
ENDMDL
MODEL      263
REMARK 921   NORMALIZED FREE ENERGY PREDICTED BY IDOCK:   -2.58 KCAL/MOL
REMARK 922        TOTAL FREE ENERGY PREDICTED BY IDOCK:   -3.42 KCAL/MOL
REMARK 923 INTER-LIGAND FREE ENERGY PREDICTED BY IDOCK:   -3.22 KCAL/MOL
REMARK 924 INTRA-LIGAND FREE ENERGY PREDICTED BY IDOCK:   -0.20 KCAL/MOL
REMARK 927      BINDING AFFINITY PREDICTED BY RF-SCORE:    0.00 PKD
ROOT
HETATM    1  C   UNL     1     -12.691   8.337  71.641  1.00  0.00    -0.327 C  
HETATM    2  C   UNL     1     -11.238   8.389  71.234  1.00  0.00    -0.259 C  
HETATM    3  O   UNL     1     -13.373   7.314  71.546  1.00  0.00    -0.379 OA 
HETATM    4  F   UNL     1     -10.449   8.887  72.224  1.00  0.00    -0.391 F  
ENDROOT
BRANCH   2   5
HETATM    5  C   UNL     1     -11.007   9.186  69.945  1.00  0.00    -0.204 C  
HETATM    6  O   UNL     1     -10.403  10.470  70.212  1.00  0.00    -0.434 OA 
HETATM    7  H   UNL     1     -10.260  10.964  69.413  1.00  0.00     0.000 HD 
BRANCH   5   8
HETATM    8  C   UNL     1     -10.138   8.524  68.852  1.00  0.00    -0.203 C  
HETATM    9  O   UNL     1     -11.045   8.177  67.771  1.00  0.00    -0.484 OA 
HETATM   10  H   UNL     1     -10.510   7.771  67.099  1.00  0.00     0.000 HD 
BRANCH   8  11
HETATM   11  C   UNL     1      -9.322   7.269  69.239  1.00  0.00    -0.154 C  
HETATM   12  H   UNL     1      -7.424   6.856  69.530  1.00  0.00     0.000 HD 
HETATM   13  O   UNL     1      -7.926   7.627  69.292  1.00  0.00    -0.121 OA 
BRANCH  11  14
HETATM   14  C   UNL     1      -9.461   6.071  68.288  1.00  0.00    -0.115 C  
HETATM   15  O   UNL     1      -9.735   4.865  69.003  1.00  0.00    -0.148 OA 
HETATM   16  H   UNL     1      -9.821   4.124  68.414  1.00  0.00     0.000 HD 
ENDBRANCH  11  14
ENDBRANCH   8  11
ENDBRANCH   5   8
ENDBRANCH   2   5
TORSDOF 4
ENDMDL
MODEL      264
REMARK 921   NORMALIZED FREE ENERGY PREDICTED BY IDOCK:   -2.58 KCAL/MOL
REMARK 922        TOTAL FREE ENERGY PREDICTED BY IDOCK:   -3.42 KCAL/MOL
REMARK 923 INTER-LIGAND FREE ENERGY PREDICTED BY IDOCK:   -3.19 KCAL/MOL
REMARK 924 INTRA-LIGAND FREE ENERGY PREDICTED BY IDOCK:   -0.23 KCAL/MOL
REMARK 927      BINDING AFFINITY PREDICTED BY RF-SCORE:    0.00 PKD
ROOT
HETATM    1  C   UNL     1      -8.535   8.251  65.576  1.00  0.00    -0.161 C  
HETATM    2  C   UNL     1      -7.838   9.518  66.014  1.00  0.00    -0.100 C  
HETATM    3  O   UNL     1      -8.023   7.443  64.800  1.00  0.00    -0.124 OA 
HETATM    4  F   UNL     1      -7.812   9.644  67.368  1.00  0.00    -0.094 F  
ENDROOT
BRANCH   2   5
HETATM    5  C   UNL     1      -8.448  10.779  65.393  1.00  0.00    -0.132 C  
HETATM    6  O   UNL     1      -8.341  10.770  63.952  1.00  0.00    -0.345 OA 
HETATM    7  H   UNL     1      -8.718  11.552  63.567  1.00  0.00     0.000 HD 
BRANCH   5   8
HETATM    8  C   UNL     1      -9.931  11.076  65.709  1.00  0.00    -0.244 C  
HETATM    9  O   UNL     1     -10.658  10.865  64.468  1.00  0.00    -0.343 OA 
HETATM   10  H   UNL     1     -11.570  11.047  64.663  1.00  0.00     0.000 HD 
BRANCH   8  11
HETATM   11  C   UNL     1     -10.286  12.476  66.262  1.00  0.00    -0.248 C  
HETATM   12  H   UNL     1     -11.900  13.348  66.960  1.00  0.00     0.000 HD 
HETATM   13  O   UNL     1     -11.683  12.488  66.621  1.00  0.00    -0.370 OA 
BRANCH  11  14
HETATM   14  C   UNL     1     -10.042  13.648  65.299  1.00  0.00    -0.275 C  
HETATM   15  O   UNL     1     -10.072  13.221  63.937  1.00  0.00    -0.754 OA 
HETATM   16  H   UNL     1      -9.921  13.946  63.341  1.00  0.00     0.000 HD 
ENDBRANCH  11  14
ENDBRANCH   8  11
ENDBRANCH   5   8
ENDBRANCH   2   5
TORSDOF 4
ENDMDL
MODEL      265
REMARK 921   NORMALIZED FREE ENERGY PREDICTED BY IDOCK:   -2.57 KCAL/MOL
REMARK 922        TOTAL FREE ENERGY PREDICTED BY IDOCK:   -3.41 KCAL/MOL
REMARK 923 INTER-LIGAND FREE ENERGY PREDICTED BY IDOCK:   -3.07 KCAL/MOL
REMARK 924 INTRA-LIGAND FREE ENERGY PREDICTED BY IDOCK:   -0.34 KCAL/MOL
REMARK 927      BINDING AFFINITY PREDICTED BY RF-SCORE:    0.00 PKD
ROOT
HETATM    1  C   UNL     1      -9.842  10.706  67.273  1.00  0.00    -0.176 C  
HETATM    2  C   UNL     1     -10.624  11.749  68.036  1.00  0.00    -0.206 C  
HETATM    3  O   UNL     1      -8.896  10.090  67.768  1.00  0.00    -0.125 OA 
HETATM    4  F   UNL     1     -11.962  11.512  67.996  1.00  0.00    -0.364 F  
ENDROOT
BRANCH   2   5
HETATM    5  C   UNL     1     -10.341  13.176  67.554  1.00  0.00    -0.225 C  
HETATM    6  O   UNL     1     -11.372  13.652  66.661  1.00  0.00    -0.309 OA 
HETATM    7  H   UNL     1     -11.196  14.537  66.362  1.00  0.00     0.000 HD 
BRANCH   5   8
HETATM    8  C   UNL     1     -10.177  14.267  68.637  1.00  0.00    -0.246 C  
HETATM    9  O   UNL     1     -11.494  14.456  69.222  1.00  0.00    -0.253 OA 
HETATM   10  H   UNL     1     -11.393  15.126  69.888  1.00  0.00     0.000 HD 
BRANCH   8  11
HETATM   11  C   UNL     1      -9.625  15.643  68.198  1.00  0.00    -0.196 C  
HETATM   12  H   UNL     1      -8.247  16.881  68.847  1.00  0.00     0.000 HD 
HETATM   13  O   UNL     1      -8.586  16.036  69.117  1.00  0.00    -0.236 OA 
BRANCH  11  14
HETATM   14  C   UNL     1     -10.656  16.782  68.144  1.00  0.00    -0.350 C  
HETATM   15  O   UNL     1     -10.719  17.488  69.384  1.00  0.00    -0.383 OA 
HETATM   16  H   UNL     1     -11.356  18.192  69.351  1.00  0.00     0.000 HD 
ENDBRANCH  11  14
ENDBRANCH   8  11
ENDBRANCH   5   8
ENDBRANCH   2   5
TORSDOF 4
ENDMDL
MODEL      266
REMARK 921   NORMALIZED FREE ENERGY PREDICTED BY IDOCK:   -2.56 KCAL/MOL
REMARK 922        TOTAL FREE ENERGY PREDICTED BY IDOCK:   -3.39 KCAL/MOL
REMARK 923 INTER-LIGAND FREE ENERGY PREDICTED BY IDOCK:   -2.98 KCAL/MOL
REMARK 924 INTRA-LIGAND FREE ENERGY PREDICTED BY IDOCK:   -0.41 KCAL/MOL
REMARK 927      BINDING AFFINITY PREDICTED BY RF-SCORE:    0.00 PKD
ROOT
HETATM    1  C   UNL     1      -7.849   8.068  68.505  1.00  0.00    -0.115 C  
HETATM    2  C   UNL     1      -7.607   8.307  69.977  1.00  0.00    -0.072 C  
HETATM    3  O   UNL     1      -7.726   8.954  67.658  1.00  0.00    -0.099 OA 
HETATM    4  F   UNL     1      -6.738   7.404  70.504  1.00  0.00    -0.044 F  
ENDROOT
BRANCH   2   5
HETATM    5  C   UNL     1      -8.900   8.315  70.800  1.00  0.00    -0.148 C  
HETATM    6  O   UNL     1      -8.739   9.038  72.040  1.00  0.00    -0.367 OA 
HETATM    7  H   UNL     1      -9.540   9.043  72.551  1.00  0.00     0.000 HD 
BRANCH   5   8
HETATM    8  C   UNL     1     -10.162   8.899  70.126  1.00  0.00    -0.196 C  
HETATM    9  O   UNL     1      -9.971  10.339  70.090  1.00  0.00    -0.418 OA 
HETATM   10  H   UNL     1     -10.747  10.698  69.676  1.00  0.00     0.000 HD 
BRANCH   8  11
HETATM   11  C   UNL     1     -11.533   8.595  70.774  1.00  0.00    -0.259 C  
HETATM   12  H   UNL     1     -12.360   8.897  72.530  1.00  0.00     0.000 HD 
HETATM   13  O   UNL     1     -11.518   9.084  72.132  1.00  0.00    -0.355 OA 
BRANCH  11  14
HETATM   14  C   UNL     1     -11.930   7.112  70.817  1.00  0.00    -0.310 C  
HETATM   15  O   UNL     1     -11.958   6.540  69.509  1.00  0.00    -0.601 OA 
HETATM   16  H   UNL     1     -12.204   5.622  69.535  1.00  0.00     0.000 HD 
ENDBRANCH  11  14
ENDBRANCH   8  11
ENDBRANCH   5   8
ENDBRANCH   2   5
TORSDOF 4
ENDMDL
MODEL      267
REMARK 921   NORMALIZED FREE ENERGY PREDICTED BY IDOCK:   -2.55 KCAL/MOL
REMARK 922        TOTAL FREE ENERGY PREDICTED BY IDOCK:   -3.39 KCAL/MOL
REMARK 923 INTER-LIGAND FREE ENERGY PREDICTED BY IDOCK:   -2.98 KCAL/MOL
REMARK 924 INTRA-LIGAND FREE ENERGY PREDICTED BY IDOCK:   -0.41 KCAL/MOL
REMARK 927      BINDING AFFINITY PREDICTED BY RF-SCORE:    0.00 PKD
ROOT
HETATM    1  C   UNL     1     -10.905   6.795  67.535  1.00  0.00    -0.318 C  
HETATM    2  C   UNL     1     -10.434   6.620  68.960  1.00  0.00    -0.214 C  
HETATM    3  O   UNL     1     -10.273   7.445  66.700  1.00  0.00    -0.240 OA 
HETATM    4  F   UNL     1     -10.404   5.312  69.329  1.00  0.00    -0.261 F  
ENDROOT
BRANCH   2   5
HETATM    5  C   UNL     1     -11.268   7.419  69.967  1.00  0.00    -0.180 C  
HETATM    6  O   UNL     1     -12.554   6.803  70.202  1.00  0.00    -0.511 OA 
HETATM    7  H   UNL     1     -13.071   7.299  70.826  1.00  0.00     0.000 HD 
BRANCH   5   8
HETATM    8  C   UNL     1     -10.649   7.661  71.362  1.00  0.00    -0.213 C  
HETATM    9  O   UNL     1     -11.039   9.008  71.747  1.00  0.00    -0.334 OA 
HETATM   10  H   UNL     1     -10.658   9.157  72.605  1.00  0.00     0.000 HD 
BRANCH   8  11
HETATM   11  C   UNL     1      -9.116   7.527  71.505  1.00  0.00    -0.135 C  
HETATM   12  H   UNL     1      -7.891   6.553  72.692  1.00  0.00     0.000 HD 
HETATM   13  O   UNL     1      -8.833   6.636  72.604  1.00  0.00    -0.125 OA 
BRANCH  11  14
HETATM   14  C   UNL     1      -8.358   8.838  71.762  1.00  0.00    -0.094 C  
HETATM   15  O   UNL     1      -8.570   9.779  70.708  1.00  0.00    -0.356 OA 
HETATM   16  H   UNL     1      -8.101  10.590  70.867  1.00  0.00     0.000 HD 
ENDBRANCH  11  14
ENDBRANCH   8  11
ENDBRANCH   5   8
ENDBRANCH   2   5
TORSDOF 4
ENDMDL
MODEL      268
REMARK 921   NORMALIZED FREE ENERGY PREDICTED BY IDOCK:   -2.55 KCAL/MOL
REMARK 922        TOTAL FREE ENERGY PREDICTED BY IDOCK:   -3.38 KCAL/MOL
REMARK 923 INTER-LIGAND FREE ENERGY PREDICTED BY IDOCK:   -3.15 KCAL/MOL
REMARK 924 INTRA-LIGAND FREE ENERGY PREDICTED BY IDOCK:   -0.24 KCAL/MOL
REMARK 927      BINDING AFFINITY PREDICTED BY RF-SCORE:    0.00 PKD
ROOT
HETATM    1  C   UNL     1     -12.392  14.280  70.065  1.00  0.00    -0.346 C  
HETATM    2  C   UNL     1     -11.246  15.243  70.260  1.00  0.00    -0.297 C  
HETATM    3  O   UNL     1     -12.332  13.096  70.402  1.00  0.00    -0.328 OA 
HETATM    4  F   UNL     1     -11.633  16.372  70.911  1.00  0.00    -0.405 F  
ENDROOT
BRANCH   2   5
HETATM    5  C   UNL     1     -10.554  15.622  68.945  1.00  0.00    -0.228 C  
HETATM    6  O   UNL     1     -11.510  15.864  67.890  1.00  0.00    -0.299 OA 
HETATM    7  H   UNL     1     -11.082  16.098  67.075  1.00  0.00     0.000 HD 
BRANCH   5   8
HETATM    8  C   UNL     1      -9.621  16.853  68.967  1.00  0.00    -0.216 C  
HETATM    9  O   UNL     1     -10.398  17.958  68.429  1.00  0.00    -0.366 OA 
HETATM   10  H   UNL     1      -9.825  18.715  68.443  1.00  0.00     0.000 HD 
BRANCH   8  11
HETATM   11  C   UNL     1      -8.286  16.761  68.194  1.00  0.00    -0.199 C  
HETATM   12  H   UNL     1      -7.519  17.612  66.598  1.00  0.00     0.000 HD 
HETATM   13  O   UNL     1      -8.340  17.668  67.073  1.00  0.00    -0.209 OA 
BRANCH  11  14
HETATM   14  C   UNL     1      -7.931  15.369  67.649  1.00  0.00    -0.155 C  
HETATM   15  O   UNL     1      -7.129  14.635  68.575  1.00  0.00    -0.101 OA 
HETATM   16  H   UNL     1      -6.910  13.773  68.238  1.00  0.00     0.000 HD 
ENDBRANCH  11  14
ENDBRANCH   8  11
ENDBRANCH   5   8
ENDBRANCH   2   5
TORSDOF 4
ENDMDL
MODEL      269
REMARK 921   NORMALIZED FREE ENERGY PREDICTED BY IDOCK:   -2.55 KCAL/MOL
REMARK 922        TOTAL FREE ENERGY PREDICTED BY IDOCK:   -3.38 KCAL/MOL
REMARK 923 INTER-LIGAND FREE ENERGY PREDICTED BY IDOCK:   -3.01 KCAL/MOL
REMARK 924 INTRA-LIGAND FREE ENERGY PREDICTED BY IDOCK:   -0.37 KCAL/MOL
REMARK 927      BINDING AFFINITY PREDICTED BY RF-SCORE:    0.00 PKD
ROOT
HETATM    1  C   UNL     1     -10.777   5.252  73.506  1.00  0.00    -0.289 C  
HETATM    2  C   UNL     1     -10.699   5.497  72.018  1.00  0.00    -0.234 C  
HETATM    3  O   UNL     1     -11.258   4.225  73.988  1.00  0.00    -0.177 OA 
HETATM    4  F   UNL     1      -9.443   5.832  71.621  1.00  0.00    -0.155 F  
ENDROOT
BRANCH   2   5
HETATM    5  C   UNL     1     -11.690   6.563  71.536  1.00  0.00    -0.324 C  
HETATM    6  O   UNL     1     -12.886   6.585  72.346  1.00  0.00    -0.536 OA 
HETATM    7  H   UNL     1     -13.500   7.245  72.048  1.00  0.00     0.000 HD 
BRANCH   5   8
HETATM    8  C   UNL     1     -11.185   8.023  71.480  1.00  0.00    -0.255 C  
HETATM    9  O   UNL     1     -12.213   8.830  72.117  1.00  0.00    -0.348 OA 
HETATM   10  H   UNL     1     -11.903   9.727  72.083  1.00  0.00     0.000 HD 
BRANCH   8  11
HETATM   11  C   UNL     1     -10.869   8.625  70.092  1.00  0.00    -0.233 C  
HETATM   12  H   UNL     1     -10.785   7.951  68.249  1.00  0.00     0.000 HD 
HETATM   13  O   UNL     1     -10.980   7.581  69.102  1.00  0.00    -0.138 OA 
BRANCH  11  14
HETATM   14  C   UNL     1      -9.476   9.257  69.948  1.00  0.00    -0.197 C  
HETATM   15  O   UNL     1      -8.478   8.270  69.685  1.00  0.00    -0.122 OA 
HETATM   16  H   UNL     1      -7.616   8.661  69.596  1.00  0.00     0.000 HD 
ENDBRANCH  11  14
ENDBRANCH   8  11
ENDBRANCH   5   8
ENDBRANCH   2   5
TORSDOF 4
ENDMDL
MODEL      270
REMARK 921   NORMALIZED FREE ENERGY PREDICTED BY IDOCK:   -2.54 KCAL/MOL
REMARK 922        TOTAL FREE ENERGY PREDICTED BY IDOCK:   -3.37 KCAL/MOL
REMARK 923 INTER-LIGAND FREE ENERGY PREDICTED BY IDOCK:   -3.16 KCAL/MOL
REMARK 924 INTRA-LIGAND FREE ENERGY PREDICTED BY IDOCK:   -0.22 KCAL/MOL
REMARK 927      BINDING AFFINITY PREDICTED BY RF-SCORE:    0.00 PKD
ROOT
HETATM    1  C   UNL     1      -8.429   8.225  71.688  1.00  0.00    -0.149 C  
HETATM    2  C   UNL     1      -9.901   8.020  71.419  1.00  0.00    -0.171 C  
HETATM    3  O   UNL     1      -7.550   7.601  71.091  1.00  0.00    -0.077 OA 
HETATM    4  F   UNL     1     -10.540   9.192  71.162  1.00  0.00    -0.273 F  
ENDROOT
BRANCH   2   5
HETATM    5  C   UNL     1     -10.618   7.282  72.555  1.00  0.00    -0.247 C  
HETATM    6  O   UNL     1     -11.599   8.123  73.201  1.00  0.00    -0.465 OA 
HETATM    7  H   UNL     1     -12.044   7.666  73.906  1.00  0.00     0.000 HD 
BRANCH   5   8
HETATM    8  C   UNL     1     -11.351   5.971  72.194  1.00  0.00    -0.299 C  
HETATM    9  O   UNL     1     -12.771   6.281  72.222  1.00  0.00    -0.537 OA 
HETATM   10  H   UNL     1     -13.222   5.475  72.000  1.00  0.00     0.000 HD 
BRANCH   8  11
HETATM   11  C   UNL     1     -11.094   4.732  73.082  1.00  0.00    -0.310 C  
HETATM   12  H   UNL     1     -10.558   4.419  74.945  1.00  0.00     0.000 HD 
HETATM   13  O   UNL     1     -10.716   5.181  74.399  1.00  0.00    -0.320 OA 
BRANCH  11  14
HETATM   14  C   UNL     1     -10.000   3.776  72.583  1.00  0.00    -0.158 C  
HETATM   15  O   UNL     1     -10.508   2.456  72.387  1.00  0.00    -0.148 OA 
HETATM   16  H   UNL     1      -9.830   1.865  72.078  1.00  0.00     0.000 HD 
ENDBRANCH  11  14
ENDBRANCH   8  11
ENDBRANCH   5   8
ENDBRANCH   2   5
TORSDOF 4
ENDMDL
MODEL      271
REMARK 921   NORMALIZED FREE ENERGY PREDICTED BY IDOCK:   -2.53 KCAL/MOL
REMARK 922        TOTAL FREE ENERGY PREDICTED BY IDOCK:   -3.36 KCAL/MOL
REMARK 923 INTER-LIGAND FREE ENERGY PREDICTED BY IDOCK:   -3.29 KCAL/MOL
REMARK 924 INTRA-LIGAND FREE ENERGY PREDICTED BY IDOCK:   -0.06 KCAL/MOL
REMARK 927      BINDING AFFINITY PREDICTED BY RF-SCORE:    0.00 PKD
ROOT
HETATM    1  C   UNL     1      -8.708  10.872  68.264  1.00  0.00    -0.140 C  
HETATM    2  C   UNL     1      -9.524  11.933  67.564  1.00  0.00    -0.176 C  
HETATM    3  O   UNL     1      -9.083  10.318  69.299  1.00  0.00    -0.182 OA 
HETATM    4  F   UNL     1      -9.705  11.650  66.247  1.00  0.00    -0.206 F  
ENDROOT
BRANCH   2   5
HETATM    5  C   UNL     1      -8.928  13.337  67.711  1.00  0.00    -0.196 C  
HETATM    6  O   UNL     1      -8.545  13.890  66.433  1.00  0.00    -0.424 OA 
HETATM    7  H   UNL     1      -8.175  14.761  66.523  1.00  0.00     0.000 HD 
BRANCH   5   8
HETATM    8  C   UNL     1      -9.807  14.410  68.394  1.00  0.00    -0.234 C  
HETATM    9  O   UNL     1     -10.487  13.737  69.488  1.00  0.00    -0.434 OA 
HETATM   10  H   UNL     1     -11.027  14.396  69.908  1.00  0.00     0.000 HD 
BRANCH   8  11
HETATM   11  C   UNL     1     -10.859  15.140  67.528  1.00  0.00    -0.301 C  
HETATM   12  H   UNL     1     -11.892  14.720  65.911  1.00  0.00     0.000 HD 
HETATM   13  O   UNL     1     -11.245  14.271  66.443  1.00  0.00    -0.322 OA 
BRANCH  11  14
HETATM   14  C   UNL     1     -10.402  16.473  66.916  1.00  0.00    -0.300 C  
HETATM   15  O   UNL     1     -10.780  17.581  67.736  1.00  0.00    -0.380 OA 
HETATM   16  H   UNL     1     -10.497  18.406  67.357  1.00  0.00     0.000 HD 
ENDBRANCH  11  14
ENDBRANCH   8  11
ENDBRANCH   5   8
ENDBRANCH   2   5
TORSDOF 4
ENDMDL
MODEL      272
REMARK 921   NORMALIZED FREE ENERGY PREDICTED BY IDOCK:   -2.52 KCAL/MOL
REMARK 922        TOTAL FREE ENERGY PREDICTED BY IDOCK:   -3.34 KCAL/MOL
REMARK 923 INTER-LIGAND FREE ENERGY PREDICTED BY IDOCK:   -3.01 KCAL/MOL
REMARK 924 INTRA-LIGAND FREE ENERGY PREDICTED BY IDOCK:   -0.33 KCAL/MOL
REMARK 927      BINDING AFFINITY PREDICTED BY RF-SCORE:    0.00 PKD
ROOT
HETATM    1  C   UNL     1     -10.806   6.340  66.894  1.00  0.00    -0.354 C  
HETATM    2  C   UNL     1      -9.856   7.258  67.627  1.00  0.00    -0.151 C  
HETATM    3  O   UNL     1     -10.553   5.152  66.682  1.00  0.00    -0.279 OA 
HETATM    4  F   UNL     1     -10.465   7.904  68.657  1.00  0.00    -0.204 F  
ENDROOT
BRANCH   2   5
HETATM    5  C   UNL     1      -9.185   8.281  66.705  1.00  0.00    -0.179 C  
HETATM    6  O   UNL     1      -8.580   7.648  65.556  1.00  0.00    -0.195 OA 
HETATM    7  H   UNL     1      -8.164   8.282  64.984  1.00  0.00     0.000 HD 
BRANCH   5   8
HETATM    8  C   UNL     1     -10.071   9.419  66.148  1.00  0.00    -0.254 C  
HETATM    9  O   UNL     1      -9.776   9.501  64.727  1.00  0.00    -0.441 OA 
HETATM   10  H   UNL     1     -10.321  10.200  64.385  1.00  0.00     0.000 HD 
BRANCH   8  11
HETATM   11  C   UNL     1      -9.916  10.825  66.771  1.00  0.00    -0.206 C  
HETATM   12  H   UNL     1      -9.545  12.632  66.098  1.00  0.00     0.000 HD 
HETATM   13  O   UNL     1      -9.640  11.768  65.715  1.00  0.00    -0.233 OA 
BRANCH  11  14
HETATM   14  C   UNL     1      -8.803  10.964  67.822  1.00  0.00    -0.135 C  
HETATM   15  O   UNL     1      -9.341  11.138  69.134  1.00  0.00    -0.383 OA 
HETATM   16  H   UNL     1      -8.653  11.223  69.783  1.00  0.00     0.000 HD 
ENDBRANCH  11  14
ENDBRANCH   8  11
ENDBRANCH   5   8
ENDBRANCH   2   5
TORSDOF 4
ENDMDL
MODEL      273
REMARK 921   NORMALIZED FREE ENERGY PREDICTED BY IDOCK:   -2.51 KCAL/MOL
REMARK 922        TOTAL FREE ENERGY PREDICTED BY IDOCK:   -3.33 KCAL/MOL
REMARK 923 INTER-LIGAND FREE ENERGY PREDICTED BY IDOCK:   -3.00 KCAL/MOL
REMARK 924 INTRA-LIGAND FREE ENERGY PREDICTED BY IDOCK:   -0.34 KCAL/MOL
REMARK 927      BINDING AFFINITY PREDICTED BY RF-SCORE:    0.00 PKD
ROOT
HETATM    1  C   UNL     1     -10.906   5.850  67.002  1.00  0.00    -0.295 C  
HETATM    2  C   UNL     1     -10.584   6.529  68.312  1.00  0.00    -0.249 C  
HETATM    3  O   UNL     1     -10.151   5.033  66.472  1.00  0.00    -0.195 OA 
HETATM    4  F   UNL     1     -11.595   6.405  69.212  1.00  0.00    -0.435 F  
ENDROOT
BRANCH   2   5
HETATM    5  C   UNL     1     -10.225   8.010  68.143  1.00  0.00    -0.207 C  
HETATM    6  O   UNL     1     -10.984   8.626  67.080  1.00  0.00    -0.387 OA 
HETATM    7  H   UNL     1     -10.762   9.544  66.976  1.00  0.00     0.000 HD 
BRANCH   5   8
HETATM    8  C   UNL     1     -10.400   8.924  69.378  1.00  0.00    -0.213 C  
HETATM    9  O   UNL     1     -11.616   9.686  69.147  1.00  0.00    -0.453 OA 
HETATM   10  H   UNL     1     -11.723  10.247  69.906  1.00  0.00     0.000 HD 
BRANCH   8  11
HETATM   11  C   UNL     1      -9.254   9.905  69.718  1.00  0.00    -0.227 C  
HETATM   12  H   UNL     1      -8.116  11.147  68.709  1.00  0.00     0.000 HD 
HETATM   13  O   UNL     1      -8.819  10.544  68.500  1.00  0.00    -0.130 OA 
BRANCH  11  14
HETATM   14  C   UNL     1      -8.019   9.275  70.381  1.00  0.00    -0.156 C  
HETATM   15  O   UNL     1      -6.974   9.052  69.433  1.00  0.00    -0.051 OA 
HETATM   16  H   UNL     1      -6.210   8.663  69.844  1.00  0.00     0.000 HD 
ENDBRANCH  11  14
ENDBRANCH   8  11
ENDBRANCH   5   8
ENDBRANCH   2   5
TORSDOF 4
ENDMDL
MODEL      274
REMARK 921   NORMALIZED FREE ENERGY PREDICTED BY IDOCK:   -2.50 KCAL/MOL
REMARK 922        TOTAL FREE ENERGY PREDICTED BY IDOCK:   -3.32 KCAL/MOL
REMARK 923 INTER-LIGAND FREE ENERGY PREDICTED BY IDOCK:   -2.60 KCAL/MOL
REMARK 924 INTRA-LIGAND FREE ENERGY PREDICTED BY IDOCK:   -0.72 KCAL/MOL
REMARK 927      BINDING AFFINITY PREDICTED BY RF-SCORE:    0.00 PKD
ROOT
HETATM    1  C   UNL     1      -7.971  14.778  67.410  1.00  0.00    -0.197 C  
HETATM    2  C   UNL     1      -7.406  13.452  67.861  1.00  0.00    -0.140 C  
HETATM    3  O   UNL     1      -7.955  15.785  68.120  1.00  0.00    -0.132 OA 
HETATM    4  F   UNL     1      -6.524  12.941  66.961  1.00  0.00    -0.154 F  
ENDROOT
BRANCH   2   5
HETATM    5  C   UNL     1      -8.492  12.413  68.163  1.00  0.00    -0.180 C  
HETATM    6  O   UNL     1      -9.751  13.038  68.497  1.00  0.00    -0.313 OA 
HETATM    7  H   UNL     1     -10.424  12.394  68.684  1.00  0.00     0.000 HD 
BRANCH   5   8
HETATM    8  C   UNL     1      -8.807  11.380  67.057  1.00  0.00    -0.168 C  
HETATM    9  O   UNL     1      -9.744  12.029  66.155  1.00  0.00    -0.229 OA 
HETATM   10  H   UNL     1      -9.938  11.394  65.475  1.00  0.00     0.000 HD 
BRANCH   8  11
HETATM   11  C   UNL     1      -9.395  10.017  67.489  1.00  0.00    -0.144 C  
HETATM   12  H   UNL     1      -9.017   8.131  67.094  1.00  0.00     0.000 HD 
HETATM   13  O   UNL     1      -8.656   8.968  66.829  1.00  0.00    -0.120 OA 
BRANCH  11  14
HETATM   14  C   UNL     1     -10.884   9.808  67.172  1.00  0.00    -0.136 C  
HETATM   15  O   UNL     1     -11.711  10.671  67.954  1.00  0.00    -0.690 OA 
HETATM   16  H   UNL     1     -12.631  10.542  67.758  1.00  0.00     0.000 HD 
ENDBRANCH  11  14
ENDBRANCH   8  11
ENDBRANCH   5   8
ENDBRANCH   2   5
TORSDOF 4
ENDMDL
MODEL      275
REMARK 921   NORMALIZED FREE ENERGY PREDICTED BY IDOCK:   -2.49 KCAL/MOL
REMARK 922        TOTAL FREE ENERGY PREDICTED BY IDOCK:   -3.31 KCAL/MOL
REMARK 923 INTER-LIGAND FREE ENERGY PREDICTED BY IDOCK:   -3.07 KCAL/MOL
REMARK 924 INTRA-LIGAND FREE ENERGY PREDICTED BY IDOCK:   -0.23 KCAL/MOL
REMARK 927      BINDING AFFINITY PREDICTED BY RF-SCORE:    0.00 PKD
ROOT
HETATM    1  C   UNL     1     -11.107  12.313  66.599  1.00  0.00    -0.297 C  
HETATM    2  C   UNL     1     -10.393  13.583  66.200  1.00  0.00    -0.296 C  
HETATM    3  O   UNL     1     -12.283  12.091  66.307  1.00  0.00    -0.548 OA 
HETATM    4  F   UNL     1      -9.219  13.330  65.563  1.00  0.00     0.006 F  
ENDROOT
BRANCH   2   5
HETATM    5  C   UNL     1     -10.142  14.523  67.385  1.00  0.00    -0.235 C  
HETATM    6  O   UNL     1     -10.974  14.189  68.517  1.00  0.00    -0.238 OA 
HETATM    7  H   UNL     1     -10.819  14.772  69.252  1.00  0.00     0.000 HD 
BRANCH   5   8
HETATM    8  C   UNL     1      -8.697  14.606  67.926  1.00  0.00    -0.169 C  
HETATM    9  O   UNL     1      -8.812  14.677  69.374  1.00  0.00    -0.394 OA 
HETATM   10  H   UNL     1      -7.924  14.728  69.707  1.00  0.00     0.000 HD 
BRANCH   8  11
HETATM   11  C   UNL     1      -7.809  15.774  67.439  1.00  0.00    -0.175 C  
HETATM   12  H   UNL     1      -5.920  16.002  66.955  1.00  0.00     0.000 HD 
HETATM   13  O   UNL     1      -6.465  15.284  67.255  1.00  0.00    -0.303 OA 
BRANCH  11  14
HETATM   14  C   UNL     1      -7.738  16.987  68.380  1.00  0.00    -0.230 C  
HETATM   15  O   UNL     1      -6.883  18.005  67.857  1.00  0.00    -0.193 OA 
HETATM   16  H   UNL     1      -6.839  18.755  68.439  1.00  0.00     0.000 HD 
ENDBRANCH  11  14
ENDBRANCH   8  11
ENDBRANCH   5   8
ENDBRANCH   2   5
TORSDOF 4
ENDMDL
MODEL      276
REMARK 921   NORMALIZED FREE ENERGY PREDICTED BY IDOCK:   -2.48 KCAL/MOL
REMARK 922        TOTAL FREE ENERGY PREDICTED BY IDOCK:   -3.30 KCAL/MOL
REMARK 923 INTER-LIGAND FREE ENERGY PREDICTED BY IDOCK:   -3.12 KCAL/MOL
REMARK 924 INTRA-LIGAND FREE ENERGY PREDICTED BY IDOCK:   -0.18 KCAL/MOL
REMARK 927      BINDING AFFINITY PREDICTED BY RF-SCORE:    0.00 PKD
ROOT
HETATM    1  C   UNL     1      -7.095  11.025  67.895  1.00  0.00    -0.081 C  
HETATM    2  C   UNL     1      -8.562  10.881  67.570  1.00  0.00    -0.127 C  
HETATM    3  O   UNL     1      -6.680  11.191  69.043  1.00  0.00    -0.069 OA 
HETATM    4  F   UNL     1      -8.814   9.769  66.829  1.00  0.00    -0.133 F  
ENDROOT
BRANCH   2   5
HETATM    5  C   UNL     1      -9.140  12.111  66.861  1.00  0.00    -0.203 C  
HETATM    6  O   UNL     1      -9.962  11.739  65.733  1.00  0.00    -0.224 OA 
HETATM    7  H   UNL     1     -10.320  12.502  65.293  1.00  0.00     0.000 HD 
BRANCH   5   8
HETATM    8  C   UNL     1      -9.993  13.080  67.710  1.00  0.00    -0.227 C  
HETATM    9  O   UNL     1      -9.262  13.278  68.951  1.00  0.00    -0.388 OA 
HETATM   10  H   UNL     1      -9.787  13.874  69.473  1.00  0.00     0.000 HD 
BRANCH   8  11
HETATM   11  C   UNL     1     -11.442  12.661  68.047  1.00  0.00    -0.318 C  
HETATM   12  H   UNL     1     -13.131  13.595  68.414  1.00  0.00     0.000 HD 
HETATM   13  O   UNL     1     -12.240  13.852  68.207  1.00  0.00    -0.332 OA 
BRANCH  11  14
HETATM   14  C   UNL     1     -11.607  11.816  69.320  1.00  0.00    -0.315 C  
HETATM   15  O   UNL     1     -12.616  10.817  69.157  1.00  0.00    -0.704 OA 
HETATM   16  H   UNL     1     -12.718  10.295  69.945  1.00  0.00     0.000 HD 
ENDBRANCH  11  14
ENDBRANCH   8  11
ENDBRANCH   5   8
ENDBRANCH   2   5
TORSDOF 4
ENDMDL
MODEL      277
REMARK 921   NORMALIZED FREE ENERGY PREDICTED BY IDOCK:   -2.46 KCAL/MOL
REMARK 922        TOTAL FREE ENERGY PREDICTED BY IDOCK:   -3.27 KCAL/MOL
REMARK 923 INTER-LIGAND FREE ENERGY PREDICTED BY IDOCK:   -2.89 KCAL/MOL
REMARK 924 INTRA-LIGAND FREE ENERGY PREDICTED BY IDOCK:   -0.38 KCAL/MOL
REMARK 927      BINDING AFFINITY PREDICTED BY RF-SCORE:    0.00 PKD
ROOT
HETATM    1  C   UNL     1     -10.017   6.545  72.804  1.00  0.00    -0.172 C  
HETATM    2  C   UNL     1     -10.790   7.673  72.164  1.00  0.00    -0.247 C  
HETATM    3  O   UNL     1      -8.789   6.551  72.903  1.00  0.00    -0.124 OA 
HETATM    4  F   UNL     1     -11.785   8.130  72.970  1.00  0.00    -0.456 F  
ENDROOT
BRANCH   2   5
HETATM    5  C   UNL     1     -11.370   7.299  70.795  1.00  0.00    -0.285 C  
HETATM    6  O   UNL     1     -12.813   7.239  70.825  1.00  0.00    -0.598 OA 
HETATM    7  H   UNL     1     -13.172   7.007  69.976  1.00  0.00     0.000 HD 
BRANCH   5   8
HETATM    8  C   UNL     1     -11.004   8.208  69.601  1.00  0.00    -0.088 C  
HETATM    9  O   UNL     1     -10.762   7.319  68.476  1.00  0.00    -0.305 OA 
HETATM   10  H   UNL     1     -10.537   7.878  67.742  1.00  0.00     0.000 HD 
BRANCH   8  11
HETATM   11  C   UNL     1      -9.790   9.153  69.757  1.00  0.00    -0.181 C  
HETATM   12  H   UNL     1      -9.528  11.088  69.968  1.00  0.00     0.000 HD 
HETATM   13  O   UNL     1     -10.274  10.507  69.872  1.00  0.00    -0.197 OA 
BRANCH  11  14
HETATM   14  C   UNL     1      -8.772   9.118  68.608  1.00  0.00    -0.129 C  
HETATM   15  O   UNL     1      -7.795   8.095  68.806  1.00  0.00    -0.109 OA 
HETATM   16  H   UNL     1      -7.165   8.073  68.095  1.00  0.00     0.000 HD 
ENDBRANCH  11  14
ENDBRANCH   8  11
ENDBRANCH   5   8
ENDBRANCH   2   5
TORSDOF 4
ENDMDL
MODEL      278
REMARK 921   NORMALIZED FREE ENERGY PREDICTED BY IDOCK:   -2.46 KCAL/MOL
REMARK 922        TOTAL FREE ENERGY PREDICTED BY IDOCK:   -3.27 KCAL/MOL
REMARK 923 INTER-LIGAND FREE ENERGY PREDICTED BY IDOCK:   -3.19 KCAL/MOL
REMARK 924 INTRA-LIGAND FREE ENERGY PREDICTED BY IDOCK:   -0.08 KCAL/MOL
REMARK 927      BINDING AFFINITY PREDICTED BY RF-SCORE:    0.00 PKD
ROOT
HETATM    1  C   UNL     1      -8.820  16.104  68.229  1.00  0.00    -0.188 C  
HETATM    2  C   UNL     1      -8.338  15.236  67.091  1.00  0.00    -0.216 C  
HETATM    3  O   UNL     1      -8.589  15.841  69.411  1.00  0.00    -0.251 OA 
HETATM    4  F   UNL     1      -7.661  15.952  66.155  1.00  0.00    -0.208 F  
ENDROOT
BRANCH   2   5
HETATM    5  C   UNL     1      -9.470  14.451  66.419  1.00  0.00    -0.285 C  
HETATM    6  O   UNL     1      -9.451  14.611  64.983  1.00  0.00    -0.322 OA 
HETATM    7  H   UNL     1     -10.153  14.125  64.566  1.00  0.00     0.000 HD 
BRANCH   5   8
HETATM    8  C   UNL     1      -9.526  12.929  66.678  1.00  0.00    -0.255 C  
HETATM    9  O   UNL     1      -8.164  12.444  66.524  1.00  0.00    -0.394 OA 
HETATM   10  H   UNL     1      -8.198  11.508  66.684  1.00  0.00     0.000 HD 
BRANCH   8  11
HETATM   11  C   UNL     1     -10.461  12.078  65.789  1.00  0.00    -0.254 C  
HETATM   12  H   UNL     1     -12.402  11.889  65.561  1.00  0.00     0.000 HD 
HETATM   13  O   UNL     1     -11.828  12.411  66.108  1.00  0.00    -0.459 OA 
BRANCH  11  14
HETATM   14  C   UNL     1     -10.307  10.556  65.932  1.00  0.00    -0.206 C  
HETATM   15  O   UNL     1      -9.265  10.221  66.850  1.00  0.00    -0.148 OA 
HETATM   16  H   UNL     1      -9.170   9.280  66.939  1.00  0.00     0.000 HD 
ENDBRANCH  11  14
ENDBRANCH   8  11
ENDBRANCH   5   8
ENDBRANCH   2   5
TORSDOF 4
ENDMDL
MODEL      279
REMARK 921   NORMALIZED FREE ENERGY PREDICTED BY IDOCK:   -2.44 KCAL/MOL
REMARK 922        TOTAL FREE ENERGY PREDICTED BY IDOCK:   -3.25 KCAL/MOL
REMARK 923 INTER-LIGAND FREE ENERGY PREDICTED BY IDOCK:   -2.58 KCAL/MOL
REMARK 924 INTRA-LIGAND FREE ENERGY PREDICTED BY IDOCK:   -0.66 KCAL/MOL
REMARK 927      BINDING AFFINITY PREDICTED BY RF-SCORE:    0.00 PKD
ROOT
HETATM    1  C   UNL     1      -8.750   4.347  65.070  1.00  0.00    -0.133 C  
HETATM    2  C   UNL     1      -8.477   4.239  66.551  1.00  0.00    -0.108 C  
HETATM    3  O   UNL     1      -8.420   5.329  64.402  1.00  0.00    -0.139 OA 
HETATM    4  F   UNL     1      -7.840   3.081  66.869  1.00  0.00    -0.073 F  
ENDROOT
BRANCH   2   5
HETATM    5  C   UNL     1      -9.744   4.377  67.403  1.00  0.00    -0.174 C  
HETATM    6  O   UNL     1      -9.580   3.779  68.707  1.00  0.00    -0.161 OA 
HETATM    7  H   UNL     1     -10.365   3.865  69.235  1.00  0.00     0.000 HD 
BRANCH   5   8
HETATM    8  C   UNL     1     -10.274   5.808  67.653  1.00  0.00    -0.193 C  
HETATM    9  O   UNL     1     -11.174   6.103  66.551  1.00  0.00    -0.741 OA 
HETATM   10  H   UNL     1     -11.500   6.983  66.705  1.00  0.00     0.000 HD 
BRANCH   8  11
HETATM   11  C   UNL     1      -9.239   6.951  67.771  1.00  0.00    -0.119 C  
HETATM   12  H   UNL     1      -8.435   7.978  69.239  1.00  0.00     0.000 HD 
HETATM   13  O   UNL     1      -9.071   7.276  69.166  1.00  0.00    -0.138 OA 
BRANCH  11  14
HETATM   14  C   UNL     1      -9.600   8.248  67.031  1.00  0.00    -0.191 C  
HETATM   15  O   UNL     1      -9.323   8.146  65.633  1.00  0.00    -0.413 OA 
HETATM   16  H   UNL     1      -9.546   8.949  65.176  1.00  0.00     0.000 HD 
ENDBRANCH  11  14
ENDBRANCH   8  11
ENDBRANCH   5   8
ENDBRANCH   2   5
TORSDOF 4
ENDMDL
MODEL      280
REMARK 921   NORMALIZED FREE ENERGY PREDICTED BY IDOCK:   -2.43 KCAL/MOL
REMARK 922        TOTAL FREE ENERGY PREDICTED BY IDOCK:   -3.24 KCAL/MOL
REMARK 923 INTER-LIGAND FREE ENERGY PREDICTED BY IDOCK:   -3.30 KCAL/MOL
REMARK 924 INTRA-LIGAND FREE ENERGY PREDICTED BY IDOCK:    0.06 KCAL/MOL
REMARK 927      BINDING AFFINITY PREDICTED BY RF-SCORE:    0.00 PKD
ROOT
HETATM    1  C   UNL     1     -10.421   7.723  67.413  1.00  0.00    -0.292 C  
HETATM    2  C   UNL     1     -10.359   9.120  66.842  1.00  0.00    -0.251 C  
HETATM    3  O   UNL     1     -11.344   6.944  67.167  1.00  0.00    -0.290 OA 
HETATM    4  F   UNL     1      -9.170   9.368  66.231  1.00  0.00    -0.165 F  
ENDROOT
BRANCH   2   5
HETATM    5  C   UNL     1     -10.633  10.205  67.890  1.00  0.00    -0.249 C  
HETATM    6  O   UNL     1     -12.025  10.237  68.273  1.00  0.00    -0.730 OA 
HETATM    7  H   UNL     1     -12.196  10.909  68.922  1.00  0.00     0.000 HD 
BRANCH   5   8
HETATM    8  C   UNL     1      -9.828  10.135  69.207  1.00  0.00    -0.220 C  
HETATM    9  O   UNL     1      -8.501   9.667  68.844  1.00  0.00    -0.117 OA 
HETATM   10  H   UNL     1      -8.006   9.624  69.654  1.00  0.00     0.000 HD 
BRANCH   8  11
HETATM   11  C   UNL     1     -10.378   9.240  70.342  1.00  0.00    -0.240 C  
HETATM   12  H   UNL     1     -11.713   9.435  71.770  1.00  0.00     0.000 HD 
HETATM   13  O   UNL     1     -11.375   9.985  71.072  1.00  0.00    -0.347 OA 
BRANCH  11  14
HETATM   14  C   UNL     1      -9.335   8.741  71.354  1.00  0.00    -0.258 C  
HETATM   15  O   UNL     1      -8.962   7.387  71.095  1.00  0.00    -0.142 OA 
HETATM   16  H   UNL     1      -8.317   7.078  71.721  1.00  0.00     0.000 HD 
ENDBRANCH  11  14
ENDBRANCH   8  11
ENDBRANCH   5   8
ENDBRANCH   2   5
TORSDOF 4
ENDMDL
MODEL      281
REMARK 921   NORMALIZED FREE ENERGY PREDICTED BY IDOCK:   -2.41 KCAL/MOL
REMARK 922        TOTAL FREE ENERGY PREDICTED BY IDOCK:   -3.21 KCAL/MOL
REMARK 923 INTER-LIGAND FREE ENERGY PREDICTED BY IDOCK:   -2.96 KCAL/MOL
REMARK 924 INTRA-LIGAND FREE ENERGY PREDICTED BY IDOCK:   -0.24 KCAL/MOL
REMARK 927      BINDING AFFINITY PREDICTED BY RF-SCORE:    0.00 PKD
ROOT
HETATM    1  C   UNL     1      -9.063   4.912  71.042  1.00  0.00    -0.140 C  
HETATM    2  C   UNL     1     -10.138   4.535  70.051  1.00  0.00    -0.134 C  
HETATM    3  O   UNL     1      -9.240   4.878  72.261  1.00  0.00    -0.129 OA 
HETATM    4  F   UNL     1      -9.703   3.610  69.154  1.00  0.00    -0.241 F  
ENDROOT
BRANCH   2   5
HETATM    5  C   UNL     1     -10.712   5.745  69.304  1.00  0.00    -0.316 C  
HETATM    6  O   UNL     1     -11.788   6.365  70.040  1.00  0.00    -0.515 OA 
HETATM    7  H   UNL     1     -12.143   7.115  69.578  1.00  0.00     0.000 HD 
BRANCH   5   8
HETATM    8  C   UNL     1      -9.730   6.882  68.942  1.00  0.00    -0.142 C  
HETATM    9  O   UNL     1     -10.317   8.104  69.467  1.00  0.00    -0.213 OA 
HETATM   10  H   UNL     1      -9.713   8.803  69.245  1.00  0.00     0.000 HD 
BRANCH   8  11
HETATM   11  C   UNL     1      -9.388   7.094  67.450  1.00  0.00    -0.127 C  
HETATM   12  H   UNL     1      -9.959   8.331  66.035  1.00  0.00     0.000 HD 
HETATM   13  O   UNL     1     -10.169   8.200  66.952  1.00  0.00    -0.266 OA 
BRANCH  11  14
HETATM   14  C   UNL     1      -9.651   5.889  66.533  1.00  0.00    -0.156 C  
HETATM   15  O   UNL     1     -10.965   5.935  65.974  1.00  0.00    -0.586 OA 
HETATM   16  H   UNL     1     -11.127   5.189  65.407  1.00  0.00     0.000 HD 
ENDBRANCH  11  14
ENDBRANCH   8  11
ENDBRANCH   5   8
ENDBRANCH   2   5
TORSDOF 4
ENDMDL
MODEL      282
REMARK 921   NORMALIZED FREE ENERGY PREDICTED BY IDOCK:   -2.41 KCAL/MOL
REMARK 922        TOTAL FREE ENERGY PREDICTED BY IDOCK:   -3.21 KCAL/MOL
REMARK 923 INTER-LIGAND FREE ENERGY PREDICTED BY IDOCK:   -2.92 KCAL/MOL
REMARK 924 INTRA-LIGAND FREE ENERGY PREDICTED BY IDOCK:   -0.28 KCAL/MOL
REMARK 927      BINDING AFFINITY PREDICTED BY RF-SCORE:    0.00 PKD
ROOT
HETATM    1  C   UNL     1      -8.445  15.373  67.008  1.00  0.00    -0.231 C  
HETATM    2  C   UNL     1      -8.198  14.215  67.945  1.00  0.00    -0.155 C  
HETATM    3  O   UNL     1      -8.321  16.549  67.356  1.00  0.00    -0.164 OA 
HETATM    4  F   UNL     1      -7.330  13.310  67.420  1.00  0.00    -0.139 F  
ENDROOT
BRANCH   2   5
HETATM    5  C   UNL     1      -9.489  13.503  68.367  1.00  0.00    -0.185 C  
HETATM    6  O   UNL     1     -10.569  14.438  68.580  1.00  0.00    -0.238 OA 
HETATM    7  H   UNL     1     -11.369  13.997  68.841  1.00  0.00     0.000 HD 
BRANCH   5   8
HETATM    8  C   UNL     1     -10.043  12.421  67.412  1.00  0.00    -0.201 C  
HETATM    9  O   UNL     1     -10.989  13.099  66.541  1.00  0.00    -0.281 OA 
HETATM   10  H   UNL     1     -11.330  12.434  65.954  1.00  0.00     0.000 HD 
BRANCH   8  11
HETATM   11  C   UNL     1     -10.736  11.190  68.039  1.00  0.00    -0.211 C  
HETATM   12  H   UNL     1     -12.583  10.543  68.202  1.00  0.00     0.000 HD 
HETATM   13  O   UNL     1     -12.157  11.300  67.816  1.00  0.00    -0.631 OA 
BRANCH  11  14
HETATM   14  C   UNL     1     -10.515  11.005  69.548  1.00  0.00    -0.092 C  
HETATM   15  O   UNL     1      -9.254  10.390  69.820  1.00  0.00    -0.393 OA 
HETATM   16  H   UNL     1      -9.117  10.275  70.753  1.00  0.00     0.000 HD 
ENDBRANCH  11  14
ENDBRANCH   8  11
ENDBRANCH   5   8
ENDBRANCH   2   5
TORSDOF 4
ENDMDL
MODEL      283
REMARK 921   NORMALIZED FREE ENERGY PREDICTED BY IDOCK:   -2.41 KCAL/MOL
REMARK 922        TOTAL FREE ENERGY PREDICTED BY IDOCK:   -3.20 KCAL/MOL
REMARK 923 INTER-LIGAND FREE ENERGY PREDICTED BY IDOCK:   -3.33 KCAL/MOL
REMARK 924 INTRA-LIGAND FREE ENERGY PREDICTED BY IDOCK:    0.13 KCAL/MOL
REMARK 927      BINDING AFFINITY PREDICTED BY RF-SCORE:    0.00 PKD
ROOT
HETATM    1  C   UNL     1     -10.074   8.206  67.843  1.00  0.00    -0.196 C  
HETATM    2  C   UNL     1      -9.021   9.088  68.471  1.00  0.00    -0.133 C  
HETATM    3  O   UNL     1     -10.215   8.103  66.623  1.00  0.00    -0.292 OA 
HETATM    4  F   UNL     1      -8.262   8.412  69.374  1.00  0.00    -0.107 F  
ENDROOT
BRANCH   2   5
HETATM    5  C   UNL     1      -9.609  10.341  69.130  1.00  0.00    -0.218 C  
HETATM    6  O   UNL     1      -8.584  11.309  69.446  1.00  0.00    -0.370 OA 
HETATM    7  H   UNL     1      -8.948  12.085  69.854  1.00  0.00     0.000 HD 
BRANCH   5   8
HETATM    8  C   UNL     1     -10.695  11.110  68.343  1.00  0.00    -0.198 C  
HETATM    9  O   UNL     1     -11.871  10.256  68.341  1.00  0.00    -0.709 OA 
HETATM   10  H   UNL     1     -12.539  10.729  67.857  1.00  0.00     0.000 HD 
BRANCH   8  11
HETATM   11  C   UNL     1     -10.376  11.522  66.888  1.00  0.00    -0.223 C  
HETATM   12  H   UNL     1      -9.071  12.698  66.009  1.00  0.00     0.000 HD 
HETATM   13  O   UNL     1      -9.267  12.444  66.903  1.00  0.00    -0.197 OA 
BRANCH  11  14
HETATM   14  C   UNL     1     -11.528  12.191  66.123  1.00  0.00    -0.371 C  
HETATM   15  O   UNL     1     -11.466  13.614  66.225  1.00  0.00    -0.316 OA 
HETATM   16  H   UNL     1     -12.179  14.028  65.751  1.00  0.00     0.000 HD 
ENDBRANCH  11  14
ENDBRANCH   8  11
ENDBRANCH   5   8
ENDBRANCH   2   5
TORSDOF 4
ENDMDL
MODEL      284
REMARK 921   NORMALIZED FREE ENERGY PREDICTED BY IDOCK:   -2.40 KCAL/MOL
REMARK 922        TOTAL FREE ENERGY PREDICTED BY IDOCK:   -3.20 KCAL/MOL
REMARK 923 INTER-LIGAND FREE ENERGY PREDICTED BY IDOCK:   -3.17 KCAL/MOL
REMARK 924 INTRA-LIGAND FREE ENERGY PREDICTED BY IDOCK:   -0.03 KCAL/MOL
REMARK 927      BINDING AFFINITY PREDICTED BY RF-SCORE:    0.00 PKD
ROOT
HETATM    1  C   UNL     1      -9.586   5.856  67.737  1.00  0.00    -0.115 C  
HETATM    2  C   UNL     1     -10.748   6.773  68.036  1.00  0.00    -0.241 C  
HETATM    3  O   UNL     1      -9.579   4.665  68.051  1.00  0.00    -0.145 OA 
HETATM    4  F   UNL     1     -11.174   7.434  66.927  1.00  0.00    -0.411 F  
ENDROOT
BRANCH   2   5
HETATM    5  C   UNL     1     -10.440   7.782  69.148  1.00  0.00    -0.211 C  
HETATM    6  O   UNL     1      -9.484   7.258  70.095  1.00  0.00    -0.165 OA 
HETATM    7  H   UNL     1      -9.293   7.883  70.784  1.00  0.00     0.000 HD 
BRANCH   5   8
HETATM    8  C   UNL     1      -9.902   9.165  68.718  1.00  0.00    -0.167 C  
HETATM    9  O   UNL     1      -9.871   9.978  69.923  1.00  0.00    -0.235 OA 
HETATM   10  H   UNL     1      -9.540  10.829  69.658  1.00  0.00     0.000 HD 
BRANCH   8  11
HETATM   11  C   UNL     1     -10.674   9.932  67.620  1.00  0.00    -0.281 C  
HETATM   12  H   UNL     1     -10.195  10.959  66.016  1.00  0.00     0.000 HD 
HETATM   13  O   UNL     1      -9.721  10.489  66.691  1.00  0.00    -0.178 OA 
BRANCH  11  14
HETATM   14  C   UNL     1     -11.566  11.080  68.117  1.00  0.00    -0.272 C  
HETATM   15  O   UNL     1     -12.565  10.611  69.024  1.00  0.00    -0.746 OA 
HETATM   16  H   UNL     1     -13.116  11.321  69.331  1.00  0.00     0.000 HD 
ENDBRANCH  11  14
ENDBRANCH   8  11
ENDBRANCH   5   8
ENDBRANCH   2   5
TORSDOF 4
ENDMDL
MODEL      285
REMARK 921   NORMALIZED FREE ENERGY PREDICTED BY IDOCK:   -2.40 KCAL/MOL
REMARK 922        TOTAL FREE ENERGY PREDICTED BY IDOCK:   -3.19 KCAL/MOL
REMARK 923 INTER-LIGAND FREE ENERGY PREDICTED BY IDOCK:   -2.91 KCAL/MOL
REMARK 924 INTRA-LIGAND FREE ENERGY PREDICTED BY IDOCK:   -0.28 KCAL/MOL
REMARK 927      BINDING AFFINITY PREDICTED BY RF-SCORE:    0.00 PKD
ROOT
HETATM    1  C   UNL     1     -11.582  12.257  66.721  1.00  0.00    -0.369 C  
HETATM    2  C   UNL     1     -10.949  13.266  67.651  1.00  0.00    -0.262 C  
HETATM    3  O   UNL     1     -11.244  11.072  66.694  1.00  0.00    -0.237 OA 
HETATM    4  F   UNL     1     -11.878  13.945  68.374  1.00  0.00    -0.330 F  
ENDROOT
BRANCH   2   5
HETATM    5  C   UNL     1     -10.038  14.259  66.922  1.00  0.00    -0.264 C  
HETATM    6  O   UNL     1     -10.478  15.622  67.108  1.00  0.00    -0.290 OA 
HETATM    7  H   UNL     1      -9.914  16.239  66.656  1.00  0.00     0.000 HD 
BRANCH   5   8
HETATM    8  C   UNL     1      -8.537  14.242  67.289  1.00  0.00    -0.215 C  
HETATM    9  O   UNL     1      -8.232  12.874  67.676  1.00  0.00    -0.151 OA 
HETATM   10  H   UNL     1      -7.309  12.863  67.902  1.00  0.00     0.000 HD 
BRANCH   8  11
HETATM   11  C   UNL     1      -8.056  15.194  68.408  1.00  0.00    -0.139 C  
HETATM   12  H   UNL     1      -8.829  15.947  70.048  1.00  0.00     0.000 HD 
HETATM   13  O   UNL     1      -9.125  15.362  69.361  1.00  0.00    -0.248 OA 
BRANCH  11  14
HETATM   14  C   UNL     1      -7.622  16.593  67.944  1.00  0.00    -0.160 C  
HETATM   15  O   UNL     1      -8.677  17.544  68.094  1.00  0.00    -0.246 OA 
HETATM   16  H   UNL     1      -8.409  18.409  67.807  1.00  0.00     0.000 HD 
ENDBRANCH  11  14
ENDBRANCH   8  11
ENDBRANCH   5   8
ENDBRANCH   2   5
TORSDOF 4
ENDMDL
MODEL      286
REMARK 921   NORMALIZED FREE ENERGY PREDICTED BY IDOCK:   -2.40 KCAL/MOL
REMARK 922        TOTAL FREE ENERGY PREDICTED BY IDOCK:   -3.19 KCAL/MOL
REMARK 923 INTER-LIGAND FREE ENERGY PREDICTED BY IDOCK:   -3.48 KCAL/MOL
REMARK 924 INTRA-LIGAND FREE ENERGY PREDICTED BY IDOCK:    0.29 KCAL/MOL
REMARK 927      BINDING AFFINITY PREDICTED BY RF-SCORE:    0.00 PKD
ROOT
HETATM    1  C   UNL     1     -11.857  15.685  70.846  1.00  0.00    -0.388 C  
HETATM    2  C   UNL     1     -11.666  14.791  69.644  1.00  0.00    -0.314 C  
HETATM    3  O   UNL     1     -12.900  15.704  71.503  1.00  0.00    -0.425 OA 
HETATM    4  F   UNL     1     -10.529  14.051  69.735  1.00  0.00    -0.053 F  
ENDROOT
BRANCH   2   5
HETATM    5  C   UNL     1     -11.671  15.563  68.320  1.00  0.00    -0.274 C  
HETATM    6  O   UNL     1     -10.745  16.671  68.344  1.00  0.00    -0.319 OA 
HETATM    7  H   UNL     1     -10.748  17.149  67.523  1.00  0.00     0.000 HD 
BRANCH   5   8
HETATM    8  C   UNL     1     -11.349  14.765  67.036  1.00  0.00    -0.353 C  
HETATM    9  O   UNL     1     -11.407  13.361  67.409  1.00  0.00    -0.283 OA 
HETATM   10  H   UNL     1     -11.210  12.870  66.620  1.00  0.00     0.000 HD 
BRANCH   8  11
HETATM   11  C   UNL     1      -9.999  15.038  66.335  1.00  0.00    -0.279 C  
HETATM   12  H   UNL     1      -8.179  15.497  66.911  1.00  0.00     0.000 HD 
HETATM   13  O   UNL     1      -9.008  15.329  67.342  1.00  0.00    -0.173 OA 
BRANCH  11  14
HETATM   14  C   UNL     1      -9.999  16.202  65.332  1.00  0.00    -0.106 C  
HETATM   15  O   UNL     1      -9.432  17.383  65.901  1.00  0.00    -0.512 OA 
HETATM   16  H   UNL     1      -9.432  18.103  65.280  1.00  0.00     0.000 HD 
ENDBRANCH  11  14
ENDBRANCH   8  11
ENDBRANCH   5   8
ENDBRANCH   2   5
TORSDOF 4
ENDMDL
MODEL      287
REMARK 921   NORMALIZED FREE ENERGY PREDICTED BY IDOCK:   -2.39 KCAL/MOL
REMARK 922        TOTAL FREE ENERGY PREDICTED BY IDOCK:   -3.19 KCAL/MOL
REMARK 923 INTER-LIGAND FREE ENERGY PREDICTED BY IDOCK:   -2.97 KCAL/MOL
REMARK 924 INTRA-LIGAND FREE ENERGY PREDICTED BY IDOCK:   -0.22 KCAL/MOL
REMARK 927      BINDING AFFINITY PREDICTED BY RF-SCORE:    0.00 PKD
ROOT
HETATM    1  C   UNL     1      -8.570   4.973  72.986  1.00  0.00    -0.114 C  
HETATM    2  C   UNL     1      -9.546   6.116  72.835  1.00  0.00    -0.154 C  
HETATM    3  O   UNL     1      -7.474   4.954  72.422  1.00  0.00    -0.085 OA 
HETATM    4  F   UNL     1      -9.958   6.597  74.038  1.00  0.00    -0.209 F  
ENDROOT
BRANCH   2   5
HETATM    5  C   UNL     1     -10.766   5.750  71.982  1.00  0.00    -0.233 C  
HETATM    6  O   UNL     1     -11.967   5.660  72.780  1.00  0.00    -0.518 OA 
HETATM    7  H   UNL     1     -12.723   5.433  72.252  1.00  0.00     0.000 HD 
BRANCH   5   8
HETATM    8  C   UNL     1     -11.108   6.686  70.801  1.00  0.00    -0.286 C  
HETATM    9  O   UNL     1     -12.527   6.977  70.915  1.00  0.00    -0.489 OA 
HETATM   10  H   UNL     1     -12.738   7.553  70.188  1.00  0.00     0.000 HD 
BRANCH   8  11
HETATM   11  C   UNL     1     -10.817   6.178  69.370  1.00  0.00    -0.353 C  
HETATM   12  H   UNL     1      -9.802   4.695  68.579  1.00  0.00     0.000 HD 
HETATM   13  O   UNL     1      -9.980   5.007  69.459  1.00  0.00    -0.195 OA 
BRANCH  11  14
HETATM   14  C   UNL     1     -10.117   7.182  68.441  1.00  0.00    -0.168 C  
HETATM   15  O   UNL     1      -9.688   8.343  69.155  1.00  0.00    -0.166 OA 
HETATM   16  H   UNL     1      -9.255   8.964  68.581  1.00  0.00     0.000 HD 
ENDBRANCH  11  14
ENDBRANCH   8  11
ENDBRANCH   5   8
ENDBRANCH   2   5
TORSDOF 4
ENDMDL
MODEL      288
REMARK 921   NORMALIZED FREE ENERGY PREDICTED BY IDOCK:   -2.39 KCAL/MOL
REMARK 922        TOTAL FREE ENERGY PREDICTED BY IDOCK:   -3.19 KCAL/MOL
REMARK 923 INTER-LIGAND FREE ENERGY PREDICTED BY IDOCK:   -2.81 KCAL/MOL
REMARK 924 INTRA-LIGAND FREE ENERGY PREDICTED BY IDOCK:   -0.38 KCAL/MOL
REMARK 927      BINDING AFFINITY PREDICTED BY RF-SCORE:    0.00 PKD
ROOT
HETATM    1  C   UNL     1      -7.341  13.681  67.738  1.00  0.00    -0.166 C  
HETATM    2  C   UNL     1      -8.748  13.230  67.423  1.00  0.00    -0.206 C  
HETATM    3  O   UNL     1      -6.786  14.602  67.134  1.00  0.00    -0.233 OA 
HETATM    4  F   UNL     1      -9.531  13.193  68.534  1.00  0.00    -0.210 F  
ENDROOT
BRANCH   2   5
HETATM    5  C   UNL     1      -8.794  11.871  66.716  1.00  0.00    -0.193 C  
HETATM    6  O   UNL     1      -7.571  11.601  65.997  1.00  0.00    -0.358 OA 
HETATM    7  H   UNL     1      -7.599  10.759  65.559  1.00  0.00     0.000 HD 
BRANCH   5   8
HETATM    8  C   UNL     1      -9.057  10.627  67.594  1.00  0.00    -0.142 C  
HETATM    9  O   UNL     1      -7.835  10.401  68.349  1.00  0.00    -0.098 OA 
HETATM   10  H   UNL     1      -7.997   9.636  68.889  1.00  0.00     0.000 HD 
BRANCH   8  11
HETATM   11  C   UNL     1      -9.454   9.312  66.884  1.00  0.00    -0.161 C  
HETATM   12  H   UNL     1     -10.302   8.832  65.180  1.00  0.00     0.000 HD 
HETATM   13  O   UNL     1     -10.058   9.639  65.616  1.00  0.00    -0.296 OA 
BRANCH  11  14
HETATM   14  C   UNL     1     -10.439   8.417  67.653  1.00  0.00    -0.239 C  
HETATM   15  O   UNL     1     -10.998   7.411  66.808  1.00  0.00    -0.509 OA 
HETATM   16  H   UNL     1     -11.607   6.857  67.283  1.00  0.00     0.000 HD 
ENDBRANCH  11  14
ENDBRANCH   8  11
ENDBRANCH   5   8
ENDBRANCH   2   5
TORSDOF 4
ENDMDL
MODEL      289
REMARK 921   NORMALIZED FREE ENERGY PREDICTED BY IDOCK:   -2.39 KCAL/MOL
REMARK 922        TOTAL FREE ENERGY PREDICTED BY IDOCK:   -3.18 KCAL/MOL
REMARK 923 INTER-LIGAND FREE ENERGY PREDICTED BY IDOCK:   -2.83 KCAL/MOL
REMARK 924 INTRA-LIGAND FREE ENERGY PREDICTED BY IDOCK:   -0.35 KCAL/MOL
REMARK 927      BINDING AFFINITY PREDICTED BY RF-SCORE:    0.00 PKD
ROOT
HETATM    1  C   UNL     1     -12.849   7.476  71.361  1.00  0.00    -0.342 C  
HETATM    2  C   UNL     1     -11.564   8.268  71.368  1.00  0.00    -0.280 C  
HETATM    3  O   UNL     1     -12.996   6.440  72.013  1.00  0.00    -0.199 OA 
HETATM    4  F   UNL     1     -11.775   9.580  71.657  1.00  0.00    -0.392 F  
ENDROOT
BRANCH   2   5
HETATM    5  C   UNL     1     -10.783   8.151  70.054  1.00  0.00    -0.243 C  
HETATM    6  O   UNL     1     -11.177   9.169  69.107  1.00  0.00    -0.443 OA 
HETATM    7  H   UNL     1     -10.693   9.096  68.293  1.00  0.00     0.000 HD 
BRANCH   5   8
HETATM    8  C   UNL     1      -9.242   8.221  70.139  1.00  0.00    -0.155 C  
HETATM    9  O   UNL     1      -8.759   6.890  69.807  1.00  0.00    -0.140 OA 
HETATM   10  H   UNL     1      -7.812   6.933  69.859  1.00  0.00     0.000 HD 
BRANCH   8  11
HETATM   11  C   UNL     1      -8.612   8.658  71.482  1.00  0.00    -0.195 C  
HETATM   12  H   UNL     1      -7.239   9.946  72.041  1.00  0.00     0.000 HD 
HETATM   13  O   UNL     1      -7.626   9.677  71.216  1.00  0.00    -0.295 OA 
BRANCH  11  14
HETATM   14  C   UNL     1      -7.924   7.543  72.284  1.00  0.00    -0.102 C  
HETATM   15  O   UNL     1      -6.544   7.423  71.936  1.00  0.00    -0.046 OA 
HETATM   16  H   UNL     1      -6.119   6.733  72.432  1.00  0.00     0.000 HD 
ENDBRANCH  11  14
ENDBRANCH   8  11
ENDBRANCH   5   8
ENDBRANCH   2   5
TORSDOF 4
ENDMDL
MODEL      290
REMARK 921   NORMALIZED FREE ENERGY PREDICTED BY IDOCK:   -2.37 KCAL/MOL
REMARK 922        TOTAL FREE ENERGY PREDICTED BY IDOCK:   -3.15 KCAL/MOL
REMARK 923 INTER-LIGAND FREE ENERGY PREDICTED BY IDOCK:   -2.76 KCAL/MOL
REMARK 924 INTRA-LIGAND FREE ENERGY PREDICTED BY IDOCK:   -0.40 KCAL/MOL
REMARK 927      BINDING AFFINITY PREDICTED BY RF-SCORE:    0.00 PKD
ROOT
HETATM    1  C   UNL     1     -10.129   5.214  70.403  1.00  0.00    -0.262 C  
HETATM    2  C   UNL     1     -10.813   6.508  70.775  1.00  0.00    -0.261 C  
HETATM    3  O   UNL     1      -8.943   4.992  70.653  1.00  0.00    -0.125 OA 
HETATM    4  F   UNL     1     -11.960   6.297  71.473  1.00  0.00    -0.356 F  
ENDROOT
BRANCH   2   5
HETATM    5  C   UNL     1     -11.107   7.398  69.562  1.00  0.00    -0.072 C  
HETATM    6  O   UNL     1     -11.597   8.697  69.959  1.00  0.00    -0.463 OA 
HETATM    7  H   UNL     1     -11.779   9.248  69.207  1.00  0.00     0.000 HD 
BRANCH   5   8
HETATM    8  C   UNL     1      -9.942   7.662  68.581  1.00  0.00    -0.174 C  
HETATM    9  O   UNL     1      -9.520   9.033  68.815  1.00  0.00    -0.146 OA 
HETATM   10  H   UNL     1      -8.804   9.195  68.212  1.00  0.00     0.000 HD 
BRANCH   8  11
HETATM   11  C   UNL     1     -10.214   7.476  67.070  1.00  0.00    -0.298 C  
HETATM   12  H   UNL     1     -11.086   6.118  65.952  1.00  0.00     0.000 HD 
HETATM   13  O   UNL     1     -10.919   6.232  66.880  1.00  0.00    -0.358 OA 
BRANCH  11  14
HETATM   14  C   UNL     1      -8.967   7.446  66.173  1.00  0.00    -0.149 C  
HETATM   15  O   UNL     1      -7.894   8.197  66.744  1.00  0.00    -0.093 OA 
HETATM   16  H   UNL     1      -7.123   8.178  66.189  1.00  0.00     0.000 HD 
ENDBRANCH  11  14
ENDBRANCH   8  11
ENDBRANCH   5   8
ENDBRANCH   2   5
TORSDOF 4
ENDMDL
MODEL      291
REMARK 921   NORMALIZED FREE ENERGY PREDICTED BY IDOCK:   -2.35 KCAL/MOL
REMARK 922        TOTAL FREE ENERGY PREDICTED BY IDOCK:   -3.14 KCAL/MOL
REMARK 923 INTER-LIGAND FREE ENERGY PREDICTED BY IDOCK:   -2.98 KCAL/MOL
REMARK 924 INTRA-LIGAND FREE ENERGY PREDICTED BY IDOCK:   -0.16 KCAL/MOL
REMARK 927      BINDING AFFINITY PREDICTED BY RF-SCORE:    0.00 PKD
ROOT
HETATM    1  C   UNL     1      -7.696  10.357  68.592  1.00  0.00    -0.101 C  
HETATM    2  C   UNL     1      -9.166  10.080  68.801  1.00  0.00    -0.159 C  
HETATM    3  O   UNL     1      -7.067   9.921  67.625  1.00  0.00    -0.085 OA 
HETATM    4  F   UNL     1      -9.876  11.222  69.003  1.00  0.00    -0.205 F  
ENDROOT
BRANCH   2   5
HETATM    5  C   UNL     1      -9.431   9.101  69.949  1.00  0.00    -0.186 C  
HETATM    6  O   UNL     1      -9.113   9.684  71.232  1.00  0.00    -0.325 OA 
HETATM    7  H   UNL     1      -9.277   9.077  71.944  1.00  0.00     0.000 HD 
BRANCH   5   8
HETATM    8  C   UNL     1     -10.864   8.537  70.080  1.00  0.00    -0.233 C  
HETATM    9  O   UNL     1     -11.253   8.742  71.466  1.00  0.00    -0.262 OA 
HETATM   10  H   UNL     1     -12.134   8.395  71.546  1.00  0.00     0.000 HD 
BRANCH   8  11
HETATM   11  C   UNL     1     -11.092   7.052  69.714  1.00  0.00    -0.241 C  
HETATM   12  H   UNL     1     -10.668   5.317  70.530  1.00  0.00     0.000 HD 
HETATM   13  O   UNL     1     -10.528   6.229  70.755  1.00  0.00    -0.205 OA 
BRANCH  11  14
HETATM   14  C   UNL     1     -10.481   6.599  68.379  1.00  0.00    -0.211 C  
HETATM   15  O   UNL     1     -11.423   6.704  67.310  1.00  0.00    -0.766 OA 
HETATM   16  H   UNL     1     -11.044   6.424  66.484  1.00  0.00     0.000 HD 
ENDBRANCH  11  14
ENDBRANCH   8  11
ENDBRANCH   5   8
ENDBRANCH   2   5
TORSDOF 4
ENDMDL
MODEL      292
REMARK 921   NORMALIZED FREE ENERGY PREDICTED BY IDOCK:   -2.31 KCAL/MOL
REMARK 922        TOTAL FREE ENERGY PREDICTED BY IDOCK:   -3.09 KCAL/MOL
REMARK 923 INTER-LIGAND FREE ENERGY PREDICTED BY IDOCK:   -2.63 KCAL/MOL
REMARK 924 INTRA-LIGAND FREE ENERGY PREDICTED BY IDOCK:   -0.46 KCAL/MOL
REMARK 927      BINDING AFFINITY PREDICTED BY RF-SCORE:    0.00 PKD
ROOT
HETATM    1  C   UNL     1      -9.072   4.817  65.841  1.00  0.00    -0.137 C  
HETATM    2  C   UNL     1      -9.279   5.974  66.789  1.00  0.00    -0.136 C  
HETATM    3  O   UNL     1      -9.911   4.486  65.000  1.00  0.00    -0.167 OA 
HETATM    4  F   UNL     1      -8.237   6.847  66.762  1.00  0.00    -0.107 F  
ENDROOT
BRANCH   2   5
HETATM    5  C   UNL     1      -9.534   5.524  68.232  1.00  0.00    -0.115 C  
HETATM    6  O   UNL     1      -8.480   5.956  69.120  1.00  0.00    -0.111 OA 
HETATM    7  H   UNL     1      -8.638   5.677  70.015  1.00  0.00     0.000 HD 
BRANCH   5   8
HETATM    8  C   UNL     1     -10.858   5.976  68.889  1.00  0.00    -0.331 C  
HETATM    9  O   UNL     1     -11.672   6.527  67.818  1.00  0.00    -0.552 OA 
HETATM   10  H   UNL     1     -12.486   6.805  68.221  1.00  0.00     0.000 HD 
BRANCH   8  11
HETATM   11  C   UNL     1     -10.780   7.009  70.036  1.00  0.00    -0.242 C  
HETATM   12  H   UNL     1     -11.945   7.563  71.516  1.00  0.00     0.000 HD 
HETATM   13  O   UNL     1     -11.993   6.929  70.811  1.00  0.00    -0.363 OA 
BRANCH  11  14
HETATM   14  C   UNL     1     -10.602   8.471  69.599  1.00  0.00    -0.220 C  
HETATM   15  O   UNL     1      -9.236   8.766  69.302  1.00  0.00    -0.147 OA 
HETATM   16  H   UNL     1      -9.127   9.670  69.031  1.00  0.00     0.000 HD 
ENDBRANCH  11  14
ENDBRANCH   8  11
ENDBRANCH   5   8
ENDBRANCH   2   5
TORSDOF 4
ENDMDL
MODEL      293
REMARK 921   NORMALIZED FREE ENERGY PREDICTED BY IDOCK:   -2.30 KCAL/MOL
REMARK 922        TOTAL FREE ENERGY PREDICTED BY IDOCK:   -3.08 KCAL/MOL
REMARK 923 INTER-LIGAND FREE ENERGY PREDICTED BY IDOCK:   -3.06 KCAL/MOL
REMARK 924 INTRA-LIGAND FREE ENERGY PREDICTED BY IDOCK:   -0.02 KCAL/MOL
REMARK 927      BINDING AFFINITY PREDICTED BY RF-SCORE:    0.00 PKD
ROOT
HETATM    1  C   UNL     1      -7.499  11.409  66.629  1.00  0.00    -0.110 C  
HETATM    2  C   UNL     1      -8.660  10.565  67.100  1.00  0.00    -0.127 C  
HETATM    3  O   UNL     1      -6.329  11.153  66.917  1.00  0.00    -0.090 OA 
HETATM    4  F   UNL     1      -9.463  10.183  66.071  1.00  0.00    -0.189 F  
ENDROOT
BRANCH   2   5
HETATM    5  C   UNL     1      -9.501  11.256  68.179  1.00  0.00    -0.184 C  
HETATM    6  O   UNL     1      -8.684  12.059  69.059  1.00  0.00    -0.360 OA 
HETATM    7  H   UNL     1      -9.205  12.488  69.728  1.00  0.00     0.000 HD 
BRANCH   5   8
HETATM    8  C   UNL     1     -10.646  12.177  67.700  1.00  0.00    -0.210 C  
HETATM    9  O   UNL     1     -11.822  11.332  67.586  1.00  0.00    -0.614 OA 
HETATM   10  H   UNL     1     -12.526  11.898  67.291  1.00  0.00     0.000 HD 
BRANCH   8  11
HETATM   11  C   UNL     1     -10.450  12.940  66.369  1.00  0.00    -0.267 C  
HETATM   12  H   UNL     1     -10.308  14.824  65.833  1.00  0.00     0.000 HD 
HETATM   13  O   UNL     1     -10.428  14.355  66.650  1.00  0.00    -0.269 OA 
BRANCH  11  14
HETATM   14  C   UNL     1     -11.527  12.694  65.301  1.00  0.00    -0.331 C  
HETATM   15  O   UNL     1     -10.961  12.166  64.101  1.00  0.00    -0.306 OA 
HETATM   16  H   UNL     1     -11.627  12.013  63.440  1.00  0.00     0.000 HD 
ENDBRANCH  11  14
ENDBRANCH   8  11
ENDBRANCH   5   8
ENDBRANCH   2   5
TORSDOF 4
ENDMDL
MODEL      294
REMARK 921   NORMALIZED FREE ENERGY PREDICTED BY IDOCK:   -2.26 KCAL/MOL
REMARK 922        TOTAL FREE ENERGY PREDICTED BY IDOCK:   -3.02 KCAL/MOL
REMARK 923 INTER-LIGAND FREE ENERGY PREDICTED BY IDOCK:   -2.66 KCAL/MOL
REMARK 924 INTRA-LIGAND FREE ENERGY PREDICTED BY IDOCK:   -0.36 KCAL/MOL
REMARK 927      BINDING AFFINITY PREDICTED BY RF-SCORE:    0.00 PKD
ROOT
HETATM    1  C   UNL     1      -8.204   8.081  68.712  1.00  0.00    -0.126 C  
HETATM    2  C   UNL     1      -7.696   8.006  70.132  1.00  0.00    -0.087 C  
HETATM    3  O   UNL     1      -8.445   9.150  68.147  1.00  0.00    -0.123 OA 
HETATM    4  F   UNL     1      -6.574   7.244  70.232  1.00  0.00    -0.042 F  
ENDROOT
BRANCH   2   5
HETATM    5  C   UNL     1      -8.752   7.494  71.117  1.00  0.00    -0.136 C  
HETATM    6  O   UNL     1      -8.493   7.951  72.463  1.00  0.00    -0.119 OA 
HETATM    7  H   UNL     1      -9.148   7.634  73.074  1.00  0.00     0.000 HD 
BRANCH   5   8
HETATM    8  C   UNL     1     -10.226   7.852  70.821  1.00  0.00    -0.194 C  
HETATM    9  O   UNL     1     -10.669   8.687  71.925  1.00  0.00    -0.292 OA 
HETATM   10  H   UNL     1     -11.575   8.907  71.743  1.00  0.00     0.000 HD 
BRANCH   8  11
HETATM   11  C   UNL     1     -11.230   6.689  70.642  1.00  0.00    -0.317 C  
HETATM   12  H   UNL     1     -11.908   5.631  69.133  1.00  0.00     0.000 HD 
HETATM   13  O   UNL     1     -11.291   6.346  69.243  1.00  0.00    -0.379 OA 
BRANCH  11  14
HETATM   14  C   UNL     1     -12.664   6.975  71.115  1.00  0.00    -0.309 C  
HETATM   15  O   UNL     1     -12.889   6.475  72.434  1.00  0.00    -0.536 OA 
HETATM   16  H   UNL     1     -13.776   6.652  72.726  1.00  0.00     0.000 HD 
ENDBRANCH  11  14
ENDBRANCH   8  11
ENDBRANCH   5   8
ENDBRANCH   2   5
TORSDOF 4
ENDMDL
MODEL      295
REMARK 921   NORMALIZED FREE ENERGY PREDICTED BY IDOCK:   -2.25 KCAL/MOL
REMARK 922        TOTAL FREE ENERGY PREDICTED BY IDOCK:   -3.01 KCAL/MOL
REMARK 923 INTER-LIGAND FREE ENERGY PREDICTED BY IDOCK:   -2.92 KCAL/MOL
REMARK 924 INTRA-LIGAND FREE ENERGY PREDICTED BY IDOCK:   -0.09 KCAL/MOL
REMARK 927      BINDING AFFINITY PREDICTED BY RF-SCORE:    0.00 PKD
ROOT
HETATM    1  C   UNL     1      -5.155  17.116  70.351  1.00  0.00    -0.232 C  
HETATM    2  C   UNL     1      -6.443  17.118  69.563  1.00  0.00    -0.210 C  
HETATM    3  O   UNL     1      -5.127  17.159  71.583  1.00  0.00    -0.415 OA 
HETATM    4  F   UNL     1      -6.498  16.091  68.674  1.00  0.00    -0.110 F  
ENDROOT
BRANCH   2   5
HETATM    5  C   UNL     1      -6.694  18.442  68.834  1.00  0.00    -0.258 C  
HETATM    6  O   UNL     1      -5.491  19.236  68.739  1.00  0.00    -0.193 OA 
HETATM    7  H   UNL     1      -5.646  20.057  68.286  1.00  0.00     0.000 HD 
BRANCH   5   8
HETATM    8  C   UNL     1      -7.266  18.361  67.400  1.00  0.00    -0.205 C  
HETATM    9  O   UNL     1      -6.183  18.746  66.511  1.00  0.00    -0.173 OA 
HETATM   10  H   UNL     1      -6.534  18.696  65.630  1.00  0.00     0.000 HD 
BRANCH   8  11
HETATM   11  C   UNL     1      -8.510  19.218  67.069  1.00  0.00    -0.284 C  
HETATM   12  H   UNL     1      -9.797  19.322  65.590  1.00  0.00     0.000 HD 
HETATM   13  O   UNL     1      -9.033  18.796  65.793  1.00  0.00    -0.397 OA 
BRANCH  11  14
HETATM   14  C   UNL     1      -8.268  20.734  66.995  1.00  0.00    -0.109 C  
HETATM   15  O   UNL     1      -6.897  21.056  67.233  1.00  0.00    -0.334 OA 
HETATM   16  H   UNL     1      -6.748  21.994  67.187  1.00  0.00     0.000 HD 
ENDBRANCH  11  14
ENDBRANCH   8  11
ENDBRANCH   5   8
ENDBRANCH   2   5
TORSDOF 4
ENDMDL
MODEL      296
REMARK 921   NORMALIZED FREE ENERGY PREDICTED BY IDOCK:   -2.21 KCAL/MOL
REMARK 922        TOTAL FREE ENERGY PREDICTED BY IDOCK:   -2.97 KCAL/MOL
REMARK 923 INTER-LIGAND FREE ENERGY PREDICTED BY IDOCK:   -2.47 KCAL/MOL
REMARK 924 INTRA-LIGAND FREE ENERGY PREDICTED BY IDOCK:   -0.50 KCAL/MOL
REMARK 927      BINDING AFFINITY PREDICTED BY RF-SCORE:    0.00 PKD
ROOT
HETATM    1  C   UNL     1      -7.270  10.825  68.186  1.00  0.00    -0.083 C  
HETATM    2  C   UNL     1      -8.730  10.501  68.396  1.00  0.00    -0.137 C  
HETATM    3  O   UNL     1      -6.883  11.638  67.344  1.00  0.00    -0.093 OA 
HETATM    4  F   UNL     1      -9.097  10.624  69.699  1.00  0.00    -0.165 F  
ENDROOT
BRANCH   2   5
HETATM    5  C   UNL     1      -9.110   9.107  67.885  1.00  0.00    -0.127 C  
HETATM    6  O   UNL     1      -8.193   8.641  66.871  1.00  0.00    -0.104 OA 
HETATM    7  H   UNL     1      -8.428   7.776  66.555  1.00  0.00     0.000 HD 
BRANCH   5   8
HETATM    8  C   UNL     1      -9.203   7.972  68.931  1.00  0.00    -0.147 C  
HETATM    9  O   UNL     1      -8.618   6.798  68.305  1.00  0.00    -0.124 OA 
HETATM   10  H   UNL     1      -8.675   6.101  68.948  1.00  0.00     0.000 HD 
BRANCH   8  11
HETATM   11  C   UNL     1     -10.602   7.603  69.474  1.00  0.00    -0.227 C  
HETATM   12  H   UNL     1     -11.361   7.158  71.230  1.00  0.00     0.000 HD 
HETATM   13  O   UNL     1     -10.501   7.385  70.896  1.00  0.00    -0.215 OA 
BRANCH  11  14
HETATM   14  C   UNL     1     -11.241   6.350  68.855  1.00  0.00    -0.307 C  
HETATM   15  O   UNL     1     -11.467   6.515  67.455  1.00  0.00    -0.740 OA 
HETATM   16  H   UNL     1     -11.862   5.740  67.072  1.00  0.00     0.000 HD 
ENDBRANCH  11  14
ENDBRANCH   8  11
ENDBRANCH   5   8
ENDBRANCH   2   5
TORSDOF 4
ENDMDL
MODEL      297
REMARK 921   NORMALIZED FREE ENERGY PREDICTED BY IDOCK:   -2.20 KCAL/MOL
REMARK 922        TOTAL FREE ENERGY PREDICTED BY IDOCK:   -2.95 KCAL/MOL
REMARK 923 INTER-LIGAND FREE ENERGY PREDICTED BY IDOCK:   -2.93 KCAL/MOL
REMARK 924 INTRA-LIGAND FREE ENERGY PREDICTED BY IDOCK:   -0.02 KCAL/MOL
REMARK 927      BINDING AFFINITY PREDICTED BY RF-SCORE:    0.00 PKD
ROOT
HETATM    1  C   UNL     1     -10.105   7.992  72.700  1.00  0.00    -0.301 C  
HETATM    2  C   UNL     1      -9.948   7.337  71.348  1.00  0.00    -0.187 C  
HETATM    3  O   UNL     1     -10.359   7.355  73.724  1.00  0.00    -0.348 OA 
HETATM    4  F   UNL     1      -8.782   7.688  70.744  1.00  0.00    -0.132 F  
ENDROOT
BRANCH   2   5
HETATM    5  C   UNL     1     -11.122   7.626  70.406  1.00  0.00    -0.258 C  
HETATM    6  O   UNL     1     -12.289   8.075  71.129  1.00  0.00    -0.385 OA 
HETATM    7  H   UNL     1     -13.017   8.254  70.545  1.00  0.00     0.000 HD 
BRANCH   5   8
HETATM    8  C   UNL     1     -10.889   8.663  69.284  1.00  0.00    -0.065 C  
HETATM    9  O   UNL     1      -9.844   8.113  68.437  1.00  0.00    -0.162 OA 
HETATM   10  H   UNL     1      -9.700   8.751  67.748  1.00  0.00     0.000 HD 
BRANCH   8  11
HETATM   11  C   UNL     1     -10.490  10.098  69.699  1.00  0.00    -0.252 C  
HETATM   12  H   UNL     1     -11.428  11.805  69.948  1.00  0.00     0.000 HD 
HETATM   13  O   UNL     1     -11.673  10.924  69.693  1.00  0.00    -0.275 OA 
BRANCH  11  14
HETATM   14  C   UNL     1      -9.442  10.778  68.804  1.00  0.00    -0.182 C  
HETATM   15  O   UNL     1      -9.666  12.185  68.714  1.00  0.00    -0.381 OA 
HETATM   16  H   UNL     1      -9.018  12.606  68.160  1.00  0.00     0.000 HD 
ENDBRANCH  11  14
ENDBRANCH   8  11
ENDBRANCH   5   8
ENDBRANCH   2   5
TORSDOF 4
ENDMDL
MODEL      298
REMARK 921   NORMALIZED FREE ENERGY PREDICTED BY IDOCK:   -2.18 KCAL/MOL
REMARK 922        TOTAL FREE ENERGY PREDICTED BY IDOCK:   -2.93 KCAL/MOL
REMARK 923 INTER-LIGAND FREE ENERGY PREDICTED BY IDOCK:   -2.71 KCAL/MOL
REMARK 924 INTRA-LIGAND FREE ENERGY PREDICTED BY IDOCK:   -0.22 KCAL/MOL
REMARK 927      BINDING AFFINITY PREDICTED BY RF-SCORE:    0.00 PKD
ROOT
HETATM    1  C   UNL     1     -10.969  10.973  67.115  1.00  0.00    -0.283 C  
HETATM    2  C   UNL     1     -10.035   9.903  66.602  1.00  0.00    -0.217 C  
HETATM    3  O   UNL     1     -10.626  11.812  67.950  1.00  0.00    -0.191 OA 
HETATM    4  F   UNL     1      -9.987   9.877  65.243  1.00  0.00    -0.343 F  
ENDROOT
BRANCH   2   5
HETATM    5  C   UNL     1     -10.381   8.506  67.130  1.00  0.00    -0.307 C  
HETATM    6  O   UNL     1      -9.656   7.475  66.426  1.00  0.00    -0.284 OA 
HETATM    7  H   UNL     1      -9.870   6.609  66.753  1.00  0.00     0.000 HD 
BRANCH   5   8
HETATM    8  C   UNL     1     -10.147   8.242  68.634  1.00  0.00    -0.197 C  
HETATM    9  O   UNL     1      -8.802   8.712  68.922  1.00  0.00    -0.136 OA 
HETATM   10  H   UNL     1      -8.659   8.550  69.847  1.00  0.00     0.000 HD 
BRANCH   8  11
HETATM   11  C   UNL     1     -10.286   6.789  69.143  1.00  0.00    -0.194 C  
HETATM   12  H   UNL     1     -11.341   5.873  70.523  1.00  0.00     0.000 HD 
HETATM   13  O   UNL     1     -11.255   6.766  70.211  1.00  0.00    -0.287 OA 
BRANCH  11  14
HETATM   14  C   UNL     1      -8.994   6.147  69.672  1.00  0.00    -0.134 C  
HETATM   15  O   UNL     1      -9.269   5.172  70.679  1.00  0.00    -0.139 OA 
HETATM   16  H   UNL     1      -8.470   4.776  71.006  1.00  0.00     0.000 HD 
ENDBRANCH  11  14
ENDBRANCH   8  11
ENDBRANCH   5   8
ENDBRANCH   2   5
TORSDOF 4
ENDMDL
MODEL      299
REMARK 921   NORMALIZED FREE ENERGY PREDICTED BY IDOCK:   -2.18 KCAL/MOL
REMARK 922        TOTAL FREE ENERGY PREDICTED BY IDOCK:   -2.93 KCAL/MOL
REMARK 923 INTER-LIGAND FREE ENERGY PREDICTED BY IDOCK:   -2.74 KCAL/MOL
REMARK 924 INTRA-LIGAND FREE ENERGY PREDICTED BY IDOCK:   -0.18 KCAL/MOL
REMARK 927      BINDING AFFINITY PREDICTED BY RF-SCORE:    0.00 PKD
ROOT
HETATM    1  C   UNL     1     -11.079   6.427  69.543  1.00  0.00    -0.396 C  
HETATM    2  C   UNL     1     -10.089   7.479  69.103  1.00  0.00    -0.192 C  
HETATM    3  O   UNL     1     -10.733   5.348  70.027  1.00  0.00    -0.308 OA 
HETATM    4  F   UNL     1     -10.358   8.694  69.651  1.00  0.00    -0.193 F  
ENDROOT
BRANCH   2   5
HETATM    5  C   UNL     1      -9.999   7.612  67.578  1.00  0.00    -0.178 C  
HETATM    6  O   UNL     1     -11.261   7.317  66.941  1.00  0.00    -0.543 OA 
HETATM    7  H   UNL     1     -11.206   7.400  65.996  1.00  0.00     0.000 HD 
BRANCH   5   8
HETATM    8  C   UNL     1      -9.544   8.977  67.014  1.00  0.00    -0.176 C  
HETATM    9  O   UNL     1     -10.137   9.085  65.691  1.00  0.00    -0.405 OA 
HETATM   10  H   UNL     1      -9.858   9.924  65.345  1.00  0.00     0.000 HD 
BRANCH   8  11
HETATM   11  C   UNL     1      -8.026   9.243  66.902  1.00  0.00    -0.105 C  
HETATM   12  H   UNL     1      -6.843  10.142  65.618  1.00  0.00     0.000 HD 
HETATM   13  O   UNL     1      -7.776   9.978  65.686  1.00  0.00    -0.123 OA 
BRANCH  11  14
HETATM   14  C   UNL     1      -7.135   7.991  66.881  1.00  0.00    -0.081 C  
HETATM   15  O   UNL     1      -6.249   7.999  65.761  1.00  0.00    -0.041 OA 
HETATM   16  H   UNL     1      -5.698   7.225  65.748  1.00  0.00     0.000 HD 
ENDBRANCH  11  14
ENDBRANCH   8  11
ENDBRANCH   5   8
ENDBRANCH   2   5
TORSDOF 4
ENDMDL
MODEL      300
REMARK 921   NORMALIZED FREE ENERGY PREDICTED BY IDOCK:   -2.18 KCAL/MOL
REMARK 922        TOTAL FREE ENERGY PREDICTED BY IDOCK:   -2.92 KCAL/MOL
REMARK 923 INTER-LIGAND FREE ENERGY PREDICTED BY IDOCK:   -3.28 KCAL/MOL
REMARK 924 INTRA-LIGAND FREE ENERGY PREDICTED BY IDOCK:    0.36 KCAL/MOL
REMARK 927      BINDING AFFINITY PREDICTED BY RF-SCORE:    0.00 PKD
ROOT
HETATM    1  C   UNL     1     -11.711   6.001  72.128  1.00  0.00    -0.279 C  
HETATM    2  C   UNL     1     -12.491   7.279  71.931  1.00  0.00    -0.303 C  
HETATM    3  O   UNL     1     -11.146   5.722  73.187  1.00  0.00    -0.267 OA 
HETATM    4  F   UNL     1     -13.746   7.043  71.463  1.00  0.00    -0.418 F  
ENDROOT
BRANCH   2   5
HETATM    5  C   UNL     1     -11.779   8.277  71.012  1.00  0.00    -0.270 C  
HETATM    6  O   UNL     1     -10.944   9.189  71.759  1.00  0.00    -0.353 OA 
HETATM    7  H   UNL     1     -10.502   9.808  71.189  1.00  0.00     0.000 HD 
BRANCH   5   8
HETATM    8  C   UNL     1     -10.883   7.694  69.896  1.00  0.00    -0.235 C  
HETATM    9  O   UNL     1     -11.671   6.661  69.245  1.00  0.00    -0.645 OA 
HETATM   10  H   UNL     1     -11.120   6.302  68.558  1.00  0.00     0.000 HD 
BRANCH   8  11
HETATM   11  C   UNL     1      -9.517   7.095  70.305  1.00  0.00    -0.162 C  
HETATM   12  H   UNL     1      -7.710   7.795  70.623  1.00  0.00     0.000 HD 
HETATM   13  O   UNL     1      -8.549   8.163  70.372  1.00  0.00    -0.126 OA 
BRANCH  11  14
HETATM   14  C   UNL     1      -8.959   6.018  69.362  1.00  0.00    -0.126 C  
HETATM   15  O   UNL     1      -7.700   6.407  68.811  1.00  0.00    -0.097 OA 
HETATM   16  H   UNL     1      -7.354   5.741  68.228  1.00  0.00     0.000 HD 
ENDBRANCH  11  14
ENDBRANCH   8  11
ENDBRANCH   5   8
ENDBRANCH   2   5
TORSDOF 4
ENDMDL
MODEL      301
REMARK 921   NORMALIZED FREE ENERGY PREDICTED BY IDOCK:   -2.16 KCAL/MOL
REMARK 922        TOTAL FREE ENERGY PREDICTED BY IDOCK:   -2.90 KCAL/MOL
REMARK 923 INTER-LIGAND FREE ENERGY PREDICTED BY IDOCK:   -2.49 KCAL/MOL
REMARK 924 INTRA-LIGAND FREE ENERGY PREDICTED BY IDOCK:   -0.41 KCAL/MOL
REMARK 927      BINDING AFFINITY PREDICTED BY RF-SCORE:    0.00 PKD
ROOT
HETATM    1  C   UNL     1      -7.602  10.796  68.477  1.00  0.00    -0.104 C  
HETATM    2  C   UNL     1      -8.056  12.088  67.840  1.00  0.00    -0.150 C  
HETATM    3  O   UNL     1      -8.107   9.706  68.204  1.00  0.00    -0.104 OA 
HETATM    4  F   UNL     1      -7.018  12.786  67.307  1.00  0.00    -0.139 F  
ENDROOT
BRANCH   2   5
HETATM    5  C   UNL     1      -8.837  12.987  68.806  1.00  0.00     0.179 C  
HETATM    6  O   UNL     1      -8.280  14.319  68.863  1.00  0.00    -0.240 OA 
HETATM    7  H   UNL     1      -8.764  14.876  69.462  1.00  0.00     0.000 HD 
BRANCH   5   8
HETATM    8  C   UNL     1     -10.348  13.167  68.538  1.00  0.00    -0.238 C  
HETATM    9  O   UNL     1     -10.832  14.084  69.557  1.00  0.00    -0.408 OA 
HETATM   10  H   UNL     1     -11.761  14.195  69.392  1.00  0.00     0.000 HD 
BRANCH   8  11
HETATM   11  C   UNL     1     -11.238  11.903  68.543  1.00  0.00    -0.256 C  
HETATM   12  H   UNL     1     -12.405  10.995  67.250  1.00  0.00     0.000 HD 
HETATM   13  O   UNL     1     -11.858  11.772  67.247  1.00  0.00    -0.596 OA 
BRANCH  11  14
HETATM   14  C   UNL     1     -12.355  11.884  69.598  1.00  0.00    -0.048 C  
HETATM   15  O   UNL     1     -11.824  11.773  70.919  1.00  0.00    -0.388 OA 
HETATM   16  H   UNL     1     -12.515  11.761  71.572  1.00  0.00     0.000 HD 
ENDBRANCH  11  14
ENDBRANCH   8  11
ENDBRANCH   5   8
ENDBRANCH   2   5
TORSDOF 4
ENDMDL
MODEL      302
REMARK 921   NORMALIZED FREE ENERGY PREDICTED BY IDOCK:   -2.14 KCAL/MOL
REMARK 922        TOTAL FREE ENERGY PREDICTED BY IDOCK:   -2.88 KCAL/MOL
REMARK 923 INTER-LIGAND FREE ENERGY PREDICTED BY IDOCK:   -2.41 KCAL/MOL
REMARK 924 INTRA-LIGAND FREE ENERGY PREDICTED BY IDOCK:   -0.47 KCAL/MOL
REMARK 927      BINDING AFFINITY PREDICTED BY RF-SCORE:    0.00 PKD
ROOT
HETATM    1  C   UNL     1      -9.827   3.682  64.559  1.00  0.00    -0.185 C  
HETATM    2  C   UNL     1      -9.449   4.095  65.962  1.00  0.00    -0.180 C  
HETATM    3  O   UNL     1      -9.008   3.612  63.641  1.00  0.00    -0.095 OA 
HETATM    4  F   UNL     1      -9.876   3.198  66.890  1.00  0.00    -0.154 F  
ENDROOT
BRANCH   2   5
HETATM    5  C   UNL     1      -9.957   5.494  66.328  1.00  0.00    -0.140 C  
HETATM    6  O   UNL     1     -11.365   5.643  66.044  1.00  0.00    -0.712 OA 
HETATM    7  H   UNL     1     -11.680   6.510  66.271  1.00  0.00     0.000 HD 
BRANCH   5   8
HETATM    8  C   UNL     1      -9.765   5.954  67.791  1.00  0.00    -0.118 C  
HETATM    9  O   UNL     1      -8.399   5.610  68.147  1.00  0.00    -0.100 OA 
HETATM   10  H   UNL     1      -8.281   5.893  69.046  1.00  0.00     0.000 HD 
BRANCH   8  11
HETATM   11  C   UNL     1     -10.719   5.375  68.861  1.00  0.00    -0.058 C  
HETATM   12  H   UNL     1     -12.291   6.019  69.846  1.00  0.00     0.000 HD 
HETATM   13  O   UNL     1     -11.705   6.376  69.189  1.00  0.00    -0.217 OA 
BRANCH  11  14
HETATM   14  C   UNL     1     -10.051   4.932  70.172  1.00  0.00    -0.261 C  
HETATM   15  O   UNL     1      -9.547   3.598  70.077  1.00  0.00    -0.188 OA 
HETATM   16  H   UNL     1      -9.134   3.325  70.888  1.00  0.00     0.000 HD 
ENDBRANCH  11  14
ENDBRANCH   8  11
ENDBRANCH   5   8
ENDBRANCH   2   5
TORSDOF 4
ENDMDL
MODEL      303
REMARK 921   NORMALIZED FREE ENERGY PREDICTED BY IDOCK:   -2.12 KCAL/MOL
REMARK 922        TOTAL FREE ENERGY PREDICTED BY IDOCK:   -2.85 KCAL/MOL
REMARK 923 INTER-LIGAND FREE ENERGY PREDICTED BY IDOCK:   -2.46 KCAL/MOL
REMARK 924 INTRA-LIGAND FREE ENERGY PREDICTED BY IDOCK:   -0.39 KCAL/MOL
REMARK 927      BINDING AFFINITY PREDICTED BY RF-SCORE:    0.00 PKD
ROOT
HETATM    1  C   UNL     1     -10.153   6.603  72.833  1.00  0.00    -0.182 C  
HETATM    2  C   UNL     1     -10.368   7.794  71.929  1.00  0.00    -0.207 C  
HETATM    3  O   UNL     1      -9.080   6.378  73.395  1.00  0.00    -0.128 OA 
HETATM    4  F   UNL     1     -11.465   8.513  72.285  1.00  0.00    -0.368 F  
ENDROOT
BRANCH   2   5
HETATM    5  C   UNL     1     -10.463   7.411  70.449  1.00  0.00    -0.221 C  
HETATM    6  O   UNL     1     -11.704   7.858  69.860  1.00  0.00    -0.452 OA 
HETATM    7  H   UNL     1     -11.764   7.620  68.942  1.00  0.00     0.000 HD 
BRANCH   5   8
HETATM    8  C   UNL     1      -9.341   7.916  69.514  1.00  0.00    -0.156 C  
HETATM    9  O   UNL     1      -9.470   9.363  69.474  1.00  0.00    -0.162 OA 
HETATM   10  H   UNL     1      -8.780   9.673  68.899  1.00  0.00     0.000 HD 
BRANCH   8  11
HETATM   11  C   UNL     1      -9.311   7.378  68.065  1.00  0.00    -0.135 C  
HETATM   12  H   UNL     1     -10.378   7.648  66.439  1.00  0.00     0.000 HD 
HETATM   13  O   UNL     1     -10.397   7.978  67.329  1.00  0.00    -0.245 OA 
BRANCH  11  14
HETATM   14  C   UNL     1      -9.439   5.853  67.923  1.00  0.00    -0.110 C  
HETATM   15  O   UNL     1      -8.389   5.174  68.614  1.00  0.00    -0.089 OA 
HETATM   16  H   UNL     1      -8.468   4.231  68.525  1.00  0.00     0.000 HD 
ENDBRANCH  11  14
ENDBRANCH   8  11
ENDBRANCH   5   8
ENDBRANCH   2   5
TORSDOF 4
ENDMDL
MODEL      304
REMARK 921   NORMALIZED FREE ENERGY PREDICTED BY IDOCK:   -2.09 KCAL/MOL
REMARK 922        TOTAL FREE ENERGY PREDICTED BY IDOCK:   -2.81 KCAL/MOL
REMARK 923 INTER-LIGAND FREE ENERGY PREDICTED BY IDOCK:   -2.55 KCAL/MOL
REMARK 924 INTRA-LIGAND FREE ENERGY PREDICTED BY IDOCK:   -0.26 KCAL/MOL
REMARK 927      BINDING AFFINITY PREDICTED BY RF-SCORE:    0.00 PKD
ROOT
HETATM    1  C   UNL     1      -9.705   8.336  67.951  1.00  0.00    -0.161 C  
HETATM    2  C   UNL     1      -9.432   9.350  69.036  1.00  0.00    -0.160 C  
HETATM    3  O   UNL     1     -10.660   8.428  67.177  1.00  0.00    -0.311 OA 
HETATM    4  F   UNL     1      -8.156   9.817  68.989  1.00  0.00    -0.085 F  
ENDROOT
BRANCH   2   5
HETATM    5  C   UNL     1      -9.732   8.815  70.441  1.00  0.00    -0.180 C  
HETATM    6  O   UNL     1     -10.514   9.752  71.213  1.00  0.00    -0.250 OA 
HETATM    7  H   UNL     1     -10.700   9.420  72.084  1.00  0.00     0.000 HD 
BRANCH   5   8
HETATM    8  C   UNL     1     -10.469   7.460  70.538  1.00  0.00    -0.218 C  
HETATM    9  O   UNL     1     -11.810   7.693  70.027  1.00  0.00    -0.473 OA 
HETATM   10  H   UNL     1     -12.263   6.860  70.087  1.00  0.00     0.000 HD 
BRANCH   8  11
HETATM   11  C   UNL     1     -10.575   6.794  71.929  1.00  0.00    -0.209 C  
HETATM   12  H   UNL     1      -9.577   6.888  73.617  1.00  0.00     0.000 HD 
HETATM   13  O   UNL     1      -9.511   7.298  72.763  1.00  0.00    -0.141 OA 
BRANCH  11  14
HETATM   14  C   UNL     1     -10.486   5.260  71.936  1.00  0.00    -0.219 C  
HETATM   15  O   UNL     1      -9.471   4.791  71.047  1.00  0.00    -0.146 OA 
HETATM   16  H   UNL     1      -9.416   3.843  71.052  1.00  0.00     0.000 HD 
ENDBRANCH  11  14
ENDBRANCH   8  11
ENDBRANCH   5   8
ENDBRANCH   2   5
TORSDOF 4
ENDMDL
MODEL      305
REMARK 921   NORMALIZED FREE ENERGY PREDICTED BY IDOCK:   -2.08 KCAL/MOL
REMARK 922        TOTAL FREE ENERGY PREDICTED BY IDOCK:   -2.81 KCAL/MOL
REMARK 923 INTER-LIGAND FREE ENERGY PREDICTED BY IDOCK:   -2.34 KCAL/MOL
REMARK 924 INTRA-LIGAND FREE ENERGY PREDICTED BY IDOCK:   -0.46 KCAL/MOL
REMARK 927      BINDING AFFINITY PREDICTED BY RF-SCORE:    0.00 PKD
ROOT
HETATM    1  C   UNL     1      -8.893   7.671  67.903  1.00  0.00    -0.126 C  
HETATM    2  C   UNL     1      -9.543   7.117  66.657  1.00  0.00    -0.170 C  
HETATM    3  O   UNL     1      -8.172   8.670  67.890  1.00  0.00    -0.113 OA 
HETATM    4  F   UNL     1     -10.882   6.946  66.814  1.00  0.00    -0.368 F  
ENDROOT
BRANCH   2   5
HETATM    5  C   UNL     1      -8.909   5.804  66.186  1.00  0.00    -0.145 C  
HETATM    6  O   UNL     1      -7.632   5.570  66.820  1.00  0.00    -0.086 OA 
HETATM    7  H   UNL     1      -7.239   4.756  66.528  1.00  0.00     0.000 HD 
BRANCH   5   8
HETATM    8  C   UNL     1      -9.730   4.510  66.390  1.00  0.00    -0.208 C  
HETATM    9  O   UNL     1      -9.550   4.134  67.783  1.00  0.00    -0.171 OA 
HETATM   10  H   UNL     1     -10.055   3.339  67.908  1.00  0.00     0.000 HD 
BRANCH   8  11
HETATM   11  C   UNL     1      -9.395   3.293  65.498  1.00  0.00    -0.134 C  
HETATM   12  H   UNL     1      -7.755   2.449  64.824  1.00  0.00     0.000 HD 
HETATM   13  O   UNL     1      -7.961   3.197  65.372  1.00  0.00    -0.084 OA 
BRANCH  11  14
HETATM   14  C   UNL     1      -9.985   3.330  64.080  1.00  0.00    -0.178 C  
HETATM   15  O   UNL     1     -11.377   3.010  64.085  1.00  0.00    -0.561 OA 
HETATM   16  H   UNL     1     -11.742   3.033  63.208  1.00  0.00     0.000 HD 
ENDBRANCH  11  14
ENDBRANCH   8  11
ENDBRANCH   5   8
ENDBRANCH   2   5
TORSDOF 4
ENDMDL
MODEL      306
REMARK 921   NORMALIZED FREE ENERGY PREDICTED BY IDOCK:   -2.08 KCAL/MOL
REMARK 922        TOTAL FREE ENERGY PREDICTED BY IDOCK:   -2.80 KCAL/MOL
REMARK 923 INTER-LIGAND FREE ENERGY PREDICTED BY IDOCK:   -2.43 KCAL/MOL
REMARK 924 INTRA-LIGAND FREE ENERGY PREDICTED BY IDOCK:   -0.37 KCAL/MOL
REMARK 927      BINDING AFFINITY PREDICTED BY RF-SCORE:    0.00 PKD
ROOT
HETATM    1  C   UNL     1      -8.105  11.572  67.793  1.00  0.00    -0.133 C  
HETATM    2  C   UNL     1      -9.516  11.268  68.236  1.00  0.00    -0.190 C  
HETATM    3  O   UNL     1      -7.619  11.115  66.757  1.00  0.00    -0.134 OA 
HETATM    4  F   UNL     1     -10.220  12.399  68.507  1.00  0.00    -0.213 F  
ENDROOT
BRANCH   2   5
HETATM    5  C   UNL     1      -9.572  10.327  69.445  1.00  0.00    -0.218 C  
HETATM    6  O   UNL     1     -10.665  10.658  70.329  1.00  0.00    -0.453 OA 
HETATM    7  H   UNL     1     -10.699  10.075  71.079  1.00  0.00     0.000 HD 
BRANCH   5   8
HETATM    8  C   UNL     1      -9.698   8.814  69.157  1.00  0.00    -0.175 C  
HETATM    9  O   UNL     1     -11.101   8.575  68.862  1.00  0.00    -0.433 OA 
HETATM   10  H   UNL     1     -11.178   7.645  68.684  1.00  0.00     0.000 HD 
BRANCH   8  11
HETATM   11  C   UNL     1      -9.247   7.829  70.260  1.00  0.00    -0.156 C  
HETATM   12  H   UNL     1      -9.963   7.218  71.983  1.00  0.00     0.000 HD 
HETATM   13  O   UNL     1     -10.240   7.823  71.306  1.00  0.00    -0.193 OA 
BRANCH  11  14
HETATM   14  C   UNL     1      -7.889   8.139  70.908  1.00  0.00    -0.091 C  
HETATM   15  O   UNL     1      -6.863   8.293  69.926  1.00  0.00    -0.042 OA 
HETATM   16  H   UNL     1      -6.023   8.485  70.327  1.00  0.00     0.000 HD 
ENDBRANCH  11  14
ENDBRANCH   8  11
ENDBRANCH   5   8
ENDBRANCH   2   5
TORSDOF 4
ENDMDL
MODEL      307
REMARK 921   NORMALIZED FREE ENERGY PREDICTED BY IDOCK:   -2.07 KCAL/MOL
REMARK 922        TOTAL FREE ENERGY PREDICTED BY IDOCK:   -2.78 KCAL/MOL
REMARK 923 INTER-LIGAND FREE ENERGY PREDICTED BY IDOCK:   -2.42 KCAL/MOL
REMARK 924 INTRA-LIGAND FREE ENERGY PREDICTED BY IDOCK:   -0.36 KCAL/MOL
REMARK 927      BINDING AFFINITY PREDICTED BY RF-SCORE:    0.00 PKD
ROOT
HETATM    1  C   UNL     1     -10.831  10.882  66.949  1.00  0.00    -0.249 C  
HETATM    2  C   UNL     1      -9.627   9.983  66.801  1.00  0.00    -0.181 C  
HETATM    3  O   UNL     1     -10.738  12.106  67.065  1.00  0.00    -0.226 OA 
HETATM    4  F   UNL     1      -9.733   9.162  65.722  1.00  0.00    -0.302 F  
ENDROOT
BRANCH   2   5
HETATM    5  C   UNL     1      -9.348   9.148  68.055  1.00  0.00    -0.137 C  
HETATM    6  O   UNL     1      -9.488   9.932  69.260  1.00  0.00    -0.184 OA 
HETATM    7  H   UNL     1      -9.315   9.415  70.038  1.00  0.00     0.000 HD 
BRANCH   5   8
HETATM    8  C   UNL     1     -10.208   7.882  68.267  1.00  0.00    -0.203 C  
HETATM    9  O   UNL     1     -11.220   8.241  69.247  1.00  0.00    -0.431 OA 
HETATM   10  H   UNL     1     -11.749   7.462  69.377  1.00  0.00     0.000 HD 
BRANCH   8  11
HETATM   11  C   UNL     1      -9.495   6.593  68.736  1.00  0.00    -0.129 C  
HETATM   12  H   UNL     1      -8.696   5.955  70.413  1.00  0.00     0.000 HD 
HETATM   13  O   UNL     1      -9.134   6.747  70.124  1.00  0.00    -0.154 OA 
BRANCH  11  14
HETATM   14  C   UNL     1      -8.220   6.224  67.962  1.00  0.00    -0.115 C  
HETATM   15  O   UNL     1      -8.527   5.556  66.737  1.00  0.00    -0.111 OA 
HETATM   16  H   UNL     1      -7.739   5.327  66.259  1.00  0.00     0.000 HD 
ENDBRANCH  11  14
ENDBRANCH   8  11
ENDBRANCH   5   8
ENDBRANCH   2   5
TORSDOF 4
ENDMDL
MODEL      308
REMARK 921   NORMALIZED FREE ENERGY PREDICTED BY IDOCK:   -2.06 KCAL/MOL
REMARK 922        TOTAL FREE ENERGY PREDICTED BY IDOCK:   -2.78 KCAL/MOL
REMARK 923 INTER-LIGAND FREE ENERGY PREDICTED BY IDOCK:   -2.53 KCAL/MOL
REMARK 924 INTRA-LIGAND FREE ENERGY PREDICTED BY IDOCK:   -0.25 KCAL/MOL
REMARK 927      BINDING AFFINITY PREDICTED BY RF-SCORE:    0.00 PKD
ROOT
HETATM    1  C   UNL     1     -10.262   8.185  72.662  1.00  0.00    -0.318 C  
HETATM    2  C   UNL     1      -9.122   7.591  71.868  1.00  0.00    -0.129 C  
HETATM    3  O   UNL     1     -11.232   7.522  73.033  1.00  0.00    -0.361 OA 
HETATM    4  F   UNL     1      -7.914   7.857  72.433  1.00  0.00    -0.099 F  
ENDROOT
BRANCH   2   5
HETATM    5  C   UNL     1      -9.116   8.043  70.404  1.00  0.00    -0.150 C  
HETATM    6  O   UNL     1     -10.224   7.481  69.667  1.00  0.00    -0.195 OA 
HETATM    7  H   UNL     1     -10.220   7.761  68.759  1.00  0.00     0.000 HD 
BRANCH   5   8
HETATM    8  C   UNL     1      -9.151   9.564  70.135  1.00  0.00    -0.240 C  
HETATM    9  O   UNL     1     -10.240   9.783  69.197  1.00  0.00    -0.180 OA 
HETATM   10  H   UNL     1     -10.262  10.718  69.032  1.00  0.00     0.000 HD 
BRANCH   8  11
HETATM   11  C   UNL     1      -7.872  10.229  69.576  1.00  0.00    -0.168 C  
HETATM   12  H   UNL     1      -6.206  10.940  70.334  1.00  0.00     0.000 HD 
HETATM   13  O   UNL     1      -6.992  10.532  70.678  1.00  0.00    -0.300 OA 
BRANCH  11  14
HETATM   14  C   UNL     1      -8.093  11.527  68.785  1.00  0.00    -0.093 C  
HETATM   15  O   UNL     1      -7.251  12.579  69.260  1.00  0.00    -0.302 OA 
HETATM   16  H   UNL     1      -7.388  13.382  68.771  1.00  0.00     0.000 HD 
ENDBRANCH  11  14
ENDBRANCH   8  11
ENDBRANCH   5   8
ENDBRANCH   2   5
TORSDOF 4
ENDMDL
MODEL      309
REMARK 921   NORMALIZED FREE ENERGY PREDICTED BY IDOCK:   -2.04 KCAL/MOL
REMARK 922        TOTAL FREE ENERGY PREDICTED BY IDOCK:   -2.75 KCAL/MOL
REMARK 923 INTER-LIGAND FREE ENERGY PREDICTED BY IDOCK:   -2.75 KCAL/MOL
REMARK 924 INTRA-LIGAND FREE ENERGY PREDICTED BY IDOCK:    0.00 KCAL/MOL
REMARK 927      BINDING AFFINITY PREDICTED BY RF-SCORE:    0.00 PKD
ROOT
HETATM    1  C   UNL     1     -10.519   6.349  72.020  1.00  0.00    -0.208 C  
HETATM    2  C   UNL     1     -10.471   5.548  70.741  1.00  0.00    -0.260 C  
HETATM    3  O   UNL     1     -11.091   5.949  73.035  1.00  0.00    -0.263 OA 
HETATM    4  F   UNL     1      -9.200   5.404  70.277  1.00  0.00    -0.143 F  
ENDROOT
BRANCH   2   5
HETATM    5  C   UNL     1     -11.357   6.134  69.636  1.00  0.00    -0.372 C  
HETATM    6  O   UNL     1     -12.405   6.966  70.178  1.00  0.00    -0.628 OA 
HETATM    7  H   UNL     1     -12.955   7.330  69.493  1.00  0.00     0.000 HD 
BRANCH   5   8
HETATM    8  C   UNL     1     -10.660   6.981  68.546  1.00  0.00    -0.202 C  
HETATM    9  O   UNL     1      -9.950   6.039  67.696  1.00  0.00    -0.120 OA 
HETATM   10  H   UNL     1      -9.522   6.559  67.026  1.00  0.00     0.000 HD 
BRANCH   8  11
HETATM   11  C   UNL     1      -9.673   8.078  69.005  1.00  0.00    -0.159 C  
HETATM   12  H   UNL     1      -9.646  10.042  68.999  1.00  0.00     0.000 HD 
HETATM   13  O   UNL     1     -10.252   9.367  68.717  1.00  0.00    -0.190 OA 
BRANCH  11  14
HETATM   14  C   UNL     1      -8.284   8.035  68.350  1.00  0.00    -0.123 C  
HETATM   15  O   UNL     1      -7.582   9.266  68.530  1.00  0.00    -0.083 OA 
HETATM   16  H   UNL     1      -6.723   9.238  68.125  1.00  0.00     0.000 HD 
ENDBRANCH  11  14
ENDBRANCH   8  11
ENDBRANCH   5   8
ENDBRANCH   2   5
TORSDOF 4
ENDMDL
MODEL      310
REMARK 921   NORMALIZED FREE ENERGY PREDICTED BY IDOCK:   -2.03 KCAL/MOL
REMARK 922        TOTAL FREE ENERGY PREDICTED BY IDOCK:   -2.74 KCAL/MOL
REMARK 923 INTER-LIGAND FREE ENERGY PREDICTED BY IDOCK:   -2.40 KCAL/MOL
REMARK 924 INTRA-LIGAND FREE ENERGY PREDICTED BY IDOCK:   -0.33 KCAL/MOL
REMARK 927      BINDING AFFINITY PREDICTED BY RF-SCORE:    0.00 PKD
ROOT
HETATM    1  C   UNL     1     -11.345   7.070  71.256  1.00  0.00    -0.274 C  
HETATM    2  C   UNL     1     -10.250   6.360  70.495  1.00  0.00    -0.189 C  
HETATM    3  O   UNL     1     -12.541   6.840  71.072  1.00  0.00    -0.347 OA 
HETATM    4  F   UNL     1      -9.322   5.816  71.326  1.00  0.00    -0.147 F  
ENDROOT
BRANCH   2   5
HETATM    5  C   UNL     1      -9.555   7.262  69.469  1.00  0.00    -0.155 C  
HETATM    6  O   UNL     1      -9.909   6.901  68.116  1.00  0.00    -0.133 OA 
HETATM    7  H   UNL     1      -9.478   7.460  67.479  1.00  0.00     0.000 HD 
BRANCH   5   8
HETATM    8  C   UNL     1      -9.802   8.783  69.584  1.00  0.00    -0.183 C  
HETATM    9  O   UNL     1     -10.490   9.173  68.365  1.00  0.00    -0.205 OA 
HETATM   10  H   UNL     1     -10.642  10.109  68.436  1.00  0.00     0.000 HD 
BRANCH   8  11
HETATM   11  C   UNL     1      -8.574   9.701  69.779  1.00  0.00    -0.199 C  
HETATM   12  H   UNL     1      -7.295  10.614  68.600  1.00  0.00     0.000 HD 
HETATM   13  O   UNL     1      -8.050  10.050  68.481  1.00  0.00    -0.099 OA 
BRANCH  11  14
HETATM   14  C   UNL     1      -7.422   9.100  70.599  1.00  0.00    -0.124 C  
HETATM   15  O   UNL     1      -7.749   9.035  71.988  1.00  0.00    -0.348 OA 
HETATM   16  H   UNL     1      -7.036   8.663  72.496  1.00  0.00     0.000 HD 
ENDBRANCH  11  14
ENDBRANCH   8  11
ENDBRANCH   5   8
ENDBRANCH   2   5
TORSDOF 4
ENDMDL
MODEL      311
REMARK 921   NORMALIZED FREE ENERGY PREDICTED BY IDOCK:   -2.02 KCAL/MOL
REMARK 922        TOTAL FREE ENERGY PREDICTED BY IDOCK:   -2.73 KCAL/MOL
REMARK 923 INTER-LIGAND FREE ENERGY PREDICTED BY IDOCK:   -2.43 KCAL/MOL
REMARK 924 INTRA-LIGAND FREE ENERGY PREDICTED BY IDOCK:   -0.30 KCAL/MOL
REMARK 927      BINDING AFFINITY PREDICTED BY RF-SCORE:    0.00 PKD
ROOT
HETATM    1  C   UNL     1      -7.160  10.166  68.905  1.00  0.00    -0.069 C  
HETATM    2  C   UNL     1      -7.545  11.321  68.011  1.00  0.00    -0.105 C  
HETATM    3  O   UNL     1      -6.143   9.493  68.723  1.00  0.00    -0.043 OA 
HETATM    4  F   UNL     1      -7.789  12.455  68.721  1.00  0.00    -0.123 F  
ENDROOT
BRANCH   2   5
HETATM    5  C   UNL     1      -8.750  11.007  67.117  1.00  0.00    -0.135 C  
HETATM    6  O   UNL     1      -8.751   9.627  66.689  1.00  0.00    -0.132 OA 
HETATM    7  H   UNL     1      -9.498   9.433  66.134  1.00  0.00     0.000 HD 
BRANCH   5   8
HETATM    8  C   UNL     1     -10.154  11.274  67.704  1.00  0.00    -0.179 C  
HETATM    9  O   UNL     1     -10.984  10.155  67.289  1.00  0.00    -0.266 OA 
HETATM   10  H   UNL     1     -11.847  10.319  67.650  1.00  0.00     0.000 HD 
BRANCH   8  11
HETATM   11  C   UNL     1     -10.862  12.591  67.312  1.00  0.00    -0.245 C  
HETATM   12  H   UNL     1     -12.645  13.092  66.659  1.00  0.00     0.000 HD 
HETATM   13  O   UNL     1     -12.210  12.283  66.899  1.00  0.00    -0.530 OA 
BRANCH  11  14
HETATM   14  C   UNL     1     -10.198  13.386  66.177  1.00  0.00    -0.301 C  
HETATM   15  O   UNL     1     -10.736  14.706  66.080  1.00  0.00    -0.299 OA 
HETATM   16  H   UNL     1     -10.325  15.198  65.379  1.00  0.00     0.000 HD 
ENDBRANCH  11  14
ENDBRANCH   8  11
ENDBRANCH   5   8
ENDBRANCH   2   5
TORSDOF 4
ENDMDL
MODEL      312
REMARK 921   NORMALIZED FREE ENERGY PREDICTED BY IDOCK:   -1.98 KCAL/MOL
REMARK 922        TOTAL FREE ENERGY PREDICTED BY IDOCK:   -2.68 KCAL/MOL
REMARK 923 INTER-LIGAND FREE ENERGY PREDICTED BY IDOCK:   -2.10 KCAL/MOL
REMARK 924 INTRA-LIGAND FREE ENERGY PREDICTED BY IDOCK:   -0.58 KCAL/MOL
REMARK 927      BINDING AFFINITY PREDICTED BY RF-SCORE:    0.00 PKD
ROOT
HETATM    1  C   UNL     1      -6.807  11.581  67.776  1.00  0.00    -0.077 C  
HETATM    2  C   UNL     1      -8.272  11.307  67.531  1.00  0.00    -0.124 C  
HETATM    3  O   UNL     1      -6.205  12.514  67.241  1.00  0.00    -0.156 OA 
HETATM    4  F   UNL     1      -8.972  11.203  68.692  1.00  0.00    -0.151 F  
ENDROOT
BRANCH   2   5
HETATM    5  C   UNL     1      -8.510  10.058  66.675  1.00  0.00    -0.125 C  
HETATM    6  O   UNL     1      -9.828  10.059  66.084  1.00  0.00    -0.214 OA 
HETATM    7  H   UNL     1      -9.975   9.285  65.553  1.00  0.00     0.000 HD 
BRANCH   5   8
HETATM    8  C   UNL     1      -7.522   9.799  65.515  1.00  0.00    -0.115 C  
HETATM    9  O   UNL     1      -7.710  10.890  64.573  1.00  0.00    -0.344 OA 
HETATM   10  H   UNL     1      -7.102  10.730  63.860  1.00  0.00     0.000 HD 
BRANCH   8  11
HETATM   11  C   UNL     1      -7.638   8.458  64.754  1.00  0.00    -0.102 C  
HETATM   12  H   UNL     1      -6.430   6.968  64.331  1.00  0.00     0.000 HD 
HETATM   13  O   UNL     1      -6.359   7.792  64.798  1.00  0.00    -0.044 OA 
BRANCH  11  14
HETATM   14  C   UNL     1      -8.054   8.569  63.279  1.00  0.00    -0.162 C  
HETATM   15  O   UNL     1      -9.315   9.225  63.140  1.00  0.00    -0.481 OA 
HETATM   16  H   UNL     1      -9.572   9.294  62.228  1.00  0.00     0.000 HD 
ENDBRANCH  11  14
ENDBRANCH   8  11
ENDBRANCH   5   8
ENDBRANCH   2   5
TORSDOF 4
ENDMDL
MODEL      313
REMARK 921   NORMALIZED FREE ENERGY PREDICTED BY IDOCK:   -1.98 KCAL/MOL
REMARK 922        TOTAL FREE ENERGY PREDICTED BY IDOCK:   -2.67 KCAL/MOL
REMARK 923 INTER-LIGAND FREE ENERGY PREDICTED BY IDOCK:   -2.40 KCAL/MOL
REMARK 924 INTRA-LIGAND FREE ENERGY PREDICTED BY IDOCK:   -0.27 KCAL/MOL
REMARK 927      BINDING AFFINITY PREDICTED BY RF-SCORE:    0.00 PKD
ROOT
HETATM    1  C   UNL     1      -7.366  11.018  68.055  1.00  0.00    -0.088 C  
HETATM    2  C   UNL     1      -8.393  10.692  66.997  1.00  0.00    -0.126 C  
HETATM    3  O   UNL     1      -7.659  11.180  69.241  1.00  0.00    -0.121 OA 
HETATM    4  F   UNL     1      -8.047   9.595  66.272  1.00  0.00    -0.108 F  
ENDROOT
BRANCH   2   5
HETATM    5  C   UNL     1      -8.670  11.866  66.052  1.00  0.00     0.057 C  
HETATM    6  O   UNL     1      -8.857  11.422  64.690  1.00  0.00    -0.388 OA 
HETATM    7  H   UNL     1      -9.029  12.150  64.104  1.00  0.00     0.000 HD 
BRANCH   5   8
HETATM    8  C   UNL     1      -9.883  12.765  66.379  1.00  0.00    -0.269 C  
HETATM    9  O   UNL     1      -9.752  13.125  67.781  1.00  0.00    -0.205 OA 
HETATM   10  H   UNL     1     -10.498  13.679  67.983  1.00  0.00     0.000 HD 
BRANCH   8  11
HETATM   11  C   UNL     1     -11.297  12.185  66.144  1.00  0.00    -0.361 C  
HETATM   12  H   UNL     1     -12.068  10.391  65.941  1.00  0.00     0.000 HD 
HETATM   13  O   UNL     1     -11.199  10.747  66.085  1.00  0.00     0.029 OA 
BRANCH  11  14
HETATM   14  C   UNL     1     -12.001  12.658  64.863  1.00  0.00    -0.406 C  
HETATM   15  O   UNL     1     -11.609  11.877  63.733  1.00  0.00    -0.417 OA 
HETATM   16  H   UNL     1     -12.045  12.170  62.941  1.00  0.00     0.000 HD 
ENDBRANCH  11  14
ENDBRANCH   8  11
ENDBRANCH   5   8
ENDBRANCH   2   5
TORSDOF 4
ENDMDL
MODEL      314
REMARK 921   NORMALIZED FREE ENERGY PREDICTED BY IDOCK:   -1.97 KCAL/MOL
REMARK 922        TOTAL FREE ENERGY PREDICTED BY IDOCK:   -2.66 KCAL/MOL
REMARK 923 INTER-LIGAND FREE ENERGY PREDICTED BY IDOCK:   -2.39 KCAL/MOL
REMARK 924 INTRA-LIGAND FREE ENERGY PREDICTED BY IDOCK:   -0.27 KCAL/MOL
REMARK 927      BINDING AFFINITY PREDICTED BY RF-SCORE:    0.00 PKD
ROOT
HETATM    1  C   UNL     1     -10.943   7.251  69.587  1.00  0.00    -0.186 C  
HETATM    2  C   UNL     1     -11.189   8.412  70.521  1.00  0.00    -0.238 C  
HETATM    3  O   UNL     1     -11.437   6.136  69.767  1.00  0.00    -0.433 OA 
HETATM    4  F   UNL     1     -11.620   9.518  69.857  1.00  0.00    -0.228 F  
ENDROOT
BRANCH   2   5
HETATM    5  C   UNL     1      -9.962   8.768  71.367  1.00  0.00    -0.283 C  
HETATM    6  O   UNL     1     -10.215   8.587  72.777  1.00  0.00    -0.256 OA 
HETATM    7  H   UNL     1      -9.454   8.807  73.302  1.00  0.00     0.000 HD 
BRANCH   5   8
HETATM    8  C   UNL     1      -8.652   8.004  71.067  1.00  0.00    -0.133 C  
HETATM    9  O   UNL     1      -8.167   7.516  72.347  1.00  0.00    -0.098 OA 
HETATM   10  H   UNL     1      -7.362   7.047  72.163  1.00  0.00     0.000 HD 
BRANCH   8  11
HETATM   11  C   UNL     1      -7.512   8.775  70.363  1.00  0.00    -0.072 C  
HETATM   12  H   UNL     1      -6.519  10.436  70.695  1.00  0.00     0.000 HD 
HETATM   13  O   UNL     1      -7.220   9.963  71.127  1.00  0.00    -0.305 OA 
BRANCH  11  14
HETATM   14  C   UNL     1      -7.801   9.209  68.918  1.00  0.00    -0.094 C  
HETATM   15  O   UNL     1      -6.821   8.698  68.013  1.00  0.00    -0.068 OA 
HETATM   16  H   UNL     1      -7.000   8.967  67.119  1.00  0.00     0.000 HD 
ENDBRANCH  11  14
ENDBRANCH   8  11
ENDBRANCH   5   8
ENDBRANCH   2   5
TORSDOF 4
ENDMDL
MODEL      315
REMARK 921   NORMALIZED FREE ENERGY PREDICTED BY IDOCK:   -1.97 KCAL/MOL
REMARK 922        TOTAL FREE ENERGY PREDICTED BY IDOCK:   -2.66 KCAL/MOL
REMARK 923 INTER-LIGAND FREE ENERGY PREDICTED BY IDOCK:   -2.46 KCAL/MOL
REMARK 924 INTRA-LIGAND FREE ENERGY PREDICTED BY IDOCK:   -0.20 KCAL/MOL
REMARK 927      BINDING AFFINITY PREDICTED BY RF-SCORE:    0.00 PKD
ROOT
HETATM    1  C   UNL     1      -7.898   6.250  64.457  1.00  0.00    -0.115 C  
HETATM    2  C   UNL     1      -8.679   4.961  64.549  1.00  0.00    -0.148 C  
HETATM    3  O   UNL     1      -6.706   6.330  64.760  1.00  0.00    -0.037 OA 
HETATM    4  F   UNL     1      -9.319   4.668  63.386  1.00  0.00    -0.149 F  
ENDROOT
BRANCH   2   5
HETATM    5  C   UNL     1      -9.686   4.955  65.705  1.00  0.00    -0.145 C  
HETATM    6  O   UNL     1     -10.790   4.060  65.447  1.00  0.00    -0.481 OA 
HETATM    7  H   UNL     1     -11.414   4.057  66.163  1.00  0.00     0.000 HD 
BRANCH   5   8
HETATM    8  C   UNL     1      -9.151   4.580  67.106  1.00  0.00    -0.126 C  
HETATM    9  O   UNL     1      -9.911   3.416  67.529  1.00  0.00    -0.209 OA 
HETATM   10  H   UNL     1      -9.582   3.185  68.390  1.00  0.00     0.000 HD 
BRANCH   8  11
HETATM   11  C   UNL     1      -9.222   5.652  68.217  1.00  0.00    -0.110 C  
HETATM   12  H   UNL     1      -8.028   6.290  69.639  1.00  0.00     0.000 HD 
HETATM   13  O   UNL     1      -7.984   5.631  68.957  1.00  0.00    -0.094 OA 
BRANCH  11  14
HETATM   14  C   UNL     1     -10.370   5.485  69.225  1.00  0.00    -0.265 C  
HETATM   15  O   UNL     1     -11.450   6.375  68.940  1.00  0.00    -0.582 OA 
HETATM   16  H   UNL     1     -12.160   6.272  69.563  1.00  0.00     0.000 HD 
ENDBRANCH  11  14
ENDBRANCH   8  11
ENDBRANCH   5   8
ENDBRANCH   2   5
TORSDOF 4
ENDMDL
MODEL      316
REMARK 921   NORMALIZED FREE ENERGY PREDICTED BY IDOCK:   -1.95 KCAL/MOL
REMARK 922        TOTAL FREE ENERGY PREDICTED BY IDOCK:   -2.64 KCAL/MOL
REMARK 923 INTER-LIGAND FREE ENERGY PREDICTED BY IDOCK:   -2.20 KCAL/MOL
REMARK 924 INTRA-LIGAND FREE ENERGY PREDICTED BY IDOCK:   -0.45 KCAL/MOL
REMARK 927      BINDING AFFINITY PREDICTED BY RF-SCORE:    0.00 PKD
ROOT
HETATM    1  C   UNL     1      -7.447  10.761  67.966  1.00  0.00    -0.090 C  
HETATM    2  C   UNL     1      -8.633  11.558  67.477  1.00  0.00    -0.143 C  
HETATM    3  O   UNL     1      -6.620  10.260  67.202  1.00  0.00    -0.070 OA 
HETATM    4  F   UNL     1      -8.715  12.773  68.081  1.00  0.00    -0.166 F  
ENDROOT
BRANCH   2   5
HETATM    5  C   UNL     1      -9.962  10.813  67.640  1.00  0.00    -0.173 C  
HETATM    6  O   UNL     1     -10.720  10.797  66.411  1.00  0.00    -0.234 OA 
HETATM    7  H   UNL     1     -11.544  10.334  66.512  1.00  0.00     0.000 HD 
BRANCH   5   8
HETATM    8  C   UNL     1      -9.893   9.345  68.119  1.00  0.00    -0.160 C  
HETATM    9  O   UNL     1     -10.423   8.540  67.031  1.00  0.00    -0.300 OA 
HETATM   10  H   UNL     1     -10.381   7.638  67.325  1.00  0.00     0.000 HD 
BRANCH   8  11
HETATM   11  C   UNL     1     -10.640   8.974  69.421  1.00  0.00    -0.221 C  
HETATM   12  H   UNL     1     -10.872   9.787  71.194  1.00  0.00     0.000 HD 
HETATM   13  O   UNL     1     -10.413  10.015  70.394  1.00  0.00    -0.281 OA 
BRANCH  11  14
HETATM   14  C   UNL     1     -10.229   7.640  70.062  1.00  0.00    -0.213 C  
HETATM   15  O   UNL     1      -9.304   6.927  69.239  1.00  0.00    -0.145 OA 
HETATM   16  H   UNL     1      -9.050   6.102  69.636  1.00  0.00     0.000 HD 
ENDBRANCH  11  14
ENDBRANCH   8  11
ENDBRANCH   5   8
ENDBRANCH   2   5
TORSDOF 4
ENDMDL
MODEL      317
REMARK 921   NORMALIZED FREE ENERGY PREDICTED BY IDOCK:   -1.95 KCAL/MOL
REMARK 922        TOTAL FREE ENERGY PREDICTED BY IDOCK:   -2.64 KCAL/MOL
REMARK 923 INTER-LIGAND FREE ENERGY PREDICTED BY IDOCK:   -2.39 KCAL/MOL
REMARK 924 INTRA-LIGAND FREE ENERGY PREDICTED BY IDOCK:   -0.26 KCAL/MOL
REMARK 927      BINDING AFFINITY PREDICTED BY RF-SCORE:    0.00 PKD
ROOT
HETATM    1  C   UNL     1      -9.063   3.564  69.609  1.00  0.00    -0.135 C  
HETATM    2  C   UNL     1      -8.488   4.531  70.617  1.00  0.00    -0.086 C  
HETATM    3  O   UNL     1      -8.358   2.900  68.847  1.00  0.00    -0.061 OA 
HETATM    4  F   UNL     1      -8.964   4.303  71.870  1.00  0.00    -0.119 F  
ENDROOT
BRANCH   2   5
HETATM    5  C   UNL     1      -8.722   5.997  70.238  1.00  0.00    -0.143 C  
HETATM    6  O   UNL     1      -8.925   6.155  68.817  1.00  0.00    -0.124 OA 
HETATM    7  H   UNL     1      -9.070   7.064  68.582  1.00  0.00     0.000 HD 
BRANCH   5   8
HETATM    8  C   UNL     1      -9.902   6.724  70.922  1.00  0.00    -0.186 C  
HETATM    9  O   UNL     1      -9.599   6.737  72.343  1.00  0.00    -0.155 OA 
HETATM   10  H   UNL     1     -10.324   7.183  72.764  1.00  0.00     0.000 HD 
BRANCH   8  11
HETATM   11  C   UNL     1     -11.321   6.145  70.720  1.00  0.00    -0.295 C  
HETATM   12  H   UNL     1     -12.574   5.976  69.218  1.00  0.00     0.000 HD 
HETATM   13  O   UNL     1     -11.703   6.332  69.342  1.00  0.00    -0.319 OA 
BRANCH  11  14
HETATM   14  C   UNL     1     -12.420   6.767  71.596  1.00  0.00    -0.351 C  
HETATM   15  O   UNL     1     -12.696   5.958  72.741  1.00  0.00    -0.415 OA 
HETATM   16  H   UNL     1     -13.376   6.343  73.282  1.00  0.00     0.000 HD 
ENDBRANCH  11  14
ENDBRANCH   8  11
ENDBRANCH   5   8
ENDBRANCH   2   5
TORSDOF 4
ENDMDL
MODEL      318
REMARK 921   NORMALIZED FREE ENERGY PREDICTED BY IDOCK:   -1.95 KCAL/MOL
REMARK 922        TOTAL FREE ENERGY PREDICTED BY IDOCK:   -2.64 KCAL/MOL
REMARK 923 INTER-LIGAND FREE ENERGY PREDICTED BY IDOCK:   -2.40 KCAL/MOL
REMARK 924 INTRA-LIGAND FREE ENERGY PREDICTED BY IDOCK:   -0.24 KCAL/MOL
REMARK 927      BINDING AFFINITY PREDICTED BY RF-SCORE:    0.00 PKD
ROOT
HETATM    1  C   UNL     1      -8.414   3.405  73.657  1.00  0.00    -0.075 C  
HETATM    2  C   UNL     1      -9.743   3.929  74.147  1.00  0.00    -0.109 C  
HETATM    3  O   UNL     1      -7.335   3.830  74.075  1.00  0.00    -0.055 OA 
HETATM    4  F   UNL     1     -10.565   2.928  74.561  1.00  0.00    -0.195 F  
ENDROOT
BRANCH   2   5
HETATM    5  C   UNL     1     -10.466   4.789  73.105  1.00  0.00    -0.201 C  
HETATM    6  O   UNL     1     -11.896   4.784  73.307  1.00  0.00    -0.401 OA 
HETATM    7  H   UNL     1     -12.345   5.317  72.661  1.00  0.00     0.000 HD 
BRANCH   5   8
HETATM    8  C   UNL     1     -10.054   6.276  73.007  1.00  0.00    -0.184 C  
HETATM    9  O   UNL     1     -11.233   7.046  73.368  1.00  0.00    -0.540 OA 
HETATM   10  H   UNL     1     -10.980   7.959  73.308  1.00  0.00     0.000 HD 
BRANCH   8  11
HETATM   11  C   UNL     1      -9.520   6.789  71.650  1.00  0.00    -0.155 C  
HETATM   12  H   UNL     1     -10.259   7.794  70.134  1.00  0.00     0.000 HD 
HETATM   13  O   UNL     1     -10.587   7.478  70.967  1.00  0.00    -0.219 OA 
BRANCH  11  14
HETATM   14  C   UNL     1      -8.979   5.709  70.701  1.00  0.00    -0.146 C  
HETATM   15  O   UNL     1      -8.564   6.270  69.454  1.00  0.00    -0.123 OA 
HETATM   16  H   UNL     1      -8.230   5.601  68.867  1.00  0.00     0.000 HD 
ENDBRANCH  11  14
ENDBRANCH   8  11
ENDBRANCH   5   8
ENDBRANCH   2   5
TORSDOF 4
ENDMDL
MODEL      319
REMARK 921   NORMALIZED FREE ENERGY PREDICTED BY IDOCK:   -1.95 KCAL/MOL
REMARK 922        TOTAL FREE ENERGY PREDICTED BY IDOCK:   -2.64 KCAL/MOL
REMARK 923 INTER-LIGAND FREE ENERGY PREDICTED BY IDOCK:   -2.23 KCAL/MOL
REMARK 924 INTRA-LIGAND FREE ENERGY PREDICTED BY IDOCK:   -0.40 KCAL/MOL
REMARK 927      BINDING AFFINITY PREDICTED BY RF-SCORE:    0.00 PKD
ROOT
HETATM    1  C   UNL     1      -6.382   8.803  69.916  1.00  0.00    -0.037 C  
HETATM    2  C   UNL     1      -7.513   9.686  69.446  1.00  0.00    -0.093 C  
HETATM    3  O   UNL     1      -5.603   8.249  69.139  1.00  0.00    -0.030 OA 
HETATM    4  F   UNL     1      -7.501  10.900  70.059  1.00  0.00    -0.120 F  
ENDROOT
BRANCH   2   5
HETATM    5  C   UNL     1      -8.890   9.036  69.621  1.00  0.00    -0.145 C  
HETATM    6  O   UNL     1      -9.240   8.212  68.488  1.00  0.00    -0.137 OA 
HETATM    7  H   UNL     1     -10.094   7.809  68.596  1.00  0.00     0.000 HD 
BRANCH   5   8
HETATM    8  C   UNL     1      -9.100   8.153  70.872  1.00  0.00    -0.151 C  
HETATM    9  O   UNL     1      -9.441   6.829  70.379  1.00  0.00    -0.165 OA 
HETATM   10  H   UNL     1      -9.570   6.286  71.147  1.00  0.00     0.000 HD 
BRANCH   8  11
HETATM   11  C   UNL     1     -10.171   8.594  71.896  1.00  0.00    -0.334 C  
HETATM   12  H   UNL     1     -10.515   8.273  73.803  1.00  0.00     0.000 HD 
HETATM   13  O   UNL     1      -9.857   8.002  73.174  1.00  0.00    -0.285 OA 
BRANCH  11  14
HETATM   14  C   UNL     1     -11.617   8.208  71.548  1.00  0.00    -0.275 C  
HETATM   15  O   UNL     1     -11.824   8.179  70.135  1.00  0.00    -0.461 OA 
HETATM   16  H   UNL     1     -12.719   7.940  69.920  1.00  0.00     0.000 HD 
ENDBRANCH  11  14
ENDBRANCH   8  11
ENDBRANCH   5   8
ENDBRANCH   2   5
TORSDOF 4
ENDMDL
MODEL      320
REMARK 921   NORMALIZED FREE ENERGY PREDICTED BY IDOCK:   -1.91 KCAL/MOL
REMARK 922        TOTAL FREE ENERGY PREDICTED BY IDOCK:   -2.59 KCAL/MOL
REMARK 923 INTER-LIGAND FREE ENERGY PREDICTED BY IDOCK:   -2.00 KCAL/MOL
REMARK 924 INTRA-LIGAND FREE ENERGY PREDICTED BY IDOCK:   -0.59 KCAL/MOL
REMARK 927      BINDING AFFINITY PREDICTED BY RF-SCORE:    0.00 PKD
ROOT
HETATM    1  C   UNL     1      -8.820   5.048  65.605  1.00  0.00    -0.143 C  
HETATM    2  C   UNL     1      -8.859   6.461  66.135  1.00  0.00    -0.150 C  
HETATM    3  O   UNL     1      -9.813   4.318  65.580  1.00  0.00    -0.186 OA 
HETATM    4  F   UNL     1      -8.345   7.353  65.247  1.00  0.00    -0.129 F  
ENDROOT
BRANCH   2   5
HETATM    5  C   UNL     1      -8.147   6.612  67.484  1.00  0.00    -0.118 C  
HETATM    6  O   UNL     1      -6.963   7.432  67.375  1.00  0.00    -0.074 OA 
HETATM    7  H   UNL     1      -6.522   7.526  68.211  1.00  0.00     0.000 HD 
BRANCH   5   8
HETATM    8  C   UNL     1      -8.967   7.199  68.654  1.00  0.00    -0.131 C  
HETATM    9  O   UNL     1      -9.973   6.203  68.982  1.00  0.00    -0.141 OA 
HETATM   10  H   UNL     1     -10.478   6.564  69.702  1.00  0.00     0.000 HD 
BRANCH   8  11
HETATM   11  C   UNL     1      -9.668   8.560  68.434  1.00  0.00    -0.155 C  
HETATM   12  H   UNL     1      -9.136  10.326  67.761  1.00  0.00     0.000 HD 
HETATM   13  O   UNL     1      -8.706   9.491  67.897  1.00  0.00    -0.120 OA 
BRANCH  11  14
HETATM   14  C   UNL     1     -10.283   9.198  69.689  1.00  0.00    -0.203 C  
HETATM   15  O   UNL     1     -11.611   8.724  69.919  1.00  0.00    -0.452 OA 
HETATM   16  H   UNL     1     -11.991   9.119  70.695  1.00  0.00     0.000 HD 
ENDBRANCH  11  14
ENDBRANCH   8  11
ENDBRANCH   5   8
ENDBRANCH   2   5
TORSDOF 4
ENDMDL
MODEL      321
REMARK 921   NORMALIZED FREE ENERGY PREDICTED BY IDOCK:   -1.90 KCAL/MOL
REMARK 922        TOTAL FREE ENERGY PREDICTED BY IDOCK:   -2.59 KCAL/MOL
REMARK 923 INTER-LIGAND FREE ENERGY PREDICTED BY IDOCK:   -2.10 KCAL/MOL
REMARK 924 INTRA-LIGAND FREE ENERGY PREDICTED BY IDOCK:   -0.49 KCAL/MOL
REMARK 927      BINDING AFFINITY PREDICTED BY RF-SCORE:    0.00 PKD
ROOT
HETATM    1  C   UNL     1      -7.496   9.276  65.878  1.00  0.00    -0.095 C  
HETATM    2  C   UNL     1      -8.909   9.190  66.403  1.00  0.00    -0.141 C  
HETATM    3  O   UNL     1      -6.905   8.308  65.395  1.00  0.00    -0.061 OA 
HETATM    4  F   UNL     1      -9.712  10.146  65.864  1.00  0.00    -0.220 F  
ENDROOT
BRANCH   2   5
HETATM    5  C   UNL     1      -8.983   9.261  67.932  1.00  0.00    -0.127 C  
HETATM    6  O   UNL     1     -10.050  10.127  68.376  1.00  0.00    -0.155 OA 
HETATM    7  H   UNL     1     -10.096  10.171  69.324  1.00  0.00     0.000 HD 
BRANCH   5   8
HETATM    8  C   UNL     1      -9.169   7.928  68.692  1.00  0.00    -0.142 C  
HETATM    9  O   UNL     1      -8.824   6.876  67.752  1.00  0.00    -0.120 OA 
HETATM   10  H   UNL     1      -8.939   6.056  68.219  1.00  0.00     0.000 HD 
BRANCH   8  11
HETATM   11  C   UNL     1     -10.563   7.626  69.288  1.00  0.00    -0.201 C  
HETATM   12  H   UNL     1     -11.391   7.736  71.066  1.00  0.00     0.000 HD 
HETATM   13  O   UNL     1     -10.534   7.922  70.700  1.00  0.00    -0.209 OA 
BRANCH  11  14
HETATM   14  C   UNL     1     -11.052   6.179  69.126  1.00  0.00    -0.378 C  
HETATM   15  O   UNL     1     -11.396   5.892  67.769  1.00  0.00    -0.250 OA 
HETATM   16  H   UNL     1     -11.698   4.997  67.669  1.00  0.00     0.000 HD 
ENDBRANCH  11  14
ENDBRANCH   8  11
ENDBRANCH   5   8
ENDBRANCH   2   5
TORSDOF 4
ENDMDL
MODEL      322
REMARK 921   NORMALIZED FREE ENERGY PREDICTED BY IDOCK:   -1.90 KCAL/MOL
REMARK 922        TOTAL FREE ENERGY PREDICTED BY IDOCK:   -2.58 KCAL/MOL
REMARK 923 INTER-LIGAND FREE ENERGY PREDICTED BY IDOCK:   -3.32 KCAL/MOL
REMARK 924 INTRA-LIGAND FREE ENERGY PREDICTED BY IDOCK:    0.74 KCAL/MOL
REMARK 927      BINDING AFFINITY PREDICTED BY RF-SCORE:    0.00 PKD
ROOT
HETATM    1  C   UNL     1      -9.180  15.570  68.943  1.00  0.00    -0.218 C  
HETATM    2  C   UNL     1      -9.799  14.807  67.796  1.00  0.00    -0.214 C  
HETATM    3  O   UNL     1      -8.234  15.131  69.601  1.00  0.00    -0.210 OA 
HETATM    4  F   UNL     1      -9.869  15.557  66.664  1.00  0.00    -0.230 F  
ENDROOT
BRANCH   2   5
HETATM    5  C   UNL     1     -11.188  14.251  68.130  1.00  0.00    -0.275 C  
HETATM    6  O   UNL     1     -12.229  14.953  67.416  1.00  0.00    -0.470 OA 
HETATM    7  H   UNL     1     -13.090  14.608  67.623  1.00  0.00     0.000 HD 
BRANCH   5   8
HETATM    8  C   UNL     1     -11.428  12.747  67.867  1.00  0.00    -0.317 C  
HETATM    9  O   UNL     1     -10.173  12.080  68.168  1.00  0.00    -0.189 OA 
HETATM   10  H   UNL     1     -10.320  11.155  68.006  1.00  0.00     0.000 HD 
BRANCH   8  11
HETATM   11  C   UNL     1     -11.890  12.326  66.453  1.00  0.00    -0.311 C  
HETATM   12  H   UNL     1     -11.500  10.843  65.226  1.00  0.00     0.000 HD 
HETATM   13  O   UNL     1     -11.216  11.102  66.095  1.00  0.00    -0.161 OA 
BRANCH  11  14
HETATM   14  C   UNL     1     -11.624  13.349  65.338  1.00  0.00    -0.314 C  
HETATM   15  O   UNL     1     -10.265  13.303  64.901  1.00  0.00    -0.414 OA 
HETATM   16  H   UNL     1     -10.101  13.936  64.211  1.00  0.00     0.000 HD 
ENDBRANCH  11  14
ENDBRANCH   8  11
ENDBRANCH   5   8
ENDBRANCH   2   5
TORSDOF 4
ENDMDL
MODEL      323
REMARK 921   NORMALIZED FREE ENERGY PREDICTED BY IDOCK:   -1.87 KCAL/MOL
REMARK 922        TOTAL FREE ENERGY PREDICTED BY IDOCK:   -2.54 KCAL/MOL
REMARK 923 INTER-LIGAND FREE ENERGY PREDICTED BY IDOCK:   -2.13 KCAL/MOL
REMARK 924 INTRA-LIGAND FREE ENERGY PREDICTED BY IDOCK:   -0.41 KCAL/MOL
REMARK 927      BINDING AFFINITY PREDICTED BY RF-SCORE:    0.00 PKD
ROOT
HETATM    1  C   UNL     1     -11.010   7.515  69.475  1.00  0.00    -0.113 C  
HETATM    2  C   UNL     1      -9.830   8.440  69.288  1.00  0.00    -0.186 C  
HETATM    3  O   UNL     1     -10.890   6.352  69.864  1.00  0.00    -0.248 OA 
HETATM    4  F   UNL     1      -9.999   9.620  69.941  1.00  0.00    -0.194 F  
ENDROOT
BRANCH   2   5
HETATM    5  C   UNL     1      -9.513   8.710  67.813  1.00  0.00    -0.142 C  
HETATM    6  O   UNL     1     -10.690   8.592  66.983  1.00  0.00    -0.324 OA 
HETATM    7  H   UNL     1     -10.493   8.760  66.069  1.00  0.00     0.000 HD 
BRANCH   5   8
HETATM    8  C   UNL     1      -8.881  10.078  67.466  1.00  0.00    -0.128 C  
HETATM    9  O   UNL     1      -9.428  10.458  66.174  1.00  0.00    -0.169 OA 
HETATM   10  H   UNL     1      -9.040  11.298  65.961  1.00  0.00     0.000 HD 
BRANCH   8  11
HETATM   11  C   UNL     1      -7.339  10.165  67.400  1.00  0.00    -0.089 C  
HETATM   12  H   UNL     1      -5.886  10.430  68.693  1.00  0.00     0.000 HD 
HETATM   13  O   UNL     1      -6.833  10.377  68.734  1.00  0.00    -0.056 OA 
BRANCH  11  14
HETATM   14  C   UNL     1      -6.778  11.281  66.506  1.00  0.00    -0.105 C  
HETATM   15  O   UNL     1      -7.392  12.539  66.792  1.00  0.00    -0.377 OA 
HETATM   16  H   UNL     1      -7.044  13.229  66.239  1.00  0.00     0.000 HD 
ENDBRANCH  11  14
ENDBRANCH   8  11
ENDBRANCH   5   8
ENDBRANCH   2   5
TORSDOF 4
ENDMDL
MODEL      324
REMARK 921   NORMALIZED FREE ENERGY PREDICTED BY IDOCK:   -1.86 KCAL/MOL
REMARK 922        TOTAL FREE ENERGY PREDICTED BY IDOCK:   -2.53 KCAL/MOL
REMARK 923 INTER-LIGAND FREE ENERGY PREDICTED BY IDOCK:   -2.47 KCAL/MOL
REMARK 924 INTRA-LIGAND FREE ENERGY PREDICTED BY IDOCK:   -0.06 KCAL/MOL
REMARK 927      BINDING AFFINITY PREDICTED BY RF-SCORE:    0.00 PKD
ROOT
HETATM    1  C   UNL     1      -7.154   9.457  67.727  1.00  0.00    -0.082 C  
HETATM    2  C   UNL     1      -8.526   9.996  67.399  1.00  0.00    -0.121 C  
HETATM    3  O   UNL     1      -6.305   9.226  66.864  1.00  0.00    -0.064 OA 
HETATM    4  F   UNL     1      -8.826  11.104  68.127  1.00  0.00    -0.127 F  
ENDROOT
BRANCH   2   5
HETATM    5  C   UNL     1      -9.634   8.952  67.572  1.00  0.00    -0.145 C  
HETATM    6  O   UNL     1      -9.444   7.821  66.694  1.00  0.00    -0.181 OA 
HETATM    7  H   UNL     1     -10.132   7.173  66.802  1.00  0.00     0.000 HD 
BRANCH   5   8
HETATM    8  C   UNL     1      -9.836   8.364  68.988  1.00  0.00    -0.183 C  
HETATM    9  O   UNL     1     -11.114   7.674  68.959  1.00  0.00    -0.428 OA 
HETATM   10  H   UNL     1     -11.238   7.313  69.829  1.00  0.00     0.000 HD 
BRANCH   8  11
HETATM   11  C   UNL     1      -9.825   9.343  70.184  1.00  0.00    -0.232 C  
HETATM   12  H   UNL     1      -9.354   9.237  72.088  1.00  0.00     0.000 HD 
HETATM   13  O   UNL     1      -9.361   8.636  71.352  1.00  0.00    -0.190 OA 
BRANCH  11  14
HETATM   14  C   UNL     1     -11.181   9.978  70.532  1.00  0.00    -0.336 C  
HETATM   15  O   UNL     1     -11.288  11.302  70.006  1.00  0.00    -0.384 OA 
HETATM   16  H   UNL     1     -12.126  11.694  70.221  1.00  0.00     0.000 HD 
ENDBRANCH  11  14
ENDBRANCH   8  11
ENDBRANCH   5   8
ENDBRANCH   2   5
TORSDOF 4
ENDMDL
MODEL      325
REMARK 921   NORMALIZED FREE ENERGY PREDICTED BY IDOCK:   -1.85 KCAL/MOL
REMARK 922        TOTAL FREE ENERGY PREDICTED BY IDOCK:   -2.52 KCAL/MOL
REMARK 923 INTER-LIGAND FREE ENERGY PREDICTED BY IDOCK:   -2.26 KCAL/MOL
REMARK 924 INTRA-LIGAND FREE ENERGY PREDICTED BY IDOCK:   -0.26 KCAL/MOL
REMARK 927      BINDING AFFINITY PREDICTED BY RF-SCORE:    0.00 PKD
ROOT
HETATM    1  C   UNL     1     -10.364   6.034  71.677  1.00  0.00    -0.214 C  
HETATM    2  C   UNL     1     -10.719   7.123  70.693  1.00  0.00    -0.235 C  
HETATM    3  O   UNL     1      -9.348   6.072  72.375  1.00  0.00    -0.147 OA 
HETATM    4  F   UNL     1     -11.984   7.584  70.877  1.00  0.00    -0.307 F  
ENDROOT
BRANCH   2   5
HETATM    5  C   UNL     1     -10.537   6.689  69.234  1.00  0.00    -0.238 C  
HETATM    6  O   UNL     1     -11.146   7.627  68.319  1.00  0.00    -0.434 OA 
HETATM    7  H   UNL     1     -11.034   7.358  67.414  1.00  0.00     0.000 HD 
BRANCH   5   8
HETATM    8  C   UNL     1      -9.090   6.483  68.733  1.00  0.00    -0.126 C  
HETATM    9  O   UNL     1      -8.832   7.559  67.790  1.00  0.00    -0.132 OA 
HETATM   10  H   UNL     1      -7.942   7.432  67.482  1.00  0.00     0.000 HD 
BRANCH   8  11
HETATM   11  C   UNL     1      -8.744   5.136  68.059  1.00  0.00    -0.102 C  
HETATM   12  H   UNL     1      -9.431   4.104  66.536  1.00  0.00     0.000 HD 
HETATM   13  O   UNL     1      -9.644   4.932  66.950  1.00  0.00    -0.137 OA 
BRANCH  11  14
HETATM   14  C   UNL     1      -8.834   3.900  68.966  1.00  0.00    -0.102 C  
HETATM   15  O   UNL     1      -8.703   2.690  68.217  1.00  0.00    -0.082 OA 
HETATM   16  H   UNL     1      -8.759   1.926  68.779  1.00  0.00     0.000 HD 
ENDBRANCH  11  14
ENDBRANCH   8  11
ENDBRANCH   5   8
ENDBRANCH   2   5
TORSDOF 4
ENDMDL
MODEL      326
REMARK 921   NORMALIZED FREE ENERGY PREDICTED BY IDOCK:   -1.84 KCAL/MOL
REMARK 922        TOTAL FREE ENERGY PREDICTED BY IDOCK:   -2.51 KCAL/MOL
REMARK 923 INTER-LIGAND FREE ENERGY PREDICTED BY IDOCK:   -2.18 KCAL/MOL
REMARK 924 INTRA-LIGAND FREE ENERGY PREDICTED BY IDOCK:   -0.33 KCAL/MOL
REMARK 927      BINDING AFFINITY PREDICTED BY RF-SCORE:    0.00 PKD
ROOT
HETATM    1  C   UNL     1     -10.938   9.512  70.791  1.00  0.00    -0.321 C  
HETATM    2  C   UNL     1      -9.827   8.493  70.712  1.00  0.00    -0.182 C  
HETATM    3  O   UNL     1     -12.120   9.198  70.949  1.00  0.00    -0.283 OA 
HETATM    4  F   UNL     1      -8.819   8.769  71.582  1.00  0.00    -0.218 F  
ENDROOT
BRANCH   2   5
HETATM    5  C   UNL     1      -9.256   8.340  69.298  1.00  0.00    -0.151 C  
HETATM    6  O   UNL     1      -7.900   8.830  69.213  1.00  0.00    -0.096 OA 
HETATM    7  H   UNL     1      -7.546   8.735  68.337  1.00  0.00     0.000 HD 
BRANCH   5   8
HETATM    8  C   UNL     1      -9.235   6.918  68.694  1.00  0.00    -0.130 C  
HETATM    9  O   UNL     1      -7.841   6.507  68.678  1.00  0.00    -0.106 OA 
HETATM   10  H   UNL     1      -7.828   5.632  68.307  1.00  0.00     0.000 HD 
BRANCH   8  11
HETATM   11  C   UNL     1      -9.828   6.725  67.279  1.00  0.00    -0.145 C  
HETATM   12  H   UNL     1     -11.619   6.798  66.479  1.00  0.00     0.000 HD 
HETATM   13  O   UNL     1     -11.255   6.917  67.348  1.00  0.00    -0.280 OA 
BRANCH  11  14
HETATM   14  C   UNL     1      -9.573   5.352  66.637  1.00  0.00    -0.151 C  
HETATM   15  O   UNL     1      -8.327   5.324  65.939  1.00  0.00    -0.114 OA 
HETATM   16  H   UNL     1      -8.170   4.475  65.543  1.00  0.00     0.000 HD 
ENDBRANCH  11  14
ENDBRANCH   8  11
ENDBRANCH   5   8
ENDBRANCH   2   5
TORSDOF 4
ENDMDL
MODEL      327
REMARK 921   NORMALIZED FREE ENERGY PREDICTED BY IDOCK:   -1.84 KCAL/MOL
REMARK 922        TOTAL FREE ENERGY PREDICTED BY IDOCK:   -2.50 KCAL/MOL
REMARK 923 INTER-LIGAND FREE ENERGY PREDICTED BY IDOCK:   -2.37 KCAL/MOL
REMARK 924 INTRA-LIGAND FREE ENERGY PREDICTED BY IDOCK:   -0.13 KCAL/MOL
REMARK 927      BINDING AFFINITY PREDICTED BY RF-SCORE:    0.00 PKD
ROOT
HETATM    1  C   UNL     1     -10.536   4.804  65.820  1.00  0.00    -0.218 C  
HETATM    2  C   UNL     1      -9.798   5.597  66.872  1.00  0.00    -0.159 C  
HETATM    3  O   UNL     1      -9.958   4.130  64.965  1.00  0.00    -0.190 OA 
HETATM    4  F   UNL     1     -10.240   5.316  68.126  1.00  0.00    -0.198 F  
ENDROOT
BRANCH   2   5
HETATM    5  C   UNL     1      -9.861   7.109  66.631  1.00  0.00    -0.169 C  
HETATM    6  O   UNL     1     -10.879   7.737  67.443  1.00  0.00    -0.483 OA 
HETATM    7  H   UNL     1     -10.918   8.674  67.294  1.00  0.00     0.000 HD 
BRANCH   5   8
HETATM    8  C   UNL     1      -8.566   7.917  66.871  1.00  0.00    -0.129 C  
HETATM    9  O   UNL     1      -8.668   8.454  68.218  1.00  0.00    -0.141 OA 
HETATM   10  H   UNL     1      -7.872   8.951  68.365  1.00  0.00     0.000 HD 
BRANCH   8  11
HETATM   11  C   UNL     1      -8.246   9.074  65.896  1.00  0.00    -0.117 C  
HETATM   12  H   UNL     1      -7.090   9.317  64.327  1.00  0.00     0.000 HD 
HETATM   13  O   UNL     1      -7.287   8.606  64.926  1.00  0.00    -0.086 OA 
BRANCH  11  14
HETATM   14  C   UNL     1      -7.671  10.344  66.544  1.00  0.00    -0.121 C  
HETATM   15  O   UNL     1      -8.256  11.523  65.990  1.00  0.00    -0.359 OA 
HETATM   16  H   UNL     1      -7.901  12.309  66.390  1.00  0.00     0.000 HD 
ENDBRANCH  11  14
ENDBRANCH   8  11
ENDBRANCH   5   8
ENDBRANCH   2   5
TORSDOF 4
ENDMDL
MODEL      328
REMARK 921   NORMALIZED FREE ENERGY PREDICTED BY IDOCK:   -1.82 KCAL/MOL
REMARK 922        TOTAL FREE ENERGY PREDICTED BY IDOCK:   -2.48 KCAL/MOL
REMARK 923 INTER-LIGAND FREE ENERGY PREDICTED BY IDOCK:   -2.40 KCAL/MOL
REMARK 924 INTRA-LIGAND FREE ENERGY PREDICTED BY IDOCK:   -0.09 KCAL/MOL
REMARK 927      BINDING AFFINITY PREDICTED BY RF-SCORE:    0.00 PKD
ROOT
HETATM    1  C   UNL     1      -8.041  10.171  65.970  1.00  0.00    -0.129 C  
HETATM    2  C   UNL     1      -9.057  10.132  67.086  1.00  0.00    -0.135 C  
HETATM    3  O   UNL     1      -7.788   9.192  65.265  1.00  0.00    -0.100 OA 
HETATM    4  F   UNL     1      -9.968  11.136  66.982  1.00  0.00    -0.198 F  
ENDROOT
BRANCH   2   5
HETATM    5  C   UNL     1      -8.416  10.163  68.478  1.00  0.00    -0.121 C  
HETATM    6  O   UNL     1      -8.955  11.229  69.290  1.00  0.00    -0.390 OA 
HETATM    7  H   UNL     1      -8.557  11.249  70.153  1.00  0.00     0.000 HD 
BRANCH   5   8
HETATM    8  C   UNL     1      -8.520   8.880  69.333  1.00  0.00    -0.124 C  
HETATM    9  O   UNL     1      -8.206   7.775  68.441  1.00  0.00    -0.122 OA 
HETATM   10  H   UNL     1      -8.270   6.986  68.967  1.00  0.00     0.000 HD 
BRANCH   8  11
HETATM   11  C   UNL     1      -9.866   8.587  70.034  1.00  0.00    -0.179 C  
HETATM   12  H   UNL     1     -11.749   9.052  69.723  1.00  0.00     0.000 HD 
HETATM   13  O   UNL     1     -10.921   9.232  69.292  1.00  0.00    -0.191 OA 
BRANCH  11  14
HETATM   14  C   UNL     1      -9.968   9.057  71.493  1.00  0.00    -0.321 C  
HETATM   15  O   UNL     1      -8.715   8.937  72.169  1.00  0.00    -0.386 OA 
HETATM   16  H   UNL     1      -8.778   9.228  73.072  1.00  0.00     0.000 HD 
ENDBRANCH  11  14
ENDBRANCH   8  11
ENDBRANCH   5   8
ENDBRANCH   2   5
TORSDOF 4
ENDMDL
MODEL      329
REMARK 921   NORMALIZED FREE ENERGY PREDICTED BY IDOCK:   -1.80 KCAL/MOL
REMARK 922        TOTAL FREE ENERGY PREDICTED BY IDOCK:   -2.46 KCAL/MOL
REMARK 923 INTER-LIGAND FREE ENERGY PREDICTED BY IDOCK:   -2.21 KCAL/MOL
REMARK 924 INTRA-LIGAND FREE ENERGY PREDICTED BY IDOCK:   -0.25 KCAL/MOL
REMARK 927      BINDING AFFINITY PREDICTED BY RF-SCORE:    0.00 PKD
ROOT
HETATM    1  C   UNL     1     -12.315   6.915  71.347  1.00  0.00    -0.376 C  
HETATM    2  C   UNL     1     -11.226   6.203  70.579  1.00  0.00    -0.334 C  
HETATM    3  O   UNL     1     -13.513   6.686  71.170  1.00  0.00    -0.024 OA 
HETATM    4  F   UNL     1     -10.293   5.659  71.405  1.00  0.00    -0.239 F  
ENDROOT
BRANCH   2   5
HETATM    5  C   UNL     1     -10.537   7.105  69.549  1.00  0.00    -0.234 C  
HETATM    6  O   UNL     1     -10.710   8.504  69.863  1.00  0.00    -0.228 OA 
HETATM    7  H   UNL     1     -10.283   9.063  69.224  1.00  0.00     0.000 HD 
BRANCH   5   8
HETATM    8  C   UNL     1      -9.020   6.900  69.334  1.00  0.00    -0.138 C  
HETATM    9  O   UNL     1      -8.383   8.137  69.751  1.00  0.00    -0.120 OA 
HETATM   10  H   UNL     1      -7.450   8.011  69.619  1.00  0.00     0.000 HD 
BRANCH   8  11
HETATM   11  C   UNL     1      -8.534   6.544  67.910  1.00  0.00    -0.118 C  
HETATM   12  H   UNL     1      -8.007   7.551  66.308  1.00  0.00     0.000 HD 
HETATM   13  O   UNL     1      -8.305   7.769  67.183  1.00  0.00    -0.115 OA 
BRANCH  11  14
HETATM   14  C   UNL     1      -9.496   5.682  67.079  1.00  0.00    -0.127 C  
HETATM   15  O   UNL     1      -9.521   4.331  67.542  1.00  0.00    -0.154 OA 
HETATM   16  H   UNL     1     -10.116   3.798  67.028  1.00  0.00     0.000 HD 
ENDBRANCH  11  14
ENDBRANCH   8  11
ENDBRANCH   5   8
ENDBRANCH   2   5
TORSDOF 4
ENDMDL
MODEL      330
REMARK 921   NORMALIZED FREE ENERGY PREDICTED BY IDOCK:   -1.80 KCAL/MOL
REMARK 922        TOTAL FREE ENERGY PREDICTED BY IDOCK:   -2.46 KCAL/MOL
REMARK 923 INTER-LIGAND FREE ENERGY PREDICTED BY IDOCK:   -2.16 KCAL/MOL
REMARK 924 INTRA-LIGAND FREE ENERGY PREDICTED BY IDOCK:   -0.30 KCAL/MOL
REMARK 927      BINDING AFFINITY PREDICTED BY RF-SCORE:    0.00 PKD
ROOT
HETATM    1  C   UNL     1     -10.746   6.722  68.603  1.00  0.00    -0.234 C  
HETATM    2  C   UNL     1      -9.562   6.049  67.950  1.00  0.00    -0.116 C  
HETATM    3  O   UNL     1     -11.535   6.120  69.334  1.00  0.00    -0.423 OA 
HETATM    4  F   UNL     1      -8.401   6.714  68.192  1.00  0.00    -0.114 F  
ENDROOT
BRANCH   2   5
HETATM    5  C   UNL     1      -9.740   5.860  66.440  1.00  0.00    -0.134 C  
HETATM    6  O   UNL     1      -9.387   7.054  65.707  1.00  0.00    -0.385 OA 
HETATM    7  H   UNL     1      -9.498   6.937  64.771  1.00  0.00     0.000 HD 
BRANCH   5   8
HETATM    8  C   UNL     1      -8.959   4.704  65.776  1.00  0.00    -0.134 C  
HETATM    9  O   UNL     1      -7.555   5.071  65.849  1.00  0.00    -0.087 OA 
HETATM   10  H   UNL     1      -7.075   4.360  65.441  1.00  0.00     0.000 HD 
BRANCH   8  11
HETATM   11  C   UNL     1      -9.304   4.346  64.312  1.00  0.00    -0.126 C  
HETATM   12  H   UNL     1     -10.797   3.464  63.390  1.00  0.00     0.000 HD 
HETATM   13  O   UNL     1     -10.585   3.683  64.290  1.00  0.00    -0.242 OA 
BRANCH  11  14
HETATM   14  C   UNL     1      -8.295   3.433  63.598  1.00  0.00    -0.090 C  
HETATM   15  O   UNL     1      -7.882   2.354  64.438  1.00  0.00    -0.074 OA 
HETATM   16  H   UNL     1      -7.258   1.789  63.997  1.00  0.00     0.000 HD 
ENDBRANCH  11  14
ENDBRANCH   8  11
ENDBRANCH   5   8
ENDBRANCH   2   5
TORSDOF 4
ENDMDL
MODEL      331
REMARK 921   NORMALIZED FREE ENERGY PREDICTED BY IDOCK:   -1.78 KCAL/MOL
REMARK 922        TOTAL FREE ENERGY PREDICTED BY IDOCK:   -2.43 KCAL/MOL
REMARK 923 INTER-LIGAND FREE ENERGY PREDICTED BY IDOCK:   -2.03 KCAL/MOL
REMARK 924 INTRA-LIGAND FREE ENERGY PREDICTED BY IDOCK:   -0.40 KCAL/MOL
REMARK 927      BINDING AFFINITY PREDICTED BY RF-SCORE:    0.00 PKD
ROOT
HETATM    1  C   UNL     1     -10.885   9.462  70.754  1.00  0.00    -0.305 C  
HETATM    2  C   UNL     1      -9.682   8.558  70.891  1.00  0.00    -0.187 C  
HETATM    3  O   UNL     1     -12.041   9.035  70.743  1.00  0.00    -0.242 OA 
HETATM    4  F   UNL     1      -8.854   8.961  71.892  1.00  0.00    -0.263 F  
ENDROOT
BRANCH   2   5
HETATM    5  C   UNL     1      -8.886   8.424  69.589  1.00  0.00    -0.141 C  
HETATM    6  O   UNL     1      -9.182   7.185  68.908  1.00  0.00    -0.139 OA 
HETATM    7  H   UNL     1      -8.689   7.101  68.100  1.00  0.00     0.000 HD 
BRANCH   5   8
HETATM    8  C   UNL     1      -9.058   9.542  68.537  1.00  0.00    -0.131 C  
HETATM    9  O   UNL     1      -9.853   8.968  67.464  1.00  0.00    -0.160 OA 
HETATM   10  H   UNL     1      -9.959   9.656  66.817  1.00  0.00     0.000 HD 
BRANCH   8  11
HETATM   11  C   UNL     1      -7.781  10.167  67.930  1.00  0.00    -0.089 C  
HETATM   12  H   UNL     1      -6.330  11.319  68.580  1.00  0.00     0.000 HD 
HETATM   13  O   UNL     1      -7.115  10.936  68.952  1.00  0.00    -0.074 OA 
BRANCH  11  14
HETATM   14  C   UNL     1      -8.005  11.091  66.723  1.00  0.00    -0.152 C  
HETATM   15  O   UNL     1      -7.999  10.360  65.496  1.00  0.00    -0.147 OA 
HETATM   16  H   UNL     1      -8.138  10.932  64.750  1.00  0.00     0.000 HD 
ENDBRANCH  11  14
ENDBRANCH   8  11
ENDBRANCH   5   8
ENDBRANCH   2   5
TORSDOF 4
ENDMDL
MODEL      332
REMARK 921   NORMALIZED FREE ENERGY PREDICTED BY IDOCK:   -1.77 KCAL/MOL
REMARK 922        TOTAL FREE ENERGY PREDICTED BY IDOCK:   -2.42 KCAL/MOL
REMARK 923 INTER-LIGAND FREE ENERGY PREDICTED BY IDOCK:   -2.08 KCAL/MOL
REMARK 924 INTRA-LIGAND FREE ENERGY PREDICTED BY IDOCK:   -0.34 KCAL/MOL
REMARK 927      BINDING AFFINITY PREDICTED BY RF-SCORE:    0.00 PKD
ROOT
HETATM    1  C   UNL     1     -11.227   9.658  71.235  1.00  0.00    -0.376 C  
HETATM    2  C   UNL     1     -10.171   8.698  71.728  1.00  0.00    -0.308 C  
HETATM    3  O   UNL     1     -12.341   9.288  70.860  1.00  0.00    -0.264 OA 
HETATM    4  F   UNL     1      -9.677   9.061  72.941  1.00  0.00    -0.148 F  
ENDROOT
BRANCH   2   5
HETATM    5  C   UNL     1      -9.016   8.521  70.736  1.00  0.00    -0.165 C  
HETATM    6  O   UNL     1      -7.966   9.487  70.962  1.00  0.00    -0.321 OA 
HETATM    7  H   UNL     1      -7.250   9.378  70.347  1.00  0.00     0.000 HD 
BRANCH   5   8
HETATM    8  C   UNL     1      -8.324   7.140  70.695  1.00  0.00    -0.126 C  
HETATM    9  O   UNL     1      -7.109   7.274  71.480  1.00  0.00    -0.066 OA 
HETATM   10  H   UNL     1      -6.684   6.425  71.456  1.00  0.00     0.000 HD 
BRANCH   8  11
HETATM   11  C   UNL     1      -7.961   6.554  69.311  1.00  0.00    -0.111 C  
HETATM   12  H   UNL     1      -8.951   5.759  67.813  1.00  0.00     0.000 HD 
HETATM   13  O   UNL     1      -9.174   6.118  68.664  1.00  0.00    -0.124 OA 
BRANCH  11  14
HETATM   14  C   UNL     1      -6.990   5.364  69.331  1.00  0.00    -0.059 C  
HETATM   15  O   UNL     1      -5.630   5.799  69.338  1.00  0.00    -0.007 OA 
HETATM   16  H   UNL     1      -5.029   5.062  69.351  1.00  0.00     0.000 HD 
ENDBRANCH  11  14
ENDBRANCH   8  11
ENDBRANCH   5   8
ENDBRANCH   2   5
TORSDOF 4
ENDMDL
MODEL      333
REMARK 921   NORMALIZED FREE ENERGY PREDICTED BY IDOCK:   -1.73 KCAL/MOL
REMARK 922        TOTAL FREE ENERGY PREDICTED BY IDOCK:   -2.37 KCAL/MOL
REMARK 923 INTER-LIGAND FREE ENERGY PREDICTED BY IDOCK:   -2.02 KCAL/MOL
REMARK 924 INTRA-LIGAND FREE ENERGY PREDICTED BY IDOCK:   -0.35 KCAL/MOL
REMARK 927      BINDING AFFINITY PREDICTED BY RF-SCORE:    0.00 PKD
ROOT
HETATM    1  C   UNL     1      -7.274   8.574  68.368  1.00  0.00    -0.085 C  
HETATM    2  C   UNL     1      -7.854   8.448  66.980  1.00  0.00    -0.096 C  
HETATM    3  O   UNL     1      -6.713   7.640  68.944  1.00  0.00    -0.047 OA 
HETATM    4  F   UNL     1      -7.404   9.425  66.148  1.00  0.00    -0.090 F  
ENDROOT
BRANCH   2   5
HETATM    5  C   UNL     1      -9.386   8.432  66.972  1.00  0.00    -0.159 C  
HETATM    6  O   UNL     1      -9.923   9.237  65.900  1.00  0.00    -0.317 OA 
HETATM    7  H   UNL     1     -10.873   9.227  65.895  1.00  0.00     0.000 HD 
BRANCH   5   8
HETATM    8  C   UNL     1     -10.078   7.054  66.860  1.00  0.00    -0.226 C  
HETATM    9  O   UNL     1     -11.337   7.176  67.576  1.00  0.00    -0.551 OA 
HETATM   10  H   UNL     1     -11.763   6.329  67.506  1.00  0.00     0.000 HD 
BRANCH   8  11
HETATM   11  C   UNL     1      -9.318   5.819  67.395  1.00  0.00    -0.112 C  
HETATM   12  H   UNL     1      -8.238   4.379  66.610  1.00  0.00     0.000 HD 
HETATM   13  O   UNL     1      -8.705   5.138  66.281  1.00  0.00    -0.116 OA 
BRANCH  11  14
HETATM   14  C   UNL     1     -10.175   4.794  68.154  1.00  0.00     0.013 C  
HETATM   15  O   UNL     1     -10.270   5.117  69.542  1.00  0.00    -0.234 OA 
HETATM   16  H   UNL     1     -10.800   4.482  70.011  1.00  0.00     0.000 HD 
ENDBRANCH  11  14
ENDBRANCH   8  11
ENDBRANCH   5   8
ENDBRANCH   2   5
TORSDOF 4
ENDMDL
MODEL      334
REMARK 921   NORMALIZED FREE ENERGY PREDICTED BY IDOCK:   -1.73 KCAL/MOL
REMARK 922        TOTAL FREE ENERGY PREDICTED BY IDOCK:   -2.37 KCAL/MOL
REMARK 923 INTER-LIGAND FREE ENERGY PREDICTED BY IDOCK:   -2.34 KCAL/MOL
REMARK 924 INTRA-LIGAND FREE ENERGY PREDICTED BY IDOCK:   -0.03 KCAL/MOL
REMARK 927      BINDING AFFINITY PREDICTED BY RF-SCORE:    0.00 PKD
ROOT
HETATM    1  C   UNL     1      -6.951   9.151  69.962  1.00  0.00    -0.054 C  
HETATM    2  C   UNL     1      -8.434   8.878  69.881  1.00  0.00    -0.135 C  
HETATM    3  O   UNL     1      -6.124   8.540  69.282  1.00  0.00    -0.040 OA 
HETATM    4  F   UNL     1      -9.150  10.014  69.667  1.00  0.00    -0.182 F  
ENDROOT
BRANCH   2   5
HETATM    5  C   UNL     1      -8.976   8.156  71.120  1.00  0.00    -0.146 C  
HETATM    6  O   UNL     1      -9.875   8.996  71.877  1.00  0.00    -0.323 OA 
HETATM    7  H   UNL     1     -10.211   8.548  72.645  1.00  0.00     0.000 HD 
BRANCH   5   8
HETATM    8  C   UNL     1      -9.726   6.825  70.890  1.00  0.00    -0.178 C  
HETATM    9  O   UNL     1     -11.090   7.187  70.540  1.00  0.00    -0.253 OA 
HETATM   10  H   UNL     1     -11.552   6.368  70.398  1.00  0.00     0.000 HD 
BRANCH   8  11
HETATM   11  C   UNL     1      -9.764   5.806  72.052  1.00  0.00    -0.154 C  
HETATM   12  H   UNL     1     -10.226   3.908  72.248  1.00  0.00     0.000 HD 
HETATM   13  O   UNL     1     -10.204   4.534  71.534  1.00  0.00    -0.184 OA 
BRANCH  11  14
HETATM   14  C   UNL     1     -10.685   6.175  73.225  1.00  0.00    -0.260 C  
HETATM   15  O   UNL     1     -11.456   5.053  73.657  1.00  0.00    -0.430 OA 
HETATM   16  H   UNL     1     -12.025   5.281  74.383  1.00  0.00     0.000 HD 
ENDBRANCH  11  14
ENDBRANCH   8  11
ENDBRANCH   5   8
ENDBRANCH   2   5
TORSDOF 4
ENDMDL
MODEL      335
REMARK 921   NORMALIZED FREE ENERGY PREDICTED BY IDOCK:   -1.69 KCAL/MOL
REMARK 922        TOTAL FREE ENERGY PREDICTED BY IDOCK:   -2.32 KCAL/MOL
REMARK 923 INTER-LIGAND FREE ENERGY PREDICTED BY IDOCK:   -2.51 KCAL/MOL
REMARK 924 INTRA-LIGAND FREE ENERGY PREDICTED BY IDOCK:    0.18 KCAL/MOL
REMARK 927      BINDING AFFINITY PREDICTED BY RF-SCORE:    0.00 PKD
ROOT
HETATM    1  C   UNL     1     -10.104   6.569  67.436  1.00  0.00    -0.162 C  
HETATM    2  C   UNL     1      -9.635   7.955  67.812  1.00  0.00    -0.147 C  
HETATM    3  O   UNL     1     -11.257   6.333  67.069  1.00  0.00    -0.336 OA 
HETATM    4  F   UNL     1      -8.506   8.310  67.143  1.00  0.00    -0.117 F  
ENDROOT
BRANCH   2   5
HETATM    5  C   UNL     1      -9.412   8.120  69.320  1.00  0.00    -0.159 C  
HETATM    6  O   UNL     1      -8.240   8.915  69.602  1.00  0.00    -0.106 OA 
HETATM    7  H   UNL     1      -8.101   9.018  70.536  1.00  0.00     0.000 HD 
BRANCH   5   8
HETATM    8  C   UNL     1     -10.562   8.748  70.139  1.00  0.00    -0.221 C  
HETATM    9  O   UNL     1     -11.319   7.636  70.690  1.00  0.00    -0.276 OA 
HETATM   10  H   UNL     1     -12.026   8.023  71.194  1.00  0.00     0.000 HD 
BRANCH   8  11
HETATM   11  C   UNL     1     -11.535   9.699  69.406  1.00  0.00     0.093 C  
HETATM   12  H   UNL     1     -11.406  10.981  67.924  1.00  0.00     0.000 HD 
HETATM   13  O   UNL     1     -10.807  10.397  68.375  1.00  0.00    -0.212 OA 
BRANCH  11  14
HETATM   14  C   UNL     1     -12.219  10.755  70.289  1.00  0.00    -0.348 C  
HETATM   15  O   UNL     1     -11.519  11.999  70.253  1.00  0.00    -0.515 OA 
HETATM   16  H   UNL     1     -11.942  12.652  70.799  1.00  0.00     0.000 HD 
ENDBRANCH  11  14
ENDBRANCH   8  11
ENDBRANCH   5   8
ENDBRANCH   2   5
TORSDOF 4
ENDMDL
MODEL      336
REMARK 921   NORMALIZED FREE ENERGY PREDICTED BY IDOCK:   -1.66 KCAL/MOL
REMARK 922        TOTAL FREE ENERGY PREDICTED BY IDOCK:   -2.29 KCAL/MOL
REMARK 923 INTER-LIGAND FREE ENERGY PREDICTED BY IDOCK:   -2.07 KCAL/MOL
REMARK 924 INTRA-LIGAND FREE ENERGY PREDICTED BY IDOCK:   -0.22 KCAL/MOL
REMARK 927      BINDING AFFINITY PREDICTED BY RF-SCORE:    0.00 PKD
ROOT
HETATM    1  C   UNL     1      -9.284   3.684  66.941  1.00  0.00    -0.184 C  
HETATM    2  C   UNL     1     -10.361   4.707  66.665  1.00  0.00    -0.160 C  
HETATM    3  O   UNL     1      -9.452   2.729  67.701  1.00  0.00    -0.204 OA 
HETATM    4  F   UNL     1     -10.574   4.877  65.333  1.00  0.00    -0.193 F  
ENDROOT
BRANCH   2   5
HETATM    5  C   UNL     1     -10.076   6.064  67.317  1.00  0.00    -0.169 C  
HETATM    6  O   UNL     1     -10.386   6.055  68.727  1.00  0.00    -0.172 OA 
HETATM    7  H   UNL     1     -10.209   6.897  69.132  1.00  0.00     0.000 HD 
BRANCH   5   8
HETATM    8  C   UNL     1      -8.637   6.615  67.200  1.00  0.00    -0.112 C  
HETATM    9  O   UNL     1      -8.453   7.507  68.332  1.00  0.00    -0.124 OA 
HETATM   10  H   UNL     1      -7.568   7.846  68.260  1.00  0.00     0.000 HD 
BRANCH   8  11
HETATM   11  C   UNL     1      -8.255   7.369  65.905  1.00  0.00    -0.134 C  
HETATM   12  H   UNL     1      -6.582   7.851  64.996  1.00  0.00     0.000 HD 
HETATM   13  O   UNL     1      -6.817   7.388  65.791  1.00  0.00    -0.054 OA 
BRANCH  11  14
HETATM   14  C   UNL     1      -8.748   8.821  65.815  1.00  0.00    -0.179 C  
HETATM   15  O   UNL     1      -9.506   9.043  64.624  1.00  0.00    -0.385 OA 
HETATM   16  H   UNL     1      -9.811   9.941  64.569  1.00  0.00     0.000 HD 
ENDBRANCH  11  14
ENDBRANCH   8  11
ENDBRANCH   5   8
ENDBRANCH   2   5
TORSDOF 4
ENDMDL
MODEL      337
REMARK 921   NORMALIZED FREE ENERGY PREDICTED BY IDOCK:   -1.64 KCAL/MOL
REMARK 922        TOTAL FREE ENERGY PREDICTED BY IDOCK:   -2.26 KCAL/MOL
REMARK 923 INTER-LIGAND FREE ENERGY PREDICTED BY IDOCK:   -1.90 KCAL/MOL
REMARK 924 INTRA-LIGAND FREE ENERGY PREDICTED BY IDOCK:   -0.36 KCAL/MOL
REMARK 927      BINDING AFFINITY PREDICTED BY RF-SCORE:    0.00 PKD
ROOT
HETATM    1  C   UNL     1      -9.587   7.928  69.586  1.00  0.00    -0.164 C  
HETATM    2  C   UNL     1      -9.492   6.739  70.513  1.00  0.00    -0.169 C  
HETATM    3  O   UNL     1     -10.655   8.318  69.110  1.00  0.00    -0.219 OA 
HETATM    4  F   UNL     1      -8.827   7.039  71.660  1.00  0.00    -0.129 F  
ENDROOT
BRANCH   2   5
HETATM    5  C   UNL     1      -8.848   5.517  69.851  1.00  0.00    -0.127 C  
HETATM    6  O   UNL     1      -7.794   4.961  70.668  1.00  0.00    -0.068 OA 
HETATM    7  H   UNL     1      -7.394   4.203  70.257  1.00  0.00     0.000 HD 
BRANCH   5   8
HETATM    8  C   UNL     1      -9.778   4.336  69.491  1.00  0.00    -0.201 C  
HETATM    9  O   UNL     1      -9.492   3.288  70.458  1.00  0.00    -0.156 OA 
HETATM   10  H   UNL     1     -10.063   2.563  70.237  1.00  0.00     0.000 HD 
BRANCH   8  11
HETATM   11  C   UNL     1      -9.674   3.742  68.068  1.00  0.00    -0.053 C  
HETATM   12  H   UNL     1      -8.284   2.836  67.017  1.00  0.00     0.000 HD 
HETATM   13  O   UNL     1      -8.348   3.201  67.891  1.00  0.00    -0.078 OA 
BRANCH  11  14
HETATM   14  C   UNL     1      -9.931   4.729  66.919  1.00  0.00    -0.217 C  
HETATM   15  O   UNL     1     -10.871   5.736  67.296  1.00  0.00    -0.317 OA 
HETATM   16  H   UNL     1     -11.030   6.347  66.585  1.00  0.00     0.000 HD 
ENDBRANCH  11  14
ENDBRANCH   8  11
ENDBRANCH   5   8
ENDBRANCH   2   5
TORSDOF 4
ENDMDL
MODEL      338
REMARK 921   NORMALIZED FREE ENERGY PREDICTED BY IDOCK:   -1.64 KCAL/MOL
REMARK 922        TOTAL FREE ENERGY PREDICTED BY IDOCK:   -2.26 KCAL/MOL
REMARK 923 INTER-LIGAND FREE ENERGY PREDICTED BY IDOCK:   -2.00 KCAL/MOL
REMARK 924 INTRA-LIGAND FREE ENERGY PREDICTED BY IDOCK:   -0.26 KCAL/MOL
REMARK 927      BINDING AFFINITY PREDICTED BY RF-SCORE:    0.00 PKD
ROOT
HETATM    1  C   UNL     1      -9.102   7.679  68.670  1.00  0.00    -0.135 C  
HETATM    2  C   UNL     1      -8.819   6.379  69.385  1.00  0.00    -0.132 C  
HETATM    3  O   UNL     1      -8.683   8.766  69.074  1.00  0.00    -0.130 OA 
HETATM    4  F   UNL     1      -8.299   5.440  68.550  1.00  0.00    -0.095 F  
ENDROOT
BRANCH   2   5
HETATM    5  C   UNL     1     -10.052   5.808  70.095  1.00  0.00    -0.212 C  
HETATM    6  O   UNL     1     -10.374   4.482  69.622  1.00  0.00    -0.099 OA 
HETATM    7  H   UNL     1     -11.138   4.128  70.062  1.00  0.00     0.000 HD 
BRANCH   5   8
HETATM    8  C   UNL     1      -9.998   5.712  71.636  1.00  0.00    -0.174 C  
HETATM    9  O   UNL     1     -10.596   4.432  71.981  1.00  0.00    -0.117 OA 
HETATM   10  H   UNL     1     -10.562   4.373  72.929  1.00  0.00     0.000 HD 
BRANCH   8  11
HETATM   11  C   UNL     1     -10.695   6.823  72.455  1.00  0.00    -0.226 C  
HETATM   12  H   UNL     1     -11.624   8.504  72.044  1.00  0.00     0.000 HD 
HETATM   13  O   UNL     1     -11.196   7.821  71.542  1.00  0.00    -0.238 OA 
BRANCH  11  14
HETATM   14  C   UNL     1      -9.809   7.538  73.486  1.00  0.00    -0.317 C  
HETATM   15  O   UNL     1      -8.468   7.682  73.014  1.00  0.00    -0.121 OA 
HETATM   16  H   UNL     1      -7.920   8.124  73.652  1.00  0.00     0.000 HD 
ENDBRANCH  11  14
ENDBRANCH   8  11
ENDBRANCH   5   8
ENDBRANCH   2   5
TORSDOF 4
ENDMDL
MODEL      339
REMARK 921   NORMALIZED FREE ENERGY PREDICTED BY IDOCK:   -1.59 KCAL/MOL
REMARK 922        TOTAL FREE ENERGY PREDICTED BY IDOCK:   -2.20 KCAL/MOL
REMARK 923 INTER-LIGAND FREE ENERGY PREDICTED BY IDOCK:   -1.98 KCAL/MOL
REMARK 924 INTRA-LIGAND FREE ENERGY PREDICTED BY IDOCK:   -0.22 KCAL/MOL
REMARK 927      BINDING AFFINITY PREDICTED BY RF-SCORE:    0.00 PKD
ROOT
HETATM    1  C   UNL     1      -9.732   9.149  69.744  1.00  0.00    -0.181 C  
HETATM    2  C   UNL     1     -10.445   9.133  68.413  1.00  0.00    -0.199 C  
HETATM    3  O   UNL     1     -10.229   9.638  70.761  1.00  0.00    -0.290 OA 
HETATM    4  F   UNL     1     -10.486   7.887  67.872  1.00  0.00    -0.237 F  
ENDROOT
BRANCH   2   5
HETATM    5  C   UNL     1      -9.841  10.113  67.401  1.00  0.00    -0.187 C  
HETATM    6  O   UNL     1      -9.340  11.305  68.045  1.00  0.00    -0.156 OA 
HETATM    7  H   UNL     1      -8.965  11.912  67.418  1.00  0.00     0.000 HD 
BRANCH   5   8
HETATM    8  C   UNL     1      -8.688   9.590  66.514  1.00  0.00    -0.134 C  
HETATM    9  O   UNL     1      -7.471   9.763  67.290  1.00  0.00    -0.087 OA 
HETATM   10  H   UNL     1      -6.763   9.442  66.745  1.00  0.00     0.000 HD 
BRANCH   8  11
HETATM   11  C   UNL     1      -8.491  10.244  65.127  1.00  0.00    -0.168 C  
HETATM   12  H   UNL     1      -9.095   9.875  63.295  1.00  0.00     0.000 HD 
HETATM   13  O   UNL     1      -9.217   9.473  64.148  1.00  0.00    -0.226 OA 
BRANCH  11  14
HETATM   14  C   UNL     1      -7.035  10.353  64.648  1.00  0.00    -0.017 C  
HETATM   15  O   UNL     1      -6.782   9.485  63.543  1.00  0.00    -0.097 OA 
HETATM   16  H   UNL     1      -5.881   9.552  63.247  1.00  0.00     0.000 HD 
ENDBRANCH  11  14
ENDBRANCH   8  11
ENDBRANCH   5   8
ENDBRANCH   2   5
TORSDOF 4
ENDMDL
MODEL      340
REMARK 921   NORMALIZED FREE ENERGY PREDICTED BY IDOCK:   -1.59 KCAL/MOL
REMARK 922        TOTAL FREE ENERGY PREDICTED BY IDOCK:   -2.19 KCAL/MOL
REMARK 923 INTER-LIGAND FREE ENERGY PREDICTED BY IDOCK:   -1.59 KCAL/MOL
REMARK 924 INTRA-LIGAND FREE ENERGY PREDICTED BY IDOCK:   -0.60 KCAL/MOL
REMARK 927      BINDING AFFINITY PREDICTED BY RF-SCORE:    0.00 PKD
ROOT
HETATM    1  C   UNL     1      -8.152   7.925  70.525  1.00  0.00    -0.109 C  
HETATM    2  C   UNL     1      -8.614   6.681  69.803  1.00  0.00    -0.136 C  
HETATM    3  O   UNL     1      -7.533   7.885  71.590  1.00  0.00    -0.064 OA 
HETATM    4  F   UNL     1      -8.217   6.670  68.503  1.00  0.00    -0.113 F  
ENDROOT
BRANCH   2   5
HETATM    5  C   UNL     1     -10.131   6.477  69.879  1.00  0.00    -0.173 C  
HETATM    6  O   UNL     1     -10.611   5.639  68.805  1.00  0.00    -0.229 OA 
HETATM    7  H   UNL     1     -11.552   5.513  68.851  1.00  0.00     0.000 HD 
BRANCH   5   8
HETATM    8  C   UNL     1     -10.698   5.868  71.181  1.00  0.00    -0.265 C  
HETATM    9  O   UNL     1     -10.848   6.975  72.112  1.00  0.00    -0.215 OA 
HETATM   10  H   UNL     1     -11.197   6.601  72.912  1.00  0.00     0.000 HD 
BRANCH   8  11
HETATM   11  C   UNL     1      -9.884   4.747  71.868  1.00  0.00    -0.176 C  
HETATM   12  H   UNL     1     -10.009   2.792  71.997  1.00  0.00     0.000 HD 
HETATM   13  O   UNL     1     -10.509   3.481  71.576  1.00  0.00     0.151 OA 
BRANCH  11  14
HETATM   14  C   UNL     1      -9.758   4.863  73.395  1.00  0.00    -0.140 C  
HETATM   15  O   UNL     1      -8.792   5.847  73.767  1.00  0.00    -0.124 OA 
HETATM   16  H   UNL     1      -8.715   5.919  74.712  1.00  0.00     0.000 HD 
ENDBRANCH  11  14
ENDBRANCH   8  11
ENDBRANCH   5   8
ENDBRANCH   2   5
TORSDOF 4
ENDMDL
MODEL      341
REMARK 921   NORMALIZED FREE ENERGY PREDICTED BY IDOCK:   -1.58 KCAL/MOL
REMARK 922        TOTAL FREE ENERGY PREDICTED BY IDOCK:   -2.19 KCAL/MOL
REMARK 923 INTER-LIGAND FREE ENERGY PREDICTED BY IDOCK:   -3.13 KCAL/MOL
REMARK 924 INTRA-LIGAND FREE ENERGY PREDICTED BY IDOCK:    0.95 KCAL/MOL
REMARK 927      BINDING AFFINITY PREDICTED BY RF-SCORE:    0.00 PKD
ROOT
HETATM    1  C   UNL     1      -9.271   9.308  66.684  1.00  0.00    -0.148 C  
HETATM    2  C   UNL     1      -9.703  10.744  66.510  1.00  0.00    -0.196 C  
HETATM    3  O   UNL     1      -9.752   8.383  66.028  1.00  0.00    -0.195 OA 
HETATM    4  F   UNL     1      -8.646  11.574  66.302  1.00  0.00    -0.174 F  
ENDROOT
BRANCH   2   5
HETATM    5  C   UNL     1     -10.539  11.263  67.686  1.00  0.00    -0.213 C  
HETATM    6  O   UNL     1     -11.849  10.655  67.719  1.00  0.00    -0.699 OA 
HETATM    7  H   UNL     1     -12.367  10.977  68.447  1.00  0.00     0.000 HD 
BRANCH   5   8
HETATM    8  C   UNL     1      -9.950  11.085  69.103  1.00  0.00    -0.121 C  
HETATM    9  O   UNL     1      -8.537  10.798  68.920  1.00  0.00    -0.151 OA 
HETATM   10  H   UNL     1      -8.174  10.689  69.791  1.00  0.00     0.000 HD 
BRANCH   8  11
HETATM   11  C   UNL     1     -10.565   9.995  70.010  1.00  0.00    -0.293 C  
HETATM   12  H   UNL     1     -11.129   8.127  69.785  1.00  0.00     0.000 HD 
HETATM   13  O   UNL     1     -10.751   8.797  69.228  1.00  0.00    -0.221 OA 
BRANCH  11  14
HETATM   14  C   UNL     1     -11.918  10.350  70.646  1.00  0.00    -0.351 C  
HETATM   15  O   UNL     1     -12.093  11.764  70.747  1.00  0.00    -0.370 OA 
HETATM   16  H   UNL     1     -12.930  11.983  71.140  1.00  0.00     0.000 HD 
ENDBRANCH  11  14
ENDBRANCH   8  11
ENDBRANCH   5   8
ENDBRANCH   2   5
TORSDOF 4
ENDMDL
MODEL      342
REMARK 921   NORMALIZED FREE ENERGY PREDICTED BY IDOCK:   -1.55 KCAL/MOL
REMARK 922        TOTAL FREE ENERGY PREDICTED BY IDOCK:   -2.14 KCAL/MOL
REMARK 923 INTER-LIGAND FREE ENERGY PREDICTED BY IDOCK:   -1.94 KCAL/MOL
REMARK 924 INTRA-LIGAND FREE ENERGY PREDICTED BY IDOCK:   -0.20 KCAL/MOL
REMARK 927      BINDING AFFINITY PREDICTED BY RF-SCORE:    0.00 PKD
ROOT
HETATM    1  C   UNL     1      -9.072   4.759  70.383  1.00  0.00    -0.119 C  
HETATM    2  C   UNL     1      -9.905   5.772  71.131  1.00  0.00    -0.180 C  
HETATM    3  O   UNL     1      -8.079   4.218  70.875  1.00  0.00    -0.069 OA 
HETATM    4  F   UNL     1     -11.226   5.450  71.126  1.00  0.00    -0.259 F  
ENDROOT
BRANCH   2   5
HETATM    5  C   UNL     1      -9.722   7.200  70.605  1.00  0.00    -0.175 C  
HETATM    6  O   UNL     1     -10.938   7.712  70.016  1.00  0.00    -0.255 OA 
HETATM    7  H   UNL     1     -10.825   8.597  69.690  1.00  0.00     0.000 HD 
BRANCH   5   8
HETATM    8  C   UNL     1      -9.254   8.271  71.617  1.00  0.00    -0.185 C  
HETATM    9  O   UNL     1     -10.365   9.196  71.768  1.00  0.00    -0.344 OA 
HETATM   10  H   UNL     1     -10.077   9.854  72.389  1.00  0.00     0.000 HD 
BRANCH   8  11
HETATM   11  C   UNL     1      -7.978   9.076  71.278  1.00  0.00    -0.091 C  
HETATM   12  H   UNL     1      -7.442  10.344  69.878  1.00  0.00     0.000 HD 
HETATM   13  O   UNL     1      -8.225   9.849  70.086  1.00  0.00    -0.186 OA 
BRANCH  11  14
HETATM   14  C   UNL     1      -6.713   8.239  71.036  1.00  0.00    -0.045 C  
HETATM   15  O   UNL     1      -6.317   8.273  69.664  1.00  0.00    -0.036 OA 
HETATM   16  H   UNL     1      -5.534   7.755  69.515  1.00  0.00     0.000 HD 
ENDBRANCH  11  14
ENDBRANCH   8  11
ENDBRANCH   5   8
ENDBRANCH   2   5
TORSDOF 4
ENDMDL
MODEL      343
REMARK 921   NORMALIZED FREE ENERGY PREDICTED BY IDOCK:   -1.53 KCAL/MOL
REMARK 922        TOTAL FREE ENERGY PREDICTED BY IDOCK:   -2.12 KCAL/MOL
REMARK 923 INTER-LIGAND FREE ENERGY PREDICTED BY IDOCK:   -1.50 KCAL/MOL
REMARK 924 INTRA-LIGAND FREE ENERGY PREDICTED BY IDOCK:   -0.62 KCAL/MOL
REMARK 927      BINDING AFFINITY PREDICTED BY RF-SCORE:    0.00 PKD
ROOT
HETATM    1  C   UNL     1      -8.956   3.553  65.268  1.00  0.00    -0.137 C  
HETATM    2  C   UNL     1      -8.605   4.611  66.287  1.00  0.00    -0.113 C  
HETATM    3  O   UNL     1      -9.043   3.793  64.062  1.00  0.00    -0.114 OA 
HETATM    4  F   UNL     1      -7.570   4.229  67.082  1.00  0.00    -0.074 F  
ENDROOT
BRANCH   2   5
HETATM    5  C   UNL     1      -9.798   5.018  67.159  1.00  0.00    -0.182 C  
HETATM    6  O   UNL     1      -9.764   4.367  68.448  1.00  0.00    -0.148 OA 
HETATM    7  H   UNL     1     -10.504   4.619  68.989  1.00  0.00     0.000 HD 
BRANCH   5   8
HETATM    8  C   UNL     1      -9.980   6.526  67.447  1.00  0.00    -0.143 C  
HETATM    9  O   UNL     1      -8.846   7.194  66.832  1.00  0.00    -0.121 OA 
HETATM   10  H   UNL     1      -8.958   8.121  67.008  1.00  0.00     0.000 HD 
BRANCH   8  11
HETATM   11  C   UNL     1     -10.081   6.972  68.923  1.00  0.00    -0.173 C  
HETATM   12  H   UNL     1     -11.041   8.372  69.911  1.00  0.00     0.000 HD 
HETATM   13  O   UNL     1     -10.979   8.098  69.003  1.00  0.00    -0.057 OA 
BRANCH  11  14
HETATM   14  C   UNL     1      -8.755   7.387  69.580  1.00  0.00    -0.137 C  
HETATM   15  O   UNL     1      -7.828   6.301  69.619  1.00  0.00    -0.102 OA 
HETATM   16  H   UNL     1      -7.009   6.558  70.025  1.00  0.00     0.000 HD 
ENDBRANCH  11  14
ENDBRANCH   8  11
ENDBRANCH   5   8
ENDBRANCH   2   5
TORSDOF 4
ENDMDL
MODEL      344
REMARK 921   NORMALIZED FREE ENERGY PREDICTED BY IDOCK:   -1.53 KCAL/MOL
REMARK 922        TOTAL FREE ENERGY PREDICTED BY IDOCK:   -2.12 KCAL/MOL
REMARK 923 INTER-LIGAND FREE ENERGY PREDICTED BY IDOCK:   -1.81 KCAL/MOL
REMARK 924 INTRA-LIGAND FREE ENERGY PREDICTED BY IDOCK:   -0.31 KCAL/MOL
REMARK 927      BINDING AFFINITY PREDICTED BY RF-SCORE:    0.00 PKD
ROOT
HETATM    1  C   UNL     1      -7.938   8.151  70.731  1.00  0.00    -0.097 C  
HETATM    2  C   UNL     1      -7.980   6.795  70.069  1.00  0.00    -0.116 C  
HETATM    3  O   UNL     1      -7.440   8.334  71.844  1.00  0.00    -0.084 OA 
HETATM    4  F   UNL     1      -7.466   6.825  68.811  1.00  0.00    -0.085 F  
ENDROOT
BRANCH   2   5
HETATM    5  C   UNL     1      -9.389   6.192  70.034  1.00  0.00    -0.154 C  
HETATM    6  O   UNL     1     -10.406   7.216  69.973  1.00  0.00    -0.199 OA 
HETATM    7  H   UNL     1     -11.279   6.842  69.951  1.00  0.00     0.000 HD 
BRANCH   5   8
HETATM    8  C   UNL     1      -9.706   5.205  68.887  1.00  0.00    -0.156 C  
HETATM    9  O   UNL     1      -8.583   4.286  68.824  1.00  0.00    -0.082 OA 
HETATM   10  H   UNL     1      -8.778   3.679  68.119  1.00  0.00     0.000 HD 
BRANCH   8  11
HETATM   11  C   UNL     1      -9.951   5.791  67.478  1.00  0.00    -0.148 C  
HETATM   12  H   UNL     1     -11.432   6.705  66.568  1.00  0.00     0.000 HD 
HETATM   13  O   UNL     1     -11.282   6.345  67.435  1.00  0.00    -0.352 OA 
BRANCH  11  14
HETATM   14  C   UNL     1      -9.824   4.793  66.316  1.00  0.00    -0.220 C  
HETATM   15  O   UNL     1      -8.458   4.580  65.956  1.00  0.00    -0.113 OA 
HETATM   16  H   UNL     1      -8.380   3.963  65.238  1.00  0.00     0.000 HD 
ENDBRANCH  11  14
ENDBRANCH   8  11
ENDBRANCH   5   8
ENDBRANCH   2   5
TORSDOF 4
ENDMDL
MODEL      345
REMARK 921   NORMALIZED FREE ENERGY PREDICTED BY IDOCK:   -1.49 KCAL/MOL
REMARK 922        TOTAL FREE ENERGY PREDICTED BY IDOCK:   -2.08 KCAL/MOL
REMARK 923 INTER-LIGAND FREE ENERGY PREDICTED BY IDOCK:   -3.13 KCAL/MOL
REMARK 924 INTRA-LIGAND FREE ENERGY PREDICTED BY IDOCK:    1.05 KCAL/MOL
REMARK 927      BINDING AFFINITY PREDICTED BY RF-SCORE:    0.00 PKD
ROOT
HETATM    1  C   UNL     1      -8.499   8.980  68.694  1.00  0.00    -0.128 C  
HETATM    2  C   UNL     1      -9.651   9.581  67.923  1.00  0.00    -0.133 C  
HETATM    3  O   UNL     1      -7.891   7.979  68.311  1.00  0.00    -0.117 OA 
HETATM    4  F   UNL     1      -9.476  10.910  67.700  1.00  0.00    -0.154 F  
ENDROOT
BRANCH   2   5
HETATM    5  C   UNL     1     -11.007   9.347  68.598  1.00  0.00    -0.032 C  
HETATM    6  O   UNL     1     -11.228   7.948  68.881  1.00  0.00    -0.404 OA 
HETATM    7  H   UNL     1     -12.069   7.803  69.299  1.00  0.00     0.000 HD 
BRANCH   5   8
HETATM    8  C   UNL     1     -11.276  10.098  69.922  1.00  0.00    -0.287 C  
HETATM    9  O   UNL     1     -10.427  11.278  69.896  1.00  0.00    -0.414 OA 
HETATM   10  H   UNL     1     -10.593  11.740  70.709  1.00  0.00     0.000 HD 
BRANCH   8  11
HETATM   11  C   UNL     1     -11.032   9.338  71.246  1.00  0.00    -0.351 C  
HETATM   12  H   UNL     1     -10.061   7.718  71.783  1.00  0.00     0.000 HD 
HETATM   13  O   UNL     1     -10.211   8.185  70.970  1.00  0.00    -0.186 OA 
BRANCH  11  14
HETATM   14  C   UNL     1     -12.296   8.848  71.969  1.00  0.00    -0.390 C  
HETATM   15  O   UNL     1     -13.452   8.964  71.138  1.00  0.00    -0.533 OA 
HETATM   16  H   UNL     1     -14.234   8.661  71.585  1.00  0.00     0.000 HD 
ENDBRANCH  11  14
ENDBRANCH   8  11
ENDBRANCH   5   8
ENDBRANCH   2   5
TORSDOF 4
ENDMDL
MODEL      346
REMARK 921   NORMALIZED FREE ENERGY PREDICTED BY IDOCK:   -1.46 KCAL/MOL
REMARK 922        TOTAL FREE ENERGY PREDICTED BY IDOCK:   -2.03 KCAL/MOL
REMARK 923 INTER-LIGAND FREE ENERGY PREDICTED BY IDOCK:   -2.16 KCAL/MOL
REMARK 924 INTRA-LIGAND FREE ENERGY PREDICTED BY IDOCK:    0.13 KCAL/MOL
REMARK 927      BINDING AFFINITY PREDICTED BY RF-SCORE:    0.00 PKD
ROOT
HETATM    1  C   UNL     1      -8.984   4.995  70.857  1.00  0.00    -0.134 C  
HETATM    2  C   UNL     1      -9.625   6.186  71.529  1.00  0.00    -0.155 C  
HETATM    3  O   UNL     1      -8.233   4.220  71.452  1.00  0.00    -0.080 OA 
HETATM    4  F   UNL     1     -10.972   6.210  71.347  1.00  0.00    -0.279 F  
ENDROOT
BRANCH   2   5
HETATM    5  C   UNL     1      -9.022   7.521  71.078  1.00  0.00    -0.147 C  
HETATM    6  O   UNL     1      -7.590   7.431  70.911  1.00  0.00    -0.080 OA 
HETATM    7  H   UNL     1      -7.216   8.258  70.632  1.00  0.00     0.000 HD 
BRANCH   5   8
HETATM    8  C   UNL     1      -9.566   8.135  69.768  1.00  0.00    -0.171 C  
HETATM    9  O   UNL     1     -10.981   8.381  69.996  1.00  0.00    -0.266 OA 
HETATM   10  H   UNL     1     -11.316   8.758  69.191  1.00  0.00     0.000 HD 
BRANCH   8  11
HETATM   11  C   UNL     1      -9.406   7.318  68.466  1.00  0.00    -0.141 C  
HETATM   12  H   UNL     1      -8.520   7.586  66.734  1.00  0.00     0.000 HD 
HETATM   13  O   UNL     1      -8.619   8.088  67.534  1.00  0.00    -0.125 OA 
BRANCH  11  14
HETATM   14  C   UNL     1     -10.716   6.933  67.761  1.00  0.00    -0.254 C  
HETATM   15  O   UNL     1     -10.862   7.619  66.518  1.00  0.00    -0.333 OA 
HETATM   16  H   UNL     1     -11.673   7.381  66.082  1.00  0.00     0.000 HD 
ENDBRANCH  11  14
ENDBRANCH   8  11
ENDBRANCH   5   8
ENDBRANCH   2   5
TORSDOF 4
ENDMDL
MODEL      347
REMARK 921   NORMALIZED FREE ENERGY PREDICTED BY IDOCK:   -1.44 KCAL/MOL
REMARK 922        TOTAL FREE ENERGY PREDICTED BY IDOCK:   -2.01 KCAL/MOL
REMARK 923 INTER-LIGAND FREE ENERGY PREDICTED BY IDOCK:   -1.39 KCAL/MOL
REMARK 924 INTRA-LIGAND FREE ENERGY PREDICTED BY IDOCK:   -0.61 KCAL/MOL
REMARK 927      BINDING AFFINITY PREDICTED BY RF-SCORE:    0.00 PKD
ROOT
HETATM    1  C   UNL     1      -6.591   7.585  68.546  1.00  0.00    -0.049 C  
HETATM    2  C   UNL     1      -6.699   7.739  67.048  1.00  0.00    -0.068 C  
HETATM    3  O   UNL     1      -5.748   6.863  69.083  1.00  0.00    -0.017 OA 
HETATM    4  F   UNL     1      -6.692   9.044  66.668  1.00  0.00    -0.070 F  
ENDROOT
BRANCH   2   5
HETATM    5  C   UNL     1      -7.932   7.041  66.464  1.00  0.00    -0.108 C  
HETATM    6  O   UNL     1      -7.963   7.127  65.023  1.00  0.00    -0.119 OA 
HETATM    7  H   UNL     1      -8.727   6.695  64.661  1.00  0.00     0.000 HD 
BRANCH   5   8
HETATM    8  C   UNL     1      -8.126   5.546  66.806  1.00  0.00    -0.105 C  
HETATM    9  O   UNL     1      -7.088   4.829  66.084  1.00  0.00    -0.071 OA 
HETATM   10  H   UNL     1      -7.207   3.910  66.295  1.00  0.00     0.000 HD 
BRANCH   8  11
HETATM   11  C   UNL     1      -9.494   4.902  66.482  1.00  0.00    -0.152 C  
HETATM   12  H   UNL     1     -10.757   3.727  67.421  1.00  0.00     0.000 HD 
HETATM   13  O   UNL     1      -9.916   4.123  67.620  1.00  0.00    -0.118 OA 
BRANCH  11  14
HETATM   14  C   UNL     1      -9.516   3.981  65.253  1.00  0.00    -0.172 C  
HETATM   15  O   UNL     1      -9.504   4.731  64.037  1.00  0.00    -0.346 OA 
HETATM   16  H   UNL     1      -9.518   4.161  63.277  1.00  0.00     0.000 HD 
ENDBRANCH  11  14
ENDBRANCH   8  11
ENDBRANCH   5   8
ENDBRANCH   2   5
TORSDOF 4
ENDMDL
MODEL      348
REMARK 921   NORMALIZED FREE ENERGY PREDICTED BY IDOCK:   -1.40 KCAL/MOL
REMARK 922        TOTAL FREE ENERGY PREDICTED BY IDOCK:   -1.96 KCAL/MOL
REMARK 923 INTER-LIGAND FREE ENERGY PREDICTED BY IDOCK:   -1.78 KCAL/MOL
REMARK 924 INTRA-LIGAND FREE ENERGY PREDICTED BY IDOCK:   -0.19 KCAL/MOL
REMARK 927      BINDING AFFINITY PREDICTED BY RF-SCORE:    0.00 PKD
ROOT
HETATM    1  C   UNL     1     -10.898   7.197  69.386  1.00  0.00    -0.206 C  
HETATM    2  C   UNL     1      -9.964   7.607  70.500  1.00  0.00    -0.184 C  
HETATM    3  O   UNL     1     -11.593   6.181  69.440  1.00  0.00    -0.372 OA 
HETATM    4  F   UNL     1     -10.172   8.892  70.892  1.00  0.00    -0.221 F  
ENDROOT
BRANCH   2   5
HETATM    5  C   UNL     1      -8.486   7.413  70.141  1.00  0.00    -0.137 C  
HETATM    6  O   UNL     1      -8.262   7.528  68.719  1.00  0.00    -0.126 OA 
HETATM    7  H   UNL     1      -7.346   7.407  68.497  1.00  0.00     0.000 HD 
BRANCH   5   8
HETATM    8  C   UNL     1      -7.466   8.360  70.813  1.00  0.00    -0.065 C  
HETATM    9  O   UNL     1      -6.348   8.468  69.890  1.00  0.00    -0.034 OA 
HETATM   10  H   UNL     1      -5.721   9.051  70.302  1.00  0.00     0.000 HD 
BRANCH   8  11
HETATM   11  C   UNL     1      -6.925   7.968  72.207  1.00  0.00    -0.082 C  
HETATM   12  H   UNL     1      -6.149   6.355  73.015  1.00  0.00     0.000 HD 
HETATM   13  O   UNL     1      -6.482   6.596  72.158  1.00  0.00    -0.052 OA 
BRANCH  11  14
HETATM   14  C   UNL     1      -7.927   8.093  73.365  1.00  0.00    -0.183 C  
HETATM   15  O   UNL     1      -8.037   6.871  74.096  1.00  0.00    -0.113 OA 
HETATM   16  H   UNL     1      -8.657   6.949  74.812  1.00  0.00     0.000 HD 
ENDBRANCH  11  14
ENDBRANCH   8  11
ENDBRANCH   5   8
ENDBRANCH   2   5
TORSDOF 4
ENDMDL
MODEL      349
REMARK 921   NORMALIZED FREE ENERGY PREDICTED BY IDOCK:   -1.40 KCAL/MOL
REMARK 922        TOTAL FREE ENERGY PREDICTED BY IDOCK:   -1.96 KCAL/MOL
REMARK 923 INTER-LIGAND FREE ENERGY PREDICTED BY IDOCK:   -1.23 KCAL/MOL
REMARK 924 INTRA-LIGAND FREE ENERGY PREDICTED BY IDOCK:   -0.73 KCAL/MOL
REMARK 927      BINDING AFFINITY PREDICTED BY RF-SCORE:    0.00 PKD
ROOT
HETATM    1  C   UNL     1      -7.138  10.324  68.203  1.00  0.00    -0.082 C  
HETATM    2  C   UNL     1      -8.450   9.635  68.494  1.00  0.00    -0.118 C  
HETATM    3  O   UNL     1      -7.003  11.141  67.290  1.00  0.00    -0.083 OA 
HETATM    4  F   UNL     1      -8.812   9.758  69.799  1.00  0.00    -0.161 F  
ENDROOT
BRANCH   2   5
HETATM    5  C   UNL     1      -8.445   8.153  68.101  1.00  0.00    -0.126 C  
HETATM    6  O   UNL     1      -7.439   7.869  67.105  1.00  0.00    -0.089 OA 
HETATM    7  H   UNL     1      -7.435   6.951  66.861  1.00  0.00     0.000 HD 
BRANCH   5   8
HETATM    8  C   UNL     1      -8.230   7.123  69.233  1.00  0.00    -0.128 C  
HETATM    9  O   UNL     1      -6.791   7.015  69.411  1.00  0.00    -0.051 OA 
HETATM   10  H   UNL     1      -6.659   6.382  70.107  1.00  0.00     0.000 HD 
BRANCH   8  11
HETATM   11  C   UNL     1      -8.815   5.705  69.040  1.00  0.00    -0.106 C  
HETATM   12  H   UNL     1      -9.891   4.466  70.118  1.00  0.00     0.000 HD 
HETATM   13  O   UNL     1      -9.531   5.337  70.237  1.00  0.00    -0.153 OA 
BRANCH  11  14
HETATM   14  C   UNL     1      -7.788   4.599  68.751  1.00  0.00    -0.075 C  
HETATM   15  O   UNL     1      -7.026   4.887  67.578  1.00  0.00    -0.059 OA 
HETATM   16  H   UNL     1      -6.391   4.203  67.400  1.00  0.00     0.000 HD 
ENDBRANCH  11  14
ENDBRANCH   8  11
ENDBRANCH   5   8
ENDBRANCH   2   5
TORSDOF 4
ENDMDL
MODEL      350
REMARK 921   NORMALIZED FREE ENERGY PREDICTED BY IDOCK:   -1.36 KCAL/MOL
REMARK 922        TOTAL FREE ENERGY PREDICTED BY IDOCK:   -1.92 KCAL/MOL
REMARK 923 INTER-LIGAND FREE ENERGY PREDICTED BY IDOCK:   -1.74 KCAL/MOL
REMARK 924 INTRA-LIGAND FREE ENERGY PREDICTED BY IDOCK:   -0.18 KCAL/MOL
REMARK 927      BINDING AFFINITY PREDICTED BY RF-SCORE:    0.00 PKD
ROOT
HETATM    1  C   UNL     1      -9.814   6.849  66.892  1.00  0.00    -0.183 C  
HETATM    2  C   UNL     1      -8.853   7.739  67.644  1.00  0.00    -0.128 C  
HETATM    3  O   UNL     1     -10.985   7.167  66.675  1.00  0.00    -0.194 OA 
HETATM    4  F   UNL     1      -7.698   7.938  66.955  1.00  0.00    -0.092 F  
ENDROOT
BRANCH   2   5
HETATM    5  C   UNL     1      -8.530   7.216  69.048  1.00  0.00    -0.129 C  
HETATM    6  O   UNL     1      -7.123   7.337  69.352  1.00  0.00    -0.070 OA 
HETATM    7  H   UNL     1      -6.923   7.012  70.222  1.00  0.00     0.000 HD 
BRANCH   5   8
HETATM    8  C   UNL     1      -9.281   7.864  70.233  1.00  0.00    -0.152 C  
HETATM    9  O   UNL     1      -8.300   8.674  70.937  1.00  0.00    -0.125 OA 
HETATM   10  H   UNL     1      -8.761   9.073  71.665  1.00  0.00     0.000 HD 
BRANCH   8  11
HETATM   11  C   UNL     1      -9.973   6.927  71.249  1.00  0.00    -0.179 C  
HETATM   12  H   UNL     1     -11.001   7.158  72.906  1.00  0.00     0.000 HD 
HETATM   13  O   UNL     1     -10.575   7.734  72.282  1.00  0.00    -0.224 OA 
BRANCH  11  14
HETATM   14  C   UNL     1      -9.058   5.900  71.933  1.00  0.00    -0.138 C  
HETATM   15  O   UNL     1      -8.806   6.250  73.295  1.00  0.00    -0.126 OA 
HETATM   16  H   UNL     1      -8.239   5.615  73.718  1.00  0.00     0.000 HD 
ENDBRANCH  11  14
ENDBRANCH   8  11
ENDBRANCH   5   8
ENDBRANCH   2   5
TORSDOF 4
ENDMDL
MODEL      351
REMARK 921   NORMALIZED FREE ENERGY PREDICTED BY IDOCK:   -0.61 KCAL/MOL
REMARK 922        TOTAL FREE ENERGY PREDICTED BY IDOCK:   -0.99 KCAL/MOL
REMARK 923 INTER-LIGAND FREE ENERGY PREDICTED BY IDOCK:   -1.37 KCAL/MOL
REMARK 924 INTRA-LIGAND FREE ENERGY PREDICTED BY IDOCK:    0.39 KCAL/MOL
REMARK 927      BINDING AFFINITY PREDICTED BY RF-SCORE:    0.00 PKD
ROOT
HETATM    1  C   UNL     1      -9.254   7.685  69.299  1.00  0.00    -0.145 C  
HETATM    2  C   UNL     1      -8.662   6.325  69.585  1.00  0.00    -0.136 C  
HETATM    3  O   UNL     1     -10.469   7.887  69.258  1.00  0.00    -0.218 OA 
HETATM    4  F   UNL     1      -7.752   6.367  70.593  1.00  0.00    -0.094 F  
ENDROOT
BRANCH   2   5
HETATM    5  C   UNL     1      -8.029   5.677  68.348  1.00  0.00    -0.100 C  
HETATM    6  O   UNL     1      -6.760   5.061  68.659  1.00  0.00    -0.047 OA 
HETATM    7  H   UNL     1      -6.368   4.659  67.892  1.00  0.00     0.000 HD 
BRANCH   5   8
HETATM    8  C   UNL     1      -8.859   4.600  67.613  1.00  0.00    -0.106 C  
HETATM    9  O   UNL     1      -8.695   3.374  68.377  1.00  0.00    -0.088 OA 
HETATM   10  H   UNL     1      -9.205   2.712  67.925  1.00  0.00     0.000 HD 
BRANCH   8  11
HETATM   11  C   UNL     1      -8.519   4.313  66.132  1.00  0.00    -0.112 C  
HETATM   12  H   UNL     1      -7.038   3.459  65.165  1.00  0.00     0.000 HD 
HETATM   13  O   UNL     1      -7.247   3.635  66.075  1.00  0.00    -0.065 OA 
BRANCH  11  14
HETATM   14  C   UNL     1      -8.430   5.548  65.223  1.00  0.00    -0.147 C  
HETATM   15  O   UNL     1      -8.195   6.738  65.978  1.00  0.00    -0.115 OA 
HETATM   16  H   UNL     1      -8.140   7.502  65.416  1.00  0.00     0.000 HD 
ENDBRANCH  11  14
ENDBRANCH   8  11
ENDBRANCH   5   8
ENDBRANCH   2   5
TORSDOF 4
ENDMDL
MODEL      352
REMARK 921   NORMALIZED FREE ENERGY PREDICTED BY IDOCK:   -0.32 KCAL/MOL
REMARK 922        TOTAL FREE ENERGY PREDICTED BY IDOCK:   -0.63 KCAL/MOL
REMARK 923 INTER-LIGAND FREE ENERGY PREDICTED BY IDOCK:   -1.52 KCAL/MOL
REMARK 924 INTRA-LIGAND FREE ENERGY PREDICTED BY IDOCK:    0.89 KCAL/MOL
REMARK 927      BINDING AFFINITY PREDICTED BY RF-SCORE:    0.00 PKD
ROOT
HETATM    1  C   UNL     1      -9.406   8.744  69.113  1.00  0.00    -0.149 C  
HETATM    2  C   UNL     1      -7.985   9.081  69.499  1.00  0.00    -0.099 C  
HETATM    3  O   UNL     1     -10.377   9.384  69.521  1.00  0.00    -0.196 OA 
HETATM    4  F   UNL     1      -7.180   9.217  68.412  1.00  0.00    -0.072 F  
ENDROOT
BRANCH   2   5
HETATM    5  C   UNL     1      -7.373   8.064  70.468  1.00  0.00    -0.060 C  
HETATM    6  O   UNL     1      -6.381   8.671  71.324  1.00  0.00    -0.042 OA 
HETATM    7  H   UNL     1      -6.001   8.040  71.924  1.00  0.00     0.000 HD 
BRANCH   5   8
HETATM    8  C   UNL     1      -8.343   7.310  71.407  1.00  0.00    -0.110 C  
HETATM    9  O   UNL     1      -9.483   6.931  70.588  1.00  0.00    -0.165 OA 
HETATM   10  H   UNL     1     -10.079   6.468  71.165  1.00  0.00     0.000 HD 
BRANCH   8  11
HETATM   11  C   UNL     1      -8.856   8.052  72.662  1.00  0.00    -0.203 C  
HETATM   12  H   UNL     1      -8.765   7.768  74.603  1.00  0.00     0.000 HD 
HETATM   13  O   UNL     1      -8.450   7.312  73.831  1.00  0.00    -0.138 OA 
BRANCH  11  14
HETATM   14  C   UNL     1     -10.378   8.247  72.739  1.00  0.00    -0.260 C  
HETATM   15  O   UNL     1     -10.878   7.948  74.043  1.00  0.00    -0.023 OA 
HETATM   16  H   UNL     1     -11.819   8.069  74.090  1.00  0.00     0.000 HD 
ENDBRANCH  11  14
ENDBRANCH   8  11
ENDBRANCH   5   8
ENDBRANCH   2   5
TORSDOF 4
ENDMDL
