MODEL        1
REMARK 921   NORMALIZED FREE ENERGY PREDICTED BY IDOCK:   -7.89 KCAL/MOL
REMARK 922        TOTAL FREE ENERGY PREDICTED BY IDOCK:   -9.22 KCAL/MOL
REMARK 923 INTER-LIGAND FREE ENERGY PREDICTED BY IDOCK:   -8.81 KCAL/MOL
REMARK 924 INTRA-LIGAND FREE ENERGY PREDICTED BY IDOCK:   -0.40 KCAL/MOL
REMARK 927      BINDING AFFINITY PREDICTED BY RF-SCORE:    0.00 PKD
ROOT
HETATM    1  O   UNL     1     -10.005  15.305  65.641  1.00  0.00    -0.325 OA 
HETATM    2  C   UNL     1     -10.624  16.467  65.338  1.00  0.00    -0.320 C  
HETATM    3  C   UNL     1     -10.405  17.561  66.331  1.00  0.00    -0.334 A  
HETATM    4  O   UNL     1     -11.287  16.612  64.327  1.00  0.00    -1.116 OA 
HETATM    5  C   UNL     1     -10.644  18.867  65.863  1.00  0.00    -0.438 A  
HETATM    6  C   UNL     1     -10.523  19.965  66.712  1.00  0.00    -0.575 A  
HETATM    7  C   UNL     1     -10.202  19.770  68.047  1.00  0.00    -0.581 A  
HETATM    8  C   UNL     1      -9.963  18.480  68.524  1.00  0.00    -0.419 A  
HETATM    9  C   UNL     1     -10.010  17.359  67.673  1.00  0.00    -0.300 A  
ENDROOT
BRANCH   9  10
HETATM   10  N   UNL     1      -9.767  16.049  68.197  1.00  0.00    -0.216 NA 
HETATM   11  H   UNL     1      -8.926  15.564  67.882  1.00  0.00     0.000 HD 
BRANCH  10  12
HETATM   12  C   UNL     1     -10.610  15.370  69.126  1.00  0.00    -0.248 A  
HETATM   13  C   UNL     1     -10.966  15.945  70.357  1.00  0.00    -0.361 A  
HETATM   14  C   UNL     1     -11.842  15.294  71.244  1.00  0.00    -0.416 A  
HETATM   15  C   UNL     1     -12.233  15.919  72.561  1.00  0.00    -0.500 C  
HETATM   16  C   UNL     1     -12.353  14.039  70.888  1.00  0.00    -0.443 A  
HETATM   17  F   UNL     1     -13.567  16.176  72.642  1.00  0.00    -0.542 F  
HETATM   18  F   UNL     1     -11.944  15.113  73.621  1.00  0.00    -0.506 F  
HETATM   19  F   UNL     1     -11.608  17.103  72.813  1.00  0.00    -0.484 F  
HETATM   20  C   UNL     1     -11.947  13.425  69.706  1.00  0.00    -0.396 A  
HETATM   21  C   UNL     1     -11.062  14.076  68.842  1.00  0.00    -0.296 A  
ENDBRANCH  10  12
ENDBRANCH   9  10
TORSDOF 2
ENDMDL
MODEL        2
REMARK 921   NORMALIZED FREE ENERGY PREDICTED BY IDOCK:   -7.44 KCAL/MOL
REMARK 922        TOTAL FREE ENERGY PREDICTED BY IDOCK:   -8.71 KCAL/MOL
REMARK 923 INTER-LIGAND FREE ENERGY PREDICTED BY IDOCK:   -8.23 KCAL/MOL
REMARK 924 INTRA-LIGAND FREE ENERGY PREDICTED BY IDOCK:   -0.48 KCAL/MOL
REMARK 927      BINDING AFFINITY PREDICTED BY RF-SCORE:    0.00 PKD
ROOT
HETATM    1  O   UNL     1     -11.678  16.468  63.927  1.00  0.00    -1.148 OA 
HETATM    2  C   UNL     1     -11.951  15.203  64.314  1.00  0.00    -0.262 C  
HETATM    3  C   UNL     1     -11.474  14.860  65.687  1.00  0.00    -0.290 A  
HETATM    4  O   UNL     1     -12.555  14.417  63.606  1.00  0.00    -0.817 OA 
HETATM    5  C   UNL     1     -12.096  13.750  66.290  1.00  0.00    -0.484 A  
HETATM    6  C   UNL     1     -11.700  13.303  67.548  1.00  0.00    -0.410 A  
HETATM    7  C   UNL     1     -10.652  13.934  68.203  1.00  0.00    -0.258 A  
HETATM    8  C   UNL     1     -10.026  15.035  67.617  1.00  0.00    -0.225 A  
HETATM    9  C   UNL     1     -10.452  15.550  66.377  1.00  0.00    -0.306 A  
ENDROOT
BRANCH   9  10
HETATM   10  N   UNL     1      -9.784  16.677  65.801  1.00  0.00    -0.531 NA 
HETATM   11  H   UNL     1      -9.447  16.587  64.842  1.00  0.00     0.000 HD 
BRANCH  10  12
HETATM   12  C   UNL     1      -9.553  17.919  66.465  1.00  0.00    -0.313 A  
HETATM   13  C   UNL     1      -8.455  18.106  67.320  1.00  0.00    -0.243 A  
HETATM   14  C   UNL     1      -8.203  19.349  67.928  1.00  0.00    -0.341 A  
HETATM   15  C   UNL     1      -7.015  19.552  68.837  1.00  0.00    -0.351 C  
HETATM   16  C   UNL     1      -9.082  20.412  67.681  1.00  0.00    -0.393 A  
HETATM   17  F   UNL     1      -6.139  20.475  68.352  1.00  0.00    -0.279 F  
HETATM   18  F   UNL     1      -7.380  19.997  70.072  1.00  0.00    -0.278 F  
HETATM   19  F   UNL     1      -6.287  18.421  69.048  1.00  0.00    -0.206 F  
HETATM   20  C   UNL     1     -10.217  20.217  66.897  1.00  0.00    -0.566 A  
HETATM   21  C   UNL     1     -10.464  18.971  66.313  1.00  0.00    -0.534 A  
ENDBRANCH  10  12
ENDBRANCH   9  10
TORSDOF 2
ENDMDL
MODEL        3
REMARK 921   NORMALIZED FREE ENERGY PREDICTED BY IDOCK:   -7.37 KCAL/MOL
REMARK 922        TOTAL FREE ENERGY PREDICTED BY IDOCK:   -8.63 KCAL/MOL
REMARK 923 INTER-LIGAND FREE ENERGY PREDICTED BY IDOCK:   -8.03 KCAL/MOL
REMARK 924 INTRA-LIGAND FREE ENERGY PREDICTED BY IDOCK:   -0.61 KCAL/MOL
REMARK 927      BINDING AFFINITY PREDICTED BY RF-SCORE:    0.00 PKD
ROOT
HETATM    1  O   UNL     1     -12.047  10.768  70.182  1.00  0.00    -0.294 OA 
HETATM    2  C   UNL     1     -12.692  11.318  71.233  1.00  0.00    -0.405 C  
HETATM    3  C   UNL     1     -12.859  12.800  71.149  1.00  0.00    -0.315 A  
HETATM    4  O   UNL     1     -13.120  10.655  72.160  1.00  0.00    -0.460 OA 
HETATM    5  C   UNL     1     -13.872  13.348  71.960  1.00  0.00    -0.484 A  
HETATM    6  C   UNL     1     -14.087  14.724  72.005  1.00  0.00    -0.604 A  
HETATM    7  C   UNL     1     -13.269  15.571  71.272  1.00  0.00    -0.588 A  
HETATM    8  C   UNL     1     -12.261  15.042  70.465  1.00  0.00    -0.391 A  
HETATM    9  C   UNL     1     -12.066  13.652  70.347  1.00  0.00    -0.351 A  
ENDROOT
BRANCH   9  10
HETATM   10  N   UNL     1     -11.018  13.142  69.515  1.00  0.00    -0.459 NA 
HETATM   11  H   UNL     1     -10.459  12.371  69.880  1.00  0.00     0.000 HD 
BRANCH  10  12
HETATM   12  C   UNL     1     -10.697  13.631  68.214  1.00  0.00    -0.254 A  
HETATM   13  C   UNL     1     -11.488  13.324  67.094  1.00  0.00    -0.380 A  
HETATM   14  C   UNL     1     -11.197  13.854  65.824  1.00  0.00    -0.303 A  
HETATM   15  C   UNL     1     -12.054  13.534  64.624  1.00  0.00    -0.409 C  
HETATM   16  C   UNL     1     -10.082  14.691  65.681  1.00  0.00    -0.389 A  
HETATM   17  F   UNL     1     -12.656  14.638  64.102  1.00  0.00    -0.486 F  
HETATM   18  F   UNL     1     -11.335  12.985  63.606  1.00  0.00    -0.419 F  
HETATM   19  F   UNL     1     -13.059  12.652  64.888  1.00  0.00    -0.539 F  
HETATM   20  C   UNL     1      -9.247  14.940  66.768  1.00  0.00    -0.281 A  
HETATM   21  C   UNL     1      -9.539  14.392  68.020  1.00  0.00    -0.216 A  
ENDBRANCH  10  12
ENDBRANCH   9  10
TORSDOF 2
ENDMDL
MODEL        4
REMARK 921   NORMALIZED FREE ENERGY PREDICTED BY IDOCK:   -7.27 KCAL/MOL
REMARK 922        TOTAL FREE ENERGY PREDICTED BY IDOCK:   -8.52 KCAL/MOL
REMARK 923 INTER-LIGAND FREE ENERGY PREDICTED BY IDOCK:   -7.92 KCAL/MOL
REMARK 924 INTRA-LIGAND FREE ENERGY PREDICTED BY IDOCK:   -0.60 KCAL/MOL
REMARK 927      BINDING AFFINITY PREDICTED BY RF-SCORE:    0.00 PKD
ROOT
HETATM    1  O   UNL     1      -9.446  11.296  68.815  1.00  0.00    -0.187 OA 
HETATM    2  C   UNL     1     -10.206  10.882  67.779  1.00  0.00    -0.180 C  
HETATM    3  C   UNL     1     -10.981  11.967  67.106  1.00  0.00    -0.320 A  
HETATM    4  O   UNL     1     -10.238   9.720  67.413  1.00  0.00    -0.200 OA 
HETATM    5  C   UNL     1     -11.422  11.683  65.799  1.00  0.00    -0.175 A  
HETATM    6  C   UNL     1     -12.198  12.598  65.091  1.00  0.00    -0.539 A  
HETATM    7  C   UNL     1     -12.575  13.790  65.692  1.00  0.00    -0.551 A  
HETATM    8  C   UNL     1     -12.146  14.084  66.987  1.00  0.00    -0.455 A  
HETATM    9  C   UNL     1     -11.305  13.208  67.700  1.00  0.00    -0.298 A  
ENDROOT
BRANCH   9  10
HETATM   10  N   UNL     1     -10.888  13.537  69.030  1.00  0.00    -0.364 NA 
HETATM   11  H   UNL     1      -9.921  13.835  69.161  1.00  0.00     0.000 HD 
BRANCH  10  12
HETATM   12  C   UNL     1     -11.722  13.480  70.186  1.00  0.00    -0.210 A  
HETATM   13  C   UNL     1     -11.907  14.596  71.019  1.00  0.00    -0.379 A  
HETATM   14  C   UNL     1     -12.774  14.549  72.125  1.00  0.00    -0.407 A  
HETATM   15  C   UNL     1     -12.981  15.752  73.012  1.00  0.00    -0.525 C  
HETATM   16  C   UNL     1     -13.451  13.354  72.402  1.00  0.00    -0.685 A  
HETATM   17  F   UNL     1     -14.266  16.201  72.993  1.00  0.00    -0.687 F  
HETATM   18  F   UNL     1     -12.698  15.487  74.318  1.00  0.00    -0.594 F  
HETATM   19  F   UNL     1     -12.208  16.822  72.674  1.00  0.00    -0.464 F  
HETATM   20  C   UNL     1     -13.217  12.219  71.629  1.00  0.00    -0.356 A  
HETATM   21  C   UNL     1     -12.339  12.275  70.543  1.00  0.00    -0.349 A  
ENDBRANCH  10  12
ENDBRANCH   9  10
TORSDOF 2
ENDMDL
MODEL        5
REMARK 921   NORMALIZED FREE ENERGY PREDICTED BY IDOCK:   -7.26 KCAL/MOL
REMARK 922        TOTAL FREE ENERGY PREDICTED BY IDOCK:   -8.51 KCAL/MOL
REMARK 923 INTER-LIGAND FREE ENERGY PREDICTED BY IDOCK:   -8.34 KCAL/MOL
REMARK 924 INTRA-LIGAND FREE ENERGY PREDICTED BY IDOCK:   -0.17 KCAL/MOL
REMARK 927      BINDING AFFINITY PREDICTED BY RF-SCORE:    0.00 PKD
ROOT
HETATM    1  O   UNL     1     -13.307  15.468  71.114  1.00  0.00    -0.500 OA 
HETATM    2  C   UNL     1     -13.604  14.230  71.562  1.00  0.00    -0.355 C  
HETATM    3  C   UNL     1     -12.864  13.129  70.875  1.00  0.00    -0.237 A  
HETATM    4  O   UNL     1     -14.395  14.032  72.468  1.00  0.00    -0.626 OA 
HETATM    5  C   UNL     1     -12.800  11.907  71.573  1.00  0.00    -0.421 A  
HETATM    6  C   UNL     1     -12.181  10.793  71.010  1.00  0.00    -0.485 A  
HETATM    7  C   UNL     1     -11.654  10.874  69.729  1.00  0.00    -0.399 A  
HETATM    8  C   UNL     1     -11.711  12.079  69.027  1.00  0.00    -0.382 A  
HETATM    9  C   UNL     1     -12.269  13.238  69.598  1.00  0.00    -0.199 A  
ENDROOT
BRANCH   9  10
HETATM   10  N   UNL     1     -12.318  14.456  68.847  1.00  0.00    -0.576 NA 
HETATM   11  H   UNL     1     -12.789  15.254  69.273  1.00  0.00     0.000 HD 
BRANCH  10  12
HETATM   12  C   UNL     1     -11.756  14.639  67.548  1.00  0.00    -0.379 A  
HETATM   13  C   UNL     1     -12.106  13.811  66.469  1.00  0.00    -0.483 A  
HETATM   14  C   UNL     1     -11.591  14.031  65.179  1.00  0.00    -0.344 A  
HETATM   15  C   UNL     1     -11.978  13.148  64.018  1.00  0.00    -0.460 C  
HETATM   16  C   UNL     1     -10.697  15.092  64.981  1.00  0.00    -0.451 A  
HETATM   17  F   UNL     1     -12.635  13.830  63.040  1.00  0.00    -0.416 F  
HETATM   18  F   UNL     1     -10.895  12.583  63.415  1.00  0.00    -0.435 F  
HETATM   19  F   UNL     1     -12.794  12.114  64.364  1.00  0.00    -0.526 F  
HETATM   20  C   UNL     1     -10.283  15.871  66.059  1.00  0.00    -0.353 A  
HETATM   21  C   UNL     1     -10.790  15.630  67.339  1.00  0.00    -0.315 A  
ENDBRANCH  10  12
ENDBRANCH   9  10
TORSDOF 2
ENDMDL
MODEL        6
REMARK 921   NORMALIZED FREE ENERGY PREDICTED BY IDOCK:   -7.20 KCAL/MOL
REMARK 922        TOTAL FREE ENERGY PREDICTED BY IDOCK:   -8.45 KCAL/MOL
REMARK 923 INTER-LIGAND FREE ENERGY PREDICTED BY IDOCK:   -8.24 KCAL/MOL
REMARK 924 INTRA-LIGAND FREE ENERGY PREDICTED BY IDOCK:   -0.20 KCAL/MOL
REMARK 927      BINDING AFFINITY PREDICTED BY RF-SCORE:    0.00 PKD
ROOT
HETATM    1  O   UNL     1     -10.456  16.755  67.918  1.00  0.00    -0.309 OA 
HETATM    2  C   UNL     1     -10.496  16.366  66.626  1.00  0.00    -0.274 C  
HETATM    3  C   UNL     1     -11.124  15.029  66.401  1.00  0.00    -0.329 A  
HETATM    4  O   UNL     1     -10.074  17.061  65.719  1.00  0.00    -0.516 OA 
HETATM    5  C   UNL     1     -11.580  14.782  65.092  1.00  0.00    -0.358 A  
HETATM    6  C   UNL     1     -12.136  13.551  64.748  1.00  0.00    -0.442 A  
HETATM    7  C   UNL     1     -12.208  12.541  65.696  1.00  0.00    -0.403 A  
HETATM    8  C   UNL     1     -11.760  12.774  66.998  1.00  0.00    -0.440 A  
HETATM    9  C   UNL     1     -11.257  14.029  67.390  1.00  0.00    -0.311 A  
ENDROOT
BRANCH   9  10
HETATM   10  N   UNL     1     -10.799  14.232  68.731  1.00  0.00    -0.246 NA 
HETATM   11  H   UNL     1      -9.842  14.562  68.858  1.00  0.00     0.000 HD 
BRANCH  10  12
HETATM   12  C   UNL     1     -11.579  14.007  69.904  1.00  0.00    -0.254 A  
HETATM   13  C   UNL     1     -11.704  14.983  70.907  1.00  0.00    -0.376 A  
HETATM   14  C   UNL     1     -12.519  14.776  72.033  1.00  0.00    -0.410 A  
HETATM   15  C   UNL     1     -12.663  15.831  73.104  1.00  0.00    -0.507 C  
HETATM   16  C   UNL     1     -13.204  13.560  72.157  1.00  0.00    -0.551 A  
HETATM   17  F   UNL     1     -13.939  16.290  73.217  1.00  0.00    -0.696 F  
HETATM   18  F   UNL     1     -12.324  15.364  74.338  1.00  0.00    -0.627 F  
HETATM   19  F   UNL     1     -11.887  16.931  72.896  1.00  0.00    -0.574 F  
HETATM   20  C   UNL     1     -13.027  12.555  71.209  1.00  0.00    -0.301 A  
HETATM   21  C   UNL     1     -12.200  12.768  70.103  1.00  0.00    -0.320 A  
ENDBRANCH  10  12
ENDBRANCH   9  10
TORSDOF 2
ENDMDL
MODEL        7
REMARK 921   NORMALIZED FREE ENERGY PREDICTED BY IDOCK:   -7.20 KCAL/MOL
REMARK 922        TOTAL FREE ENERGY PREDICTED BY IDOCK:   -8.44 KCAL/MOL
REMARK 923 INTER-LIGAND FREE ENERGY PREDICTED BY IDOCK:   -7.84 KCAL/MOL
REMARK 924 INTRA-LIGAND FREE ENERGY PREDICTED BY IDOCK:   -0.60 KCAL/MOL
REMARK 927      BINDING AFFINITY PREDICTED BY RF-SCORE:    0.00 PKD
ROOT
HETATM    1  O   UNL     1     -13.225  12.799  64.919  1.00  0.00    -0.808 OA 
HETATM    2  C   UNL     1     -12.073  12.562  64.257  1.00  0.00    -0.428 C  
HETATM    3  C   UNL     1     -11.062  11.782  65.033  1.00  0.00    -0.343 A  
HETATM    4  O   UNL     1     -11.885  12.936  63.113  1.00  0.00    -0.506 OA 
HETATM    5  C   UNL     1     -10.064  11.146  64.270  1.00  0.00    -0.382 A  
HETATM    6  C   UNL     1      -9.038  10.433  64.886  1.00  0.00    -0.242 A  
HETATM    7  C   UNL     1      -8.974  10.379  66.270  1.00  0.00    -0.172 A  
HETATM    8  C   UNL     1      -9.957  11.005  67.039  1.00  0.00    -0.223 A  
HETATM    9  C   UNL     1     -11.042  11.674  66.442  1.00  0.00    -0.291 A  
ENDROOT
BRANCH   9  10
HETATM   10  N   UNL     1     -12.030  12.311  67.260  1.00  0.00    -0.559 NA 
HETATM   11  H   UNL     1     -12.942  11.860  67.336  1.00  0.00     0.000 HD 
BRANCH  10  12
HETATM   12  C   UNL     1     -11.835  13.529  67.976  1.00  0.00    -0.365 A  
HETATM   13  C   UNL     1     -12.148  13.641  69.342  1.00  0.00    -0.364 A  
HETATM   14  C   UNL     1     -11.902  14.827  70.055  1.00  0.00    -0.362 A  
HETATM   15  C   UNL     1     -12.226  14.941  71.525  1.00  0.00    -0.343 C  
HETATM   16  C   UNL     1     -11.348  15.920  69.376  1.00  0.00    -0.349 A  
HETATM   17  F   UNL     1     -11.120  15.157  72.288  1.00  0.00    -0.504 F  
HETATM   18  F   UNL     1     -13.069  15.978  71.789  1.00  0.00    -0.510 F  
HETATM   19  F   UNL     1     -12.826  13.833  72.041  1.00  0.00    -0.390 F  
HETATM   20  C   UNL     1     -11.106  15.848  68.006  1.00  0.00    -0.334 A  
HETATM   21  C   UNL     1     -11.372  14.667  67.306  1.00  0.00    -0.364 A  
ENDBRANCH  10  12
ENDBRANCH   9  10
TORSDOF 2
ENDMDL
MODEL        8
REMARK 921   NORMALIZED FREE ENERGY PREDICTED BY IDOCK:   -7.20 KCAL/MOL
REMARK 922        TOTAL FREE ENERGY PREDICTED BY IDOCK:   -8.44 KCAL/MOL
REMARK 923 INTER-LIGAND FREE ENERGY PREDICTED BY IDOCK:   -7.92 KCAL/MOL
REMARK 924 INTRA-LIGAND FREE ENERGY PREDICTED BY IDOCK:   -0.52 KCAL/MOL
REMARK 927      BINDING AFFINITY PREDICTED BY RF-SCORE:    0.00 PKD
ROOT
HETATM    1  O   UNL     1     -13.036  13.720  65.323  1.00  0.00    -0.756 OA 
HETATM    2  C   UNL     1     -11.960  12.962  65.020  1.00  0.00    -0.405 C  
HETATM    3  C   UNL     1     -11.369  12.234  66.183  1.00  0.00    -0.402 A  
HETATM    4  O   UNL     1     -11.524  12.867  63.887  1.00  0.00    -0.391 OA 
HETATM    5  C   UNL     1     -10.559  11.127  65.862  1.00  0.00    -0.294 A  
HETATM    6  C   UNL     1      -9.912  10.401  66.860  1.00  0.00    -0.254 A  
HETATM    7  C   UNL     1     -10.034  10.794  68.184  1.00  0.00    -0.176 A  
HETATM    8  C   UNL     1     -10.834  11.889  68.516  1.00  0.00    -0.257 A  
HETATM    9  C   UNL     1     -11.554  12.598  67.536  1.00  0.00    -0.359 A  
ENDROOT
BRANCH   9  10
HETATM   10  N   UNL     1     -12.359  13.722  67.909  1.00  0.00    -0.398 NA 
HETATM   11  H   UNL     1     -13.148  13.958  67.306  1.00  0.00     0.000 HD 
BRANCH  10  12
HETATM   12  C   UNL     1     -12.144  14.535  69.060  1.00  0.00    -0.251 A  
HETATM   13  C   UNL     1     -12.866  14.339  70.249  1.00  0.00    -0.207 A  
HETATM   14  C   UNL     1     -12.610  15.108  71.398  1.00  0.00    -0.424 A  
HETATM   15  C   UNL     1     -13.378  14.888  72.679  1.00  0.00    -0.456 C  
HETATM   16  C   UNL     1     -11.622  16.100  71.340  1.00  0.00    -0.495 A  
HETATM   17  F   UNL     1     -12.579  14.484  73.704  1.00  0.00    -0.564 F  
HETATM   18  F   UNL     1     -13.997  16.021  73.112  1.00  0.00    -0.663 F  
HETATM   19  F   UNL     1     -14.357  13.945  72.575  1.00  0.00    -0.567 F  
HETATM   20  C   UNL     1     -10.954  16.357  70.145  1.00  0.00    -0.291 A  
HETATM   21  C   UNL     1     -11.231  15.595  69.006  1.00  0.00    -0.306 A  
ENDBRANCH  10  12
ENDBRANCH   9  10
TORSDOF 2
ENDMDL
MODEL        9
REMARK 921   NORMALIZED FREE ENERGY PREDICTED BY IDOCK:   -7.17 KCAL/MOL
REMARK 922        TOTAL FREE ENERGY PREDICTED BY IDOCK:   -8.41 KCAL/MOL
REMARK 923 INTER-LIGAND FREE ENERGY PREDICTED BY IDOCK:   -7.98 KCAL/MOL
REMARK 924 INTRA-LIGAND FREE ENERGY PREDICTED BY IDOCK:   -0.43 KCAL/MOL
REMARK 927      BINDING AFFINITY PREDICTED BY RF-SCORE:    0.00 PKD
ROOT
HETATM    1  O   UNL     1     -11.812  11.964  66.724  1.00  0.00    -0.598 OA 
HETATM    2  C   UNL     1     -12.065  13.151  66.133  1.00  0.00    -0.417 C  
HETATM    3  C   UNL     1     -11.237  14.285  66.643  1.00  0.00    -0.337 A  
HETATM    4  O   UNL     1     -12.887  13.278  65.243  1.00  0.00    -0.629 OA 
HETATM    5  C   UNL     1     -11.142  15.403  65.791  1.00  0.00    -0.260 A  
HETATM    6  C   UNL     1     -10.439  16.541  66.181  1.00  0.00    -0.301 A  
HETATM    7  C   UNL     1      -9.856  16.592  67.438  1.00  0.00    -0.254 A  
HETATM    8  C   UNL     1      -9.943  15.491  68.292  1.00  0.00    -0.213 A  
HETATM    9  C   UNL     1     -10.587  14.303  67.898  1.00  0.00    -0.240 A  
ENDROOT
BRANCH   9  10
HETATM   10  N   UNL     1     -10.664  13.195  68.801  1.00  0.00    -0.313 NA 
HETATM   11  H   UNL     1     -10.039  12.406  68.633  1.00  0.00     0.000 HD 
BRANCH  10  12
HETATM   12  C   UNL     1     -11.548  13.109  69.917  1.00  0.00    -0.185 A  
HETATM   13  C   UNL     1     -11.837  14.227  70.718  1.00  0.00    -0.336 A  
HETATM   14  C   UNL     1     -12.752  14.149  71.782  1.00  0.00    -0.420 A  
HETATM   15  C   UNL     1     -13.071  15.353  72.634  1.00  0.00    -0.442 C  
HETATM   16  C   UNL     1     -13.370  12.921  72.052  1.00  0.00    -0.579 A  
HETATM   17  F   UNL     1     -14.378  15.724  72.545  1.00  0.00    -0.623 F  
HETATM   18  F   UNL     1     -12.836  15.128  73.956  1.00  0.00    -0.584 F  
HETATM   19  F   UNL     1     -12.347  16.460  72.310  1.00  0.00    -0.487 F  
HETATM   20  C   UNL     1     -13.034  11.788  71.315  1.00  0.00    -0.353 A  
HETATM   21  C   UNL     1     -12.110  11.876  70.270  1.00  0.00    -0.409 A  
ENDBRANCH  10  12
ENDBRANCH   9  10
TORSDOF 2
ENDMDL
MODEL       10
REMARK 921   NORMALIZED FREE ENERGY PREDICTED BY IDOCK:   -7.04 KCAL/MOL
REMARK 922        TOTAL FREE ENERGY PREDICTED BY IDOCK:   -8.26 KCAL/MOL
REMARK 923 INTER-LIGAND FREE ENERGY PREDICTED BY IDOCK:   -7.71 KCAL/MOL
REMARK 924 INTRA-LIGAND FREE ENERGY PREDICTED BY IDOCK:   -0.55 KCAL/MOL
REMARK 927      BINDING AFFINITY PREDICTED BY RF-SCORE:    0.00 PKD
ROOT
HETATM    1  O   UNL     1     -12.982  12.727  64.931  1.00  0.00    -0.805 OA 
HETATM    2  C   UNL     1     -12.401  13.931  64.737  1.00  0.00    -0.400 C  
HETATM    3  C   UNL     1     -11.254  14.219  65.650  1.00  0.00    -0.314 A  
HETATM    4  O   UNL     1     -12.772  14.706  63.873  1.00  0.00    -0.788 OA 
HETATM    5  C   UNL     1     -10.365  15.221  65.216  1.00  0.00    -0.430 A  
HETATM    6  C   UNL     1      -9.287  15.612  66.006  1.00  0.00    -0.384 A  
HETATM    7  C   UNL     1      -9.105  15.036  67.255  1.00  0.00    -0.213 A  
HETATM    8  C   UNL     1      -9.979  14.042  67.698  1.00  0.00    -0.237 A  
HETATM    9  C   UNL     1     -11.036  13.579  66.891  1.00  0.00    -0.296 A  
ENDROOT
BRANCH   9  10
HETATM   10  N   UNL     1     -11.919  12.562  67.378  1.00  0.00    -0.488 NA 
HETATM   11  H   UNL     1     -12.921  12.706  67.250  1.00  0.00     0.000 HD 
BRANCH  10  12
HETATM   12  C   UNL     1     -11.504  11.363  68.029  1.00  0.00    -0.307 A  
HETATM   13  C   UNL     1     -11.864  11.080  69.358  1.00  0.00    -0.407 A  
HETATM   14  C   UNL     1     -11.498   9.871  69.975  1.00  0.00    -0.274 A  
HETATM   15  C   UNL     1     -11.897   9.564  71.398  1.00  0.00    -0.389 C  
HETATM   16  C   UNL     1     -10.744   8.942  69.246  1.00  0.00    -0.177 A  
HETATM   17  F   UNL     1     -12.711   8.477  71.489  1.00  0.00    -0.303 F  
HETATM   18  F   UNL     1     -10.822   9.292  72.189  1.00  0.00    -0.414 F  
HETATM   19  F   UNL     1     -12.563  10.581  72.012  1.00  0.00    -0.476 F  
HETATM   20  C   UNL     1     -10.315   9.244  67.956  1.00  0.00    -0.270 A  
HETATM   21  C   UNL     1     -10.672  10.457  67.360  1.00  0.00    -0.338 A  
ENDBRANCH  10  12
ENDBRANCH   9  10
TORSDOF 2
ENDMDL
MODEL       11
REMARK 921   NORMALIZED FREE ENERGY PREDICTED BY IDOCK:   -7.03 KCAL/MOL
REMARK 922        TOTAL FREE ENERGY PREDICTED BY IDOCK:   -8.25 KCAL/MOL
REMARK 923 INTER-LIGAND FREE ENERGY PREDICTED BY IDOCK:   -7.87 KCAL/MOL
REMARK 924 INTRA-LIGAND FREE ENERGY PREDICTED BY IDOCK:   -0.38 KCAL/MOL
REMARK 927      BINDING AFFINITY PREDICTED BY RF-SCORE:    0.00 PKD
ROOT
HETATM    1  O   UNL     1      -9.808  10.505  67.883  1.00  0.00    -0.157 OA 
HETATM    2  C   UNL     1     -10.218  10.453  66.598  1.00  0.00    -0.234 C  
HETATM    3  C   UNL     1     -10.965  11.662  66.137  1.00  0.00    -0.339 A  
HETATM    4  O   UNL     1      -9.978   9.506  65.871  1.00  0.00    -0.291 OA 
HETATM    5  C   UNL     1     -11.023  11.849  64.742  1.00  0.00    -0.366 A  
HETATM    6  C   UNL     1     -11.736  12.913  64.192  1.00  0.00    -0.468 A  
HETATM    7  C   UNL     1     -12.430  13.779  65.024  1.00  0.00    -0.449 A  
HETATM    8  C   UNL     1     -12.380  13.605  66.409  1.00  0.00    -0.441 A  
HETATM    9  C   UNL     1     -11.613  12.580  66.994  1.00  0.00    -0.368 A  
ENDROOT
BRANCH   9  10
HETATM   10  N   UNL     1     -11.589  12.425  68.418  1.00  0.00    -0.303 NA 
HETATM   11  H   UNL     1     -11.578  11.475  68.788  1.00  0.00     0.000 HD 
BRANCH  10  12
HETATM   12  C   UNL     1     -11.580  13.498  69.357  1.00  0.00    -0.312 A  
HETATM   13  C   UNL     1     -12.449  13.523  70.460  1.00  0.00    -0.373 A  
HETATM   14  C   UNL     1     -12.397  14.556  71.412  1.00  0.00    -0.425 A  
HETATM   15  C   UNL     1     -13.323  14.574  72.604  1.00  0.00    -0.495 C  
HETATM   16  C   UNL     1     -11.465  15.587  71.238  1.00  0.00    -0.462 A  
HETATM   17  F   UNL     1     -12.654  14.489  73.786  1.00  0.00    -0.582 F  
HETATM   18  F   UNL     1     -14.056  15.720  72.672  1.00  0.00    -0.602 F  
HETATM   19  F   UNL     1     -14.226  13.554  72.611  1.00  0.00    -0.594 F  
HETATM   20  C   UNL     1     -10.651  15.616  70.108  1.00  0.00    -0.348 A  
HETATM   21  C   UNL     1     -10.726  14.590  69.161  1.00  0.00    -0.263 A  
ENDBRANCH  10  12
ENDBRANCH   9  10
TORSDOF 2
ENDMDL
MODEL       12
REMARK 921   NORMALIZED FREE ENERGY PREDICTED BY IDOCK:   -7.02 KCAL/MOL
REMARK 922        TOTAL FREE ENERGY PREDICTED BY IDOCK:   -8.24 KCAL/MOL
REMARK 923 INTER-LIGAND FREE ENERGY PREDICTED BY IDOCK:   -7.61 KCAL/MOL
REMARK 924 INTRA-LIGAND FREE ENERGY PREDICTED BY IDOCK:   -0.63 KCAL/MOL
REMARK 927      BINDING AFFINITY PREDICTED BY RF-SCORE:    0.00 PKD
ROOT
HETATM    1  O   UNL     1     -11.685  12.332  68.413  1.00  0.00    -0.304 OA 
HETATM    2  C   UNL     1     -11.849  12.123  69.737  1.00  0.00    -0.327 C  
HETATM    3  C   UNL     1     -12.489  13.258  70.468  1.00  0.00    -0.332 A  
HETATM    4  O   UNL     1     -11.521  11.085  70.282  1.00  0.00    -0.301 OA 
HETATM    5  C   UNL     1     -13.069  12.935  71.710  1.00  0.00    -0.458 A  
HETATM    6  C   UNL     1     -13.650  13.919  72.506  1.00  0.00    -0.680 A  
HETATM    7  C   UNL     1     -13.624  15.243  72.091  1.00  0.00    -0.576 A  
HETATM    8  C   UNL     1     -13.052  15.577  70.862  1.00  0.00    -0.508 A  
HETATM    9  C   UNL     1     -12.520  14.593  70.007  1.00  0.00    -0.284 A  
ENDROOT
BRANCH   9  10
HETATM   10  N   UNL     1     -11.934  14.971  68.756  1.00  0.00    -0.525 NA 
HETATM   11  H   UNL     1     -12.360  14.603  67.905  1.00  0.00     0.000 HD 
BRANCH  10  12
HETATM   12  C   UNL     1     -10.800  15.823  68.609  1.00  0.00    -0.278 A  
HETATM   13  C   UNL     1     -10.905  17.100  68.033  1.00  0.00    -0.317 A  
HETATM   14  C   UNL     1      -9.794  17.957  67.942  1.00  0.00    -0.309 A  
HETATM   15  C   UNL     1      -9.911  19.334  67.334  1.00  0.00    -0.336 C  
HETATM   16  C   UNL     1      -8.556  17.510  68.423  1.00  0.00    -0.275 A  
HETATM   17  F   UNL     1      -9.635  20.324  68.227  1.00  0.00    -0.414 F  
HETATM   18  F   UNL     1      -9.047  19.516  66.297  1.00  0.00    -0.328 F  
HETATM   19  F   UNL     1     -11.150  19.611  66.841  1.00  0.00    -0.571 F  
HETATM   20  C   UNL     1      -8.422  16.218  68.925  1.00  0.00    -0.253 A  
HETATM   21  C   UNL     1      -9.532  15.371  68.994  1.00  0.00    -0.236 A  
ENDBRANCH  10  12
ENDBRANCH   9  10
TORSDOF 2
ENDMDL
MODEL       13
REMARK 921   NORMALIZED FREE ENERGY PREDICTED BY IDOCK:   -7.01 KCAL/MOL
REMARK 922        TOTAL FREE ENERGY PREDICTED BY IDOCK:   -8.23 KCAL/MOL
REMARK 923 INTER-LIGAND FREE ENERGY PREDICTED BY IDOCK:   -7.89 KCAL/MOL
REMARK 924 INTRA-LIGAND FREE ENERGY PREDICTED BY IDOCK:   -0.33 KCAL/MOL
REMARK 927      BINDING AFFINITY PREDICTED BY RF-SCORE:    0.00 PKD
ROOT
HETATM    1  O   UNL     1     -12.869  14.177  65.307  1.00  0.00    -0.670 OA 
HETATM    2  C   UNL     1     -12.282  13.519  64.284  1.00  0.00    -0.396 C  
HETATM    3  C   UNL     1     -11.215  12.559  64.697  1.00  0.00    -0.353 A  
HETATM    4  O   UNL     1     -12.614  13.683  63.123  1.00  0.00    -0.792 OA 
HETATM    5  C   UNL     1     -10.894  11.561  63.756  1.00  0.00    -0.486 A  
HETATM    6  C   UNL     1      -9.879  10.641  64.007  1.00  0.00    -0.399 A  
HETATM    7  C   UNL     1      -9.147  10.728  65.182  1.00  0.00    -0.225 A  
HETATM    8  C   UNL     1      -9.455  11.713  66.123  1.00  0.00    -0.240 A  
HETATM    9  C   UNL     1     -10.520  12.612  65.926  1.00  0.00    -0.274 A  
ENDROOT
BRANCH   9  10
HETATM   10  N   UNL     1     -10.804  13.614  66.908  1.00  0.00    -0.282 NA 
HETATM   11  H   UNL     1     -10.650  14.588  66.647  1.00  0.00     0.000 HD 
BRANCH  10  12
HETATM   12  C   UNL     1     -11.287  13.354  68.225  1.00  0.00    -0.295 A  
HETATM   13  C   UNL     1     -11.443  14.381  69.171  1.00  0.00    -0.328 A  
HETATM   14  C   UNL     1     -11.971  14.126  70.449  1.00  0.00    -0.400 A  
HETATM   15  C   UNL     1     -12.150  15.232  71.460  1.00  0.00    -0.359 C  
HETATM   16  C   UNL     1     -12.332  12.813  70.780  1.00  0.00    -0.375 A  
HETATM   17  F   UNL     1     -13.454  15.425  71.798  1.00  0.00    -0.401 F  
HETATM   18  F   UNL     1     -11.496  14.976  72.627  1.00  0.00    -0.471 F  
HETATM   19  F   UNL     1     -11.692  16.442  71.035  1.00  0.00    -0.415 F  
HETATM   20  C   UNL     1     -12.111  11.775  69.879  1.00  0.00    -0.359 A  
HETATM   21  C   UNL     1     -11.568  12.040  68.618  1.00  0.00    -0.372 A  
ENDBRANCH  10  12
ENDBRANCH   9  10
TORSDOF 2
ENDMDL
MODEL       14
REMARK 921   NORMALIZED FREE ENERGY PREDICTED BY IDOCK:   -6.99 KCAL/MOL
REMARK 922        TOTAL FREE ENERGY PREDICTED BY IDOCK:   -8.21 KCAL/MOL
REMARK 923 INTER-LIGAND FREE ENERGY PREDICTED BY IDOCK:   -7.61 KCAL/MOL
REMARK 924 INTRA-LIGAND FREE ENERGY PREDICTED BY IDOCK:   -0.60 KCAL/MOL
REMARK 927      BINDING AFFINITY PREDICTED BY RF-SCORE:    0.00 PKD
ROOT
HETATM    1  O   UNL     1      -7.226  16.220  69.444  1.00  0.00    -0.225 OA 
HETATM    2  C   UNL     1      -7.135  17.405  68.803  1.00  0.00    -0.246 C  
HETATM    3  C   UNL     1      -8.447  17.984  68.385  1.00  0.00    -0.306 A  
HETATM    4  O   UNL     1      -6.071  17.963  68.605  1.00  0.00    -0.186 OA 
HETATM    5  C   UNL     1      -8.449  19.368  68.125  1.00  0.00    -0.367 A  
HETATM    6  C   UNL     1      -9.601  20.011  67.678  1.00  0.00    -0.516 A  
HETATM    7  C   UNL     1     -10.753  19.274  67.447  1.00  0.00    -0.594 A  
HETATM    8  C   UNL     1     -10.765  17.901  67.701  1.00  0.00    -0.343 A  
HETATM    9  C   UNL     1      -9.636  17.239  68.218  1.00  0.00    -0.288 A  
ENDROOT
BRANCH   9  10
HETATM   10  N   UNL     1      -9.679  15.828  68.460  1.00  0.00    -0.202 NA 
HETATM   11  H   UNL     1      -9.013  15.242  67.956  1.00  0.00     0.000 HD 
BRANCH  10  12
HETATM   12  C   UNL     1     -10.583  15.179  69.352  1.00  0.00    -0.255 A  
HETATM   13  C   UNL     1     -10.974  15.769  70.566  1.00  0.00    -0.361 A  
HETATM   14  C   UNL     1     -11.907  15.149  71.415  1.00  0.00    -0.418 A  
HETATM   15  C   UNL     1     -12.335  15.790  72.713  1.00  0.00    -0.463 C  
HETATM   16  C   UNL     1     -12.442  13.910  71.040  1.00  0.00    -0.452 A  
HETATM   17  F   UNL     1     -13.663  16.090  72.735  1.00  0.00    -0.585 F  
HETATM   18  F   UNL     1     -12.119  14.979  73.786  1.00  0.00    -0.526 F  
HETATM   19  F   UNL     1     -11.685  16.955  72.989  1.00  0.00    -0.580 F  
HETATM   20  C   UNL     1     -12.005  13.279  69.878  1.00  0.00    -0.400 A  
HETATM   21  C   UNL     1     -11.063  13.899  69.052  1.00  0.00    -0.302 A  
ENDBRANCH  10  12
ENDBRANCH   9  10
TORSDOF 2
ENDMDL
MODEL       15
REMARK 921   NORMALIZED FREE ENERGY PREDICTED BY IDOCK:   -6.99 KCAL/MOL
REMARK 922        TOTAL FREE ENERGY PREDICTED BY IDOCK:   -8.21 KCAL/MOL
REMARK 923 INTER-LIGAND FREE ENERGY PREDICTED BY IDOCK:   -7.62 KCAL/MOL
REMARK 924 INTRA-LIGAND FREE ENERGY PREDICTED BY IDOCK:   -0.59 KCAL/MOL
REMARK 927      BINDING AFFINITY PREDICTED BY RF-SCORE:    0.00 PKD
ROOT
HETATM    1  O   UNL     1     -11.129  18.970  67.227  1.00  0.00    -0.382 OA 
HETATM    2  C   UNL     1      -9.999  19.501  67.740  1.00  0.00    -0.381 C  
HETATM    3  C   UNL     1      -8.998  18.495  68.205  1.00  0.00    -0.332 A  
HETATM    4  O   UNL     1      -9.807  20.703  67.797  1.00  0.00    -0.373 OA 
HETATM    5  C   UNL     1      -7.675  18.962  68.328  1.00  0.00    -0.332 A  
HETATM    6  C   UNL     1      -6.663  18.130  68.803  1.00  0.00    -0.248 A  
HETATM    7  C   UNL     1      -6.967  16.835  69.196  1.00  0.00    -0.231 A  
HETATM    8  C   UNL     1      -8.274  16.359  69.078  1.00  0.00    -0.222 A  
HETATM    9  C   UNL     1      -9.301  17.156  68.539  1.00  0.00    -0.274 A  
ENDROOT
BRANCH   9  10
HETATM   10  N   UNL     1     -10.633  16.640  68.439  1.00  0.00    -0.324 NA 
HETATM   11  H   UNL     1     -11.166  16.867  67.599  1.00  0.00     0.000 HD 
BRANCH  10  12
HETATM   12  C   UNL     1     -11.272  15.831  69.425  1.00  0.00    -0.324 A  
HETATM   13  C   UNL     1     -11.461  16.282  70.742  1.00  0.00    -0.327 A  
HETATM   14  C   UNL     1     -12.140  15.502  71.694  1.00  0.00    -0.471 A  
HETATM   15  C   UNL     1     -12.353  15.994  73.105  1.00  0.00    -0.531 C  
HETATM   16  C   UNL     1     -12.621  14.242  71.315  1.00  0.00    -0.436 A  
HETATM   17  F   UNL     1     -13.671  16.143  73.413  1.00  0.00    -0.659 F  
HETATM   18  F   UNL     1     -11.848  15.134  74.034  1.00  0.00    -0.582 F  
HETATM   19  F   UNL     1     -11.772  17.199  73.359  1.00  0.00    -0.476 F  
HETATM   20  C   UNL     1     -12.373  13.751  70.035  1.00  0.00    -0.364 A  
HETATM   21  C   UNL     1     -11.681  14.531  69.104  1.00  0.00    -0.349 A  
ENDBRANCH  10  12
ENDBRANCH   9  10
TORSDOF 2
ENDMDL
MODEL       16
REMARK 921   NORMALIZED FREE ENERGY PREDICTED BY IDOCK:   -6.99 KCAL/MOL
REMARK 922        TOTAL FREE ENERGY PREDICTED BY IDOCK:   -8.21 KCAL/MOL
REMARK 923 INTER-LIGAND FREE ENERGY PREDICTED BY IDOCK:   -7.60 KCAL/MOL
REMARK 924 INTRA-LIGAND FREE ENERGY PREDICTED BY IDOCK:   -0.61 KCAL/MOL
REMARK 927      BINDING AFFINITY PREDICTED BY RF-SCORE:    0.00 PKD
ROOT
HETATM    1  O   UNL     1     -13.513  13.999  65.335  1.00  0.00    -0.679 OA 
HETATM    2  C   UNL     1     -12.602  13.503  64.470  1.00  0.00    -0.206 C  
HETATM    3  C   UNL     1     -11.665  12.504  65.064  1.00  0.00    -0.407 A  
HETATM    4  O   UNL     1     -12.565  13.831  63.297  1.00  0.00    -0.830 OA 
HETATM    5  C   UNL     1     -11.013  11.657  64.147  1.00  0.00    -0.442 A  
HETATM    6  C   UNL     1     -10.078  10.719  64.578  1.00  0.00    -0.415 A  
HETATM    7  C   UNL     1      -9.753  10.642  65.925  1.00  0.00    -0.273 A  
HETATM    8  C   UNL     1     -10.392  11.475  66.845  1.00  0.00    -0.258 A  
HETATM    9  C   UNL     1     -11.390  12.384  66.445  1.00  0.00    -0.342 A  
ENDROOT
BRANCH   9  10
HETATM   10  N   UNL     1     -12.020  13.229  67.414  1.00  0.00    -0.358 NA 
HETATM   11  H   UNL     1     -12.963  12.981  67.715  1.00  0.00     0.000 HD 
BRANCH  10  12
HETATM   12  C   UNL     1     -11.430  14.393  67.991  1.00  0.00    -0.310 A  
HETATM   13  C   UNL     1     -11.143  15.533  67.223  1.00  0.00    -0.271 A  
HETATM   14  C   UNL     1     -10.612  16.696  67.808  1.00  0.00    -0.342 A  
HETATM   15  C   UNL     1     -10.315  17.926  66.984  1.00  0.00    -0.362 C  
HETATM   16  C   UNL     1     -10.353  16.701  69.185  1.00  0.00    -0.326 A  
HETATM   17  F   UNL     1     -11.063  19.000  67.360  1.00  0.00    -0.522 F  
HETATM   18  F   UNL     1      -9.016  18.319  67.092  1.00  0.00    -0.249 F  
HETATM   19  F   UNL     1     -10.545  17.760  65.652  1.00  0.00    -0.391 F  
HETATM   20  C   UNL     1     -10.561  15.551  69.943  1.00  0.00    -0.322 A  
HETATM   21  C   UNL     1     -11.073  14.396  69.344  1.00  0.00    -0.294 A  
ENDBRANCH  10  12
ENDBRANCH   9  10
TORSDOF 2
ENDMDL
MODEL       17
REMARK 921   NORMALIZED FREE ENERGY PREDICTED BY IDOCK:   -6.96 KCAL/MOL
REMARK 922        TOTAL FREE ENERGY PREDICTED BY IDOCK:   -8.17 KCAL/MOL
REMARK 923 INTER-LIGAND FREE ENERGY PREDICTED BY IDOCK:   -7.76 KCAL/MOL
REMARK 924 INTRA-LIGAND FREE ENERGY PREDICTED BY IDOCK:   -0.42 KCAL/MOL
REMARK 927      BINDING AFFINITY PREDICTED BY RF-SCORE:    0.00 PKD
ROOT
HETATM    1  O   UNL     1      -9.382  10.417  69.039  1.00  0.00    -0.175 OA 
HETATM    2  C   UNL     1      -9.405   9.832  70.256  1.00  0.00    -0.182 C  
HETATM    3  C   UNL     1     -10.773   9.627  70.818  1.00  0.00    -0.401 A  
HETATM    4  O   UNL     1      -8.391   9.482  70.834  1.00  0.00    -0.280 OA 
HETATM    5  C   UNL     1     -10.877   8.659  71.836  1.00  0.00    -0.419 A  
HETATM    6  C   UNL     1     -12.092   8.418  72.472  1.00  0.00    -0.403 A  
HETATM    7  C   UNL     1     -13.209   9.165  72.128  1.00  0.00    -0.524 A  
HETATM    8  C   UNL     1     -13.120  10.128  71.121  1.00  0.00    -0.480 A  
HETATM    9  C   UNL     1     -11.922  10.345  70.414  1.00  0.00    -0.320 A  
ENDROOT
BRANCH   9  10
HETATM   10  N   UNL     1     -11.863  11.345  69.392  1.00  0.00    -0.325 NA 
HETATM   11  H   UNL     1     -11.743  11.029  68.429  1.00  0.00     0.000 HD 
BRANCH  10  12
HETATM   12  C   UNL     1     -11.961  12.751  69.616  1.00  0.00    -0.288 A  
HETATM   13  C   UNL     1     -12.319  13.276  70.869  1.00  0.00    -0.413 A  
HETATM   14  C   UNL     1     -12.359  14.662  71.099  1.00  0.00    -0.403 A  
HETATM   15  C   UNL     1     -12.732  15.224  72.449  1.00  0.00    -0.363 C  
HETATM   16  C   UNL     1     -12.049  15.530  70.043  1.00  0.00    -0.391 A  
HETATM   17  F   UNL     1     -11.718  15.933  73.017  1.00  0.00    -0.511 F  
HETATM   18  F   UNL     1     -13.791  16.078  72.379  1.00  0.00    -0.533 F  
HETATM   19  F   UNL     1     -13.080  14.274  73.361  1.00  0.00    -0.592 F  
HETATM   20  C   UNL     1     -11.769  15.024  68.777  1.00  0.00    -0.360 A  
HETATM   21  C   UNL     1     -11.749  13.643  68.559  1.00  0.00    -0.392 A  
ENDBRANCH  10  12
ENDBRANCH   9  10
TORSDOF 2
ENDMDL
MODEL       18
REMARK 921   NORMALIZED FREE ENERGY PREDICTED BY IDOCK:   -6.92 KCAL/MOL
REMARK 922        TOTAL FREE ENERGY PREDICTED BY IDOCK:   -8.14 KCAL/MOL
REMARK 923 INTER-LIGAND FREE ENERGY PREDICTED BY IDOCK:   -7.65 KCAL/MOL
REMARK 924 INTRA-LIGAND FREE ENERGY PREDICTED BY IDOCK:   -0.49 KCAL/MOL
REMARK 927      BINDING AFFINITY PREDICTED BY RF-SCORE:    0.00 PKD
ROOT
HETATM    1  O   UNL     1      -7.825  15.648  68.061  1.00  0.00    -0.124 OA 
HETATM    2  C   UNL     1      -7.742  16.956  68.385  1.00  0.00    -0.219 C  
HETATM    3  C   UNL     1      -8.801  17.813  67.774  1.00  0.00    -0.249 A  
HETATM    4  O   UNL     1      -6.884  17.393  69.131  1.00  0.00    -0.234 OA 
HETATM    5  C   UNL     1      -9.024  19.053  68.406  1.00  0.00    -0.378 A  
HETATM    6  C   UNL     1      -9.951  19.959  67.896  1.00  0.00    -0.552 A  
HETATM    7  C   UNL     1     -10.638  19.657  66.730  1.00  0.00    -0.602 A  
HETATM    8  C   UNL     1     -10.427  18.432  66.093  1.00  0.00    -0.422 A  
HETATM    9  C   UNL     1      -9.547  17.470  66.624  1.00  0.00    -0.282 A  
ENDROOT
BRANCH   9  10
HETATM   10  N   UNL     1      -9.349  16.226  65.943  1.00  0.00    -0.450 NA 
HETATM   11  H   UNL     1      -8.489  16.115  65.404  1.00  0.00     0.000 HD 
BRANCH  10  12
HETATM   12  C   UNL     1     -10.261  15.130  65.959  1.00  0.00    -0.307 A  
HETATM   13  C   UNL     1     -10.288  14.175  64.929  1.00  0.00    -0.435 A  
HETATM   14  C   UNL     1     -11.152  13.067  64.979  1.00  0.00    -0.319 A  
HETATM   15  C   UNL     1     -11.171  12.035  63.878  1.00  0.00    -0.417 C  
HETATM   16  C   UNL     1     -12.012  12.931  66.077  1.00  0.00    -0.505 A  
HETATM   17  F   UNL     1     -10.802  10.799  64.314  1.00  0.00    -0.430 F  
HETATM   18  F   UNL     1     -12.410  11.884  63.333  1.00  0.00    -0.578 F  
HETATM   19  F   UNL     1     -10.340  12.328  62.839  1.00  0.00    -0.368 F  
HETATM   20  C   UNL     1     -12.050  13.911  67.066  1.00  0.00    -0.451 A  
HETATM   21  C   UNL     1     -11.197  15.016  66.994  1.00  0.00    -0.328 A  
ENDBRANCH  10  12
ENDBRANCH   9  10
TORSDOF 2
ENDMDL
MODEL       19
REMARK 921   NORMALIZED FREE ENERGY PREDICTED BY IDOCK:   -6.89 KCAL/MOL
REMARK 922        TOTAL FREE ENERGY PREDICTED BY IDOCK:   -8.10 KCAL/MOL
REMARK 923 INTER-LIGAND FREE ENERGY PREDICTED BY IDOCK:   -7.45 KCAL/MOL
REMARK 924 INTRA-LIGAND FREE ENERGY PREDICTED BY IDOCK:   -0.65 KCAL/MOL
REMARK 927      BINDING AFFINITY PREDICTED BY RF-SCORE:    0.00 PKD
ROOT
HETATM    1  O   UNL     1     -14.394   9.099  70.984  1.00  0.00    -0.091 OA 
HETATM    2  C   UNL     1     -13.693   8.128  71.608  1.00  0.00    -0.355 C  
HETATM    3  C   UNL     1     -12.226   8.393  71.713  1.00  0.00    -0.377 A  
HETATM    4  O   UNL     1     -14.220   7.130  72.066  1.00  0.00    -0.302 OA 
HETATM    5  C   UNL     1     -11.543   7.662  72.704  1.00  0.00    -0.371 A  
HETATM    6  C   UNL     1     -10.164   7.786  72.861  1.00  0.00    -0.377 A  
HETATM    7  C   UNL     1      -9.446   8.611  72.007  1.00  0.00    -0.370 A  
HETATM    8  C   UNL     1     -10.112   9.341  71.020  1.00  0.00    -0.373 A  
HETATM    9  C   UNL     1     -11.512   9.287  70.883  1.00  0.00    -0.303 A  
ENDROOT
BRANCH   9  10
HETATM   10  N   UNL     1     -12.162  10.043  69.856  1.00  0.00    -0.486 NA 
HETATM   11  H   UNL     1     -12.733   9.531  69.183  1.00  0.00     0.000 HD 
BRANCH  10  12
HETATM   12  C   UNL     1     -12.073  11.458  69.702  1.00  0.00    -0.305 A  
HETATM   13  C   UNL     1     -12.388  12.337  70.751  1.00  0.00    -0.383 A  
HETATM   14  C   UNL     1     -12.245  13.728  70.610  1.00  0.00    -0.434 A  
HETATM   15  C   UNL     1     -12.572  14.671  71.743  1.00  0.00    -0.340 C  
HETATM   16  C   UNL     1     -11.793  14.240  69.386  1.00  0.00    -0.372 A  
HETATM   17  F   UNL     1     -11.486  15.373  72.168  1.00  0.00    -0.437 F  
HETATM   18  F   UNL     1     -13.503  15.601  71.389  1.00  0.00    -0.494 F  
HETATM   19  F   UNL     1     -13.070  14.048  72.847  1.00  0.00    -0.513 F  
HETATM   20  C   UNL     1     -11.551  13.384  68.314  1.00  0.00    -0.379 A  
HETATM   21  C   UNL     1     -11.714  12.004  68.463  1.00  0.00    -0.387 A  
ENDBRANCH  10  12
ENDBRANCH   9  10
TORSDOF 2
ENDMDL
MODEL       20
REMARK 921   NORMALIZED FREE ENERGY PREDICTED BY IDOCK:   -6.88 KCAL/MOL
REMARK 922        TOTAL FREE ENERGY PREDICTED BY IDOCK:   -8.09 KCAL/MOL
REMARK 923 INTER-LIGAND FREE ENERGY PREDICTED BY IDOCK:   -7.46 KCAL/MOL
REMARK 924 INTRA-LIGAND FREE ENERGY PREDICTED BY IDOCK:   -0.63 KCAL/MOL
REMARK 927      BINDING AFFINITY PREDICTED BY RF-SCORE:    0.00 PKD
ROOT
HETATM    1  O   UNL     1     -10.812  18.609  65.260  1.00  0.00    -0.591 OA 
HETATM    2  C   UNL     1     -10.420  18.915  66.516  1.00  0.00    -0.432 C  
HETATM    3  C   UNL     1      -9.268  18.108  67.019  1.00  0.00    -0.270 A  
HETATM    4  O   UNL     1     -10.953  19.791  67.173  1.00  0.00    -0.426 OA 
HETATM    5  C   UNL     1      -8.560  18.664  68.102  1.00  0.00    -0.332 A  
HETATM    6  C   UNL     1      -7.498  17.979  68.689  1.00  0.00    -0.291 A  
HETATM    7  C   UNL     1      -7.156  16.716  68.229  1.00  0.00    -0.160 A  
HETATM    8  C   UNL     1      -7.849  16.154  67.156  1.00  0.00    -0.234 A  
HETATM    9  C   UNL     1      -8.881  16.852  66.499  1.00  0.00    -0.271 A  
ENDROOT
BRANCH   9  10
HETATM   10  N   UNL     1      -9.577  16.243  65.406  1.00  0.00    -0.401 NA 
HETATM   11  H   UNL     1      -9.437  16.640  64.477  1.00  0.00     0.000 HD 
BRANCH  10  12
HETATM   12  C   UNL     1     -10.452  15.122  65.518  1.00  0.00    -0.379 A  
HETATM   13  C   UNL     1     -10.416  14.062  64.597  1.00  0.00    -0.398 A  
HETATM   14  C   UNL     1     -11.243  12.934  64.744  1.00  0.00    -0.336 A  
HETATM   15  C   UNL     1     -11.194  11.790  63.760  1.00  0.00    -0.436 C  
HETATM   16  C   UNL     1     -12.130  12.885  65.827  1.00  0.00    -0.513 A  
HETATM   17  F   UNL     1     -10.796  10.623  64.337  1.00  0.00    -0.394 F  
HETATM   18  F   UNL     1     -12.410  11.536  63.202  1.00  0.00    -0.573 F  
HETATM   19  F   UNL     1     -10.342  12.000  62.718  1.00  0.00    -0.320 F  
HETATM   20  C   UNL     1     -12.231  13.963  66.702  1.00  0.00    -0.465 A  
HETATM   21  C   UNL     1     -11.415  15.086  66.534  1.00  0.00    -0.239 A  
ENDBRANCH  10  12
ENDBRANCH   9  10
TORSDOF 2
ENDMDL
MODEL       21
REMARK 921   NORMALIZED FREE ENERGY PREDICTED BY IDOCK:   -6.85 KCAL/MOL
REMARK 922        TOTAL FREE ENERGY PREDICTED BY IDOCK:   -8.06 KCAL/MOL
REMARK 923 INTER-LIGAND FREE ENERGY PREDICTED BY IDOCK:   -7.75 KCAL/MOL
REMARK 924 INTRA-LIGAND FREE ENERGY PREDICTED BY IDOCK:   -0.30 KCAL/MOL
REMARK 927      BINDING AFFINITY PREDICTED BY RF-SCORE:    0.00 PKD
ROOT
HETATM    1  O   UNL     1     -10.364  14.596  68.971  1.00  0.00    -0.234 OA 
HETATM    2  C   UNL     1     -10.838  15.606  69.731  1.00  0.00    -0.308 C  
HETATM    3  C   UNL     1     -11.706  15.172  70.867  1.00  0.00    -0.378 A  
HETATM    4  O   UNL     1     -10.560  16.773  69.518  1.00  0.00    -0.324 OA 
HETATM    5  C   UNL     1     -11.855  16.104  71.913  1.00  0.00    -0.605 A  
HETATM    6  C   UNL     1     -12.681  15.832  73.001  1.00  0.00    -0.599 A  
HETATM    7  C   UNL     1     -13.398  14.645  73.040  1.00  0.00    -0.527 A  
HETATM    8  C   UNL     1     -13.260  13.713  72.010  1.00  0.00    -0.522 A  
HETATM    9  C   UNL     1     -12.380  13.932  70.933  1.00  0.00    -0.377 A  
ENDROOT
BRANCH   9  10
HETATM   10  N   UNL     1     -12.267  12.958  69.889  1.00  0.00    -0.237 NA 
HETATM   11  H   UNL     1     -12.531  13.244  68.946  1.00  0.00     0.000 HD 
BRANCH  10  12
HETATM   12  C   UNL     1     -11.812  11.618  70.067  1.00  0.00    -0.355 A  
HETATM   13  C   UNL     1     -12.387  10.764  71.023  1.00  0.00    -0.509 A  
HETATM   14  C   UNL     1     -11.972   9.427  71.156  1.00  0.00    -0.413 A  
HETATM   15  C   UNL     1     -12.599   8.507  72.175  1.00  0.00    -0.377 C  
HETATM   16  C   UNL     1     -10.951   8.951  70.322  1.00  0.00    -0.266 A  
HETATM   17  F   UNL     1     -13.237   7.450  71.602  1.00  0.00    -0.350 F  
HETATM   18  F   UNL     1     -11.678   7.972  73.024  1.00  0.00    -0.443 F  
HETATM   19  F   UNL     1     -13.525   9.117  72.967  1.00  0.00    -0.458 F  
HETATM   20  C   UNL     1     -10.320   9.809  69.424  1.00  0.00    -0.232 A  
HETATM   21  C   UNL     1     -10.732  11.141  69.315  1.00  0.00    -0.241 A  
ENDBRANCH  10  12
ENDBRANCH   9  10
TORSDOF 2
ENDMDL
MODEL       22
REMARK 921   NORMALIZED FREE ENERGY PREDICTED BY IDOCK:   -6.81 KCAL/MOL
REMARK 922        TOTAL FREE ENERGY PREDICTED BY IDOCK:   -8.00 KCAL/MOL
REMARK 923 INTER-LIGAND FREE ENERGY PREDICTED BY IDOCK:   -7.70 KCAL/MOL
REMARK 924 INTRA-LIGAND FREE ENERGY PREDICTED BY IDOCK:   -0.30 KCAL/MOL
REMARK 927      BINDING AFFINITY PREDICTED BY RF-SCORE:    0.00 PKD
ROOT
HETATM    1  O   UNL     1     -12.295  11.005  69.946  1.00  0.00    -0.322 OA 
HETATM    2  C   UNL     1     -12.762  11.461  71.128  1.00  0.00    -0.377 C  
HETATM    3  C   UNL     1     -12.879  12.948  71.215  1.00  0.00    -0.361 A  
HETATM    4  O   UNL     1     -13.081  10.717  72.038  1.00  0.00    -0.481 OA 
HETATM    5  C   UNL     1     -13.745  13.435  72.214  1.00  0.00    -0.705 A  
HETATM    6  C   UNL     1     -13.896  14.803  72.425  1.00  0.00    -0.578 A  
HETATM    7  C   UNL     1     -13.157  15.701  71.669  1.00  0.00    -0.554 A  
HETATM    8  C   UNL     1     -12.295  15.232  70.675  1.00  0.00    -0.427 A  
HETATM    9  C   UNL     1     -12.175  13.858  70.395  1.00  0.00    -0.368 A  
ENDROOT
BRANCH   9  10
HETATM   10  N   UNL     1     -11.276  13.409  69.374  1.00  0.00    -0.419 NA 
HETATM   11  H   UNL     1     -10.686  12.604  69.585  1.00  0.00     0.000 HD 
BRANCH  10  12
HETATM   12  C   UNL     1     -11.144  14.003  68.083  1.00  0.00    -0.260 A  
HETATM   13  C   UNL     1     -10.601  15.287  67.913  1.00  0.00    -0.260 A  
HETATM   14  C   UNL     1     -10.422  15.844  66.634  1.00  0.00    -0.306 A  
HETATM   15  C   UNL     1      -9.826  17.218  66.452  1.00  0.00    -0.299 C  
HETATM   16  C   UNL     1     -10.813  15.099  65.513  1.00  0.00    -0.373 A  
HETATM   17  F   UNL     1      -8.651  17.191  65.766  1.00  0.00    -0.232 F  
HETATM   18  F   UNL     1     -10.648  18.049  65.752  1.00  0.00    -0.392 F  
HETATM   19  F   UNL     1      -9.559  17.859  67.624  1.00  0.00    -0.257 F  
HETATM   20  C   UNL     1     -11.425  13.858  65.673  1.00  0.00    -0.321 A  
HETATM   21  C   UNL     1     -11.611  13.324  66.952  1.00  0.00    -0.408 A  
ENDBRANCH  10  12
ENDBRANCH   9  10
TORSDOF 2
ENDMDL
MODEL       23
REMARK 921   NORMALIZED FREE ENERGY PREDICTED BY IDOCK:   -6.80 KCAL/MOL
REMARK 922        TOTAL FREE ENERGY PREDICTED BY IDOCK:   -8.00 KCAL/MOL
REMARK 923 INTER-LIGAND FREE ENERGY PREDICTED BY IDOCK:   -7.38 KCAL/MOL
REMARK 924 INTRA-LIGAND FREE ENERGY PREDICTED BY IDOCK:   -0.63 KCAL/MOL
REMARK 927      BINDING AFFINITY PREDICTED BY RF-SCORE:    0.00 PKD
ROOT
HETATM    1  O   UNL     1     -11.701  15.768  69.982  1.00  0.00    -0.324 OA 
HETATM    2  C   UNL     1     -12.684  15.127  70.648  1.00  0.00    -0.398 C  
HETATM    3  C   UNL     1     -12.504  13.647  70.743  1.00  0.00    -0.432 A  
HETATM    4  O   UNL     1     -13.628  15.713  71.148  1.00  0.00    -0.582 OA 
HETATM    5  C   UNL     1     -13.230  13.007  71.766  1.00  0.00    -0.486 A  
HETATM    6  C   UNL     1     -13.183  11.624  71.920  1.00  0.00    -0.475 A  
HETATM    7  C   UNL     1     -12.441  10.858  71.032  1.00  0.00    -0.514 A  
HETATM    8  C   UNL     1     -11.716  11.480  70.013  1.00  0.00    -0.414 A  
HETATM    9  C   UNL     1     -11.692  12.881  69.877  1.00  0.00    -0.254 A  
ENDROOT
BRANCH   9  10
HETATM   10  N   UNL     1     -10.943  13.485  68.816  1.00  0.00    -0.255 NA 
HETATM   11  H   UNL     1     -10.128  14.043  69.073  1.00  0.00     0.000 HD 
BRANCH  10  12
HETATM   12  C   UNL     1     -11.251  13.367  67.429  1.00  0.00    -0.288 A  
HETATM   13  C   UNL     1     -10.486  12.562  66.568  1.00  0.00    -0.258 A  
HETATM   14  C   UNL     1     -10.827  12.407  65.213  1.00  0.00    -0.324 A  
HETATM   15  C   UNL     1     -10.012  11.531  64.293  1.00  0.00    -0.271 C  
HETATM   16  C   UNL     1     -11.947  13.087  64.717  1.00  0.00    -0.443 A  
HETATM   17  F   UNL     1     -10.727  10.482  63.802  1.00  0.00    -0.287 F  
HETATM   18  F   UNL     1      -9.553  12.211  63.206  1.00  0.00    -0.352 F  
HETATM   19  F   UNL     1      -8.912  10.989  64.885  1.00  0.00    -0.189 F  
HETATM   20  C   UNL     1     -12.668  13.949  65.541  1.00  0.00    -0.536 A  
HETATM   21  C   UNL     1     -12.306  14.107  66.882  1.00  0.00    -0.293 A  
ENDBRANCH  10  12
ENDBRANCH   9  10
TORSDOF 2
ENDMDL
MODEL       24
REMARK 921   NORMALIZED FREE ENERGY PREDICTED BY IDOCK:   -6.78 KCAL/MOL
REMARK 922        TOTAL FREE ENERGY PREDICTED BY IDOCK:   -7.97 KCAL/MOL
REMARK 923 INTER-LIGAND FREE ENERGY PREDICTED BY IDOCK:   -7.44 KCAL/MOL
REMARK 924 INTRA-LIGAND FREE ENERGY PREDICTED BY IDOCK:   -0.53 KCAL/MOL
REMARK 927      BINDING AFFINITY PREDICTED BY RF-SCORE:    0.00 PKD
ROOT
HETATM    1  O   UNL     1     -11.983  14.703  64.909  1.00  0.00    -0.394 OA 
HETATM    2  C   UNL     1     -11.333  15.883  65.003  1.00  0.00    -0.193 C  
HETATM    3  C   UNL     1     -10.626  16.098  66.301  1.00  0.00    -0.276 A  
HETATM    4  O   UNL     1     -11.309  16.693  64.093  1.00  0.00    -1.141 OA 
HETATM    5  C   UNL     1      -9.604  17.067  66.287  1.00  0.00    -0.289 A  
HETATM    6  C   UNL     1      -8.909  17.392  67.450  1.00  0.00    -0.230 A  
HETATM    7  C   UNL     1      -9.251  16.781  68.647  1.00  0.00    -0.257 A  
HETATM    8  C   UNL     1     -10.261  15.818  68.675  1.00  0.00    -0.221 A  
HETATM    9  C   UNL     1     -10.933  15.422  67.503  1.00  0.00    -0.315 A  
ENDROOT
BRANCH   9  10
HETATM   10  N   UNL     1     -11.969  14.436  67.568  1.00  0.00    -0.517 NA 
HETATM   11  H   UNL     1     -12.915  14.729  67.325  1.00  0.00     0.000 HD 
BRANCH  10  12
HETATM   12  C   UNL     1     -11.779  13.074  67.947  1.00  0.00    -0.357 A  
HETATM   13  C   UNL     1     -12.098  12.614  69.235  1.00  0.00    -0.218 A  
HETATM   14  C   UNL     1     -11.960  11.259  69.585  1.00  0.00    -0.423 A  
HETATM   15  C   UNL     1     -12.315  10.764  70.966  1.00  0.00    -0.404 C  
HETATM   16  C   UNL     1     -11.478  10.360  68.625  1.00  0.00    -0.238 A  
HETATM   17  F   UNL     1     -13.337   9.865  70.952  1.00  0.00    -0.415 F  
HETATM   18  F   UNL     1     -11.272  10.133  71.573  1.00  0.00    -0.387 F  
HETATM   19  F   UNL     1     -12.701  11.753  71.820  1.00  0.00    -0.432 F  
HETATM   20  C   UNL     1     -11.085  10.817  67.369  1.00  0.00    -0.363 A  
HETATM   21  C   UNL     1     -11.212  12.170  67.041  1.00  0.00    -0.370 A  
ENDBRANCH  10  12
ENDBRANCH   9  10
TORSDOF 2
ENDMDL
MODEL       25
REMARK 921   NORMALIZED FREE ENERGY PREDICTED BY IDOCK:   -6.77 KCAL/MOL
REMARK 922        TOTAL FREE ENERGY PREDICTED BY IDOCK:   -7.97 KCAL/MOL
REMARK 923 INTER-LIGAND FREE ENERGY PREDICTED BY IDOCK:   -7.37 KCAL/MOL
REMARK 924 INTRA-LIGAND FREE ENERGY PREDICTED BY IDOCK:   -0.59 KCAL/MOL
REMARK 927      BINDING AFFINITY PREDICTED BY RF-SCORE:    0.00 PKD
ROOT
HETATM    1  O   UNL     1     -13.528  10.336  70.927  1.00  0.00    -0.307 OA 
HETATM    2  C   UNL     1     -12.681   9.466  71.517  1.00  0.00    -0.361 C  
HETATM    3  C   UNL     1     -11.289   9.496  70.978  1.00  0.00    -0.423 A  
HETATM    4  O   UNL     1     -13.024   8.733  72.428  1.00  0.00    -0.392 OA 
HETATM    5  C   UNL     1     -10.297   8.955  71.819  1.00  0.00    -0.426 A  
HETATM    6  C   UNL     1      -8.969   8.881  71.404  1.00  0.00    -0.300 A  
HETATM    7  C   UNL     1      -8.622   9.310  70.131  1.00  0.00    -0.215 A  
HETATM    8  C   UNL     1      -9.595   9.847  69.287  1.00  0.00    -0.215 A  
HETATM    9  C   UNL     1     -10.931   9.997  69.706  1.00  0.00    -0.276 A  
ENDROOT
BRANCH   9  10
HETATM   10  N   UNL     1     -11.906  10.546  68.813  1.00  0.00    -0.674 NA 
HETATM   11  H   UNL     1     -12.713   9.966  68.581  1.00  0.00     0.000 HD 
BRANCH  10  12
HETATM   12  C   UNL     1     -11.835  11.843  68.222  1.00  0.00    -0.277 A  
HETATM   13  C   UNL     1     -11.652  12.016  66.840  1.00  0.00    -0.389 A  
HETATM   14  C   UNL     1     -11.639  13.295  66.257  1.00  0.00    -0.384 A  
HETATM   15  C   UNL     1     -11.455  13.479  64.770  1.00  0.00    -0.346 C  
HETATM   16  C   UNL     1     -11.796  14.415  67.084  1.00  0.00    -0.437 A  
HETATM   17  F   UNL     1     -12.535  14.059  64.178  1.00  0.00    -0.442 F  
HETATM   18  F   UNL     1     -10.393  14.280  64.476  1.00  0.00    -0.443 F  
HETATM   19  F   UNL     1     -11.241  12.315  64.097  1.00  0.00    -0.323 F  
HETATM   20  C   UNL     1     -11.900  14.260  68.464  1.00  0.00    -0.382 A  
HETATM   21  C   UNL     1     -11.895  12.983  69.032  1.00  0.00    -0.362 A  
ENDBRANCH  10  12
ENDBRANCH   9  10
TORSDOF 2
ENDMDL
MODEL       26
REMARK 921   NORMALIZED FREE ENERGY PREDICTED BY IDOCK:   -6.77 KCAL/MOL
REMARK 922        TOTAL FREE ENERGY PREDICTED BY IDOCK:   -7.96 KCAL/MOL
REMARK 923 INTER-LIGAND FREE ENERGY PREDICTED BY IDOCK:   -7.37 KCAL/MOL
REMARK 924 INTRA-LIGAND FREE ENERGY PREDICTED BY IDOCK:   -0.59 KCAL/MOL
REMARK 927      BINDING AFFINITY PREDICTED BY RF-SCORE:    0.00 PKD
ROOT
HETATM    1  O   UNL     1     -11.708  15.434  64.267  1.00  0.00    -0.362 OA 
HETATM    2  C   UNL     1     -12.002  14.159  64.600  1.00  0.00    -0.445 C  
HETATM    3  C   UNL     1     -11.249  13.638  65.780  1.00  0.00    -0.302 A  
HETATM    4  O   UNL     1     -12.831  13.500  63.998  1.00  0.00    -0.598 OA 
HETATM    5  C   UNL     1     -11.816  12.519  66.421  1.00  0.00    -0.445 A  
HETATM    6  C   UNL     1     -11.178  11.913  67.500  1.00  0.00    -0.359 A  
HETATM    7  C   UNL     1      -9.948  12.391  67.928  1.00  0.00    -0.204 A  
HETATM    8  C   UNL     1      -9.375  13.500  67.302  1.00  0.00    -0.233 A  
HETATM    9  C   UNL     1     -10.031  14.173  66.254  1.00  0.00    -0.303 A  
ENDROOT
BRANCH   9  10
HETATM   10  N   UNL     1      -9.411  15.303  65.629  1.00  0.00    -0.402 NA 
HETATM   11  H   UNL     1      -9.293  15.275  64.616  1.00  0.00     0.000 HD 
BRANCH  10  12
HETATM   12  C   UNL     1      -8.948  16.465  66.315  1.00  0.00    -0.333 A  
HETATM   13  C   UNL     1      -9.802  17.543  66.602  1.00  0.00    -0.308 A  
HETATM   14  C   UNL     1      -9.353  18.661  67.327  1.00  0.00    -0.299 A  
HETATM   15  C   UNL     1     -10.275  19.813  67.645  1.00  0.00    -0.434 C  
HETATM   16  C   UNL     1      -8.019  18.697  67.753  1.00  0.00    -0.267 A  
HETATM   17  F   UNL     1     -10.461  19.979  68.984  1.00  0.00    -0.519 F  
HETATM   18  F   UNL     1      -9.795  21.001  67.185  1.00  0.00    -0.611 F  
HETATM   19  F   UNL     1     -11.521  19.682  67.109  1.00  0.00    -0.447 F  
HETATM   20  C   UNL     1      -7.143  17.671  67.408  1.00  0.00    -0.187 A  
HETATM   21  C   UNL     1      -7.599  16.573  66.672  1.00  0.00    -0.310 A  
ENDBRANCH  10  12
ENDBRANCH   9  10
TORSDOF 2
ENDMDL
MODEL       27
REMARK 921   NORMALIZED FREE ENERGY PREDICTED BY IDOCK:   -6.77 KCAL/MOL
REMARK 922        TOTAL FREE ENERGY PREDICTED BY IDOCK:   -7.96 KCAL/MOL
REMARK 923 INTER-LIGAND FREE ENERGY PREDICTED BY IDOCK:   -7.63 KCAL/MOL
REMARK 924 INTRA-LIGAND FREE ENERGY PREDICTED BY IDOCK:   -0.33 KCAL/MOL
REMARK 927      BINDING AFFINITY PREDICTED BY RF-SCORE:    0.00 PKD
ROOT
HETATM    1  O   UNL     1     -10.189  16.660  67.805  1.00  0.00    -0.273 OA 
HETATM    2  C   UNL     1     -10.192  16.370  66.486  1.00  0.00    -0.304 C  
HETATM    3  C   UNL     1     -11.011  15.177  66.116  1.00  0.00    -0.331 A  
HETATM    4  O   UNL     1      -9.591  17.043  65.666  1.00  0.00    -0.536 OA 
HETATM    5  C   UNL     1     -11.398  15.098  64.764  1.00  0.00    -0.399 A  
HETATM    6  C   UNL     1     -12.120  14.006  64.289  1.00  0.00    -0.476 A  
HETATM    7  C   UNL     1     -12.431  12.962  65.148  1.00  0.00    -0.561 A  
HETATM    8  C   UNL     1     -12.053  13.027  66.490  1.00  0.00    -0.410 A  
HETATM    9  C   UNL     1     -11.383  14.150  67.012  1.00  0.00    -0.332 A  
ENDROOT
BRANCH   9  10
HETATM   10  N   UNL     1     -11.003  14.183  68.392  1.00  0.00    -0.246 NA 
HETATM   11  H   UNL     1     -10.140  14.670  68.633  1.00  0.00     0.000 HD 
BRANCH  10  12
HETATM   12  C   UNL     1     -11.741  13.585  69.457  1.00  0.00    -0.322 A  
HETATM   13  C   UNL     1     -11.745  12.195  69.664  1.00  0.00    -0.396 A  
HETATM   14  C   UNL     1     -12.429  11.618  70.748  1.00  0.00    -0.425 A  
HETATM   15  C   UNL     1     -12.422  10.126  70.976  1.00  0.00    -0.375 C  
HETATM   16  C   UNL     1     -13.132  12.454  71.625  1.00  0.00    -0.408 A  
HETATM   17  F   UNL     1     -11.832   9.780  72.154  1.00  0.00    -0.406 F  
HETATM   18  F   UNL     1     -13.679   9.604  71.021  1.00  0.00    -0.421 F  
HETATM   19  F   UNL     1     -11.763   9.427  70.010  1.00  0.00    -0.217 F  
HETATM   20  C   UNL     1     -13.200  13.824  71.386  1.00  0.00    -0.378 A  
HETATM   21  C   UNL     1     -12.529  14.383  70.295  1.00  0.00    -0.413 A  
ENDBRANCH  10  12
ENDBRANCH   9  10
TORSDOF 2
ENDMDL
MODEL       28
REMARK 921   NORMALIZED FREE ENERGY PREDICTED BY IDOCK:   -6.75 KCAL/MOL
REMARK 922        TOTAL FREE ENERGY PREDICTED BY IDOCK:   -7.94 KCAL/MOL
REMARK 923 INTER-LIGAND FREE ENERGY PREDICTED BY IDOCK:   -7.30 KCAL/MOL
REMARK 924 INTRA-LIGAND FREE ENERGY PREDICTED BY IDOCK:   -0.64 KCAL/MOL
REMARK 927      BINDING AFFINITY PREDICTED BY RF-SCORE:    0.00 PKD
ROOT
HETATM    1  O   UNL     1      -9.373  10.478  67.771  1.00  0.00    -0.147 OA 
HETATM    2  C   UNL     1     -10.148  10.402  66.668  1.00  0.00    -0.224 C  
HETATM    3  C   UNL     1     -10.949  11.632  66.388  1.00  0.00    -0.345 A  
HETATM    4  O   UNL     1     -10.173   9.418  65.951  1.00  0.00    -0.259 OA 
HETATM    5  C   UNL     1     -11.411  11.772  65.065  1.00  0.00    -0.288 A  
HETATM    6  C   UNL     1     -12.211  12.851  64.697  1.00  0.00    -0.494 A  
HETATM    7  C   UNL     1     -12.592  13.782  65.652  1.00  0.00    -0.551 A  
HETATM    8  C   UNL     1     -12.141  13.655  66.968  1.00  0.00    -0.423 A  
HETATM    9  C   UNL     1     -11.276  12.613  67.352  1.00  0.00    -0.290 A  
ENDROOT
BRANCH   9  10
HETATM   10  N   UNL     1     -10.838  12.508  68.711  1.00  0.00    -0.266 NA 
HETATM   11  H   UNL     1      -9.854  12.696  68.905  1.00  0.00     0.000 HD 
BRANCH  10  12
HETATM   12  C   UNL     1     -11.672  12.160  69.814  1.00  0.00    -0.310 A  
HETATM   13  C   UNL     1     -11.948  10.821  70.140  1.00  0.00    -0.432 A  
HETATM   14  C   UNL     1     -12.726  10.485  71.261  1.00  0.00    -0.532 A  
HETATM   15  C   UNL     1     -13.010   9.046  71.617  1.00  0.00    -0.361 C  
HETATM   16  C   UNL     1     -13.247  11.515  72.055  1.00  0.00    -0.443 A  
HETATM   17  F   UNL     1     -12.494   8.695  72.826  1.00  0.00    -0.454 F  
HETATM   18  F   UNL     1     -14.345   8.786  71.692  1.00  0.00    -0.428 F  
HETATM   19  F   UNL     1     -12.507   8.151  70.722  1.00  0.00    -0.220 F  
HETATM   20  C   UNL     1     -13.046  12.847  71.698  1.00  0.00    -0.430 A  
HETATM   21  C   UNL     1     -12.284  13.166  70.571  1.00  0.00    -0.405 A  
ENDBRANCH  10  12
ENDBRANCH   9  10
TORSDOF 2
ENDMDL
MODEL       29
REMARK 921   NORMALIZED FREE ENERGY PREDICTED BY IDOCK:   -6.71 KCAL/MOL
REMARK 922        TOTAL FREE ENERGY PREDICTED BY IDOCK:   -7.90 KCAL/MOL
REMARK 923 INTER-LIGAND FREE ENERGY PREDICTED BY IDOCK:   -7.48 KCAL/MOL
REMARK 924 INTRA-LIGAND FREE ENERGY PREDICTED BY IDOCK:   -0.42 KCAL/MOL
REMARK 927      BINDING AFFINITY PREDICTED BY RF-SCORE:    0.00 PKD
ROOT
HETATM    1  O   UNL     1      -9.800   9.048  68.751  1.00  0.00    -0.163 OA 
HETATM    2  C   UNL     1     -10.291   8.651  69.944  1.00  0.00    -0.209 C  
HETATM    3  C   UNL     1     -11.330   9.557  70.519  1.00  0.00    -0.343 A  
HETATM    4  O   UNL     1      -9.929   7.625  70.492  1.00  0.00    -0.184 OA 
HETATM    5  C   UNL     1     -12.164   8.986  71.500  1.00  0.00    -0.403 A  
HETATM    6  C   UNL     1     -13.135   9.748  72.145  1.00  0.00    -0.513 A  
HETATM    7  C   UNL     1     -13.260  11.097  71.847  1.00  0.00    -0.488 A  
HETATM    8  C   UNL     1     -12.440  11.676  70.877  1.00  0.00    -0.440 A  
HETATM    9  C   UNL     1     -11.497  10.914  70.161  1.00  0.00    -0.319 A  
ENDROOT
BRANCH   9  10
HETATM   10  N   UNL     1     -10.666  11.541  69.178  1.00  0.00    -0.336 NA 
HETATM   11  H   UNL     1      -9.656  11.436  69.277  1.00  0.00     0.000 HD 
BRANCH  10  12
HETATM   12  C   UNL     1     -11.144  12.301  68.069  1.00  0.00    -0.239 A  
HETATM   13  C   UNL     1     -11.105  11.798  66.757  1.00  0.00    -0.360 A  
HETATM   14  C   UNL     1     -11.628  12.530  65.677  1.00  0.00    -0.435 A  
HETATM   15  C   UNL     1     -11.597  11.984  64.270  1.00  0.00    -0.358 C  
HETATM   16  C   UNL     1     -12.182  13.793  65.922  1.00  0.00    -0.501 A  
HETATM   17  F   UNL     1     -12.843  11.798  63.754  1.00  0.00    -0.557 F  
HETATM   18  F   UNL     1     -10.956  12.819  63.405  1.00  0.00    -0.448 F  
HETATM   19  F   UNL     1     -10.966  10.781  64.163  1.00  0.00    -0.400 F  
HETATM   20  C   UNL     1     -12.156  14.335  67.205  1.00  0.00    -0.412 A  
HETATM   21  C   UNL     1     -11.618  13.603  68.267  1.00  0.00    -0.374 A  
ENDBRANCH  10  12
ENDBRANCH   9  10
TORSDOF 2
ENDMDL
MODEL       30
REMARK 921   NORMALIZED FREE ENERGY PREDICTED BY IDOCK:   -6.70 KCAL/MOL
REMARK 922        TOTAL FREE ENERGY PREDICTED BY IDOCK:   -7.88 KCAL/MOL
REMARK 923 INTER-LIGAND FREE ENERGY PREDICTED BY IDOCK:   -7.25 KCAL/MOL
REMARK 924 INTRA-LIGAND FREE ENERGY PREDICTED BY IDOCK:   -0.64 KCAL/MOL
REMARK 927      BINDING AFFINITY PREDICTED BY RF-SCORE:    0.00 PKD
ROOT
HETATM    1  O   UNL     1     -12.928  12.800  65.094  1.00  0.00    -0.768 OA 
HETATM    2  C   UNL     1     -12.364  13.973  64.734  1.00  0.00    -0.413 C  
HETATM    3  C   UNL     1     -11.334  14.483  65.687  1.00  0.00    -0.336 A  
HETATM    4  O   UNL     1     -12.659  14.553  63.704  1.00  0.00    -0.798 OA 
HETATM    5  C   UNL     1     -10.431  15.429  65.163  1.00  0.00    -0.439 A  
HETATM    6  C   UNL     1      -9.459  16.014  65.971  1.00  0.00    -0.384 A  
HETATM    7  C   UNL     1      -9.400  15.692  67.319  1.00  0.00    -0.223 A  
HETATM    8  C   UNL     1     -10.289  14.756  67.851  1.00  0.00    -0.240 A  
HETATM    9  C   UNL     1     -11.236  14.098  67.044  1.00  0.00    -0.318 A  
ENDROOT
BRANCH   9  10
HETATM   10  N   UNL     1     -12.138  13.148  67.623  1.00  0.00    -0.296 NA 
HETATM   11  H   UNL     1     -13.135  13.361  67.586  1.00  0.00     0.000 HD 
BRANCH  10  12
HETATM   12  C   UNL     1     -11.747  11.927  68.248  1.00  0.00    -0.321 A  
HETATM   13  C   UNL     1     -11.224  10.853  67.509  1.00  0.00    -0.364 A  
HETATM   14  C   UNL     1     -10.789   9.673  68.138  1.00  0.00    -0.241 A  
HETATM   15  C   UNL     1     -10.215   8.525  67.343  1.00  0.00    -0.261 C  
HETATM   16  C   UNL     1     -10.901   9.570  69.531  1.00  0.00    -0.243 A  
HETATM   17  F   UNL     1      -8.918   8.265  67.665  1.00  0.00    -0.132 F  
HETATM   18  F   UNL     1     -10.892   7.362  67.553  1.00  0.00    -0.304 F  
HETATM   19  F   UNL     1     -10.232   8.728  65.997  1.00  0.00    -0.363 F  
HETATM   20  C   UNL     1     -11.490  10.596  70.266  1.00  0.00    -0.422 A  
HETATM   21  C   UNL     1     -11.933  11.757  69.625  1.00  0.00    -0.378 A  
ENDBRANCH  10  12
ENDBRANCH   9  10
TORSDOF 2
ENDMDL
MODEL       31
REMARK 921   NORMALIZED FREE ENERGY PREDICTED BY IDOCK:   -6.70 KCAL/MOL
REMARK 922        TOTAL FREE ENERGY PREDICTED BY IDOCK:   -7.88 KCAL/MOL
REMARK 923 INTER-LIGAND FREE ENERGY PREDICTED BY IDOCK:   -7.31 KCAL/MOL
REMARK 924 INTRA-LIGAND FREE ENERGY PREDICTED BY IDOCK:   -0.57 KCAL/MOL
REMARK 927      BINDING AFFINITY PREDICTED BY RF-SCORE:    0.00 PKD
ROOT
HETATM    1  O   UNL     1     -11.612  13.357  69.183  1.00  0.00    -0.274 OA 
HETATM    2  C   UNL     1     -11.786  12.395  68.251  1.00  0.00    -0.345 C  
HETATM    3  C   UNL     1     -11.313  12.766  66.884  1.00  0.00    -0.371 A  
HETATM    4  O   UNL     1     -12.268  11.308  68.514  1.00  0.00    -0.588 OA 
HETATM    5  C   UNL     1     -11.067  11.690  66.010  1.00  0.00    -0.325 A  
HETATM    6  C   UNL     1     -10.673  11.914  64.693  1.00  0.00    -0.356 A  
HETATM    7  C   UNL     1     -10.557  13.213  64.221  1.00  0.00    -0.432 A  
HETATM    8  C   UNL     1     -10.798  14.289  65.077  1.00  0.00    -0.414 A  
HETATM    9  C   UNL     1     -11.131  14.092  66.430  1.00  0.00    -0.320 A  
ENDROOT
BRANCH   9  10
HETATM   10  N   UNL     1     -11.379  15.218  67.280  1.00  0.00    -0.310 NA 
HETATM   11  H   UNL     1     -12.298  15.284  67.719  1.00  0.00     0.000 HD 
BRANCH  10  12
HETATM   12  C   UNL     1     -10.440  16.255  67.558  1.00  0.00    -0.302 A  
HETATM   13  C   UNL     1     -10.492  17.496  66.901  1.00  0.00    -0.285 A  
HETATM   14  C   UNL     1      -9.597  18.532  67.219  1.00  0.00    -0.305 A  
HETATM   15  C   UNL     1      -9.663  19.869  66.521  1.00  0.00    -0.433 C  
HETATM   16  C   UNL     1      -8.626  18.306  68.204  1.00  0.00    -0.290 A  
HETATM   17  F   UNL     1      -9.951  20.890  67.374  1.00  0.00    -0.598 F  
HETATM   18  F   UNL     1      -8.482  20.200  65.928  1.00  0.00    -0.346 F  
HETATM   19  F   UNL     1     -10.603  19.928  65.538  1.00  0.00    -0.568 F  
HETATM   20  C   UNL     1      -8.514  17.056  68.807  1.00  0.00    -0.237 A  
HETATM   21  C   UNL     1      -9.400  16.029  68.468  1.00  0.00    -0.213 A  
ENDBRANCH  10  12
ENDBRANCH   9  10
TORSDOF 2
ENDMDL
MODEL       32
REMARK 921   NORMALIZED FREE ENERGY PREDICTED BY IDOCK:   -6.69 KCAL/MOL
REMARK 922        TOTAL FREE ENERGY PREDICTED BY IDOCK:   -7.88 KCAL/MOL
REMARK 923 INTER-LIGAND FREE ENERGY PREDICTED BY IDOCK:   -7.48 KCAL/MOL
REMARK 924 INTRA-LIGAND FREE ENERGY PREDICTED BY IDOCK:   -0.40 KCAL/MOL
REMARK 927      BINDING AFFINITY PREDICTED BY RF-SCORE:    0.00 PKD
ROOT
HETATM    1  O   UNL     1      -9.996  15.500  65.306  1.00  0.00    -0.320 OA 
HETATM    2  C   UNL     1     -10.623  16.684  65.142  1.00  0.00    -0.161 C  
HETATM    3  C   UNL     1     -10.310  17.701  66.191  1.00  0.00    -0.334 A  
HETATM    4  O   UNL     1     -11.365  16.909  64.202  1.00  0.00    -1.208 OA 
HETATM    5  C   UNL     1     -10.570  19.040  65.841  1.00  0.00    -0.466 A  
HETATM    6  C   UNL     1     -10.367  20.071  66.755  1.00  0.00    -0.564 A  
HETATM    7  C   UNL     1      -9.939  19.775  68.041  1.00  0.00    -0.553 A  
HETATM    8  C   UNL     1      -9.677  18.451  68.401  1.00  0.00    -0.379 A  
HETATM    9  C   UNL     1      -9.808  17.398  67.477  1.00  0.00    -0.277 A  
ENDROOT
BRANCH   9  10
HETATM   10  N   UNL     1      -9.539  16.050  67.881  1.00  0.00    -0.218 NA 
HETATM   11  H   UNL     1      -8.636  15.652  67.622  1.00  0.00     0.000 HD 
BRANCH  10  12
HETATM   12  C   UNL     1     -10.437  15.223  68.618  1.00  0.00    -0.235 A  
HETATM   13  C   UNL     1     -10.384  13.822  68.540  1.00  0.00    -0.244 A  
HETATM   14  C   UNL     1     -11.235  13.012  69.312  1.00  0.00    -0.259 A  
HETATM   15  C   UNL     1     -11.169  11.506  69.236  1.00  0.00    -0.272 C  
HETATM   16  C   UNL     1     -12.164  13.626  70.162  1.00  0.00    -0.413 A  
HETATM   17  F   UNL     1     -10.814  10.938  70.422  1.00  0.00    -0.283 F  
HETATM   18  F   UNL     1     -12.367  10.951  68.901  1.00  0.00    -0.382 F  
HETATM   19  F   UNL     1     -10.275  11.043  68.318  1.00  0.00    -0.161 F  
HETATM   20  C   UNL     1     -12.279  15.014  70.191  1.00  0.00    -0.392 A  
HETATM   21  C   UNL     1     -11.437  15.807  69.405  1.00  0.00    -0.357 A  
ENDBRANCH  10  12
ENDBRANCH   9  10
TORSDOF 2
ENDMDL
MODEL       33
REMARK 921   NORMALIZED FREE ENERGY PREDICTED BY IDOCK:   -6.69 KCAL/MOL
REMARK 922        TOTAL FREE ENERGY PREDICTED BY IDOCK:   -7.87 KCAL/MOL
REMARK 923 INTER-LIGAND FREE ENERGY PREDICTED BY IDOCK:   -7.50 KCAL/MOL
REMARK 924 INTRA-LIGAND FREE ENERGY PREDICTED BY IDOCK:   -0.37 KCAL/MOL
REMARK 927      BINDING AFFINITY PREDICTED BY RF-SCORE:    0.00 PKD
ROOT
HETATM    1  O   UNL     1     -13.211  15.791  70.826  1.00  0.00    -0.542 OA 
HETATM    2  C   UNL     1     -13.428  14.519  71.223  1.00  0.00    -0.362 C  
HETATM    3  C   UNL     1     -12.656  13.492  70.461  1.00  0.00    -0.311 A  
HETATM    4  O   UNL     1     -14.176  14.238  72.143  1.00  0.00    -0.489 OA 
HETATM    5  C   UNL     1     -12.505  12.245  71.098  1.00  0.00    -0.328 A  
HETATM    6  C   UNL     1     -11.849  11.193  70.463  1.00  0.00    -0.448 A  
HETATM    7  C   UNL     1     -11.370  11.360  69.172  1.00  0.00    -0.353 A  
HETATM    8  C   UNL     1     -11.513  12.591  68.530  1.00  0.00    -0.346 A  
HETATM    9  C   UNL     1     -12.111  13.691  69.173  1.00  0.00    -0.319 A  
ENDROOT
BRANCH   9  10
HETATM   10  N   UNL     1     -12.248  14.939  68.483  1.00  0.00    -0.597 NA 
HETATM   11  H   UNL     1     -13.187  15.328  68.393  1.00  0.00     0.000 HD 
BRANCH  10  12
HETATM   12  C   UNL     1     -11.171  15.679  67.911  1.00  0.00    -0.328 A  
HETATM   13  C   UNL     1     -10.778  16.927  68.423  1.00  0.00    -0.368 A  
HETATM   14  C   UNL     1      -9.681  17.625  67.890  1.00  0.00    -0.295 A  
HETATM   15  C   UNL     1      -9.251  18.960  68.449  1.00  0.00    -0.347 C  
HETATM   16  C   UNL     1      -8.981  17.063  66.813  1.00  0.00    -0.267 A  
HETATM   17  F   UNL     1      -7.996  18.926  68.976  1.00  0.00    -0.345 F  
HETATM   18  F   UNL     1      -9.231  19.936  67.500  1.00  0.00    -0.361 F  
HETATM   19  F   UNL     1     -10.060  19.423  69.443  1.00  0.00    -0.456 F  
HETATM   20  C   UNL     1      -9.409  15.865  66.246  1.00  0.00    -0.357 A  
HETATM   21  C   UNL     1     -10.512  15.190  66.777  1.00  0.00    -0.283 A  
ENDBRANCH  10  12
ENDBRANCH   9  10
TORSDOF 2
ENDMDL
MODEL       34
REMARK 921   NORMALIZED FREE ENERGY PREDICTED BY IDOCK:   -6.66 KCAL/MOL
REMARK 922        TOTAL FREE ENERGY PREDICTED BY IDOCK:   -7.84 KCAL/MOL
REMARK 923 INTER-LIGAND FREE ENERGY PREDICTED BY IDOCK:   -7.47 KCAL/MOL
REMARK 924 INTRA-LIGAND FREE ENERGY PREDICTED BY IDOCK:   -0.37 KCAL/MOL
REMARK 927      BINDING AFFINITY PREDICTED BY RF-SCORE:    0.00 PKD
ROOT
HETATM    1  O   UNL     1     -12.890  14.254  65.663  1.00  0.00    -0.475 OA 
HETATM    2  C   UNL     1     -12.338  13.648  64.590  1.00  0.00    -0.371 C  
HETATM    3  C   UNL     1     -11.303  12.624  64.922  1.00  0.00    -0.347 A  
HETATM    4  O   UNL     1     -12.676  13.903  63.447  1.00  0.00    -0.806 OA 
HETATM    5  C   UNL     1     -11.028  11.683  63.911  1.00  0.00    -0.478 A  
HETATM    6  C   UNL     1     -10.045  10.711  64.085  1.00  0.00    -0.402 A  
HETATM    7  C   UNL     1      -9.298  10.691  65.254  1.00  0.00    -0.256 A  
HETATM    8  C   UNL     1      -9.561  11.618  66.265  1.00  0.00    -0.241 A  
HETATM    9  C   UNL     1     -10.594  12.567  66.143  1.00  0.00    -0.253 A  
ENDROOT
BRANCH   9  10
HETATM   10  N   UNL     1     -10.831  13.508  67.195  1.00  0.00    -0.282 NA 
HETATM   11  H   UNL     1     -10.562  14.478  67.030  1.00  0.00     0.000 HD 
BRANCH  10  12
HETATM   12  C   UNL     1     -11.417  13.193  68.457  1.00  0.00    -0.303 A  
HETATM   13  C   UNL     1     -11.485  11.872  68.930  1.00  0.00    -0.358 A  
HETATM   14  C   UNL     1     -12.013  11.574  70.199  1.00  0.00    -0.452 A  
HETATM   15  C   UNL     1     -12.075  10.155  70.711  1.00  0.00    -0.343 C  
HETATM   16  C   UNL     1     -12.494  12.623  70.993  1.00  0.00    -0.354 A  
HETATM   17  F   UNL     1     -11.319   9.970  71.828  1.00  0.00    -0.385 F  
HETATM   18  F   UNL     1     -13.340   9.783  71.051  1.00  0.00    -0.404 F  
HETATM   19  F   UNL     1     -11.644   9.229  69.810  1.00  0.00    -0.156 F  
HETATM   20  C   UNL     1     -12.503  13.927  70.504  1.00  0.00    -0.422 A  
HETATM   21  C   UNL     1     -11.990  14.206  69.234  1.00  0.00    -0.382 A  
ENDBRANCH  10  12
ENDBRANCH   9  10
TORSDOF 2
ENDMDL
MODEL       35
REMARK 921   NORMALIZED FREE ENERGY PREDICTED BY IDOCK:   -6.65 KCAL/MOL
REMARK 922        TOTAL FREE ENERGY PREDICTED BY IDOCK:   -7.83 KCAL/MOL
REMARK 923 INTER-LIGAND FREE ENERGY PREDICTED BY IDOCK:   -7.32 KCAL/MOL
REMARK 924 INTRA-LIGAND FREE ENERGY PREDICTED BY IDOCK:   -0.50 KCAL/MOL
REMARK 927      BINDING AFFINITY PREDICTED BY RF-SCORE:    0.00 PKD
ROOT
HETATM    1  O   UNL     1     -12.021  14.568  70.440  1.00  0.00    -0.280 OA 
HETATM    2  C   UNL     1     -11.893  14.972  69.158  1.00  0.00    -0.308 C  
HETATM    3  C   UNL     1     -11.822  13.860  68.163  1.00  0.00    -0.407 A  
HETATM    4  O   UNL     1     -11.860  16.148  68.842  1.00  0.00    -0.338 OA 
HETATM    5  C   UNL     1     -12.128  14.210  66.834  1.00  0.00    -0.466 A  
HETATM    6  C   UNL     1     -12.046  13.270  65.809  1.00  0.00    -0.491 A  
HETATM    7  C   UNL     1     -11.621  11.981  66.092  1.00  0.00    -0.371 A  
HETATM    8  C   UNL     1     -11.315  11.620  67.406  1.00  0.00    -0.367 A  
HETATM    9  C   UNL     1     -11.455  12.531  68.470  1.00  0.00    -0.305 A  
ENDROOT
BRANCH   9  10
HETATM   10  N   UNL     1     -11.126  12.131  69.805  1.00  0.00    -0.477 NA 
HETATM   11  H   UNL     1     -10.441  12.693  70.311  1.00  0.00     0.000 HD 
BRANCH  10  12
HETATM   12  C   UNL     1     -11.683  11.006  70.482  1.00  0.00    -0.318 A  
HETATM   13  C   UNL     1     -11.143   9.716  70.341  1.00  0.00    -0.346 A  
HETATM   14  C   UNL     1     -11.663   8.622  71.054  1.00  0.00    -0.319 A  
HETATM   15  C   UNL     1     -11.074   7.239  70.910  1.00  0.00    -0.261 C  
HETATM   16  C   UNL     1     -12.754   8.830  71.909  1.00  0.00    -0.427 A  
HETATM   17  F   UNL     1     -10.551   6.771  72.077  1.00  0.00    -0.214 F  
HETATM   18  F   UNL     1     -12.001   6.320  70.522  1.00  0.00    -0.419 F  
HETATM   19  F   UNL     1     -10.069   7.165  69.994  1.00  0.00    -0.182 F  
HETATM   20  C   UNL     1     -13.347  10.087  71.998  1.00  0.00    -0.513 A  
HETATM   21  C   UNL     1     -12.829  11.163  71.270  1.00  0.00    -0.515 A  
ENDBRANCH  10  12
ENDBRANCH   9  10
TORSDOF 2
ENDMDL
MODEL       36
REMARK 921   NORMALIZED FREE ENERGY PREDICTED BY IDOCK:   -6.63 KCAL/MOL
REMARK 922        TOTAL FREE ENERGY PREDICTED BY IDOCK:   -7.81 KCAL/MOL
REMARK 923 INTER-LIGAND FREE ENERGY PREDICTED BY IDOCK:   -7.38 KCAL/MOL
REMARK 924 INTRA-LIGAND FREE ENERGY PREDICTED BY IDOCK:   -0.43 KCAL/MOL
REMARK 927      BINDING AFFINITY PREDICTED BY RF-SCORE:    0.00 PKD
ROOT
HETATM    1  O   UNL     1     -12.774  15.101  71.665  1.00  0.00    -0.310 OA 
HETATM    2  C   UNL     1     -13.088  13.792  71.763  1.00  0.00    -0.379 C  
HETATM    3  C   UNL     1     -12.520  12.936  70.679  1.00  0.00    -0.333 A  
HETATM    4  O   UNL     1     -13.762  13.346  72.675  1.00  0.00    -0.687 OA 
HETATM    5  C   UNL     1     -12.443  11.559  70.964  1.00  0.00    -0.458 A  
HETATM    6  C   UNL     1     -11.979  10.655  70.011  1.00  0.00    -0.408 A  
HETATM    7  C   UNL     1     -11.623  11.109  68.749  1.00  0.00    -0.389 A  
HETATM    8  C   UNL     1     -11.695  12.472  68.453  1.00  0.00    -0.375 A  
HETATM    9  C   UNL     1     -12.095  13.414  69.419  1.00  0.00    -0.269 A  
ENDROOT
BRANCH   9  10
HETATM   10  N   UNL     1     -12.165  14.804  69.079  1.00  0.00    -0.564 NA 
HETATM   11  H   UNL     1     -13.091  15.212  68.952  1.00  0.00     0.000 HD 
BRANCH  10  12
HETATM   12  C   UNL     1     -11.038  15.661  68.907  1.00  0.00    -0.290 A  
HETATM   13  C   UNL     1     -11.161  16.937  68.332  1.00  0.00    -0.216 A  
HETATM   14  C   UNL     1     -10.055  17.797  68.215  1.00  0.00    -0.371 A  
HETATM   15  C   UNL     1     -10.191  19.173  67.608  1.00  0.00    -0.403 C  
HETATM   16  C   UNL     1      -8.806  17.357  68.671  1.00  0.00    -0.258 A  
HETATM   17  F   UNL     1      -9.900  20.165  68.494  1.00  0.00    -0.445 F  
HETATM   18  F   UNL     1      -9.351  19.357  66.552  1.00  0.00    -0.310 F  
HETATM   19  F   UNL     1     -11.441  19.444  67.141  1.00  0.00    -0.438 F  
HETATM   20  C   UNL     1      -8.656  16.066  69.171  1.00  0.00    -0.247 A  
HETATM   21  C   UNL     1      -9.760  15.214  69.265  1.00  0.00    -0.225 A  
ENDBRANCH  10  12
ENDBRANCH   9  10
TORSDOF 2
ENDMDL
MODEL       37
REMARK 921   NORMALIZED FREE ENERGY PREDICTED BY IDOCK:   -6.52 KCAL/MOL
REMARK 922        TOTAL FREE ENERGY PREDICTED BY IDOCK:   -7.69 KCAL/MOL
REMARK 923 INTER-LIGAND FREE ENERGY PREDICTED BY IDOCK:   -7.30 KCAL/MOL
REMARK 924 INTRA-LIGAND FREE ENERGY PREDICTED BY IDOCK:   -0.39 KCAL/MOL
REMARK 927      BINDING AFFINITY PREDICTED BY RF-SCORE:    0.00 PKD
ROOT
HETATM    1  O   UNL     1     -10.942  13.407  68.466  1.00  0.00    -0.249 OA 
HETATM    2  C   UNL     1     -11.646  14.484  68.874  1.00  0.00    -0.309 C  
HETATM    3  C   UNL     1     -12.285  14.334  70.216  1.00  0.00    -0.407 A  
HETATM    4  O   UNL     1     -11.731  15.502  68.210  1.00  0.00    -0.360 OA 
HETATM    5  C   UNL     1     -12.641  15.534  70.861  1.00  0.00    -0.512 A  
HETATM    6  C   UNL     1     -13.291  15.518  72.093  1.00  0.00    -0.561 A  
HETATM    7  C   UNL     1     -13.628  14.306  72.677  1.00  0.00    -0.601 A  
HETATM    8  C   UNL     1     -13.282  13.109  72.048  1.00  0.00    -0.543 A  
HETATM    9  C   UNL     1     -12.565  13.095  70.837  1.00  0.00    -0.295 A  
ENDROOT
BRANCH   9  10
HETATM   10  N   UNL     1     -12.231  11.849  70.214  1.00  0.00    -0.299 NA 
HETATM   11  H   UNL     1     -11.924  11.875  69.242  1.00  0.00     0.000 HD 
BRANCH  10  12
HETATM   12  C   UNL     1     -12.297  10.574  70.850  1.00  0.00    -0.390 A  
HETATM   13  C   UNL     1     -11.141   9.909  71.293  1.00  0.00    -0.302 A  
HETATM   14  C   UNL     1     -11.216   8.679  71.968  1.00  0.00    -0.434 A  
HETATM   15  C   UNL     1      -9.975   7.972  72.454  1.00  0.00    -0.251 C  
HETATM   16  C   UNL     1     -12.476   8.105  72.186  1.00  0.00    -0.364 A  
HETATM   17  F   UNL     1      -9.943   7.842  73.809  1.00  0.00    -0.359 F  
HETATM   18  F   UNL     1      -9.871   6.708  71.956  1.00  0.00    -0.161 F  
HETATM   19  F   UNL     1      -8.816   8.602  72.113  1.00  0.00    -0.243 F  
HETATM   20  C   UNL     1     -13.623   8.715  71.684  1.00  0.00    -0.408 A  
HETATM   21  C   UNL     1     -13.531   9.931  70.999  1.00  0.00    -0.257 A  
ENDBRANCH  10  12
ENDBRANCH   9  10
TORSDOF 2
ENDMDL
MODEL       38
REMARK 921   NORMALIZED FREE ENERGY PREDICTED BY IDOCK:   -6.52 KCAL/MOL
REMARK 922        TOTAL FREE ENERGY PREDICTED BY IDOCK:   -7.69 KCAL/MOL
REMARK 923 INTER-LIGAND FREE ENERGY PREDICTED BY IDOCK:   -7.22 KCAL/MOL
REMARK 924 INTRA-LIGAND FREE ENERGY PREDICTED BY IDOCK:   -0.46 KCAL/MOL
REMARK 927      BINDING AFFINITY PREDICTED BY RF-SCORE:    0.00 PKD
ROOT
HETATM    1  O   UNL     1     -13.811  13.425  72.739  1.00  0.00    -0.720 OA 
HETATM    2  C   UNL     1     -13.007  14.094  71.885  1.00  0.00    -0.360 C  
HETATM    3  C   UNL     1     -12.552  13.295  70.708  1.00  0.00    -0.357 A  
HETATM    4  O   UNL     1     -12.698  15.260  72.054  1.00  0.00    -0.309 OA 
HETATM    5  C   UNL     1     -12.100  14.040  69.602  1.00  0.00    -0.408 A  
HETATM    6  C   UNL     1     -11.603  13.404  68.466  1.00  0.00    -0.368 A  
HETATM    7  C   UNL     1     -11.516  12.020  68.435  1.00  0.00    -0.356 A  
HETATM    8  C   UNL     1     -11.961  11.270  69.525  1.00  0.00    -0.421 A  
HETATM    9  C   UNL     1     -12.531  11.883  70.657  1.00  0.00    -0.257 A  
ENDROOT
BRANCH   9  10
HETATM   10  N   UNL     1     -12.971  11.083  71.761  1.00  0.00    -0.468 NA 
HETATM   11  H   UNL     1     -13.304  11.571  72.593  1.00  0.00     0.000 HD 
BRANCH  10  12
HETATM   12  C   UNL     1     -12.980   9.657  71.785  1.00  0.00    -0.420 A  
HETATM   13  C   UNL     1     -11.820   8.916  72.066  1.00  0.00    -0.438 A  
HETATM   14  C   UNL     1     -11.847   7.513  72.143  1.00  0.00    -0.338 A  
HETATM   15  C   UNL     1     -10.603   6.718  72.458  1.00  0.00    -0.221 C  
HETATM   16  C   UNL     1     -13.060   6.848  71.917  1.00  0.00    -0.239 A  
HETATM   17  F   UNL     1     -10.709   6.020  73.621  1.00  0.00    -0.233 F  
HETATM   18  F   UNL     1     -10.320   5.797  71.494  1.00  0.00    -0.228 F  
HETATM   19  F   UNL     1      -9.482   7.483  72.582  1.00  0.00    -0.160 F  
HETATM   20  C   UNL     1     -14.199   7.566  71.561  1.00  0.00    -0.580 A  
HETATM   21  C   UNL     1     -14.153   8.961  71.472  1.00  0.00    -0.344 A  
ENDBRANCH  10  12
ENDBRANCH   9  10
TORSDOF 2
ENDMDL
MODEL       39
REMARK 921   NORMALIZED FREE ENERGY PREDICTED BY IDOCK:   -6.46 KCAL/MOL
REMARK 922        TOTAL FREE ENERGY PREDICTED BY IDOCK:   -7.61 KCAL/MOL
REMARK 923 INTER-LIGAND FREE ENERGY PREDICTED BY IDOCK:   -7.00 KCAL/MOL
REMARK 924 INTRA-LIGAND FREE ENERGY PREDICTED BY IDOCK:   -0.62 KCAL/MOL
REMARK 927      BINDING AFFINITY PREDICTED BY RF-SCORE:    0.00 PKD
ROOT
HETATM    1  O   UNL     1     -11.594  12.189  65.885  1.00  0.00    -0.373 OA 
HETATM    2  C   UNL     1     -11.343  11.541  67.043  1.00  0.00    -0.269 C  
HETATM    3  C   UNL     1     -11.726  12.299  68.272  1.00  0.00    -0.392 A  
HETATM    4  O   UNL     1     -10.863  10.422  67.077  1.00  0.00    -0.259 OA 
HETATM    5  C   UNL     1     -11.895  11.526  69.438  1.00  0.00    -0.417 A  
HETATM    6  C   UNL     1     -12.202  12.128  70.656  1.00  0.00    -0.392 A  
HETATM    7  C   UNL     1     -12.305  13.509  70.734  1.00  0.00    -0.440 A  
HETATM    8  C   UNL     1     -12.139  14.286  69.586  1.00  0.00    -0.396 A  
HETATM    9  C   UNL     1     -11.896  13.700  68.330  1.00  0.00    -0.369 A  
ENDROOT
BRANCH   9  10
HETATM   10  N   UNL     1     -11.724  14.527  67.173  1.00  0.00    -0.392 NA 
HETATM   11  H   UNL     1     -12.415  14.445  66.428  1.00  0.00     0.000 HD 
BRANCH  10  12
HETATM   12  C   UNL     1     -10.659  15.457  66.985  1.00  0.00    -0.309 A  
HETATM   13  C   UNL     1     -10.843  16.838  67.169  1.00  0.00    -0.102 A  
HETATM   14  C   UNL     1      -9.776  17.744  67.036  1.00  0.00    -0.290 A  
HETATM   15  C   UNL     1      -9.972  19.225  67.246  1.00  0.00    -0.363 C  
HETATM   16  C   UNL     1      -8.509  17.249  66.696  1.00  0.00    -0.292 A  
HETATM   17  F   UNL     1      -9.244  19.706  68.291  1.00  0.00    -0.367 F  
HETATM   18  F   UNL     1      -9.593  19.956  66.161  1.00  0.00    -0.406 F  
HETATM   19  F   UNL     1     -11.263  19.576  67.498  1.00  0.00    -0.549 F  
HETATM   20  C   UNL     1      -8.331  15.893  66.435  1.00  0.00    -0.310 A  
HETATM   21  C   UNL     1      -9.406  15.006  66.555  1.00  0.00    -0.309 A  
ENDBRANCH  10  12
ENDBRANCH   9  10
TORSDOF 2
ENDMDL
MODEL       40
REMARK 921   NORMALIZED FREE ENERGY PREDICTED BY IDOCK:   -6.44 KCAL/MOL
REMARK 922        TOTAL FREE ENERGY PREDICTED BY IDOCK:   -7.60 KCAL/MOL
REMARK 923 INTER-LIGAND FREE ENERGY PREDICTED BY IDOCK:   -7.09 KCAL/MOL
REMARK 924 INTRA-LIGAND FREE ENERGY PREDICTED BY IDOCK:   -0.50 KCAL/MOL
REMARK 927      BINDING AFFINITY PREDICTED BY RF-SCORE:    0.00 PKD
ROOT
HETATM    1  O   UNL     1      -8.562   9.258  70.333  1.00  0.00    -0.180 OA 
HETATM    2  C   UNL     1      -9.278   8.880  71.413  1.00  0.00    -0.258 C  
HETATM    3  C   UNL     1     -10.729   9.229  71.348  1.00  0.00    -0.432 A  
HETATM    4  O   UNL     1      -8.782   8.284  72.353  1.00  0.00    -0.177 OA 
HETATM    5  C   UNL     1     -11.573   8.495  72.204  1.00  0.00    -0.447 A  
HETATM    6  C   UNL     1     -12.938   8.767  72.268  1.00  0.00    -0.462 A  
HETATM    7  C   UNL     1     -13.470   9.798  71.509  1.00  0.00    -0.417 A  
HETATM    8  C   UNL     1     -12.644  10.533  70.656  1.00  0.00    -0.457 A  
HETATM    9  C   UNL     1     -11.275  10.235  70.520  1.00  0.00    -0.330 A  
ENDROOT
BRANCH   9  10
HETATM   10  N   UNL     1     -10.455  11.014  69.641  1.00  0.00    -0.447 NA 
HETATM   11  H   UNL     1      -9.719  11.582  70.062  1.00  0.00     0.000 HD 
BRANCH  10  12
HETATM   12  C   UNL     1     -10.588  11.055  68.221  1.00  0.00    -0.187 A  
HETATM   13  C   UNL     1     -11.273  12.096  67.573  1.00  0.00    -0.357 A  
HETATM   14  C   UNL     1     -11.353  12.159  66.171  1.00  0.00    -0.414 A  
HETATM   15  C   UNL     1     -12.078  13.285  65.475  1.00  0.00    -0.435 C  
HETATM   16  C   UNL     1     -10.746  11.148  65.414  1.00  0.00    -0.259 A  
HETATM   17  F   UNL     1     -11.252  14.037  64.698  1.00  0.00    -0.334 F  
HETATM   18  F   UNL     1     -13.061  12.834  64.648  1.00  0.00    -0.437 F  
HETATM   19  F   UNL     1     -12.683  14.158  66.330  1.00  0.00    -0.489 F  
HETATM   20  C   UNL     1     -10.131  10.070  66.046  1.00  0.00    -0.318 A  
HETATM   21  C   UNL     1     -10.074  10.011  67.442  1.00  0.00    -0.256 A  
ENDBRANCH  10  12
ENDBRANCH   9  10
TORSDOF 2
ENDMDL
MODEL       41
REMARK 921   NORMALIZED FREE ENERGY PREDICTED BY IDOCK:   -6.39 KCAL/MOL
REMARK 922        TOTAL FREE ENERGY PREDICTED BY IDOCK:   -7.54 KCAL/MOL
REMARK 923 INTER-LIGAND FREE ENERGY PREDICTED BY IDOCK:   -6.96 KCAL/MOL
REMARK 924 INTRA-LIGAND FREE ENERGY PREDICTED BY IDOCK:   -0.58 KCAL/MOL
REMARK 927      BINDING AFFINITY PREDICTED BY RF-SCORE:    0.00 PKD
ROOT
HETATM    1  O   UNL     1      -6.728  16.662  66.656  1.00  0.00    -0.215 OA 
HETATM    2  C   UNL     1      -7.212  17.744  66.008  1.00  0.00    -0.287 C  
HETATM    3  C   UNL     1      -8.493  18.276  66.563  1.00  0.00    -0.287 A  
HETATM    4  O   UNL     1      -6.637  18.254  65.063  1.00  0.00    -0.413 OA 
HETATM    5  C   UNL     1      -8.797  19.609  66.227  1.00  0.00    -0.410 A  
HETATM    6  C   UNL     1      -9.989  20.198  66.643  1.00  0.00    -0.595 A  
HETATM    7  C   UNL     1     -10.909  19.452  67.366  1.00  0.00    -0.555 A  
HETATM    8  C   UNL     1     -10.620  18.129  67.705  1.00  0.00    -0.407 A  
HETATM    9  C   UNL     1      -9.394  17.531  67.357  1.00  0.00    -0.249 A  
ENDROOT
BRANCH   9  10
HETATM   10  N   UNL     1      -9.132  16.169  67.715  1.00  0.00    -0.197 NA 
HETATM   11  H   UNL     1      -8.222  15.955  68.124  1.00  0.00     0.000 HD 
BRANCH  10  12
HETATM   12  C   UNL     1     -10.048  15.089  67.544  1.00  0.00    -0.228 A  
HETATM   13  C   UNL     1     -10.208  14.444  66.306  1.00  0.00    -0.307 A  
HETATM   14  C   UNL     1     -11.071  13.345  66.158  1.00  0.00    -0.299 A  
HETATM   15  C   UNL     1     -11.232  12.645  64.830  1.00  0.00    -0.297 C  
HETATM   16  C   UNL     1     -11.795  12.900  67.272  1.00  0.00    -0.416 A  
HETATM   17  F   UNL     1     -10.826  11.346  64.871  1.00  0.00    -0.337 F  
HETATM   18  F   UNL     1     -12.528  12.618  64.414  1.00  0.00    -0.445 F  
HETATM   19  F   UNL     1     -10.528  13.224  63.818  1.00  0.00    -0.361 F  
HETATM   20  C   UNL     1     -11.704  13.579  68.485  1.00  0.00    -0.392 A  
HETATM   21  C   UNL     1     -10.854  14.681  68.613  1.00  0.00    -0.261 A  
ENDBRANCH  10  12
ENDBRANCH   9  10
TORSDOF 2
ENDMDL
MODEL       42
REMARK 921   NORMALIZED FREE ENERGY PREDICTED BY IDOCK:   -6.38 KCAL/MOL
REMARK 922        TOTAL FREE ENERGY PREDICTED BY IDOCK:   -7.53 KCAL/MOL
REMARK 923 INTER-LIGAND FREE ENERGY PREDICTED BY IDOCK:   -6.88 KCAL/MOL
REMARK 924 INTRA-LIGAND FREE ENERGY PREDICTED BY IDOCK:   -0.65 KCAL/MOL
REMARK 927      BINDING AFFINITY PREDICTED BY RF-SCORE:    0.00 PKD
ROOT
HETATM    1  O   UNL     1     -11.133  19.383  67.212  1.00  0.00    -0.458 OA 
HETATM    2  C   UNL     1     -10.107  19.442  68.088  1.00  0.00    -0.425 C  
HETATM    3  C   UNL     1      -8.816  18.902  67.567  1.00  0.00    -0.300 A  
HETATM    4  O   UNL     1     -10.225  19.917  69.204  1.00  0.00    -0.407 OA 
HETATM    5  C   UNL     1      -7.657  19.329  68.245  1.00  0.00    -0.339 A  
HETATM    6  C   UNL     1      -6.400  18.853  67.882  1.00  0.00    -0.213 A  
HETATM    7  C   UNL     1      -6.286  17.915  66.866  1.00  0.00    -0.199 A  
HETATM    8  C   UNL     1      -7.427  17.483  66.186  1.00  0.00    -0.334 A  
HETATM    9  C   UNL     1      -8.702  17.999  66.486  1.00  0.00    -0.260 A  
ENDROOT
BRANCH   9  10
HETATM   10  N   UNL     1      -9.852  17.529  65.774  1.00  0.00    -0.551 NA 
HETATM   11  H   UNL     1     -10.224  18.123  65.033  1.00  0.00     0.000 HD 
BRANCH  10  12
HETATM   12  C   UNL     1     -10.517  16.292  66.022  1.00  0.00    -0.331 A  
HETATM   13  C   UNL     1     -10.630  15.761  67.318  1.00  0.00    -0.313 A  
HETATM   14  C   UNL     1     -11.335  14.569  67.563  1.00  0.00    -0.355 A  
HETATM   15  C   UNL     1     -11.466  14.006  68.957  1.00  0.00    -0.296 C  
HETATM   16  C   UNL     1     -11.920  13.897  66.482  1.00  0.00    -0.470 A  
HETATM   17  F   UNL     1     -12.759  13.958  69.382  1.00  0.00    -0.302 F  
HETATM   18  F   UNL     1     -10.997  12.731  69.046  1.00  0.00    -0.255 F  
HETATM   19  F   UNL     1     -10.790  14.718  69.901  1.00  0.00    -0.252 F  
HETATM   20  C   UNL     1     -11.749  14.372  65.184  1.00  0.00    -0.372 A  
HETATM   21  C   UNL     1     -11.031  15.549  64.953  1.00  0.00    -0.452 A  
ENDBRANCH  10  12
ENDBRANCH   9  10
TORSDOF 2
ENDMDL
MODEL       43
REMARK 921   NORMALIZED FREE ENERGY PREDICTED BY IDOCK:   -6.37 KCAL/MOL
REMARK 922        TOTAL FREE ENERGY PREDICTED BY IDOCK:   -7.52 KCAL/MOL
REMARK 923 INTER-LIGAND FREE ENERGY PREDICTED BY IDOCK:   -7.12 KCAL/MOL
REMARK 924 INTRA-LIGAND FREE ENERGY PREDICTED BY IDOCK:   -0.40 KCAL/MOL
REMARK 927      BINDING AFFINITY PREDICTED BY RF-SCORE:    0.00 PKD
ROOT
HETATM    1  O   UNL     1     -11.576  14.982  65.121  1.00  0.00    -0.348 OA 
HETATM    2  C   UNL     1     -10.883  16.136  65.218  1.00  0.00    -0.336 C  
HETATM    3  C   UNL     1      -9.733  16.089  66.170  1.00  0.00    -0.353 A  
HETATM    4  O   UNL     1     -11.163  17.126  64.565  1.00  0.00    -1.104 OA 
HETATM    5  C   UNL     1      -8.746  17.077  65.985  1.00  0.00    -0.168 A  
HETATM    6  C   UNL     1      -7.653  17.166  66.843  1.00  0.00    -0.240 A  
HETATM    7  C   UNL     1      -7.550  16.296  67.918  1.00  0.00    -0.148 A  
HETATM    8  C   UNL     1      -8.521  15.311  68.113  1.00  0.00    -0.151 A  
HETATM    9  C   UNL     1      -9.600  15.155  67.222  1.00  0.00    -0.209 A  
ENDROOT
BRANCH   9  10
HETATM   10  N   UNL     1     -10.582  14.140  67.455  1.00  0.00    -0.277 NA 
HETATM   11  H   UNL     1     -10.914  13.611  66.648  1.00  0.00     0.000 HD 
BRANCH  10  12
HETATM   12  C   UNL     1     -11.132  13.812  68.730  1.00  0.00    -0.266 A  
HETATM   13  C   UNL     1     -11.345  14.789  69.716  1.00  0.00    -0.319 A  
HETATM   14  C   UNL     1     -11.938  14.468  70.949  1.00  0.00    -0.389 A  
HETATM   15  C   UNL     1     -12.179  15.522  72.003  1.00  0.00    -0.404 C  
HETATM   16  C   UNL     1     -12.306  13.139  71.196  1.00  0.00    -0.295 A  
HETATM   17  F   UNL     1     -13.501  15.691  72.281  1.00  0.00    -0.443 F  
HETATM   18  F   UNL     1     -11.585  15.211  73.189  1.00  0.00    -0.494 F  
HETATM   19  F   UNL     1     -11.708  16.754  71.663  1.00  0.00    -0.437 F  
HETATM   20  C   UNL     1     -12.029  12.148  70.258  1.00  0.00    -0.389 A  
HETATM   21  C   UNL     1     -11.423  12.479  69.042  1.00  0.00    -0.355 A  
ENDBRANCH  10  12
ENDBRANCH   9  10
TORSDOF 2
ENDMDL
MODEL       44
REMARK 921   NORMALIZED FREE ENERGY PREDICTED BY IDOCK:   -6.35 KCAL/MOL
REMARK 922        TOTAL FREE ENERGY PREDICTED BY IDOCK:   -7.50 KCAL/MOL
REMARK 923 INTER-LIGAND FREE ENERGY PREDICTED BY IDOCK:   -7.00 KCAL/MOL
REMARK 924 INTRA-LIGAND FREE ENERGY PREDICTED BY IDOCK:   -0.50 KCAL/MOL
REMARK 927      BINDING AFFINITY PREDICTED BY RF-SCORE:    0.00 PKD
ROOT
HETATM    1  O   UNL     1      -9.717  10.940  67.704  1.00  0.00    -0.168 OA 
HETATM    2  C   UNL     1      -9.787  10.516  66.424  1.00  0.00    -0.210 C  
HETATM    3  C   UNL     1     -10.667  11.344  65.545  1.00  0.00    -0.313 A  
HETATM    4  O   UNL     1      -9.166   9.550  66.018  1.00  0.00    -0.168 OA 
HETATM    5  C   UNL     1     -10.437  11.222  64.161  1.00  0.00    -0.431 A  
HETATM    6  C   UNL     1     -11.229  11.906  63.241  1.00  0.00    -0.382 A  
HETATM    7  C   UNL     1     -12.284  12.687  63.689  1.00  0.00    -0.624 A  
HETATM    8  C   UNL     1     -12.524  12.816  65.059  1.00  0.00    -0.572 A  
HETATM    9  C   UNL     1     -11.697  12.192  66.012  1.00  0.00    -0.321 A  
ENDROOT
BRANCH   9  10
HETATM   10  N   UNL     1     -11.975  12.339  67.409  1.00  0.00    -0.544 NA 
HETATM   11  H   UNL     1     -12.330  11.523  67.908  1.00  0.00     0.000 HD 
BRANCH  10  12
HETATM   12  C   UNL     1     -11.792  13.540  68.157  1.00  0.00    -0.365 A  
HETATM   13  C   UNL     1     -11.137  14.657  67.612  1.00  0.00    -0.311 A  
HETATM   14  C   UNL     1     -11.009  15.856  68.334  1.00  0.00    -0.331 A  
HETATM   15  C   UNL     1     -10.317  17.060  67.743  1.00  0.00    -0.335 C  
HETATM   16  C   UNL     1     -11.536  15.922  69.631  1.00  0.00    -0.346 A  
HETATM   17  F   UNL     1     -11.151  18.127  67.604  1.00  0.00    -0.391 F  
HETATM   18  F   UNL     1      -9.283  17.493  68.516  1.00  0.00    -0.249 F  
HETATM   19  F   UNL     1      -9.789  16.836  66.507  1.00  0.00    -0.241 F  
HETATM   20  C   UNL     1     -12.118  14.798  70.211  1.00  0.00    -0.380 A  
HETATM   21  C   UNL     1     -12.223  13.607  69.487  1.00  0.00    -0.316 A  
ENDBRANCH  10  12
ENDBRANCH   9  10
TORSDOF 2
ENDMDL
MODEL       45
REMARK 921   NORMALIZED FREE ENERGY PREDICTED BY IDOCK:   -6.33 KCAL/MOL
REMARK 922        TOTAL FREE ENERGY PREDICTED BY IDOCK:   -7.47 KCAL/MOL
REMARK 923 INTER-LIGAND FREE ENERGY PREDICTED BY IDOCK:   -7.18 KCAL/MOL
REMARK 924 INTRA-LIGAND FREE ENERGY PREDICTED BY IDOCK:   -0.29 KCAL/MOL
REMARK 927      BINDING AFFINITY PREDICTED BY RF-SCORE:    0.00 PKD
ROOT
HETATM    1  O   UNL     1     -11.453  12.097  66.324  1.00  0.00    -0.347 OA 
HETATM    2  C   UNL     1     -10.651  11.125  66.809  1.00  0.00    -0.263 C  
HETATM    3  C   UNL     1     -10.998  10.669  68.189  1.00  0.00    -0.321 A  
HETATM    4  O   UNL     1      -9.736  10.646  66.164  1.00  0.00    -0.190 OA 
HETATM    5  C   UNL     1     -10.502   9.403  68.557  1.00  0.00    -0.239 A  
HETATM    6  C   UNL     1     -10.716   8.894  69.836  1.00  0.00    -0.236 A  
HETATM    7  C   UNL     1     -11.394   9.658  70.774  1.00  0.00    -0.409 A  
HETATM    8  C   UNL     1     -11.891  10.915  70.423  1.00  0.00    -0.449 A  
HETATM    9  C   UNL     1     -11.749  11.424  69.118  1.00  0.00    -0.342 A  
ENDROOT
BRANCH   9  10
HETATM   10  N   UNL     1     -12.264  12.719  68.793  1.00  0.00    -0.090 NA 
HETATM   11  H   UNL     1     -12.817  12.807  67.940  1.00  0.00     0.000 HD 
BRANCH  10  12
HETATM   12  C   UNL     1     -12.065  13.898  69.572  1.00  0.00    -0.342 A  
HETATM   13  C   UNL     1     -12.578  14.019  70.874  1.00  0.00    -0.431 A  
HETATM   14  C   UNL     1     -12.331  15.160  71.656  1.00  0.00    -0.415 A  
HETATM   15  C   UNL     1     -12.873  15.284  73.059  1.00  0.00    -0.469 C  
HETATM   16  C   UNL     1     -11.568  16.201  71.110  1.00  0.00    -0.453 A  
HETATM   17  F   UNL     1     -11.887  15.368  73.995  1.00  0.00    -0.560 F  
HETATM   18  F   UNL     1     -13.638  16.399  73.222  1.00  0.00    -0.593 F  
HETATM   19  F   UNL     1     -13.657  14.236  73.438  1.00  0.00    -0.377 F  
HETATM   20  C   UNL     1     -11.118  16.126  69.793  1.00  0.00    -0.350 A  
HETATM   21  C   UNL     1     -11.387  14.992  69.021  1.00  0.00    -0.306 A  
ENDBRANCH  10  12
ENDBRANCH   9  10
TORSDOF 2
ENDMDL
MODEL       46
REMARK 921   NORMALIZED FREE ENERGY PREDICTED BY IDOCK:   -6.33 KCAL/MOL
REMARK 922        TOTAL FREE ENERGY PREDICTED BY IDOCK:   -7.47 KCAL/MOL
REMARK 923 INTER-LIGAND FREE ENERGY PREDICTED BY IDOCK:   -6.92 KCAL/MOL
REMARK 924 INTRA-LIGAND FREE ENERGY PREDICTED BY IDOCK:   -0.55 KCAL/MOL
REMARK 927      BINDING AFFINITY PREDICTED BY RF-SCORE:    0.00 PKD
ROOT
HETATM    1  O   UNL     1      -7.437  15.963  67.601  1.00  0.00    -0.130 OA 
HETATM    2  C   UNL     1      -7.412  17.256  67.990  1.00  0.00    -0.194 C  
HETATM    3  C   UNL     1      -8.618  18.044  67.598  1.00  0.00    -0.247 A  
HETATM    4  O   UNL     1      -6.489  17.730  68.628  1.00  0.00    -0.193 OA 
HETATM    5  C   UNL     1      -8.842  19.225  68.332  1.00  0.00    -0.395 A  
HETATM    6  C   UNL     1      -9.906  20.069  68.022  1.00  0.00    -0.522 A  
HETATM    7  C   UNL     1     -10.736  19.766  66.953  1.00  0.00    -0.541 A  
HETATM    8  C   UNL     1     -10.526  18.598  66.217  1.00  0.00    -0.468 A  
HETATM    9  C   UNL     1      -9.500  17.693  66.551  1.00  0.00    -0.283 A  
ENDROOT
BRANCH   9  10
HETATM   10  N   UNL     1      -9.307  16.508  65.770  1.00  0.00    -0.504 NA 
HETATM   11  H   UNL     1      -8.426  16.414  65.265  1.00  0.00     0.000 HD 
BRANCH  10  12
HETATM   12  C   UNL     1     -10.254  15.448  65.646  1.00  0.00    -0.376 A  
HETATM   13  C   UNL     1     -10.265  14.359  66.534  1.00  0.00    -0.276 A  
HETATM   14  C   UNL     1     -11.236  13.347  66.439  1.00  0.00    -0.323 A  
HETATM   15  C   UNL     1     -11.254  12.184  67.402  1.00  0.00    -0.302 C  
HETATM   16  C   UNL     1     -12.198  13.426  65.423  1.00  0.00    -0.492 A  
HETATM   17  F   UNL     1     -12.391  12.144  68.150  1.00  0.00    -0.292 F  
HETATM   18  F   UNL     1     -11.186  10.983  66.763  1.00  0.00    -0.330 F  
HETATM   19  F   UNL     1     -10.222  12.192  68.290  1.00  0.00    -0.184 F  
HETATM   20  C   UNL     1     -12.150  14.459  64.490  1.00  0.00    -0.498 A  
HETATM   21  C   UNL     1     -11.169  15.450  64.586  1.00  0.00    -0.374 A  
ENDBRANCH  10  12
ENDBRANCH   9  10
TORSDOF 2
ENDMDL
MODEL       47
REMARK 921   NORMALIZED FREE ENERGY PREDICTED BY IDOCK:   -6.31 KCAL/MOL
REMARK 922        TOTAL FREE ENERGY PREDICTED BY IDOCK:   -7.45 KCAL/MOL
REMARK 923 INTER-LIGAND FREE ENERGY PREDICTED BY IDOCK:   -6.83 KCAL/MOL
REMARK 924 INTRA-LIGAND FREE ENERGY PREDICTED BY IDOCK:   -0.62 KCAL/MOL
REMARK 927      BINDING AFFINITY PREDICTED BY RF-SCORE:    0.00 PKD
ROOT
HETATM    1  O   UNL     1     -11.192  14.396  69.907  1.00  0.00    -0.244 OA 
HETATM    2  C   UNL     1     -11.454  14.943  68.700  1.00  0.00    -0.306 C  
HETATM    3  C   UNL     1     -11.626  13.953  67.596  1.00  0.00    -0.381 A  
HETATM    4  O   UNL     1     -11.563  16.145  68.535  1.00  0.00    -0.377 OA 
HETATM    5  C   UNL     1     -12.314  14.418  66.459  1.00  0.00    -0.272 A  
HETATM    6  C   UNL     1     -12.489  13.601  65.344  1.00  0.00    -0.537 A  
HETATM    7  C   UNL     1     -11.948  12.325  65.335  1.00  0.00    -0.395 A  
HETATM    8  C   UNL     1     -11.263  11.850  66.456  1.00  0.00    -0.383 A  
HETATM    9  C   UNL     1     -11.130  12.629  67.621  1.00  0.00    -0.263 A  
ENDROOT
BRANCH   9  10
HETATM   10  N   UNL     1     -10.415  12.115  68.751  1.00  0.00    -0.338 NA 
HETATM   11  H   UNL     1      -9.639  12.671  69.110  1.00  0.00     0.000 HD 
BRANCH  10  12
HETATM   12  C   UNL     1     -10.707  10.885  69.411  1.00  0.00    -0.225 A  
HETATM   13  C   UNL     1     -11.735  10.784  70.364  1.00  0.00    -0.445 A  
HETATM   14  C   UNL     1     -12.053   9.556  70.971  1.00  0.00    -0.398 A  
HETATM   15  C   UNL     1     -13.166   9.446  71.984  1.00  0.00    -0.449 C  
HETATM   16  C   UNL     1     -11.313   8.419  70.623  1.00  0.00    -0.262 A  
HETATM   17  F   UNL     1     -14.172   8.628  71.569  1.00  0.00    -0.424 F  
HETATM   18  F   UNL     1     -12.736   8.935  73.171  1.00  0.00    -0.305 F  
HETATM   19  F   UNL     1     -13.754  10.638  72.284  1.00  0.00    -0.423 F  
HETATM   20  C   UNL     1     -10.241   8.522  69.738  1.00  0.00    -0.206 A  
HETATM   21  C   UNL     1      -9.925   9.753  69.156  1.00  0.00    -0.195 A  
ENDBRANCH  10  12
ENDBRANCH   9  10
TORSDOF 2
ENDMDL
MODEL       48
REMARK 921   NORMALIZED FREE ENERGY PREDICTED BY IDOCK:   -6.27 KCAL/MOL
REMARK 922        TOTAL FREE ENERGY PREDICTED BY IDOCK:   -7.40 KCAL/MOL
REMARK 923 INTER-LIGAND FREE ENERGY PREDICTED BY IDOCK:   -6.86 KCAL/MOL
REMARK 924 INTRA-LIGAND FREE ENERGY PREDICTED BY IDOCK:   -0.54 KCAL/MOL
REMARK 927      BINDING AFFINITY PREDICTED BY RF-SCORE:    0.00 PKD
ROOT
HETATM    1  O   UNL     1     -14.411   8.651  71.008  1.00  0.00    -0.194 OA 
HETATM    2  C   UNL     1     -13.651   7.734  71.645  1.00  0.00    -0.357 C  
HETATM    3  C   UNL     1     -12.220   8.127  71.815  1.00  0.00    -0.358 A  
HETATM    4  O   UNL     1     -14.104   6.684  72.065  1.00  0.00    -0.162 OA 
HETATM    5  C   UNL     1     -11.514   7.441  72.822  1.00  0.00    -0.312 A  
HETATM    6  C   UNL     1     -10.159   7.685  73.039  1.00  0.00    -0.362 A  
HETATM    7  C   UNL     1      -9.485   8.586  72.229  1.00  0.00    -0.365 A  
HETATM    8  C   UNL     1     -10.173   9.272  71.226  1.00  0.00    -0.383 A  
HETATM    9  C   UNL     1     -11.556   9.096  71.030  1.00  0.00    -0.306 A  
ENDROOT
BRANCH   9  10
HETATM   10  N   UNL     1     -12.229   9.811  69.988  1.00  0.00    -0.463 NA 
HETATM   11  H   UNL     1     -12.806   9.272  69.343  1.00  0.00     0.000 HD 
BRANCH  10  12
HETATM   12  C   UNL     1     -12.156  11.221  69.785  1.00  0.00    -0.325 A  
HETATM   13  C   UNL     1     -11.809  11.770  68.539  1.00  0.00    -0.365 A  
HETATM   14  C   UNL     1     -11.793  13.161  68.330  1.00  0.00    -0.384 A  
HETATM   15  C   UNL     1     -11.433  13.749  66.987  1.00  0.00    -0.346 C  
HETATM   16  C   UNL     1     -12.114  14.008  69.399  1.00  0.00    -0.386 A  
HETATM   17  F   UNL     1     -12.460  14.450  66.432  1.00  0.00    -0.450 F  
HETATM   18  F   UNL     1     -10.388  14.619  67.068  1.00  0.00    -0.254 F  
HETATM   19  F   UNL     1     -11.072  12.818  66.060  1.00  0.00    -0.285 F  
HETATM   20  C   UNL     1     -12.382  13.478  70.659  1.00  0.00    -0.432 A  
HETATM   21  C   UNL     1     -12.379  12.094  70.856  1.00  0.00    -0.370 A  
ENDBRANCH  10  12
ENDBRANCH   9  10
TORSDOF 2
ENDMDL
MODEL       49
REMARK 921   NORMALIZED FREE ENERGY PREDICTED BY IDOCK:   -6.26 KCAL/MOL
REMARK 922        TOTAL FREE ENERGY PREDICTED BY IDOCK:   -7.40 KCAL/MOL
REMARK 923 INTER-LIGAND FREE ENERGY PREDICTED BY IDOCK:   -6.97 KCAL/MOL
REMARK 924 INTRA-LIGAND FREE ENERGY PREDICTED BY IDOCK:   -0.42 KCAL/MOL
REMARK 927      BINDING AFFINITY PREDICTED BY RF-SCORE:    0.00 PKD
ROOT
HETATM    1  O   UNL     1     -10.438  15.732  69.238  1.00  0.00    -0.214 OA 
HETATM    2  C   UNL     1      -9.945  15.962  68.002  1.00  0.00    -0.220 C  
HETATM    3  C   UNL     1     -10.805  15.460  66.889  1.00  0.00    -0.313 A  
HETATM    4  O   UNL     1      -8.894  16.550  67.815  1.00  0.00    -0.195 OA 
HETATM    5  C   UNL     1     -10.573  16.042  65.628  1.00  0.00    -0.392 A  
HETATM    6  C   UNL     1     -11.278  15.618  64.504  1.00  0.00    -0.337 A  
HETATM    7  C   UNL     1     -12.195  14.583  64.617  1.00  0.00    -0.474 A  
HETATM    8  C   UNL     1     -12.435  13.998  65.861  1.00  0.00    -0.513 A  
HETATM    9  C   UNL     1     -11.786  14.452  67.026  1.00  0.00    -0.412 A  
ENDROOT
BRANCH   9  10
HETATM   10  N   UNL     1     -12.050  13.825  68.285  1.00  0.00    -0.431 NA 
HETATM   11  H   UNL     1     -12.537  14.375  68.994  1.00  0.00     0.000 HD 
BRANCH  10  12
HETATM   12  C   UNL     1     -11.684  12.489  68.625  1.00  0.00    -0.325 A  
HETATM   13  C   UNL     1     -12.086  11.898  69.835  1.00  0.00    -0.344 A  
HETATM   14  C   UNL     1     -11.768  10.562  70.139  1.00  0.00    -0.410 A  
HETATM   15  C   UNL     1     -12.211   9.924  71.433  1.00  0.00    -0.408 C  
HETATM   16  C   UNL     1     -11.021   9.819  69.216  1.00  0.00    -0.222 A  
HETATM   17  F   UNL     1     -13.057   8.876  71.236  1.00  0.00    -0.330 F  
HETATM   18  F   UNL     1     -11.165   9.430  72.151  1.00  0.00    -0.416 F  
HETATM   19  F   UNL     1     -12.865  10.779  72.269  1.00  0.00    -0.499 F  
HETATM   20  C   UNL     1     -10.551  10.417  68.049  1.00  0.00    -0.259 A  
HETATM   21  C   UNL     1     -10.860  11.751  67.768  1.00  0.00    -0.258 A  
ENDBRANCH  10  12
ENDBRANCH   9  10
TORSDOF 2
ENDMDL
MODEL       50
REMARK 921   NORMALIZED FREE ENERGY PREDICTED BY IDOCK:   -6.26 KCAL/MOL
REMARK 922        TOTAL FREE ENERGY PREDICTED BY IDOCK:   -7.39 KCAL/MOL
REMARK 923 INTER-LIGAND FREE ENERGY PREDICTED BY IDOCK:   -7.01 KCAL/MOL
REMARK 924 INTRA-LIGAND FREE ENERGY PREDICTED BY IDOCK:   -0.38 KCAL/MOL
REMARK 927      BINDING AFFINITY PREDICTED BY RF-SCORE:    0.00 PKD
ROOT
HETATM    1  O   UNL     1      -8.942  12.903  68.092  1.00  0.00    -0.194 OA 
HETATM    2  C   UNL     1     -10.286  12.880  67.971  1.00  0.00    -0.227 C  
HETATM    3  C   UNL     1     -10.809  13.553  66.744  1.00  0.00    -0.284 A  
HETATM    4  O   UNL     1     -11.009  12.336  68.786  1.00  0.00    -0.220 OA 
HETATM    5  C   UNL     1     -12.111  13.185  66.353  1.00  0.00    -0.447 A  
HETATM    6  C   UNL     1     -12.724  13.783  65.254  1.00  0.00    -0.481 A  
HETATM    7  C   UNL     1     -12.061  14.782  64.556  1.00  0.00    -0.460 A  
HETATM    8  C   UNL     1     -10.769  15.156  64.933  1.00  0.00    -0.421 A  
HETATM    9  C   UNL     1     -10.100  14.520  65.996  1.00  0.00    -0.318 A  
ENDROOT
BRANCH   9  10
HETATM   10  N   UNL     1      -8.778  14.933  66.361  1.00  0.00    -0.467 NA 
HETATM   11  H   UNL     1      -8.039  14.231  66.330  1.00  0.00     0.000 HD 
BRANCH  10  12
HETATM   12  C   UNL     1      -8.417  16.253  66.765  1.00  0.00    -0.247 A  
HETATM   13  C   UNL     1      -9.380  17.258  66.954  1.00  0.00    -0.264 A  
HETATM   14  C   UNL     1      -9.022  18.540  67.406  1.00  0.00    -0.280 A  
HETATM   15  C   UNL     1     -10.059  19.615  67.621  1.00  0.00    -0.417 C  
HETATM   16  C   UNL     1      -7.671  18.816  67.654  1.00  0.00    -0.252 A  
HETATM   17  F   UNL     1     -10.136  20.015  68.920  1.00  0.00    -0.491 F  
HETATM   18  F   UNL     1      -9.795  20.740  66.899  1.00  0.00    -0.576 F  
HETATM   19  F   UNL     1     -11.321  19.237  67.272  1.00  0.00    -0.512 F  
HETATM   20  C   UNL     1      -6.698  17.852  67.396  1.00  0.00    -0.191 A  
HETATM   21  C   UNL     1      -7.067  16.587  66.931  1.00  0.00    -0.262 A  
ENDBRANCH  10  12
ENDBRANCH   9  10
TORSDOF 2
ENDMDL
MODEL       51
REMARK 921   NORMALIZED FREE ENERGY PREDICTED BY IDOCK:   -6.26 KCAL/MOL
REMARK 922        TOTAL FREE ENERGY PREDICTED BY IDOCK:   -7.39 KCAL/MOL
REMARK 923 INTER-LIGAND FREE ENERGY PREDICTED BY IDOCK:   -6.96 KCAL/MOL
REMARK 924 INTRA-LIGAND FREE ENERGY PREDICTED BY IDOCK:   -0.43 KCAL/MOL
REMARK 927      BINDING AFFINITY PREDICTED BY RF-SCORE:    0.00 PKD
ROOT
HETATM    1  O   UNL     1     -14.014  13.608  72.806  1.00  0.00    -0.725 OA 
HETATM    2  C   UNL     1     -12.929  14.411  72.762  1.00  0.00    -0.465 C  
HETATM    3  C   UNL     1     -12.191  14.384  71.464  1.00  0.00    -0.406 A  
HETATM    4  O   UNL     1     -12.596  15.115  73.699  1.00  0.00    -0.495 OA 
HETATM    5  C   UNL     1     -11.352  15.487  71.214  1.00  0.00    -0.449 A  
HETATM    6  C   UNL     1     -10.574  15.548  70.060  1.00  0.00    -0.337 A  
HETATM    7  C   UNL     1     -10.594  14.492  69.161  1.00  0.00    -0.242 A  
HETATM    8  C   UNL     1     -11.421  13.392  69.396  1.00  0.00    -0.333 A  
HETATM    9  C   UNL     1     -12.269  13.335  70.519  1.00  0.00    -0.340 A  
ENDROOT
BRANCH   9  10
HETATM   10  N   UNL     1     -13.099  12.189  70.734  1.00  0.00     0.124 NA 
HETATM   11  H   UNL     1     -14.095  12.284  70.537  1.00  0.00     0.000 HD 
BRANCH  10  12
HETATM   12  C   UNL     1     -12.639  10.923  71.204  1.00  0.00    -0.428 A  
HETATM   13  C   UNL     1     -11.334  10.471  70.951  1.00  0.00    -0.200 A  
HETATM   14  C   UNL     1     -10.869   9.247  71.464  1.00  0.00    -0.442 A  
HETATM   15  C   UNL     1      -9.462   8.768  71.202  1.00  0.00    -0.240 C  
HETATM   16  C   UNL     1     -11.741   8.462  72.230  1.00  0.00    -0.453 A  
HETATM   17  F   UNL     1      -8.730   8.648  72.343  1.00  0.00    -0.253 F  
HETATM   18  F   UNL     1      -9.435   7.541  70.611  1.00  0.00    -0.161 F  
HETATM   19  F   UNL     1      -8.747   9.591  70.385  1.00  0.00    -0.192 F  
HETATM   20  C   UNL     1     -13.061   8.862  72.423  1.00  0.00    -0.476 A  
HETATM   21  C   UNL     1     -13.514  10.074  71.892  1.00  0.00    -0.449 A  
ENDBRANCH  10  12
ENDBRANCH   9  10
TORSDOF 2
ENDMDL
MODEL       52
REMARK 921   NORMALIZED FREE ENERGY PREDICTED BY IDOCK:   -6.26 KCAL/MOL
REMARK 922        TOTAL FREE ENERGY PREDICTED BY IDOCK:   -7.39 KCAL/MOL
REMARK 923 INTER-LIGAND FREE ENERGY PREDICTED BY IDOCK:   -6.91 KCAL/MOL
REMARK 924 INTRA-LIGAND FREE ENERGY PREDICTED BY IDOCK:   -0.48 KCAL/MOL
REMARK 927      BINDING AFFINITY PREDICTED BY RF-SCORE:    0.00 PKD
ROOT
HETATM    1  O   UNL     1      -7.905  16.448  69.310  1.00  0.00    -0.238 OA 
HETATM    2  C   UNL     1      -7.591  16.992  68.115  1.00  0.00    -0.194 C  
HETATM    3  C   UNL     1      -8.525  18.066  67.660  1.00  0.00    -0.239 A  
HETATM    4  O   UNL     1      -6.614  16.648  67.475  1.00  0.00    -0.129 OA 
HETATM    5  C   UNL     1      -8.018  18.941  66.681  1.00  0.00    -0.280 A  
HETATM    6  C   UNL     1      -8.813  19.950  66.141  1.00  0.00    -0.358 A  
HETATM    7  C   UNL     1     -10.134  20.073  66.545  1.00  0.00    -0.606 A  
HETATM    8  C   UNL     1     -10.650  19.212  67.515  1.00  0.00    -0.567 A  
HETATM    9  C   UNL     1      -9.849  18.228  68.126  1.00  0.00    -0.341 A  
ENDROOT
BRANCH   9  10
HETATM   10  N   UNL     1     -10.411  17.356  69.113  1.00  0.00    -0.355 NA 
HETATM   11  H   UNL     1     -10.374  17.660  70.086  1.00  0.00     0.000 HD 
BRANCH  10  12
HETATM   12  C   UNL     1     -11.020  16.096  68.839  1.00  0.00    -0.324 A  
HETATM   13  C   UNL     1     -11.160  15.612  67.527  1.00  0.00    -0.289 A  
HETATM   14  C   UNL     1     -11.710  14.345  67.268  1.00  0.00    -0.429 A  
HETATM   15  C   UNL     1     -11.848  13.822  65.858  1.00  0.00    -0.383 C  
HETATM   16  C   UNL     1     -12.140  13.562  68.347  1.00  0.00    -0.293 A  
HETATM   17  F   UNL     1     -11.109  12.699  65.643  1.00  0.00    -0.295 F  
HETATM   18  F   UNL     1     -13.133  13.487  65.555  1.00  0.00    -0.509 F  
HETATM   19  F   UNL     1     -11.460  14.712  64.903  1.00  0.00    -0.337 F  
HETATM   20  C   UNL     1     -12.078  14.061  69.646  1.00  0.00    -0.408 A  
HETATM   21  C   UNL     1     -11.544  15.331  69.887  1.00  0.00    -0.335 A  
ENDBRANCH  10  12
ENDBRANCH   9  10
TORSDOF 2
ENDMDL
MODEL       53
REMARK 921   NORMALIZED FREE ENERGY PREDICTED BY IDOCK:   -6.23 KCAL/MOL
REMARK 922        TOTAL FREE ENERGY PREDICTED BY IDOCK:   -7.36 KCAL/MOL
REMARK 923 INTER-LIGAND FREE ENERGY PREDICTED BY IDOCK:   -6.80 KCAL/MOL
REMARK 924 INTRA-LIGAND FREE ENERGY PREDICTED BY IDOCK:   -0.56 KCAL/MOL
REMARK 927      BINDING AFFINITY PREDICTED BY RF-SCORE:    0.00 PKD
ROOT
HETATM    1  O   UNL     1     -12.357  12.080  65.601  1.00  0.00    -0.470 OA 
HETATM    2  C   UNL     1     -12.309  13.429  65.636  1.00  0.00    -0.470 C  
HETATM    3  C   UNL     1     -11.742  13.995  66.896  1.00  0.00    -0.435 A  
HETATM    4  O   UNL     1     -12.678  14.122  64.705  1.00  0.00    -0.650 OA 
HETATM    5  C   UNL     1     -11.271  15.320  66.813  1.00  0.00    -0.241 A  
HETATM    6  C   UNL     1     -10.768  15.973  67.936  1.00  0.00    -0.316 A  
HETATM    7  C   UNL     1     -10.764  15.325  69.163  1.00  0.00    -0.251 A  
HETATM    8  C   UNL     1     -11.228  14.012  69.260  1.00  0.00    -0.304 A  
HETATM    9  C   UNL     1     -11.678  13.306  68.128  1.00  0.00    -0.362 A  
ENDROOT
BRANCH   9  10
HETATM   10  N   UNL     1     -12.154  11.962  68.263  1.00  0.00    -0.462 NA 
HETATM   11  H   UNL     1     -12.799  11.616  67.553  1.00  0.00     0.000 HD 
BRANCH  10  12
HETATM   12  C   UNL     1     -11.794  11.069  69.317  1.00  0.00    -0.340 A  
HETATM   13  C   UNL     1     -10.577  10.367  69.307  1.00  0.00    -0.259 A  
HETATM   14  C   UNL     1     -10.205   9.532  70.375  1.00  0.00    -0.337 A  
HETATM   15  C   UNL     1      -8.891   8.789  70.369  1.00  0.00    -0.168 C  
HETATM   16  C   UNL     1     -11.081   9.392  71.459  1.00  0.00    -0.446 A  
HETATM   17  F   UNL     1      -8.070   9.171  71.386  1.00  0.00    -0.180 F  
HETATM   18  F   UNL     1      -9.058   7.444  70.510  1.00  0.00    -0.152 F  
HETATM   19  F   UNL     1      -8.172   8.957  69.225  1.00  0.00    -0.104 F  
HETATM   20  C   UNL     1     -12.324  10.021  71.445  1.00  0.00    -0.512 A  
HETATM   21  C   UNL     1     -12.688  10.835  70.368  1.00  0.00    -0.346 A  
ENDBRANCH  10  12
ENDBRANCH   9  10
TORSDOF 2
ENDMDL
MODEL       54
REMARK 921   NORMALIZED FREE ENERGY PREDICTED BY IDOCK:   -6.22 KCAL/MOL
REMARK 922        TOTAL FREE ENERGY PREDICTED BY IDOCK:   -7.35 KCAL/MOL
REMARK 923 INTER-LIGAND FREE ENERGY PREDICTED BY IDOCK:   -6.97 KCAL/MOL
REMARK 924 INTRA-LIGAND FREE ENERGY PREDICTED BY IDOCK:   -0.38 KCAL/MOL
REMARK 927      BINDING AFFINITY PREDICTED BY RF-SCORE:    0.00 PKD
ROOT
HETATM    1  O   UNL     1      -6.690  16.793  66.521  1.00  0.00    -0.219 OA 
HETATM    2  C   UNL     1      -7.175  17.964  66.058  1.00  0.00    -0.290 C  
HETATM    3  C   UNL     1      -8.291  18.536  66.869  1.00  0.00    -0.270 A  
HETATM    4  O   UNL     1      -6.721  18.517  65.071  1.00  0.00    -0.515 OA 
HETATM    5  C   UNL     1      -8.525  19.915  66.700  1.00  0.00    -0.381 A  
HETATM    6  C   UNL     1      -9.572  20.549  67.364  1.00  0.00    -0.578 A  
HETATM    7  C   UNL     1     -10.422  19.810  68.173  1.00  0.00    -0.494 A  
HETATM    8  C   UNL     1     -10.202  18.442  68.349  1.00  0.00    -0.407 A  
HETATM    9  C   UNL     1      -9.111  17.789  67.745  1.00  0.00    -0.249 A  
ENDROOT
BRANCH   9  10
HETATM   10  N   UNL     1      -8.918  16.383  67.940  1.00  0.00    -0.195 NA 
HETATM   11  H   UNL     1      -7.959  16.035  67.943  1.00  0.00     0.000 HD 
BRANCH  10  12
HETATM   12  C   UNL     1      -9.965  15.433  68.130  1.00  0.00    -0.221 A  
HETATM   13  C   UNL     1     -10.594  15.267  69.375  1.00  0.00    -0.257 A  
HETATM   14  C   UNL     1     -11.663  14.369  69.542  1.00  0.00    -0.362 A  
HETATM   15  C   UNL     1     -12.347  14.200  70.877  1.00  0.00    -0.368 C  
HETATM   16  C   UNL     1     -12.090  13.616  68.440  1.00  0.00    -0.312 A  
HETATM   17  F   UNL     1     -13.659  14.560  70.840  1.00  0.00    -0.411 F  
HETATM   18  F   UNL     1     -12.326  12.909  71.309  1.00  0.00    -0.420 F  
HETATM   19  F   UNL     1     -11.785  14.936  71.876  1.00  0.00    -0.385 F  
HETATM   20  C   UNL     1     -11.424  13.715  67.221  1.00  0.00    -0.370 A  
HETATM   21  C   UNL     1     -10.352  14.600  67.074  1.00  0.00    -0.263 A  
ENDBRANCH  10  12
ENDBRANCH   9  10
TORSDOF 2
ENDMDL
MODEL       55
REMARK 921   NORMALIZED FREE ENERGY PREDICTED BY IDOCK:   -6.16 KCAL/MOL
REMARK 922        TOTAL FREE ENERGY PREDICTED BY IDOCK:   -7.29 KCAL/MOL
REMARK 923 INTER-LIGAND FREE ENERGY PREDICTED BY IDOCK:   -6.74 KCAL/MOL
REMARK 924 INTRA-LIGAND FREE ENERGY PREDICTED BY IDOCK:   -0.54 KCAL/MOL
REMARK 927      BINDING AFFINITY PREDICTED BY RF-SCORE:    0.00 PKD
ROOT
HETATM    1  O   UNL     1      -6.537  18.238  65.183  1.00  0.00    -0.438 OA 
HETATM    2  C   UNL     1      -7.043  19.446  65.510  1.00  0.00    -0.210 C  
HETATM    3  C   UNL     1      -8.282  19.393  66.342  1.00  0.00    -0.335 A  
HETATM    4  O   UNL     1      -6.517  20.491  65.170  1.00  0.00    -0.258 OA 
HETATM    5  C   UNL     1      -8.588  20.566  67.059  1.00  0.00    -0.326 A  
HETATM    6  C   UNL     1      -9.745  20.653  67.829  1.00  0.00    -0.367 A  
HETATM    7  C   UNL     1     -10.631  19.586  67.862  1.00  0.00    -0.503 A  
HETATM    8  C   UNL     1     -10.340  18.417  67.157  1.00  0.00    -0.419 A  
HETATM    9  C   UNL     1      -9.145  18.276  66.426  1.00  0.00    -0.249 A  
ENDROOT
BRANCH   9  10
HETATM   10  N   UNL     1      -8.881  17.066  65.708  1.00  0.00    -0.493 NA 
HETATM   11  H   UNL     1      -8.520  17.151  64.757  1.00  0.00     0.000 HD 
BRANCH  10  12
HETATM   12  C   UNL     1      -9.084  15.751  66.220  1.00  0.00    -0.338 A  
HETATM   13  C   UNL     1     -10.216  14.991  65.879  1.00  0.00    -0.335 A  
HETATM   14  C   UNL     1     -10.382  13.675  66.343  1.00  0.00    -0.286 A  
HETATM   15  C   UNL     1     -11.593  12.856  65.965  1.00  0.00    -0.375 C  
HETATM   16  C   UNL     1      -9.400  13.124  67.177  1.00  0.00    -0.235 A  
HETATM   17  F   UNL     1     -11.269  11.746  65.246  1.00  0.00    -0.349 F  
HETATM   18  F   UNL     1     -12.274  12.407  67.056  1.00  0.00    -0.390 F  
HETATM   19  F   UNL     1     -12.501  13.537  65.213  1.00  0.00    -0.402 F  
HETATM   20  C   UNL     1      -8.313  13.893  67.585  1.00  0.00    -0.183 A  
HETATM   21  C   UNL     1      -8.169  15.206  67.129  1.00  0.00    -0.251 A  
ENDBRANCH  10  12
ENDBRANCH   9  10
TORSDOF 2
ENDMDL
MODEL       56
REMARK 921   NORMALIZED FREE ENERGY PREDICTED BY IDOCK:   -6.16 KCAL/MOL
REMARK 922        TOTAL FREE ENERGY PREDICTED BY IDOCK:   -7.28 KCAL/MOL
REMARK 923 INTER-LIGAND FREE ENERGY PREDICTED BY IDOCK:   -6.90 KCAL/MOL
REMARK 924 INTRA-LIGAND FREE ENERGY PREDICTED BY IDOCK:   -0.39 KCAL/MOL
REMARK 927      BINDING AFFINITY PREDICTED BY RF-SCORE:    0.00 PKD
ROOT
HETATM    1  O   UNL     1     -14.056  13.485  72.699  1.00  0.00    -0.762 OA 
HETATM    2  C   UNL     1     -13.121  14.455  72.783  1.00  0.00    -0.505 C  
HETATM    3  C   UNL     1     -12.370  14.704  71.516  1.00  0.00    -0.415 A  
HETATM    4  O   UNL     1     -12.924  15.088  73.806  1.00  0.00    -0.493 OA 
HETATM    5  C   UNL     1     -11.725  15.952  71.423  1.00  0.00    -0.530 A  
HETATM    6  C   UNL     1     -10.952  16.277  70.311  1.00  0.00    -0.314 A  
HETATM    7  C   UNL     1     -10.782  15.347  69.296  1.00  0.00    -0.251 A  
HETATM    8  C   UNL     1     -11.416  14.105  69.376  1.00  0.00    -0.337 A  
HETATM    9  C   UNL     1     -12.258  13.777  70.456  1.00  0.00    -0.369 A  
ENDROOT
BRANCH   9  10
HETATM   10  N   UNL     1     -12.887  12.491  70.510  1.00  0.00     0.057 NA 
HETATM   11  H   UNL     1     -13.894  12.466  70.672  1.00  0.00     0.000 HD 
BRANCH  10  12
HETATM   12  C   UNL     1     -12.213  11.244  70.353  1.00  0.00    -0.365 A  
HETATM   13  C   UNL     1     -11.723  10.820  69.107  1.00  0.00    -0.368 A  
HETATM   14  C   UNL     1     -11.011   9.616  68.971  1.00  0.00    -0.161 A  
HETATM   15  C   UNL     1     -10.474   9.168  67.633  1.00  0.00    -0.261 C  
HETATM   16  C   UNL     1     -10.806   8.820  70.106  1.00  0.00    -0.241 A  
HETATM   17  F   UNL     1      -9.115   9.082  67.618  1.00  0.00    -0.131 F  
HETATM   18  F   UNL     1     -10.929   7.933  67.280  1.00  0.00    -0.351 F  
HETATM   19  F   UNL     1     -10.807   9.996  66.604  1.00  0.00    -0.263 F  
HETATM   20  C   UNL     1     -11.354   9.191  71.331  1.00  0.00    -0.414 A  
HETATM   21  C   UNL     1     -12.074  10.384  71.449  1.00  0.00    -0.424 A  
ENDBRANCH  10  12
ENDBRANCH   9  10
TORSDOF 2
ENDMDL
MODEL       57
REMARK 921   NORMALIZED FREE ENERGY PREDICTED BY IDOCK:   -6.16 KCAL/MOL
REMARK 922        TOTAL FREE ENERGY PREDICTED BY IDOCK:   -7.28 KCAL/MOL
REMARK 923 INTER-LIGAND FREE ENERGY PREDICTED BY IDOCK:   -6.66 KCAL/MOL
REMARK 924 INTRA-LIGAND FREE ENERGY PREDICTED BY IDOCK:   -0.62 KCAL/MOL
REMARK 927      BINDING AFFINITY PREDICTED BY RF-SCORE:    0.00 PKD
ROOT
HETATM    1  O   UNL     1     -11.484  15.269  65.301  1.00  0.00    -0.309 OA 
HETATM    2  C   UNL     1     -10.578  16.231  65.576  1.00  0.00    -0.353 C  
HETATM    3  C   UNL     1      -9.372  15.752  66.316  1.00  0.00    -0.360 A  
HETATM    4  O   UNL     1     -10.726  17.390  65.229  1.00  0.00    -0.646 OA 
HETATM    5  C   UNL     1      -8.238  16.584  66.239  1.00  0.00    -0.360 A  
HETATM    6  C   UNL     1      -7.071  16.268  66.930  1.00  0.00    -0.246 A  
HETATM    7  C   UNL     1      -7.033  15.140  67.736  1.00  0.00    -0.190 A  
HETATM    8  C   UNL     1      -8.150  14.306  67.821  1.00  0.00    -0.176 A  
HETATM    9  C   UNL     1      -9.319  14.565  67.080  1.00  0.00    -0.238 A  
ENDROOT
BRANCH   9  10
HETATM   10  N   UNL     1     -10.449  13.693  67.195  1.00  0.00    -0.263 NA 
HETATM   11  H   UNL     1     -10.783  13.239  66.346  1.00  0.00     0.000 HD 
BRANCH  10  12
HETATM   12  C   UNL     1     -11.144  13.412  68.409  1.00  0.00    -0.273 A  
HETATM   13  C   UNL     1     -11.326  12.097  68.869  1.00  0.00    -0.335 A  
HETATM   14  C   UNL     1     -11.962  11.831  70.094  1.00  0.00    -0.421 A  
HETATM   15  C   UNL     1     -12.146  10.418  70.593  1.00  0.00    -0.348 C  
HETATM   16  C   UNL     1     -12.437  12.906  70.856  1.00  0.00    -0.383 A  
HETATM   17  F   UNL     1     -11.486  10.187  71.761  1.00  0.00    -0.371 F  
HETATM   18  F   UNL     1     -13.453  10.121  70.837  1.00  0.00    -0.442 F  
HETATM   19  F   UNL     1     -11.705   9.468  69.722  1.00  0.00    -0.167 F  
HETATM   20  C   UNL     1     -12.332  14.209  70.375  1.00  0.00    -0.428 A  
HETATM   21  C   UNL     1     -11.712  14.458  69.147  1.00  0.00    -0.354 A  
ENDBRANCH  10  12
ENDBRANCH   9  10
TORSDOF 2
ENDMDL
MODEL       58
REMARK 921   NORMALIZED FREE ENERGY PREDICTED BY IDOCK:   -6.14 KCAL/MOL
REMARK 922        TOTAL FREE ENERGY PREDICTED BY IDOCK:   -7.25 KCAL/MOL
REMARK 923 INTER-LIGAND FREE ENERGY PREDICTED BY IDOCK:   -6.57 KCAL/MOL
REMARK 924 INTRA-LIGAND FREE ENERGY PREDICTED BY IDOCK:   -0.68 KCAL/MOL
REMARK 927      BINDING AFFINITY PREDICTED BY RF-SCORE:    0.00 PKD
ROOT
HETATM    1  O   UNL     1      -8.492  11.800  66.570  1.00  0.00    -0.179 OA 
HETATM    2  C   UNL     1      -9.603  11.214  66.076  1.00  0.00    -0.217 C  
HETATM    3  C   UNL     1     -10.441  12.101  65.214  1.00  0.00    -0.311 A  
HETATM    4  O   UNL     1      -9.885  10.050  66.300  1.00  0.00    -0.208 OA 
HETATM    5  C   UNL     1     -11.334  11.444  64.346  1.00  0.00    -0.214 A  
HETATM    6  C   UNL     1     -12.203  12.166  63.532  1.00  0.00    -0.670 A  
HETATM    7  C   UNL     1     -12.218  13.552  63.602  1.00  0.00    -0.438 A  
HETATM    8  C   UNL     1     -11.338  14.216  64.458  1.00  0.00    -0.355 A  
HETATM    9  C   UNL     1     -10.403  13.514  65.242  1.00  0.00    -0.331 A  
ENDROOT
BRANCH   9  10
HETATM   10  N   UNL     1      -9.519  14.225  66.115  1.00  0.00    -0.460 NA 
HETATM   11  H   UNL     1      -8.517  14.090  65.984  1.00  0.00     0.000 HD 
BRANCH  10  12
HETATM   12  C   UNL     1      -9.934  15.110  67.154  1.00  0.00    -0.237 A  
HETATM   13  C   UNL     1     -10.719  14.667  68.232  1.00  0.00    -0.240 A  
HETATM   14  C   UNL     1     -11.078  15.531  69.281  1.00  0.00    -0.285 A  
HETATM   15  C   UNL     1     -11.910  15.050  70.445  1.00  0.00    -0.297 C  
HETATM   16  C   UNL     1     -10.653  16.865  69.232  1.00  0.00    -0.325 A  
HETATM   17  F   UNL     1     -11.245  15.129  71.630  1.00  0.00    -0.405 F  
HETATM   18  F   UNL     1     -13.047  15.784  70.606  1.00  0.00    -0.501 F  
HETATM   19  F   UNL     1     -12.316  13.755  70.330  1.00  0.00    -0.355 F  
HETATM   20  C   UNL     1      -9.941  17.336  68.131  1.00  0.00    -0.303 A  
HETATM   21  C   UNL     1      -9.605  16.469  67.087  1.00  0.00    -0.243 A  
ENDBRANCH  10  12
ENDBRANCH   9  10
TORSDOF 2
ENDMDL
MODEL       59
REMARK 921   NORMALIZED FREE ENERGY PREDICTED BY IDOCK:   -6.07 KCAL/MOL
REMARK 922        TOTAL FREE ENERGY PREDICTED BY IDOCK:   -7.19 KCAL/MOL
REMARK 923 INTER-LIGAND FREE ENERGY PREDICTED BY IDOCK:   -7.04 KCAL/MOL
REMARK 924 INTRA-LIGAND FREE ENERGY PREDICTED BY IDOCK:   -0.14 KCAL/MOL
REMARK 927      BINDING AFFINITY PREDICTED BY RF-SCORE:    0.00 PKD
ROOT
HETATM    1  O   UNL     1     -14.049  13.229  72.515  1.00  0.00    -0.709 OA 
HETATM    2  C   UNL     1     -13.189  14.267  72.593  1.00  0.00    -0.510 C  
HETATM    3  C   UNL     1     -12.411  14.522  71.344  1.00  0.00    -0.425 A  
HETATM    4  O   UNL     1     -13.076  14.950  73.596  1.00  0.00    -0.518 OA 
HETATM    5  C   UNL     1     -11.853  15.809  71.224  1.00  0.00    -0.491 A  
HETATM    6  C   UNL     1     -11.064  16.147  70.127  1.00  0.00    -0.373 A  
HETATM    7  C   UNL     1     -10.789  15.194  69.158  1.00  0.00    -0.251 A  
HETATM    8  C   UNL     1     -11.336  13.914  69.265  1.00  0.00    -0.321 A  
HETATM    9  C   UNL     1     -12.192  13.566  70.326  1.00  0.00    -0.347 A  
ENDROOT
BRANCH   9  10
HETATM   10  N   UNL     1     -12.731  12.242  70.410  1.00  0.00     0.012 NA 
HETATM   11  H   UNL     1     -13.710  12.146  70.680  1.00  0.00     0.000 HD 
BRANCH  10  12
HETATM   12  C   UNL     1     -12.001  11.045  70.144  1.00  0.00    -0.360 A  
HETATM   13  C   UNL     1     -11.817  10.058  71.126  1.00  0.00    -0.481 A  
HETATM   14  C   UNL     1     -11.145   8.856  70.842  1.00  0.00    -0.328 A  
HETATM   15  C   UNL     1     -10.959   7.792  71.895  1.00  0.00    -0.249 C  
HETATM   16  C   UNL     1     -10.638   8.656  69.551  1.00  0.00    -0.218 A  
HETATM   17  F   UNL     1     -11.584   6.625  71.575  1.00  0.00    -0.288 F  
HETATM   18  F   UNL     1      -9.648   7.473  72.082  1.00  0.00    -0.159 F  
HETATM   19  F   UNL     1     -11.434   8.145  73.121  1.00  0.00    -0.440 F  
HETATM   20  C   UNL     1     -10.746   9.659  68.590  1.00  0.00    -0.233 A  
HETATM   21  C   UNL     1     -11.402  10.856  68.893  1.00  0.00    -0.354 A  
ENDBRANCH  10  12
ENDBRANCH   9  10
TORSDOF 2
ENDMDL
MODEL       60
REMARK 921   NORMALIZED FREE ENERGY PREDICTED BY IDOCK:   -6.06 KCAL/MOL
REMARK 922        TOTAL FREE ENERGY PREDICTED BY IDOCK:   -7.17 KCAL/MOL
REMARK 923 INTER-LIGAND FREE ENERGY PREDICTED BY IDOCK:   -6.68 KCAL/MOL
REMARK 924 INTRA-LIGAND FREE ENERGY PREDICTED BY IDOCK:   -0.50 KCAL/MOL
REMARK 927      BINDING AFFINITY PREDICTED BY RF-SCORE:    0.00 PKD
ROOT
HETATM    1  O   UNL     1     -11.581  11.545  69.657  1.00  0.00    -0.283 OA 
HETATM    2  C   UNL     1     -12.287  11.706  70.797  1.00  0.00    -0.358 C  
HETATM    3  C   UNL     1     -12.589  13.128  71.141  1.00  0.00    -0.403 A  
HETATM    4  O   UNL     1     -12.663  10.766  71.474  1.00  0.00    -0.395 OA 
HETATM    5  C   UNL     1     -13.658  13.326  72.037  1.00  0.00    -0.573 A  
HETATM    6  C   UNL     1     -14.000  14.604  72.472  1.00  0.00    -0.518 A  
HETATM    7  C   UNL     1     -13.255  15.696  72.050  1.00  0.00    -0.541 A  
HETATM    8  C   UNL     1     -12.193  15.514  71.163  1.00  0.00    -0.451 A  
HETATM    9  C   UNL     1     -11.869  14.242  70.654  1.00  0.00    -0.281 A  
ENDROOT
BRANCH   9  10
HETATM   10  N   UNL     1     -10.768  14.089  69.750  1.00  0.00    -0.440 NA 
HETATM   11  H   UNL     1     -10.309  13.179  69.715  1.00  0.00     0.000 HD 
BRANCH  10  12
HETATM   12  C   UNL     1     -10.265  15.114  68.895  1.00  0.00    -0.236 A  
HETATM   13  C   UNL     1      -9.037  15.748  69.144  1.00  0.00    -0.262 A  
HETATM   14  C   UNL     1      -8.521  16.718  68.267  1.00  0.00    -0.222 A  
HETATM   15  C   UNL     1      -7.195  17.390  68.530  1.00  0.00    -0.230 C  
HETATM   16  C   UNL     1      -9.264  17.063  67.130  1.00  0.00    -0.242 A  
HETATM   17  F   UNL     1      -6.276  17.129  67.560  1.00  0.00    -0.130 F  
HETATM   18  F   UNL     1      -7.305  18.746  68.585  1.00  0.00    -0.278 F  
HETATM   19  F   UNL     1      -6.615  17.015  69.704  1.00  0.00    -0.233 F  
HETATM   20  C   UNL     1     -10.518  16.498  66.913  1.00  0.00    -0.282 A  
HETATM   21  C   UNL     1     -11.027  15.548  67.803  1.00  0.00    -0.317 A  
ENDBRANCH  10  12
ENDBRANCH   9  10
TORSDOF 2
ENDMDL
MODEL       61
REMARK 921   NORMALIZED FREE ENERGY PREDICTED BY IDOCK:   -6.05 KCAL/MOL
REMARK 922        TOTAL FREE ENERGY PREDICTED BY IDOCK:   -7.16 KCAL/MOL
REMARK 923 INTER-LIGAND FREE ENERGY PREDICTED BY IDOCK:   -6.85 KCAL/MOL
REMARK 924 INTRA-LIGAND FREE ENERGY PREDICTED BY IDOCK:   -0.31 KCAL/MOL
REMARK 927      BINDING AFFINITY PREDICTED BY RF-SCORE:    0.00 PKD
ROOT
HETATM    1  O   UNL     1     -10.206   9.535  67.394  1.00  0.00    -0.197 OA 
HETATM    2  C   UNL     1      -9.861   9.238  68.665  1.00  0.00    -0.162 C  
HETATM    3  C   UNL     1     -10.910   9.552  69.680  1.00  0.00    -0.255 A  
HETATM    4  O   UNL     1      -8.790   8.734  68.952  1.00  0.00    -0.135 OA 
HETATM    5  C   UNL     1     -10.789   8.879  70.912  1.00  0.00    -0.308 A  
HETATM    6  C   UNL     1     -11.679   9.130  71.954  1.00  0.00    -0.436 A  
HETATM    7  C   UNL     1     -12.674  10.083  71.794  1.00  0.00    -0.526 A  
HETATM    8  C   UNL     1     -12.805  10.757  70.579  1.00  0.00    -0.335 A  
HETATM    9  C   UNL     1     -11.963  10.474  69.486  1.00  0.00    -0.186 A  
ENDROOT
BRANCH   9  10
HETATM   10  N   UNL     1     -12.119  11.190  68.256  1.00  0.00    -0.735 NA 
HETATM   11  H   UNL     1     -12.495  10.678  67.457  1.00  0.00     0.000 HD 
BRANCH  10  12
HETATM   12  C   UNL     1     -11.791  12.564  68.062  1.00  0.00    -0.325 A  
HETATM   13  C   UNL     1     -11.262  13.034  66.848  1.00  0.00    -0.331 A  
HETATM   14  C   UNL     1     -10.992  14.399  66.645  1.00  0.00    -0.318 A  
HETATM   15  C   UNL     1     -10.436  14.903  65.336  1.00  0.00    -0.384 C  
HETATM   16  C   UNL     1     -11.245  15.299  67.689  1.00  0.00    -0.320 A  
HETATM   17  F   UNL     1     -11.283  15.762  64.705  1.00  0.00    -0.384 F  
HETATM   18  F   UNL     1      -9.267  15.584  65.499  1.00  0.00    -0.334 F  
HETATM   19  F   UNL     1     -10.169  13.915  64.437  1.00  0.00    -0.458 F  
HETATM   20  C   UNL     1     -11.696  14.836  68.922  1.00  0.00    -0.340 A  
HETATM   21  C   UNL     1     -11.944  13.474  69.116  1.00  0.00    -0.378 A  
ENDBRANCH  10  12
ENDBRANCH   9  10
TORSDOF 2
ENDMDL
MODEL       62
REMARK 921   NORMALIZED FREE ENERGY PREDICTED BY IDOCK:   -6.05 KCAL/MOL
REMARK 922        TOTAL FREE ENERGY PREDICTED BY IDOCK:   -7.16 KCAL/MOL
REMARK 923 INTER-LIGAND FREE ENERGY PREDICTED BY IDOCK:   -6.65 KCAL/MOL
REMARK 924 INTRA-LIGAND FREE ENERGY PREDICTED BY IDOCK:   -0.50 KCAL/MOL
REMARK 927      BINDING AFFINITY PREDICTED BY RF-SCORE:    0.00 PKD
ROOT
HETATM    1  O   UNL     1     -10.887   9.190  67.437  1.00  0.00    -0.243 OA 
HETATM    2  C   UNL     1      -9.858   8.731  68.181  1.00  0.00    -0.168 C  
HETATM    3  C   UNL     1     -10.153   8.612  69.640  1.00  0.00    -0.201 A  
HETATM    4  O   UNL     1      -8.785   8.420  67.694  1.00  0.00    -0.135 OA 
HETATM    5  C   UNL     1      -9.305   7.754  70.367  1.00  0.00    -0.160 A  
HETATM    6  C   UNL     1      -9.450   7.603  71.744  1.00  0.00    -0.178 A  
HETATM    7  C   UNL     1     -10.417   8.335  72.418  1.00  0.00    -0.404 A  
HETATM    8  C   UNL     1     -11.264   9.189  71.710  1.00  0.00    -0.451 A  
HETATM    9  C   UNL     1     -11.184   9.309  70.309  1.00  0.00    -0.231 A  
ENDROOT
BRANCH   9  10
HETATM   10  N   UNL     1     -12.064  10.200  69.614  1.00  0.00    -0.496 NA 
HETATM   11  H   UNL     1     -12.793   9.786  69.034  1.00  0.00     0.000 HD 
BRANCH  10  12
HETATM   12  C   UNL     1     -11.997  11.624  69.672  1.00  0.00    -0.324 A  
HETATM   13  C   UNL     1     -12.471  12.341  70.783  1.00  0.00    -0.356 A  
HETATM   14  C   UNL     1     -12.352  13.740  70.858  1.00  0.00    -0.456 A  
HETATM   15  C   UNL     1     -12.850  14.508  72.058  1.00  0.00    -0.337 C  
HETATM   16  C   UNL     1     -11.762  14.425  69.787  1.00  0.00    -0.361 A  
HETATM   17  F   UNL     1     -11.850  15.155  72.716  1.00  0.00    -0.430 F  
HETATM   18  F   UNL     1     -13.755  15.469  71.718  1.00  0.00    -0.467 F  
HETATM   19  F   UNL     1     -13.467  13.729  72.989  1.00  0.00    -0.584 F  
HETATM   20  C   UNL     1     -11.359  13.734  68.647  1.00  0.00    -0.321 A  
HETATM   21  C   UNL     1     -11.499  12.345  68.580  1.00  0.00    -0.348 A  
ENDBRANCH  10  12
ENDBRANCH   9  10
TORSDOF 2
ENDMDL
MODEL       63
REMARK 921   NORMALIZED FREE ENERGY PREDICTED BY IDOCK:   -6.03 KCAL/MOL
REMARK 922        TOTAL FREE ENERGY PREDICTED BY IDOCK:   -7.14 KCAL/MOL
REMARK 923 INTER-LIGAND FREE ENERGY PREDICTED BY IDOCK:   -6.69 KCAL/MOL
REMARK 924 INTRA-LIGAND FREE ENERGY PREDICTED BY IDOCK:   -0.45 KCAL/MOL
REMARK 927      BINDING AFFINITY PREDICTED BY RF-SCORE:    0.00 PKD
ROOT
HETATM    1  O   UNL     1     -10.541  18.843  67.591  1.00  0.00    -0.420 OA 
HETATM    2  C   UNL     1      -9.468  19.100  68.369  1.00  0.00    -0.369 C  
HETATM    3  C   UNL     1      -8.160  19.066  67.649  1.00  0.00    -0.296 A  
HETATM    4  O   UNL     1      -9.565  19.358  69.556  1.00  0.00    -0.196 OA 
HETATM    5  C   UNL     1      -7.096  19.738  68.282  1.00  0.00    -0.336 A  
HETATM    6  C   UNL     1      -5.817  19.732  67.732  1.00  0.00    -0.214 A  
HETATM    7  C   UNL     1      -5.574  19.024  66.564  1.00  0.00    -0.171 A  
HETATM    8  C   UNL     1      -6.619  18.354  65.926  1.00  0.00    -0.306 A  
HETATM    9  C   UNL     1      -7.936  18.400  66.423  1.00  0.00    -0.262 A  
ENDROOT
BRANCH   9  10
HETATM   10  N   UNL     1      -8.983  17.696  65.747  1.00  0.00    -0.429 NA 
HETATM   11  H   UNL     1      -9.534  18.213  65.062  1.00  0.00     0.000 HD 
BRANCH  10  12
HETATM   12  C   UNL     1      -9.316  16.325  65.960  1.00  0.00    -0.326 A  
HETATM   13  C   UNL     1     -10.358  15.699  65.256  1.00  0.00    -0.405 A  
HETATM   14  C   UNL     1     -10.644  14.334  65.430  1.00  0.00    -0.367 A  
HETATM   15  C   UNL     1     -11.756  13.660  64.663  1.00  0.00    -0.388 C  
HETATM   16  C   UNL     1      -9.878  13.594  66.341  1.00  0.00    -0.302 A  
HETATM   17  F   UNL     1     -11.301  12.674  63.842  1.00  0.00    -0.365 F  
HETATM   18  F   UNL     1     -12.667  13.069  65.485  1.00  0.00    -0.510 F  
HETATM   19  F   UNL     1     -12.466  14.509  63.869  1.00  0.00    -0.503 F  
HETATM   20  C   UNL     1      -8.893  14.220  67.102  1.00  0.00    -0.243 A  
HETATM   21  C   UNL     1      -8.631  15.583  66.930  1.00  0.00    -0.289 A  
ENDBRANCH  10  12
ENDBRANCH   9  10
TORSDOF 2
ENDMDL
MODEL       64
REMARK 921   NORMALIZED FREE ENERGY PREDICTED BY IDOCK:   -6.02 KCAL/MOL
REMARK 922        TOTAL FREE ENERGY PREDICTED BY IDOCK:   -7.13 KCAL/MOL
REMARK 923 INTER-LIGAND FREE ENERGY PREDICTED BY IDOCK:   -6.53 KCAL/MOL
REMARK 924 INTRA-LIGAND FREE ENERGY PREDICTED BY IDOCK:   -0.60 KCAL/MOL
REMARK 927      BINDING AFFINITY PREDICTED BY RF-SCORE:    0.00 PKD
ROOT
HETATM    1  O   UNL     1     -12.702  13.025  64.200  1.00  0.00    -0.651 OA 
HETATM    2  C   UNL     1     -12.288  14.301  64.355  1.00  0.00    -0.391 C  
HETATM    3  C   UNL     1     -11.157  14.472  65.316  1.00  0.00    -0.355 A  
HETATM    4  O   UNL     1     -12.783  15.230  63.743  1.00  0.00    -0.687 OA 
HETATM    5  C   UNL     1     -10.419  15.664  65.185  1.00  0.00    -0.417 A  
HETATM    6  C   UNL     1      -9.375  15.958  66.059  1.00  0.00    -0.385 A  
HETATM    7  C   UNL     1      -9.079  15.086  67.096  1.00  0.00    -0.229 A  
HETATM    8  C   UNL     1      -9.802  13.900  67.237  1.00  0.00    -0.244 A  
HETATM    9  C   UNL     1     -10.818  13.545  66.328  1.00  0.00    -0.289 A  
ENDROOT
BRANCH   9  10
HETATM   10  N   UNL     1     -11.545  12.325  66.506  1.00  0.00    -0.440 NA 
HETATM   11  H   UNL     1     -12.560  12.389  66.591  1.00  0.00     0.000 HD 
BRANCH  10  12
HETATM   12  C   UNL     1     -10.959  11.026  66.573  1.00  0.00    -0.166 A  
HETATM   13  C   UNL     1     -11.021  10.247  67.740  1.00  0.00    -0.360 A  
HETATM   14  C   UNL     1     -10.490   8.946  67.782  1.00  0.00    -0.300 A  
HETATM   15  C   UNL     1     -10.568   8.106  69.033  1.00  0.00    -0.151 C  
HETATM   16  C   UNL     1      -9.874   8.432  66.633  1.00  0.00    -0.343 A  
HETATM   17  F   UNL     1     -11.305   6.975  68.857  1.00  0.00    -0.156 F  
HETATM   18  F   UNL     1      -9.341   7.689  69.453  1.00  0.00    -0.151 F  
HETATM   19  F   UNL     1     -11.125   8.753  70.094  1.00  0.00    -0.247 F  
HETATM   20  C   UNL     1      -9.737   9.222  65.495  1.00  0.00    -0.247 A  
HETATM   21  C   UNL     1     -10.255  10.521  65.473  1.00  0.00    -0.325 A  
ENDBRANCH  10  12
ENDBRANCH   9  10
TORSDOF 2
ENDMDL
MODEL       65
REMARK 921   NORMALIZED FREE ENERGY PREDICTED BY IDOCK:   -6.02 KCAL/MOL
REMARK 922        TOTAL FREE ENERGY PREDICTED BY IDOCK:   -7.13 KCAL/MOL
REMARK 923 INTER-LIGAND FREE ENERGY PREDICTED BY IDOCK:   -6.53 KCAL/MOL
REMARK 924 INTRA-LIGAND FREE ENERGY PREDICTED BY IDOCK:   -0.59 KCAL/MOL
REMARK 927      BINDING AFFINITY PREDICTED BY RF-SCORE:    0.00 PKD
ROOT
HETATM    1  O   UNL     1     -11.145   9.665  67.917  1.00  0.00    -0.205 OA 
HETATM    2  C   UNL     1     -10.053   9.171  68.539  1.00  0.00    -0.191 C  
HETATM    3  C   UNL     1     -10.294   8.710  69.939  1.00  0.00    -0.213 A  
HETATM    4  O   UNL     1      -8.968   9.091  67.992  1.00  0.00    -0.132 OA 
HETATM    5  C   UNL     1      -9.342   7.812  70.459  1.00  0.00    -0.163 A  
HETATM    6  C   UNL     1      -9.432   7.352  71.771  1.00  0.00    -0.166 A  
HETATM    7  C   UNL     1     -10.452   7.812  72.591  1.00  0.00    -0.363 A  
HETATM    8  C   UNL     1     -11.403   8.703  72.089  1.00  0.00    -0.434 A  
HETATM    9  C   UNL     1     -11.374   9.130  70.748  1.00  0.00    -0.280 A  
ENDROOT
BRANCH   9  10
HETATM   10  N   UNL     1     -12.361  10.049  70.266  1.00  0.00    -0.493 NA 
HETATM   11  H   UNL     1     -13.011   9.714  69.555  1.00  0.00     0.000 HD 
BRANCH  10  12
HETATM   12  C   UNL     1     -12.505  11.398  70.706  1.00  0.00    -0.365 A  
HETATM   13  C   UNL     1     -11.861  12.461  70.052  1.00  0.00    -0.363 A  
HETATM   14  C   UNL     1     -12.051  13.794  70.457  1.00  0.00    -0.416 A  
HETATM   15  C   UNL     1     -11.368  14.937  69.746  1.00  0.00    -0.283 C  
HETATM   16  C   UNL     1     -12.891  14.055  71.549  1.00  0.00    -0.440 A  
HETATM   17  F   UNL     1     -12.253  15.792  69.163  1.00  0.00    -0.370 F  
HETATM   18  F   UNL     1     -10.616  15.696  70.590  1.00  0.00    -0.318 F  
HETATM   19  F   UNL     1     -10.526  14.538  68.753  1.00  0.00    -0.219 F  
HETATM   20  C   UNL     1     -13.473  13.004  72.253  1.00  0.00    -0.645 A  
HETATM   21  C   UNL     1     -13.261  11.683  71.850  1.00  0.00    -0.475 A  
ENDBRANCH  10  12
ENDBRANCH   9  10
TORSDOF 2
ENDMDL
MODEL       66
REMARK 921   NORMALIZED FREE ENERGY PREDICTED BY IDOCK:   -6.00 KCAL/MOL
REMARK 922        TOTAL FREE ENERGY PREDICTED BY IDOCK:   -7.11 KCAL/MOL
REMARK 923 INTER-LIGAND FREE ENERGY PREDICTED BY IDOCK:   -6.57 KCAL/MOL
REMARK 924 INTRA-LIGAND FREE ENERGY PREDICTED BY IDOCK:   -0.53 KCAL/MOL
REMARK 927      BINDING AFFINITY PREDICTED BY RF-SCORE:    0.00 PKD
ROOT
HETATM    1  O   UNL     1     -12.905  15.736  71.689  1.00  0.00    -0.444 OA 
HETATM    2  C   UNL     1     -13.278  14.458  71.915  1.00  0.00    -0.365 C  
HETATM    3  C   UNL     1     -12.684  13.465  70.971  1.00  0.00    -0.387 A  
HETATM    4  O   UNL     1     -14.020  14.144  72.828  1.00  0.00    -0.638 OA 
HETATM    5  C   UNL     1     -12.679  12.128  71.414  1.00  0.00    -0.368 A  
HETATM    6  C   UNL     1     -12.198  11.106  70.600  1.00  0.00    -0.492 A  
HETATM    7  C   UNL     1     -11.753  11.399  69.319  1.00  0.00    -0.404 A  
HETATM    8  C   UNL     1     -11.752  12.720  68.867  1.00  0.00    -0.370 A  
HETATM    9  C   UNL     1     -12.168  13.781  69.693  1.00  0.00    -0.305 A  
ENDROOT
BRANCH   9  10
HETATM   10  N   UNL     1     -12.162  15.123  69.196  1.00  0.00    -0.574 NA 
HETATM   11  H   UNL     1     -13.059  15.604  69.123  1.00  0.00     0.000 HD 
BRANCH  10  12
HETATM   12  C   UNL     1     -10.996  15.841  68.795  1.00  0.00    -0.291 A  
HETATM   13  C   UNL     1      -9.716  15.487  69.255  1.00  0.00    -0.272 A  
HETATM   14  C   UNL     1      -8.566  16.163  68.813  1.00  0.00    -0.236 A  
HETATM   15  C   UNL     1      -7.190  15.773  69.297  1.00  0.00    -0.211 C  
HETATM   16  C   UNL     1      -8.712  17.222  67.907  1.00  0.00    -0.231 A  
HETATM   17  F   UNL     1      -6.387  15.334  68.290  1.00  0.00    -0.090 F  
HETATM   18  F   UNL     1      -6.530  16.816  69.873  1.00  0.00    -0.225 F  
HETATM   19  F   UNL     1      -7.199  14.779  70.228  1.00  0.00    -0.157 F  
HETATM   20  C   UNL     1      -9.980  17.633  67.505  1.00  0.00    -0.322 A  
HETATM   21  C   UNL     1     -11.117  16.962  67.966  1.00  0.00    -0.190 A  
ENDBRANCH  10  12
ENDBRANCH   9  10
TORSDOF 2
ENDMDL
MODEL       67
REMARK 921   NORMALIZED FREE ENERGY PREDICTED BY IDOCK:   -5.98 KCAL/MOL
REMARK 922        TOTAL FREE ENERGY PREDICTED BY IDOCK:   -7.08 KCAL/MOL
REMARK 923 INTER-LIGAND FREE ENERGY PREDICTED BY IDOCK:   -6.45 KCAL/MOL
REMARK 924 INTRA-LIGAND FREE ENERGY PREDICTED BY IDOCK:   -0.63 KCAL/MOL
REMARK 927      BINDING AFFINITY PREDICTED BY RF-SCORE:    0.00 PKD
ROOT
HETATM    1  O   UNL     1      -8.849  15.048  69.008  1.00  0.00    -0.197 OA 
HETATM    2  C   UNL     1      -9.948  15.781  69.284  1.00  0.00    -0.262 C  
HETATM    3  C   UNL     1     -11.058  15.014  69.926  1.00  0.00    -0.298 A  
HETATM    4  O   UNL     1     -10.017  16.974  69.047  1.00  0.00    -0.274 OA 
HETATM    5  C   UNL     1     -12.013  15.785  70.616  1.00  0.00    -0.426 A  
HETATM    6  C   UNL     1     -13.121  15.186  71.211  1.00  0.00    -0.512 A  
HETATM    7  C   UNL     1     -13.309  13.817  71.092  1.00  0.00    -0.218 A  
HETATM    8  C   UNL     1     -12.369  13.041  70.411  1.00  0.00    -0.351 A  
HETATM    9  C   UNL     1     -11.206  13.610  69.859  1.00  0.00     0.041 A  
ENDROOT
BRANCH   9  10
HETATM   10  N   UNL     1     -10.266  12.787  69.161  1.00  0.00    -0.413 NA 
HETATM   11  H   UNL     1      -9.414  12.519  69.655  1.00  0.00     0.000 HD 
BRANCH  10  12
HETATM   12  C   UNL     1     -10.429  12.311  67.826  1.00  0.00    -0.209 A  
HETATM   13  C   UNL     1     -11.348  12.898  66.940  1.00  0.00    -0.358 A  
HETATM   14  C   UNL     1     -11.465  12.460  65.609  1.00  0.00    -0.412 A  
HETATM   15  C   UNL     1     -12.444  13.099  64.655  1.00  0.00    -0.373 C  
HETATM   16  C   UNL     1     -10.654  11.404  65.172  1.00  0.00    -0.352 A  
HETATM   17  F   UNL     1     -11.829  13.698  63.598  1.00  0.00    -0.443 F  
HETATM   18  F   UNL     1     -13.310  12.194  64.119  1.00  0.00    -0.459 F  
HETATM   19  F   UNL     1     -13.219  14.061  65.228  1.00  0.00    -0.461 F  
HETATM   20  C   UNL     1      -9.795  10.764  66.062  1.00  0.00    -0.285 A  
HETATM   21  C   UNL     1      -9.702  11.199  67.387  1.00  0.00    -0.191 A  
ENDBRANCH  10  12
ENDBRANCH   9  10
TORSDOF 2
ENDMDL
MODEL       68
REMARK 921   NORMALIZED FREE ENERGY PREDICTED BY IDOCK:   -5.97 KCAL/MOL
REMARK 922        TOTAL FREE ENERGY PREDICTED BY IDOCK:   -7.07 KCAL/MOL
REMARK 923 INTER-LIGAND FREE ENERGY PREDICTED BY IDOCK:   -6.59 KCAL/MOL
REMARK 924 INTRA-LIGAND FREE ENERGY PREDICTED BY IDOCK:   -0.48 KCAL/MOL
REMARK 927      BINDING AFFINITY PREDICTED BY RF-SCORE:    0.00 PKD
ROOT
HETATM    1  O   UNL     1     -10.754  10.703  68.425  1.00  0.00    -0.193 OA 
HETATM    2  C   UNL     1     -11.350  11.909  68.548  1.00  0.00    -0.276 C  
HETATM    3  C   UNL     1     -12.011  12.140  69.867  1.00  0.00    -0.380 A  
HETATM    4  O   UNL     1     -11.329  12.744  67.661  1.00  0.00    -0.273 OA 
HETATM    5  C   UNL     1     -12.249  13.487  70.203  1.00  0.00    -0.400 A  
HETATM    6  C   UNL     1     -12.906  13.825  71.384  1.00  0.00    -0.449 A  
HETATM    7  C   UNL     1     -13.367  12.823  72.225  1.00  0.00    -0.563 A  
HETATM    8  C   UNL     1     -13.138  11.483  71.904  1.00  0.00    -0.492 A  
HETATM    9  C   UNL     1     -12.417  11.116  70.752  1.00  0.00    -0.384 A  
ENDROOT
BRANCH   9  10
HETATM   10  N   UNL     1     -12.205   9.732  70.448  1.00  0.00    -0.470 NA 
HETATM   11  H   UNL     1     -12.736   9.333  69.674  1.00  0.00     0.000 HD 
BRANCH  10  12
HETATM   12  C   UNL     1     -11.309   8.870  71.147  1.00  0.00    -0.291 A  
HETATM   13  C   UNL     1     -11.742   7.663  71.721  1.00  0.00    -0.319 A  
HETATM   14  C   UNL     1     -10.842   6.792  72.360  1.00  0.00    -0.270 A  
HETATM   15  C   UNL     1     -11.306   5.489  72.965  1.00  0.00    -0.266 C  
HETATM   16  C   UNL     1      -9.490   7.153  72.434  1.00  0.00    -0.166 A  
HETATM   17  F   UNL     1     -10.740   4.405  72.368  1.00  0.00    -0.251 F  
HETATM   18  F   UNL     1     -10.993   5.393  74.287  1.00  0.00    -0.274 F  
HETATM   19  F   UNL     1     -12.653   5.298  72.887  1.00  0.00    -0.249 F  
HETATM   20  C   UNL     1      -9.063   8.382  71.938  1.00  0.00    -0.288 A  
HETATM   21  C   UNL     1      -9.972   9.246  71.320  1.00  0.00    -0.341 A  
ENDBRANCH  10  12
ENDBRANCH   9  10
TORSDOF 2
ENDMDL
MODEL       69
REMARK 921   NORMALIZED FREE ENERGY PREDICTED BY IDOCK:   -5.95 KCAL/MOL
REMARK 922        TOTAL FREE ENERGY PREDICTED BY IDOCK:   -7.05 KCAL/MOL
REMARK 923 INTER-LIGAND FREE ENERGY PREDICTED BY IDOCK:   -6.84 KCAL/MOL
REMARK 924 INTRA-LIGAND FREE ENERGY PREDICTED BY IDOCK:   -0.21 KCAL/MOL
REMARK 927      BINDING AFFINITY PREDICTED BY RF-SCORE:    0.00 PKD
ROOT
HETATM    1  O   UNL     1     -13.752  10.509  71.770  1.00  0.00    -0.156 OA 
HETATM    2  C   UNL     1     -13.360   9.245  72.039  1.00  0.00    -0.450 C  
HETATM    3  C   UNL     1     -11.890   9.013  71.913  1.00  0.00    -0.447 A  
HETATM    4  O   UNL     1     -14.142   8.374  72.376  1.00  0.00    -0.337 OA 
HETATM    5  C   UNL     1     -11.390   7.882  72.587  1.00  0.00    -0.468 A  
HETATM    6  C   UNL     1     -10.044   7.534  72.500  1.00  0.00    -0.262 A  
HETATM    7  C   UNL     1      -9.188   8.288  71.710  1.00  0.00    -0.261 A  
HETATM    8  C   UNL     1      -9.671   9.413  71.038  1.00  0.00    -0.293 A  
HETATM    9  C   UNL     1     -11.011   9.826  71.162  1.00  0.00    -0.316 A  
ENDROOT
BRANCH   9  10
HETATM   10  N   UNL     1     -11.475  10.980  70.453  1.00  0.00    -0.439 NA 
HETATM   11  H   UNL     1     -11.954  11.702  70.990  1.00  0.00     0.000 HD 
BRANCH  10  12
HETATM   12  C   UNL     1     -11.317  11.196  69.051  1.00  0.00    -0.276 A  
HETATM   13  C   UNL     1     -11.668  12.415  68.448  1.00  0.00    -0.386 A  
HETATM   14  C   UNL     1     -11.458  12.641  67.076  1.00  0.00    -0.406 A  
HETATM   15  C   UNL     1     -11.824  13.956  66.431  1.00  0.00    -0.411 C  
HETATM   16  C   UNL     1     -10.901  11.615  66.301  1.00  0.00    -0.333 A  
HETATM   17  F   UNL     1     -10.742  14.607  65.922  1.00  0.00    -0.280 F  
HETATM   18  F   UNL     1     -12.688  13.798  65.390  1.00  0.00    -0.453 F  
HETATM   19  F   UNL     1     -12.422  14.835  67.282  1.00  0.00    -0.274 F  
HETATM   20  C   UNL     1     -10.621  10.376  66.871  1.00  0.00    -0.293 A  
HETATM   21  C   UNL     1     -10.851  10.160  68.233  1.00  0.00    -0.297 A  
ENDBRANCH  10  12
ENDBRANCH   9  10
TORSDOF 2
ENDMDL
MODEL       70
REMARK 921   NORMALIZED FREE ENERGY PREDICTED BY IDOCK:   -5.95 KCAL/MOL
REMARK 922        TOTAL FREE ENERGY PREDICTED BY IDOCK:   -7.05 KCAL/MOL
REMARK 923 INTER-LIGAND FREE ENERGY PREDICTED BY IDOCK:   -6.60 KCAL/MOL
REMARK 924 INTRA-LIGAND FREE ENERGY PREDICTED BY IDOCK:   -0.44 KCAL/MOL
REMARK 927      BINDING AFFINITY PREDICTED BY RF-SCORE:    0.00 PKD
ROOT
HETATM    1  O   UNL     1     -12.492  15.035  69.986  1.00  0.00    -0.320 OA 
HETATM    2  C   UNL     1     -11.464  15.795  69.551  1.00  0.00    -0.353 C  
HETATM    3  C   UNL     1     -11.190  15.686  68.087  1.00  0.00    -0.345 A  
HETATM    4  O   UNL     1     -10.829  16.524  70.292  1.00  0.00    -0.294 OA 
HETATM    5  C   UNL     1     -10.455  16.746  67.523  1.00  0.00    -0.319 A  
HETATM    6  C   UNL     1     -10.094  16.730  66.177  1.00  0.00    -0.360 A  
HETATM    7  C   UNL     1     -10.428  15.639  65.389  1.00  0.00    -0.435 A  
HETATM    8  C   UNL     1     -11.157  14.581  65.936  1.00  0.00    -0.327 A  
HETATM    9  C   UNL     1     -11.594  14.603  67.274  1.00  0.00    -0.387 A  
ENDROOT
BRANCH   9  10
HETATM   10  N   UNL     1     -12.334  13.498  67.805  1.00  0.00    -0.275 NA 
HETATM   11  H   UNL     1     -13.330  13.635  67.974  1.00  0.00     0.000 HD 
BRANCH  10  12
HETATM   12  C   UNL     1     -11.783  12.219  68.116  1.00  0.00    -0.349 A  
HETATM   13  C   UNL     1     -11.210  11.402  67.128  1.00  0.00    -0.363 A  
HETATM   14  C   UNL     1     -10.619  10.167  67.450  1.00  0.00    -0.329 A  
HETATM   15  C   UNL     1      -9.992   9.295  66.389  1.00  0.00    -0.286 C  
HETATM   16  C   UNL     1     -10.622   9.746  68.787  1.00  0.00    -0.244 A  
HETATM   17  F   UNL     1      -8.657   9.116  66.583  1.00  0.00    -0.120 F  
HETATM   18  F   UNL     1     -10.536   8.047  66.359  1.00  0.00    -0.348 F  
HETATM   19  F   UNL     1     -10.124   9.789  65.127  1.00  0.00    -0.387 F  
HETATM   20  C   UNL     1     -11.256  10.511  69.763  1.00  0.00    -0.361 A  
HETATM   21  C   UNL     1     -11.854  11.728  69.425  1.00  0.00    -0.398 A  
ENDBRANCH  10  12
ENDBRANCH   9  10
TORSDOF 2
ENDMDL
MODEL       71
REMARK 921   NORMALIZED FREE ENERGY PREDICTED BY IDOCK:   -5.94 KCAL/MOL
REMARK 922        TOTAL FREE ENERGY PREDICTED BY IDOCK:   -7.04 KCAL/MOL
REMARK 923 INTER-LIGAND FREE ENERGY PREDICTED BY IDOCK:   -6.50 KCAL/MOL
REMARK 924 INTRA-LIGAND FREE ENERGY PREDICTED BY IDOCK:   -0.54 KCAL/MOL
REMARK 927      BINDING AFFINITY PREDICTED BY RF-SCORE:    0.00 PKD
ROOT
HETATM    1  O   UNL     1      -8.836  10.572  69.492  1.00  0.00    -0.134 OA 
HETATM    2  C   UNL     1      -9.745   9.679  69.939  1.00  0.00    -0.231 C  
HETATM    3  C   UNL     1     -10.133   8.638  68.941  1.00  0.00    -0.213 A  
HETATM    4  O   UNL     1     -10.193   9.710  71.072  1.00  0.00    -0.288 OA 
HETATM    5  C   UNL     1     -10.711   7.468  69.471  1.00  0.00    -0.222 A  
HETATM    6  C   UNL     1     -11.160   6.449  68.634  1.00  0.00    -0.393 A  
HETATM    7  C   UNL     1     -11.073   6.602  67.258  1.00  0.00    -0.418 A  
HETATM    8  C   UNL     1     -10.502   7.756  66.719  1.00  0.00    -0.318 A  
HETATM    9  C   UNL     1      -9.979   8.771  67.542  1.00  0.00    -0.198 A  
ENDROOT
BRANCH   9  10
HETATM   10  N   UNL     1      -9.406   9.946  66.957  1.00  0.00    -0.145 NA 
HETATM   11  H   UNL     1      -8.454  10.192  67.228  1.00  0.00     0.000 HD 
BRANCH  10  12
HETATM   12  C   UNL     1     -10.067  10.799  66.023  1.00  0.00    -0.249 A  
HETATM   13  C   UNL     1     -10.812  11.914  66.440  1.00  0.00    -0.318 A  
HETATM   14  C   UNL     1     -11.414  12.782  65.512  1.00  0.00    -0.372 A  
HETATM   15  C   UNL     1     -12.204  13.987  65.961  1.00  0.00    -0.458 C  
HETATM   16  C   UNL     1     -11.275  12.510  64.145  1.00  0.00    -0.437 A  
HETATM   17  F   UNL     1     -11.652  15.159  65.543  1.00  0.00    -0.338 F  
HETATM   18  F   UNL     1     -13.477  13.981  65.477  1.00  0.00    -0.451 F  
HETATM   19  F   UNL     1     -12.322  14.092  67.314  1.00  0.00    -0.437 F  
HETATM   20  C   UNL     1     -10.604  11.365  63.721  1.00  0.00    -0.464 A  
HETATM   21  C   UNL     1     -10.025  10.501  64.656  1.00  0.00    -0.415 A  
ENDBRANCH  10  12
ENDBRANCH   9  10
TORSDOF 2
ENDMDL
MODEL       72
REMARK 921   NORMALIZED FREE ENERGY PREDICTED BY IDOCK:   -5.93 KCAL/MOL
REMARK 922        TOTAL FREE ENERGY PREDICTED BY IDOCK:   -7.03 KCAL/MOL
REMARK 923 INTER-LIGAND FREE ENERGY PREDICTED BY IDOCK:   -6.50 KCAL/MOL
REMARK 924 INTRA-LIGAND FREE ENERGY PREDICTED BY IDOCK:   -0.53 KCAL/MOL
REMARK 927      BINDING AFFINITY PREDICTED BY RF-SCORE:    0.00 PKD
ROOT
HETATM    1  O   UNL     1     -12.750  14.102  70.315  1.00  0.00    -0.333 OA 
HETATM    2  C   UNL     1     -11.739  14.944  70.621  1.00  0.00    -0.303 C  
HETATM    3  C   UNL     1     -11.239  15.753  69.469  1.00  0.00    -0.317 A  
HETATM    4  O   UNL     1     -11.291  15.047  71.748  1.00  0.00    -0.369 OA 
HETATM    5  C   UNL     1     -10.524  16.919  69.807  1.00  0.00    -0.078 A  
HETATM    6  C   UNL     1      -9.964  17.726  68.819  1.00  0.00    -0.367 A  
HETATM    7  C   UNL     1     -10.078  17.360  67.486  1.00  0.00    -0.322 A  
HETATM    8  C   UNL     1     -10.784  16.207  67.138  1.00  0.00    -0.262 A  
HETATM    9  C   UNL     1     -11.417  15.410  68.110  1.00  0.00    -0.343 A  
ENDROOT
BRANCH   9  10
HETATM   10  N   UNL     1     -12.128  14.230  67.719  1.00  0.00    -0.576 NA 
HETATM   11  H   UNL     1     -12.827  13.864  68.366  1.00  0.00     0.000 HD 
BRANCH  10  12
HETATM   12  C   UNL     1     -11.933  13.527  66.493  1.00  0.00    -0.413 A  
HETATM   13  C   UNL     1     -10.886  12.606  66.328  1.00  0.00    -0.300 A  
HETATM   14  C   UNL     1     -10.733  11.876  65.136  1.00  0.00    -0.339 A  
HETATM   15  C   UNL     1      -9.614  10.877  64.964  1.00  0.00    -0.251 C  
HETATM   16  C   UNL     1     -11.641  12.092  64.091  1.00  0.00    -0.460 A  
HETATM   17  F   UNL     1     -10.071   9.607  64.784  1.00  0.00    -0.316 F  
HETATM   18  F   UNL     1      -8.837  11.152  63.880  1.00  0.00    -0.155 F  
HETATM   19  F   UNL     1      -8.763  10.820  66.027  1.00  0.00    -0.157 F  
HETATM   20  C   UNL     1     -12.636  13.058  64.214  1.00  0.00    -0.326 A  
HETATM   21  C   UNL     1     -12.766  13.789  65.399  1.00  0.00    -0.513 A  
ENDBRANCH  10  12
ENDBRANCH   9  10
TORSDOF 2
ENDMDL
MODEL       73
REMARK 921   NORMALIZED FREE ENERGY PREDICTED BY IDOCK:   -5.93 KCAL/MOL
REMARK 922        TOTAL FREE ENERGY PREDICTED BY IDOCK:   -7.03 KCAL/MOL
REMARK 923 INTER-LIGAND FREE ENERGY PREDICTED BY IDOCK:   -6.40 KCAL/MOL
REMARK 924 INTRA-LIGAND FREE ENERGY PREDICTED BY IDOCK:   -0.62 KCAL/MOL
REMARK 927      BINDING AFFINITY PREDICTED BY RF-SCORE:    0.00 PKD
ROOT
HETATM    1  O   UNL     1     -13.132  10.815  71.520  1.00  0.00    -0.406 OA 
HETATM    2  C   UNL     1     -12.540   9.637  71.810  1.00  0.00    -0.409 C  
HETATM    3  C   UNL     1     -11.420   9.264  70.895  1.00  0.00    -0.367 A  
HETATM    4  O   UNL     1     -12.880   8.948  72.756  1.00  0.00    -0.347 OA 
HETATM    5  C   UNL     1     -10.514   8.310  71.395  1.00  0.00    -0.276 A  
HETATM    6  C   UNL     1      -9.459   7.846  70.613  1.00  0.00    -0.162 A  
HETATM    7  C   UNL     1      -9.318   8.299  69.310  1.00  0.00    -0.155 A  
HETATM    8  C   UNL     1     -10.210   9.246  68.801  1.00  0.00    -0.223 A  
HETATM    9  C   UNL     1     -11.244   9.782  69.592  1.00  0.00    -0.178 A  
ENDROOT
BRANCH   9  10
HETATM   10  N   UNL     1     -12.145  10.746  69.037  1.00  0.00    -0.701 NA 
HETATM   11  H   UNL     1     -13.131  10.491  68.978  1.00  0.00     0.000 HD 
BRANCH  10  12
HETATM   12  C   UNL     1     -11.770  12.037  68.560  1.00  0.00    -0.332 A  
HETATM   13  C   UNL     1     -11.454  13.086  69.440  1.00  0.00    -0.323 A  
HETATM   14  C   UNL     1     -11.031  14.340  68.964  1.00  0.00    -0.282 A  
HETATM   15  C   UNL     1     -10.681  15.462  69.910  1.00  0.00    -0.303 C  
HETATM   16  C   UNL     1     -10.942  14.541  67.580  1.00  0.00    -0.297 A  
HETATM   17  F   UNL     1      -9.377  15.840  69.811  1.00  0.00    -0.263 F  
HETATM   18  F   UNL     1     -11.414  16.586  69.674  1.00  0.00    -0.284 F  
HETATM   19  F   UNL     1     -10.882  15.156  71.222  1.00  0.00    -0.352 F  
HETATM   20  C   UNL     1     -11.326  13.534  66.697  1.00  0.00    -0.344 A  
HETATM   21  C   UNL     1     -11.761  12.299  67.185  1.00  0.00    -0.396 A  
ENDBRANCH  10  12
ENDBRANCH   9  10
TORSDOF 2
ENDMDL
MODEL       74
REMARK 921   NORMALIZED FREE ENERGY PREDICTED BY IDOCK:   -5.92 KCAL/MOL
REMARK 922        TOTAL FREE ENERGY PREDICTED BY IDOCK:   -7.02 KCAL/MOL
REMARK 923 INTER-LIGAND FREE ENERGY PREDICTED BY IDOCK:   -6.47 KCAL/MOL
REMARK 924 INTRA-LIGAND FREE ENERGY PREDICTED BY IDOCK:   -0.54 KCAL/MOL
REMARK 927      BINDING AFFINITY PREDICTED BY RF-SCORE:    0.00 PKD
ROOT
HETATM    1  O   UNL     1      -8.446   9.577  67.025  1.00  0.00    -0.126 OA 
HETATM    2  C   UNL     1      -8.580   8.800  68.122  1.00  0.00    -0.134 C  
HETATM    3  C   UNL     1      -9.694   9.203  69.032  1.00  0.00    -0.166 A  
HETATM    4  O   UNL     1      -7.864   7.839  68.336  1.00  0.00    -0.116 OA 
HETATM    5  C   UNL     1     -10.148   8.207  69.919  1.00  0.00    -0.195 A  
HETATM    6  C   UNL     1     -11.147   8.481  70.851  1.00  0.00    -0.295 A  
HETATM    7  C   UNL     1     -11.678   9.759  70.934  1.00  0.00    -0.429 A  
HETATM    8  C   UNL     1     -11.237  10.755  70.060  1.00  0.00    -0.366 A  
HETATM    9  C   UNL     1     -10.279  10.489  69.065  1.00  0.00    -0.216 A  
ENDROOT
BRANCH   9  10
HETATM   10  N   UNL     1      -9.844  11.535  68.189  1.00  0.00    -0.188 NA 
HETATM   11  H   UNL     1      -8.845  11.744  68.163  1.00  0.00     0.000 HD 
BRANCH  10  12
HETATM   12  C   UNL     1     -10.700  12.307  67.349  1.00  0.00    -0.230 A  
HETATM   13  C   UNL     1     -10.938  11.952  66.011  1.00  0.00    -0.355 A  
HETATM   14  C   UNL     1     -11.826  12.685  65.205  1.00  0.00    -0.452 A  
HETATM   15  C   UNL     1     -12.091  12.295  63.771  1.00  0.00    -0.532 C  
HETATM   16  C   UNL     1     -12.470  13.802  65.754  1.00  0.00    -0.527 A  
HETATM   17  F   UNL     1     -13.390  11.948  63.555  1.00  0.00    -0.526 F  
HETATM   18  F   UNL     1     -11.827  13.311  62.902  1.00  0.00    -0.486 F  
HETATM   19  F   UNL     1     -11.346  11.238  63.345  1.00  0.00    -0.457 F  
HETATM   20  C   UNL     1     -12.184  14.210  67.054  1.00  0.00    -0.374 A  
HETATM   21  C   UNL     1     -11.285  13.481  67.839  1.00  0.00    -0.302 A  
ENDBRANCH  10  12
ENDBRANCH   9  10
TORSDOF 2
ENDMDL
MODEL       75
REMARK 921   NORMALIZED FREE ENERGY PREDICTED BY IDOCK:   -5.92 KCAL/MOL
REMARK 922        TOTAL FREE ENERGY PREDICTED BY IDOCK:   -7.01 KCAL/MOL
REMARK 923 INTER-LIGAND FREE ENERGY PREDICTED BY IDOCK:   -6.71 KCAL/MOL
REMARK 924 INTRA-LIGAND FREE ENERGY PREDICTED BY IDOCK:   -0.30 KCAL/MOL
REMARK 927      BINDING AFFINITY PREDICTED BY RF-SCORE:    0.00 PKD
ROOT
HETATM    1  O   UNL     1     -12.190  14.534  66.628  1.00  0.00    -0.379 OA 
HETATM    2  C   UNL     1     -11.599  14.393  65.422  1.00  0.00    -0.347 C  
HETATM    3  C   UNL     1     -11.115  13.011  65.127  1.00  0.00    -0.317 A  
HETATM    4  O   UNL     1     -11.489  15.316  64.634  1.00  0.00    -0.406 OA 
HETATM    5  C   UNL     1     -10.904  12.715  63.766  1.00  0.00    -0.466 A  
HETATM    6  C   UNL     1     -10.405  11.476  63.372  1.00  0.00    -0.469 A  
HETATM    7  C   UNL     1     -10.075  10.531  64.333  1.00  0.00    -0.395 A  
HETATM    8  C   UNL     1     -10.279  10.811  65.685  1.00  0.00    -0.320 A  
HETATM    9  C   UNL     1     -10.845  12.029  66.107  1.00  0.00    -0.286 A  
ENDROOT
BRANCH   9  10
HETATM   10  N   UNL     1     -11.035  12.288  67.503  1.00  0.00    -0.242 NA 
HETATM   11  H   UNL     1     -11.413  13.198  67.767  1.00  0.00     0.000 HD 
BRANCH  10  12
HETATM   12  C   UNL     1     -10.736  11.369  68.552  1.00  0.00    -0.201 A  
HETATM   13  C   UNL     1     -11.741  10.837  69.377  1.00  0.00    -0.378 A  
HETATM   14  C   UNL     1     -11.447   9.889  70.373  1.00  0.00    -0.372 A  
HETATM   15  C   UNL     1     -12.530   9.309  71.250  1.00  0.00    -0.316 C  
HETATM   16  C   UNL     1     -10.117   9.486  70.549  1.00  0.00    -0.347 A  
HETATM   17  F   UNL     1     -12.668   7.964  71.088  1.00  0.00    -0.316 F  
HETATM   18  F   UNL     1     -12.280   9.502  72.575  1.00  0.00    -0.325 F  
HETATM   19  F   UNL     1     -13.763   9.841  71.022  1.00  0.00    -0.422 F  
HETATM   20  C   UNL     1      -9.101  10.064  69.790  1.00  0.00    -0.219 A  
HETATM   21  C   UNL     1      -9.407  11.017  68.815  1.00  0.00    -0.185 A  
ENDBRANCH  10  12
ENDBRANCH   9  10
TORSDOF 2
ENDMDL
MODEL       76
REMARK 921   NORMALIZED FREE ENERGY PREDICTED BY IDOCK:   -5.91 KCAL/MOL
REMARK 922        TOTAL FREE ENERGY PREDICTED BY IDOCK:   -7.01 KCAL/MOL
REMARK 923 INTER-LIGAND FREE ENERGY PREDICTED BY IDOCK:   -6.80 KCAL/MOL
REMARK 924 INTRA-LIGAND FREE ENERGY PREDICTED BY IDOCK:   -0.21 KCAL/MOL
REMARK 927      BINDING AFFINITY PREDICTED BY RF-SCORE:    0.00 PKD
ROOT
HETATM    1  O   UNL     1     -10.843  18.517  65.217  1.00  0.00    -0.606 OA 
HETATM    2  C   UNL     1     -10.460  18.785  66.483  1.00  0.00    -0.427 C  
HETATM    3  C   UNL     1      -9.385  17.890  67.007  1.00  0.00    -0.267 A  
HETATM    4  O   UNL     1     -10.939  19.697  67.135  1.00  0.00    -0.467 OA 
HETATM    5  C   UNL     1      -8.662  18.385  68.110  1.00  0.00    -0.318 A  
HETATM    6  C   UNL     1      -7.670  17.618  68.717  1.00  0.00    -0.246 A  
HETATM    7  C   UNL     1      -7.414  16.335  68.256  1.00  0.00    -0.157 A  
HETATM    8  C   UNL     1      -8.123  15.833  67.163  1.00  0.00    -0.244 A  
HETATM    9  C   UNL     1      -9.083  16.611  66.488  1.00  0.00    -0.272 A  
ENDROOT
BRANCH   9  10
HETATM   10  N   UNL     1      -9.797  16.063  65.375  1.00  0.00    -0.449 NA 
HETATM   11  H   UNL     1      -9.737  16.558  64.485  1.00  0.00     0.000 HD 
BRANCH  10  12
HETATM   12  C   UNL     1     -10.587  14.876  65.415  1.00  0.00    -0.373 A  
HETATM   13  C   UNL     1     -10.388  13.889  66.395  1.00  0.00    -0.289 A  
HETATM   14  C   UNL     1     -11.206  12.747  66.462  1.00  0.00    -0.349 A  
HETATM   15  C   UNL     1     -10.999  11.694  67.523  1.00  0.00    -0.259 C  
HETATM   16  C   UNL     1     -12.229  12.594  65.518  1.00  0.00    -0.501 A  
HETATM   17  F   UNL     1     -12.070  11.571  68.354  1.00  0.00    -0.372 F  
HETATM   18  F   UNL     1     -10.797  10.456  66.990  1.00  0.00    -0.303 F  
HETATM   19  F   UNL     1      -9.927  11.931  68.329  1.00  0.00    -0.177 F  
HETATM   20  C   UNL     1     -12.387  13.526  64.495  1.00  0.00    -0.406 A  
HETATM   21  C   UNL     1     -11.555  14.647  64.430  1.00  0.00    -0.315 A  
ENDBRANCH  10  12
ENDBRANCH   9  10
TORSDOF 2
ENDMDL
MODEL       77
REMARK 921   NORMALIZED FREE ENERGY PREDICTED BY IDOCK:   -5.91 KCAL/MOL
REMARK 922        TOTAL FREE ENERGY PREDICTED BY IDOCK:   -7.00 KCAL/MOL
REMARK 923 INTER-LIGAND FREE ENERGY PREDICTED BY IDOCK:   -6.38 KCAL/MOL
REMARK 924 INTRA-LIGAND FREE ENERGY PREDICTED BY IDOCK:   -0.63 KCAL/MOL
REMARK 927      BINDING AFFINITY PREDICTED BY RF-SCORE:    0.00 PKD
ROOT
HETATM    1  O   UNL     1      -8.849  12.860  68.182  1.00  0.00    -0.186 OA 
HETATM    2  C   UNL     1     -10.037  12.347  67.795  1.00  0.00    -0.203 C  
HETATM    3  C   UNL     1     -10.541  12.871  66.490  1.00  0.00    -0.272 A  
HETATM    4  O   UNL     1     -10.634  11.510  68.448  1.00  0.00    -0.185 OA 
HETATM    5  C   UNL     1     -11.509  12.077  65.846  1.00  0.00    -0.392 A  
HETATM    6  C   UNL     1     -12.091  12.488  64.649  1.00  0.00    -0.496 A  
HETATM    7  C   UNL     1     -11.742  13.713  64.100  1.00  0.00    -0.424 A  
HETATM    8  C   UNL     1     -10.783  14.511  64.728  1.00  0.00    -0.414 A  
HETATM    9  C   UNL     1     -10.130  14.089  65.902  1.00  0.00    -0.321 A  
ENDROOT
BRANCH   9  10
HETATM   10  N   UNL     1      -9.157  14.934  66.525  1.00  0.00    -0.319 NA 
HETATM   11  H   UNL     1      -8.185  14.625  66.509  1.00  0.00     0.000 HD 
BRANCH  10  12
HETATM   12  C   UNL     1      -9.443  16.177  67.165  1.00  0.00    -0.223 A  
HETATM   13  C   UNL     1      -9.021  17.402  66.622  1.00  0.00    -0.274 A  
HETATM   14  C   UNL     1      -9.354  18.626  67.228  1.00  0.00    -0.299 A  
HETATM   15  C   UNL     1      -8.911  19.942  66.637  1.00  0.00    -0.358 C  
HETATM   16  C   UNL     1     -10.109  18.611  68.408  1.00  0.00    -0.426 A  
HETATM   17  F   UNL     1      -9.959  20.722  66.255  1.00  0.00    -0.415 F  
HETATM   18  F   UNL     1      -8.191  20.689  67.520  1.00  0.00    -0.353 F  
HETATM   19  F   UNL     1      -8.123  19.809  65.533  1.00  0.00    -0.296 F  
HETATM   20  C   UNL     1     -10.467  17.401  68.998  1.00  0.00    -0.285 A  
HETATM   21  C   UNL     1     -10.114  16.191  68.393  1.00  0.00    -0.236 A  
ENDBRANCH  10  12
ENDBRANCH   9  10
TORSDOF 2
ENDMDL
MODEL       78
REMARK 921   NORMALIZED FREE ENERGY PREDICTED BY IDOCK:   -5.90 KCAL/MOL
REMARK 922        TOTAL FREE ENERGY PREDICTED BY IDOCK:   -6.99 KCAL/MOL
REMARK 923 INTER-LIGAND FREE ENERGY PREDICTED BY IDOCK:   -6.39 KCAL/MOL
REMARK 924 INTRA-LIGAND FREE ENERGY PREDICTED BY IDOCK:   -0.60 KCAL/MOL
REMARK 927      BINDING AFFINITY PREDICTED BY RF-SCORE:    0.00 PKD
ROOT
HETATM    1  O   UNL     1     -12.652  13.826  69.882  1.00  0.00    -0.253 OA 
HETATM    2  C   UNL     1     -12.185  15.055  70.189  1.00  0.00    -0.343 C  
HETATM    3  C   UNL     1     -10.987  15.476  69.403  1.00  0.00    -0.276 A  
HETATM    4  O   UNL     1     -12.714  15.768  71.023  1.00  0.00    -0.463 OA 
HETATM    5  C   UNL     1     -10.739  16.862  69.362  1.00  0.00    -0.258 A  
HETATM    6  C   UNL     1      -9.622  17.370  68.703  1.00  0.00    -0.295 A  
HETATM    7  C   UNL     1      -8.718  16.500  68.111  1.00  0.00    -0.194 A  
HETATM    8  C   UNL     1      -8.952  15.123  68.144  1.00  0.00    -0.174 A  
HETATM    9  C   UNL     1     -10.108  14.588  68.743  1.00  0.00    -0.239 A  
ENDROOT
BRANCH   9  10
HETATM   10  N   UNL     1     -10.313  13.171  68.766  1.00  0.00    -0.393 NA 
HETATM   11  H   UNL     1     -10.360  12.716  69.678  1.00  0.00     0.000 HD 
BRANCH  10  12
HETATM   12  C   UNL     1     -10.458  12.347  67.611  1.00  0.00    -0.216 A  
HETATM   13  C   UNL     1     -11.095  12.811  66.448  1.00  0.00    -0.320 A  
HETATM   14  C   UNL     1     -11.185  12.014  65.294  1.00  0.00    -0.374 A  
HETATM   15  C   UNL     1     -11.859  12.518  64.040  1.00  0.00    -0.431 C  
HETATM   16  C   UNL     1     -10.639  10.724  65.320  1.00  0.00    -0.230 A  
HETATM   17  F   UNL     1     -11.003  12.603  62.985  1.00  0.00    -0.434 F  
HETATM   18  F   UNL     1     -12.872  11.703  63.634  1.00  0.00    -0.566 F  
HETATM   19  F   UNL     1     -12.409  13.757  64.175  1.00  0.00    -0.439 F  
HETATM   20  C   UNL     1     -10.074  10.224  66.491  1.00  0.00    -0.290 A  
HETATM   21  C   UNL     1     -10.007  11.022  67.637  1.00  0.00    -0.196 A  
ENDBRANCH  10  12
ENDBRANCH   9  10
TORSDOF 2
ENDMDL
MODEL       79
REMARK 921   NORMALIZED FREE ENERGY PREDICTED BY IDOCK:   -5.88 KCAL/MOL
REMARK 922        TOTAL FREE ENERGY PREDICTED BY IDOCK:   -6.97 KCAL/MOL
REMARK 923 INTER-LIGAND FREE ENERGY PREDICTED BY IDOCK:   -6.39 KCAL/MOL
REMARK 924 INTRA-LIGAND FREE ENERGY PREDICTED BY IDOCK:   -0.59 KCAL/MOL
REMARK 927      BINDING AFFINITY PREDICTED BY RF-SCORE:    0.00 PKD
ROOT
HETATM    1  O   UNL     1     -11.507  11.145  66.591  1.00  0.00    -0.338 OA 
HETATM    2  C   UNL     1     -11.865  12.442  66.479  1.00  0.00    -0.339 C  
HETATM    3  C   UNL     1     -11.773  13.222  67.749  1.00  0.00    -0.398 A  
HETATM    4  O   UNL     1     -12.213  12.937  65.421  1.00  0.00    -0.430 OA 
HETATM    5  C   UNL     1     -11.705  14.621  67.604  1.00  0.00    -0.389 A  
HETATM    6  C   UNL     1     -11.669  15.455  68.719  1.00  0.00    -0.369 A  
HETATM    7  C   UNL     1     -11.739  14.906  69.991  1.00  0.00    -0.338 A  
HETATM    8  C   UNL     1     -11.806  13.520  70.149  1.00  0.00    -0.348 A  
HETATM    9  C   UNL     1     -11.775  12.651  69.042  1.00  0.00    -0.318 A  
ENDROOT
BRANCH   9  10
HETATM   10  N   UNL     1     -11.854  11.235  69.239  1.00  0.00    -0.329 NA 
HETATM   11  H   UNL     1     -12.663  10.749  68.853  1.00  0.00     0.000 HD 
BRANCH  10  12
HETATM   12  C   UNL     1     -10.885  10.452  69.935  1.00  0.00    -0.298 A  
HETATM   13  C   UNL     1     -11.248   9.585  70.979  1.00  0.00    -0.432 A  
HETATM   14  C   UNL     1     -10.296   8.775  71.623  1.00  0.00    -0.391 A  
HETATM   15  C   UNL     1     -10.690   7.834  72.736  1.00  0.00    -0.356 C  
HETATM   16  C   UNL     1      -8.957   8.854  71.218  1.00  0.00    -0.312 A  
HETATM   17  F   UNL     1     -10.461   6.529  72.422  1.00  0.00    -0.201 F  
HETATM   18  F   UNL     1      -9.993   8.070  73.882  1.00  0.00    -0.259 F  
HETATM   19  F   UNL     1     -12.006   7.910  73.078  1.00  0.00    -0.344 F  
HETATM   20  C   UNL     1      -8.573   9.766  70.238  1.00  0.00    -0.169 A  
HETATM   21  C   UNL     1      -9.527  10.578  69.618  1.00  0.00    -0.029 A  
ENDBRANCH  10  12
ENDBRANCH   9  10
TORSDOF 2
ENDMDL
MODEL       80
REMARK 921   NORMALIZED FREE ENERGY PREDICTED BY IDOCK:   -5.88 KCAL/MOL
REMARK 922        TOTAL FREE ENERGY PREDICTED BY IDOCK:   -6.96 KCAL/MOL
REMARK 923 INTER-LIGAND FREE ENERGY PREDICTED BY IDOCK:   -6.63 KCAL/MOL
REMARK 924 INTRA-LIGAND FREE ENERGY PREDICTED BY IDOCK:   -0.34 KCAL/MOL
REMARK 927      BINDING AFFINITY PREDICTED BY RF-SCORE:    0.00 PKD
ROOT
HETATM    1  O   UNL     1     -10.565   9.528  71.320  1.00  0.00    -0.332 OA 
HETATM    2  C   UNL     1     -11.236   8.413  70.957  1.00  0.00    -0.266 C  
HETATM    3  C   UNL     1     -10.899   7.906  69.593  1.00  0.00    -0.177 A  
HETATM    4  O   UNL     1     -12.032   7.859  71.693  1.00  0.00    -0.273 OA 
HETATM    5  C   UNL     1     -11.218   6.556  69.348  1.00  0.00    -0.418 A  
HETATM    6  C   UNL     1     -10.998   5.985  68.097  1.00  0.00    -0.340 A  
HETATM    7  C   UNL     1     -10.495   6.763  67.064  1.00  0.00    -0.369 A  
HETATM    8  C   UNL     1     -10.175   8.102  67.294  1.00  0.00    -0.348 A  
HETATM    9  C   UNL     1     -10.323   8.687  68.566  1.00  0.00    -0.196 A  
ENDROOT
BRANCH   9  10
HETATM   10  N   UNL     1      -9.992  10.065  68.765  1.00  0.00    -0.165 NA 
HETATM   11  H   UNL     1      -9.239  10.280  69.419  1.00  0.00     0.000 HD 
BRANCH  10  12
HETATM   12  C   UNL     1     -10.635  11.162  68.118  1.00  0.00    -0.193 A  
HETATM   13  C   UNL     1     -10.794  11.207  66.723  1.00  0.00    -0.322 A  
HETATM   14  C   UNL     1     -11.478  12.263  66.097  1.00  0.00    -0.429 A  
HETATM   15  C   UNL     1     -11.659  12.303  64.599  1.00  0.00    -0.344 C  
HETATM   16  C   UNL     1     -11.993  13.298  66.889  1.00  0.00    -0.430 A  
HETATM   17  F   UNL     1     -12.969  12.253  64.230  1.00  0.00    -0.542 F  
HETATM   18  F   UNL     1     -11.161  13.445  64.048  1.00  0.00    -0.375 F  
HETATM   19  F   UNL     1     -11.047  11.277  63.945  1.00  0.00    -0.427 F  
HETATM   20  C   UNL     1     -11.774  13.304  68.265  1.00  0.00    -0.388 A  
HETATM   21  C   UNL     1     -11.078  12.255  68.872  1.00  0.00    -0.291 A  
ENDBRANCH  10  12
ENDBRANCH   9  10
TORSDOF 2
ENDMDL
MODEL       81
REMARK 921   NORMALIZED FREE ENERGY PREDICTED BY IDOCK:   -5.86 KCAL/MOL
REMARK 922        TOTAL FREE ENERGY PREDICTED BY IDOCK:   -6.94 KCAL/MOL
REMARK 923 INTER-LIGAND FREE ENERGY PREDICTED BY IDOCK:   -6.86 KCAL/MOL
REMARK 924 INTRA-LIGAND FREE ENERGY PREDICTED BY IDOCK:   -0.08 KCAL/MOL
REMARK 927      BINDING AFFINITY PREDICTED BY RF-SCORE:    0.00 PKD
ROOT
HETATM    1  O   UNL     1     -10.329   8.349  68.447  1.00  0.00    -0.206 OA 
HETATM    2  C   UNL     1      -9.997   8.580  67.159  1.00  0.00    -0.238 C  
HETATM    3  C   UNL     1     -10.313   9.958  66.675  1.00  0.00    -0.275 A  
HETATM    4  O   UNL     1      -9.463   7.739  66.458  1.00  0.00    -0.189 OA 
HETATM    5  C   UNL     1      -9.611  10.380  65.530  1.00  0.00    -0.290 A  
HETATM    6  C   UNL     1      -9.858  11.625  64.956  1.00  0.00    -0.280 A  
HETATM    7  C   UNL     1     -10.836  12.447  65.496  1.00  0.00    -0.316 A  
HETATM    8  C   UNL     1     -11.540  12.042  66.631  1.00  0.00    -0.389 A  
HETATM    9  C   UNL     1     -11.262  10.819  67.271  1.00  0.00    -0.197 A  
ENDROOT
BRANCH   9  10
HETATM   10  N   UNL     1     -12.007  10.430  68.430  1.00  0.00    -0.749 NA 
HETATM   11  H   UNL     1     -12.372   9.477  68.459  1.00  0.00     0.000 HD 
BRANCH  10  12
HETATM   12  C   UNL     1     -12.279  11.273  69.548  1.00  0.00    -0.256 A  
HETATM   13  C   UNL     1     -11.940  12.636  69.545  1.00  0.00    -0.332 A  
HETATM   14  C   UNL     1     -12.260  13.473  70.628  1.00  0.00    -0.434 A  
HETATM   15  C   UNL     1     -11.906  14.941  70.618  1.00  0.00    -0.301 C  
HETATM   16  C   UNL     1     -12.917  12.922  71.737  1.00  0.00    -0.416 A  
HETATM   17  F   UNL     1     -13.005  15.743  70.663  1.00  0.00    -0.490 F  
HETATM   18  F   UNL     1     -11.141  15.296  71.688  1.00  0.00    -0.414 F  
HETATM   19  F   UNL     1     -11.207  15.328  69.515  1.00  0.00    -0.226 F  
HETATM   20  C   UNL     1     -13.188  11.557  71.785  1.00  0.00    -0.456 A  
HETATM   21  C   UNL     1     -12.849  10.733  70.707  1.00  0.00    -0.408 A  
ENDBRANCH  10  12
ENDBRANCH   9  10
TORSDOF 2
ENDMDL
MODEL       82
REMARK 921   NORMALIZED FREE ENERGY PREDICTED BY IDOCK:   -5.85 KCAL/MOL
REMARK 922        TOTAL FREE ENERGY PREDICTED BY IDOCK:   -6.94 KCAL/MOL
REMARK 923 INTER-LIGAND FREE ENERGY PREDICTED BY IDOCK:   -6.28 KCAL/MOL
REMARK 924 INTRA-LIGAND FREE ENERGY PREDICTED BY IDOCK:   -0.66 KCAL/MOL
REMARK 927      BINDING AFFINITY PREDICTED BY RF-SCORE:    0.00 PKD
ROOT
HETATM    1  O   UNL     1     -10.768  10.630  68.380  1.00  0.00    -0.193 OA 
HETATM    2  C   UNL     1     -11.278  11.863  68.581  1.00  0.00    -0.257 C  
HETATM    3  C   UNL     1     -11.971  12.040  69.893  1.00  0.00    -0.391 A  
HETATM    4  O   UNL     1     -11.162  12.762  67.767  1.00  0.00    -0.247 OA 
HETATM    5  C   UNL     1     -12.123  13.371  70.329  1.00  0.00    -0.419 A  
HETATM    6  C   UNL     1     -12.798  13.663  71.511  1.00  0.00    -0.445 A  
HETATM    7  C   UNL     1     -13.364  12.636  72.253  1.00  0.00    -0.527 A  
HETATM    8  C   UNL     1     -13.220  11.313  71.832  1.00  0.00    -0.491 A  
HETATM    9  C   UNL     1     -12.485  10.983  70.678  1.00  0.00    -0.373 A  
ENDROOT
BRANCH   9  10
HETATM   10  N   UNL     1     -12.363   9.616  70.270  1.00  0.00    -0.469 NA 
HETATM   11  H   UNL     1     -12.706   9.368  69.342  1.00  0.00     0.000 HD 
BRANCH  10  12
HETATM   12  C   UNL     1     -11.798   8.573  71.063  1.00  0.00    -0.257 A  
HETATM   13  C   UNL     1     -10.486   8.650  71.559  1.00  0.00    -0.344 A  
HETATM   14  C   UNL     1      -9.955   7.645  72.386  1.00  0.00    -0.256 A  
HETATM   15  C   UNL     1      -8.549   7.735  72.928  1.00  0.00    -0.158 C  
HETATM   16  C   UNL     1     -10.755   6.539  72.703  1.00  0.00    -0.260 A  
HETATM   17  F   UNL     1      -8.517   7.804  74.287  1.00  0.00    -0.221 F  
HETATM   18  F   UNL     1      -7.795   6.652  72.591  1.00  0.00    -0.099 F  
HETATM   19  F   UNL     1      -7.859   8.822  72.483  1.00  0.00    -0.150 F  
HETATM   20  C   UNL     1     -12.029   6.414  72.155  1.00  0.00    -0.346 A  
HETATM   21  C   UNL     1     -12.538   7.413  71.320  1.00  0.00    -0.376 A  
ENDBRANCH  10  12
ENDBRANCH   9  10
TORSDOF 2
ENDMDL
MODEL       83
REMARK 921   NORMALIZED FREE ENERGY PREDICTED BY IDOCK:   -5.85 KCAL/MOL
REMARK 922        TOTAL FREE ENERGY PREDICTED BY IDOCK:   -6.94 KCAL/MOL
REMARK 923 INTER-LIGAND FREE ENERGY PREDICTED BY IDOCK:   -6.46 KCAL/MOL
REMARK 924 INTRA-LIGAND FREE ENERGY PREDICTED BY IDOCK:   -0.48 KCAL/MOL
REMARK 927      BINDING AFFINITY PREDICTED BY RF-SCORE:    0.00 PKD
ROOT
HETATM    1  O   UNL     1     -12.693  13.237  70.259  1.00  0.00    -0.133 OA 
HETATM    2  C   UNL     1     -12.404  11.990  70.688  1.00  0.00    -0.304 C  
HETATM    3  C   UNL     1     -11.639  11.160  69.710  1.00  0.00    -0.409 A  
HETATM    4  O   UNL     1     -12.723  11.587  71.792  1.00  0.00    -0.332 OA 
HETATM    5  C   UNL     1     -10.950  10.057  70.251  1.00  0.00    -0.377 A  
HETATM    6  C   UNL     1     -10.245   9.181  69.429  1.00  0.00    -0.212 A  
HETATM    7  C   UNL     1     -10.250   9.372  68.055  1.00  0.00    -0.248 A  
HETATM    8  C   UNL     1     -10.929  10.461  67.506  1.00  0.00    -0.358 A  
HETATM    9  C   UNL     1     -11.592  11.400  68.318  1.00  0.00    -0.306 A  
ENDROOT
BRANCH   9  10
HETATM   10  N   UNL     1     -12.285  12.503  67.721  1.00  0.00    -0.301 NA 
HETATM   11  H   UNL     1     -13.300  12.530  67.818  1.00  0.00     0.000 HD 
BRANCH  10  12
HETATM   12  C   UNL     1     -11.663  13.566  67.002  1.00  0.00    -0.383 A  
HETATM   13  C   UNL     1     -11.323  14.779  67.624  1.00  0.00    -0.352 A  
HETATM   14  C   UNL     1     -10.660  15.802  66.924  1.00  0.00    -0.317 A  
HETATM   15  C   UNL     1     -10.285  17.100  67.597  1.00  0.00    -0.329 C  
HETATM   16  C   UNL     1     -10.351  15.603  65.571  1.00  0.00    -0.421 A  
HETATM   17  F   UNL     1      -8.938  17.299  67.631  1.00  0.00    -0.217 F  
HETATM   18  F   UNL     1     -10.806  18.183  66.957  1.00  0.00    -0.373 F  
HETATM   19  F   UNL     1     -10.708  17.189  68.888  1.00  0.00    -0.309 F  
HETATM   20  C   UNL     1     -10.752  14.437  64.924  1.00  0.00    -0.444 A  
HETATM   21  C   UNL     1     -11.426  13.435  65.629  1.00  0.00    -0.335 A  
ENDBRANCH  10  12
ENDBRANCH   9  10
TORSDOF 2
ENDMDL
MODEL       84
REMARK 921   NORMALIZED FREE ENERGY PREDICTED BY IDOCK:   -5.85 KCAL/MOL
REMARK 922        TOTAL FREE ENERGY PREDICTED BY IDOCK:   -6.93 KCAL/MOL
REMARK 923 INTER-LIGAND FREE ENERGY PREDICTED BY IDOCK:   -6.41 KCAL/MOL
REMARK 924 INTRA-LIGAND FREE ENERGY PREDICTED BY IDOCK:   -0.52 KCAL/MOL
REMARK 927      BINDING AFFINITY PREDICTED BY RF-SCORE:    0.00 PKD
ROOT
HETATM    1  O   UNL     1      -9.253   8.648  69.537  1.00  0.00    -0.148 OA 
HETATM    2  C   UNL     1      -9.917   8.339  70.671  1.00  0.00    -0.183 C  
HETATM    3  C   UNL     1     -11.076   9.231  70.973  1.00  0.00    -0.396 A  
HETATM    4  O   UNL     1      -9.605   7.396  71.376  1.00  0.00    -0.160 OA 
HETATM    5  C   UNL     1     -12.035   8.708  71.862  1.00  0.00    -0.424 A  
HETATM    6  C   UNL     1     -13.133   9.468  72.259  1.00  0.00    -0.492 A  
HETATM    7  C   UNL     1     -13.267  10.771  71.804  1.00  0.00    -0.523 A  
HETATM    8  C   UNL     1     -12.324  11.303  70.922  1.00  0.00    -0.490 A  
HETATM    9  C   UNL     1     -11.242  10.534  70.452  1.00  0.00    -0.298 A  
ENDROOT
BRANCH   9  10
HETATM   10  N   UNL     1     -10.289  11.112  69.553  1.00  0.00    -0.441 NA 
HETATM   11  H   UNL     1      -9.304  10.896  69.707  1.00  0.00     0.000 HD 
BRANCH  10  12
HETATM   12  C   UNL     1     -10.612  11.967  68.458  1.00  0.00    -0.231 A  
HETATM   13  C   UNL     1     -10.144  13.290  68.390  1.00  0.00    -0.237 A  
HETATM   14  C   UNL     1     -10.421  14.109  67.281  1.00  0.00    -0.272 A  
HETATM   15  C   UNL     1      -9.907  15.526  67.204  1.00  0.00    -0.235 C  
HETATM   16  C   UNL     1     -11.194  13.590  66.234  1.00  0.00    -0.310 A  
HETATM   17  F   UNL     1      -9.050  15.715  66.163  1.00  0.00    -0.286 F  
HETATM   18  F   UNL     1     -10.910  16.431  67.030  1.00  0.00    -0.320 F  
HETATM   19  F   UNL     1      -9.233  15.926  68.318  1.00  0.00    -0.182 F  
HETATM   20  C   UNL     1     -11.728  12.307  66.325  1.00  0.00    -0.431 A  
HETATM   21  C   UNL     1     -11.459  11.510  67.441  1.00  0.00    -0.349 A  
ENDBRANCH  10  12
ENDBRANCH   9  10
TORSDOF 2
ENDMDL
MODEL       85
REMARK 921   NORMALIZED FREE ENERGY PREDICTED BY IDOCK:   -5.82 KCAL/MOL
REMARK 922        TOTAL FREE ENERGY PREDICTED BY IDOCK:   -6.90 KCAL/MOL
REMARK 923 INTER-LIGAND FREE ENERGY PREDICTED BY IDOCK:   -6.41 KCAL/MOL
REMARK 924 INTRA-LIGAND FREE ENERGY PREDICTED BY IDOCK:   -0.49 KCAL/MOL
REMARK 927      BINDING AFFINITY PREDICTED BY RF-SCORE:    0.00 PKD
ROOT
HETATM    1  O   UNL     1     -11.954  12.985  69.305  1.00  0.00    -0.307 OA 
HETATM    2  C   UNL     1     -11.533  12.988  68.022  1.00  0.00    -0.309 C  
HETATM    3  C   UNL     1     -10.994  11.680  67.544  1.00  0.00    -0.312 A  
HETATM    4  O   UNL     1     -11.609  13.974  67.310  1.00  0.00    -0.328 OA 
HETATM    5  C   UNL     1     -10.959  11.507  66.147  1.00  0.00    -0.320 A  
HETATM    6  C   UNL     1     -10.429  10.349  65.582  1.00  0.00    -0.185 A  
HETATM    7  C   UNL     1      -9.893   9.367  66.402  1.00  0.00    -0.337 A  
HETATM    8  C   UNL     1      -9.922   9.526  67.789  1.00  0.00    -0.216 A  
HETATM    9  C   UNL     1     -10.512  10.654  68.389  1.00  0.00    -0.188 A  
ENDROOT
BRANCH   9  10
HETATM   10  N   UNL     1     -10.518  10.789  69.814  1.00  0.00    -0.436 NA 
HETATM   11  H   UNL     1      -9.970  11.548  70.219  1.00  0.00     0.000 HD 
BRANCH  10  12
HETATM   12  C   UNL     1     -11.234   9.942  70.712  1.00  0.00    -0.353 A  
HETATM   13  C   UNL     1     -10.615   8.861  71.360  1.00  0.00    -0.374 A  
HETATM   14  C   UNL     1     -11.311   8.064  72.286  1.00  0.00    -0.413 A  
HETATM   15  C   UNL     1     -10.641   6.910  72.991  1.00  0.00    -0.278 C  
HETATM   16  C   UNL     1     -12.657   8.355  72.548  1.00  0.00    -0.311 A  
HETATM   17  F   UNL     1     -10.585   7.083  74.340  1.00  0.00    -0.355 F  
HETATM   18  F   UNL     1     -11.296   5.732  72.792  1.00  0.00    -0.287 F  
HETATM   19  F   UNL     1      -9.357   6.694  72.589  1.00  0.00    -0.141 F  
HETATM   20  C   UNL     1     -13.303   9.375  71.855  1.00  0.00    -0.508 A  
HETATM   21  C   UNL     1     -12.602  10.148  70.925  1.00  0.00    -0.454 A  
ENDBRANCH  10  12
ENDBRANCH   9  10
TORSDOF 2
ENDMDL
MODEL       86
REMARK 921   NORMALIZED FREE ENERGY PREDICTED BY IDOCK:   -5.78 KCAL/MOL
REMARK 922        TOTAL FREE ENERGY PREDICTED BY IDOCK:   -6.86 KCAL/MOL
REMARK 923 INTER-LIGAND FREE ENERGY PREDICTED BY IDOCK:   -6.53 KCAL/MOL
REMARK 924 INTRA-LIGAND FREE ENERGY PREDICTED BY IDOCK:   -0.33 KCAL/MOL
REMARK 927      BINDING AFFINITY PREDICTED BY RF-SCORE:    0.00 PKD
ROOT
HETATM    1  O   UNL     1      -8.725  10.080  66.600  1.00  0.00    -0.128 OA 
HETATM    2  C   UNL     1      -9.803  10.640  66.012  1.00  0.00    -0.228 C  
HETATM    3  C   UNL     1     -10.493  11.674  66.840  1.00  0.00    -0.262 A  
HETATM    4  O   UNL     1     -10.167  10.339  64.889  1.00  0.00    -0.327 OA 
HETATM    5  C   UNL     1     -11.317  12.572  66.134  1.00  0.00    -0.388 A  
HETATM    6  C   UNL     1     -12.051  13.547  66.805  1.00  0.00    -0.425 A  
HETATM    7  C   UNL     1     -12.004  13.613  68.190  1.00  0.00    -0.390 A  
HETATM    8  C   UNL     1     -11.191  12.728  68.902  1.00  0.00    -0.332 A  
HETATM    9  C   UNL     1     -10.386  11.778  68.245  1.00  0.00    -0.206 A  
ENDROOT
BRANCH   9  10
HETATM   10  N   UNL     1      -9.569  10.881  69.006  1.00  0.00    -0.318 NA 
HETATM   11  H   UNL     1      -8.573  10.852  68.790  1.00  0.00     0.000 HD 
BRANCH  10  12
HETATM   12  C   UNL     1     -10.044  10.025  70.044  1.00  0.00    -0.239 A  
HETATM   13  C   UNL     1     -11.415   9.882  70.315  1.00  0.00    -0.349 A  
HETATM   14  C   UNL     1     -11.878   8.995  71.302  1.00  0.00    -0.379 A  
HETATM   15  C   UNL     1     -13.352   8.834  71.584  1.00  0.00    -0.359 C  
HETATM   16  C   UNL     1     -10.943   8.254  72.036  1.00  0.00    -0.374 A  
HETATM   17  F   UNL     1     -13.798   7.573  71.328  1.00  0.00    -0.408 F  
HETATM   18  F   UNL     1     -13.659   9.080  72.888  1.00  0.00    -0.476 F  
HETATM   19  F   UNL     1     -14.144   9.665  70.852  1.00  0.00    -0.330 F  
HETATM   20  C   UNL     1      -9.579   8.443  71.830  1.00  0.00    -0.324 A  
HETATM   21  C   UNL     1      -9.132   9.342  70.857  1.00  0.00    -0.288 A  
ENDBRANCH  10  12
ENDBRANCH   9  10
TORSDOF 2
ENDMDL
MODEL       87
REMARK 921   NORMALIZED FREE ENERGY PREDICTED BY IDOCK:   -5.77 KCAL/MOL
REMARK 922        TOTAL FREE ENERGY PREDICTED BY IDOCK:   -6.85 KCAL/MOL
REMARK 923 INTER-LIGAND FREE ENERGY PREDICTED BY IDOCK:   -6.87 KCAL/MOL
REMARK 924 INTRA-LIGAND FREE ENERGY PREDICTED BY IDOCK:    0.02 KCAL/MOL
REMARK 927      BINDING AFFINITY PREDICTED BY RF-SCORE:    0.00 PKD
ROOT
HETATM    1  O   UNL     1     -13.068  13.352  65.338  1.00  0.00    -0.618 OA 
HETATM    2  C   UNL     1     -12.335  13.109  64.231  1.00  0.00    -0.351 C  
HETATM    3  C   UNL     1     -11.275  12.071  64.406  1.00  0.00    -0.406 A  
HETATM    4  O   UNL     1     -12.539  13.676  63.172  1.00  0.00    -0.792 OA 
HETATM    5  C   UNL     1     -10.797  11.480  63.220  1.00  0.00    -0.342 A  
HETATM    6  C   UNL     1      -9.773  10.537  63.253  1.00  0.00    -0.361 A  
HETATM    7  C   UNL     1      -9.186  10.202  64.465  1.00  0.00    -0.305 A  
HETATM    8  C   UNL     1      -9.649  10.781  65.647  1.00  0.00    -0.263 A  
HETATM    9  C   UNL     1     -10.729  11.685  65.650  1.00  0.00    -0.278 A  
ENDROOT
BRANCH   9  10
HETATM   10  N   UNL     1     -11.175  12.266  66.881  1.00  0.00    -0.293 NA 
HETATM   11  H   UNL     1     -11.423  13.255  66.872  1.00  0.00     0.000 HD 
BRANCH  10  12
HETATM   12  C   UNL     1     -11.300  11.566  68.117  1.00  0.00    -0.298 A  
HETATM   13  C   UNL     1     -10.829  10.252  68.273  1.00  0.00    -0.300 A  
HETATM   14  C   UNL     1     -10.905   9.588  69.510  1.00  0.00    -0.243 A  
HETATM   15  C   UNL     1     -10.387   8.180  69.679  1.00  0.00    -0.221 C  
HETATM   16  C   UNL     1     -11.479  10.255  70.600  1.00  0.00    -0.435 A  
HETATM   17  F   UNL     1      -9.359   8.105  70.569  1.00  0.00    -0.150 F  
HETATM   18  F   UNL     1     -11.344   7.329  70.142  1.00  0.00    -0.280 F  
HETATM   19  F   UNL     1      -9.922   7.625  68.525  1.00  0.00    -0.161 F  
HETATM   20  C   UNL     1     -12.020  11.528  70.439  1.00  0.00    -0.459 A  
HETATM   21  C   UNL     1     -11.953  12.170  69.198  1.00  0.00    -0.311 A  
ENDBRANCH  10  12
ENDBRANCH   9  10
TORSDOF 2
ENDMDL
MODEL       88
REMARK 921   NORMALIZED FREE ENERGY PREDICTED BY IDOCK:   -5.67 KCAL/MOL
REMARK 922        TOTAL FREE ENERGY PREDICTED BY IDOCK:   -6.74 KCAL/MOL
REMARK 923 INTER-LIGAND FREE ENERGY PREDICTED BY IDOCK:   -6.42 KCAL/MOL
REMARK 924 INTRA-LIGAND FREE ENERGY PREDICTED BY IDOCK:   -0.32 KCAL/MOL
REMARK 927      BINDING AFFINITY PREDICTED BY RF-SCORE:    0.00 PKD
ROOT
HETATM    1  O   UNL     1     -12.417  14.109  69.746  1.00  0.00    -0.332 OA 
HETATM    2  C   UNL     1     -11.493  15.091  69.676  1.00  0.00    -0.294 C  
HETATM    3  C   UNL     1     -11.185  15.553  68.290  1.00  0.00    -0.343 A  
HETATM    4  O   UNL     1     -10.973  15.573  70.667  1.00  0.00    -0.317 OA 
HETATM    5  C   UNL     1     -10.589  16.826  68.188  1.00  0.00    -0.350 A  
HETATM    6  C   UNL     1     -10.209  17.341  66.952  1.00  0.00    -0.322 A  
HETATM    7  C   UNL     1     -10.383  16.578  65.806  1.00  0.00    -0.359 A  
HETATM    8  C   UNL     1     -10.972  15.316  65.892  1.00  0.00    -0.325 A  
HETATM    9  C   UNL     1     -11.428  14.799  67.120  1.00  0.00    -0.364 A  
ENDROOT
BRANCH   9  10
HETATM   10  N   UNL     1     -12.021  13.497  67.175  1.00  0.00    -0.389 NA 
HETATM   11  H   UNL     1     -12.987  13.431  67.498  1.00  0.00     0.000 HD 
BRANCH  10  12
HETATM   12  C   UNL     1     -11.365  12.284  66.810  1.00  0.00    -0.339 A  
HETATM   13  C   UNL     1     -10.715  12.138  65.574  1.00  0.00    -0.321 A  
HETATM   14  C   UNL     1     -10.023  10.959  65.244  1.00  0.00    -0.330 A  
HETATM   15  C   UNL     1      -9.314  10.809  63.920  1.00  0.00    -0.253 C  
HETATM   16  C   UNL     1     -10.002   9.907  66.169  1.00  0.00    -0.331 A  
HETATM   17  F   UNL     1      -7.969  10.648  64.063  1.00  0.00    -0.138 F  
HETATM   18  F   UNL     1      -9.747   9.723  63.222  1.00  0.00    -0.267 F  
HETATM   19  F   UNL     1      -9.475  11.875  63.088  1.00  0.00    -0.350 F  
HETATM   20  C   UNL     1     -10.708  10.010  67.365  1.00  0.00    -0.336 A  
HETATM   21  C   UNL     1     -11.406  11.182  67.673  1.00  0.00    -0.356 A  
ENDBRANCH  10  12
ENDBRANCH   9  10
TORSDOF 2
ENDMDL
MODEL       89
REMARK 921   NORMALIZED FREE ENERGY PREDICTED BY IDOCK:   -5.67 KCAL/MOL
REMARK 922        TOTAL FREE ENERGY PREDICTED BY IDOCK:   -6.74 KCAL/MOL
REMARK 923 INTER-LIGAND FREE ENERGY PREDICTED BY IDOCK:   -6.30 KCAL/MOL
REMARK 924 INTRA-LIGAND FREE ENERGY PREDICTED BY IDOCK:   -0.44 KCAL/MOL
REMARK 927      BINDING AFFINITY PREDICTED BY RF-SCORE:    0.00 PKD
ROOT
HETATM    1  O   UNL     1     -11.662  11.993  63.682  1.00  0.00    -0.435 OA 
HETATM    2  C   UNL     1     -10.697  11.157  64.120  1.00  0.00    -0.345 C  
HETATM    3  C   UNL     1     -10.700  10.925  65.595  1.00  0.00    -0.178 A  
HETATM    4  O   UNL     1      -9.903  10.621  63.366  1.00  0.00    -0.315 OA 
HETATM    5  C   UNL     1     -10.031   9.766  66.033  1.00  0.00    -0.342 A  
HETATM    6  C   UNL     1      -9.923   9.471  67.390  1.00  0.00    -0.241 A  
HETATM    7  C   UNL     1     -10.447  10.349  68.328  1.00  0.00    -0.221 A  
HETATM    8  C   UNL     1     -11.113  11.502  67.907  1.00  0.00    -0.317 A  
HETATM    9  C   UNL     1     -11.296  11.789  66.541  1.00  0.00    -0.305 A  
ENDROOT
BRANCH   9  10
HETATM   10  N   UNL     1     -11.977  12.985  66.144  1.00  0.00    -0.414 NA 
HETATM   11  H   UNL     1     -12.924  12.888  65.777  1.00  0.00     0.000 HD 
BRANCH  10  12
HETATM   12  C   UNL     1     -11.432  14.301  66.223  1.00  0.00    -0.357 A  
HETATM   13  C   UNL     1     -11.061  14.874  67.451  1.00  0.00    -0.325 A  
HETATM   14  C   UNL     1     -10.473  16.149  67.516  1.00  0.00    -0.302 A  
HETATM   15  C   UNL     1     -10.063  16.759  68.835  1.00  0.00    -0.285 C  
HETATM   16  C   UNL     1     -10.273  16.862  66.327  1.00  0.00    -0.337 A  
HETATM   17  F   UNL     1      -8.721  16.978  68.914  1.00  0.00    -0.256 F  
HETATM   18  F   UNL     1     -10.651  17.968  69.051  1.00  0.00    -0.319 F  
HETATM   19  F   UNL     1     -10.380  15.992  69.915  1.00  0.00    -0.255 F  
HETATM   20  C   UNL     1     -10.709  16.338  65.112  1.00  0.00    -0.350 A  
HETATM   21  C   UNL     1     -11.307  15.075  65.064  1.00  0.00    -0.395 A  
ENDBRANCH  10  12
ENDBRANCH   9  10
TORSDOF 2
ENDMDL
MODEL       90
REMARK 921   NORMALIZED FREE ENERGY PREDICTED BY IDOCK:   -5.65 KCAL/MOL
REMARK 922        TOTAL FREE ENERGY PREDICTED BY IDOCK:   -6.71 KCAL/MOL
REMARK 923 INTER-LIGAND FREE ENERGY PREDICTED BY IDOCK:   -6.19 KCAL/MOL
REMARK 924 INTRA-LIGAND FREE ENERGY PREDICTED BY IDOCK:   -0.52 KCAL/MOL
REMARK 927      BINDING AFFINITY PREDICTED BY RF-SCORE:    0.00 PKD
ROOT
HETATM    1  O   UNL     1     -12.138   6.585  70.147  1.00  0.00    -0.323 OA 
HETATM    2  C   UNL     1     -10.861   6.147  70.183  1.00  0.00    -0.329 C  
HETATM    3  C   UNL     1      -9.855   7.200  70.513  1.00  0.00    -0.181 A  
HETATM    4  O   UNL     1     -10.562   4.983  69.984  1.00  0.00    -0.245 OA 
HETATM    5  C   UNL     1      -8.613   6.732  70.986  1.00  0.00    -0.136 A  
HETATM    6  C   UNL     1      -7.578   7.617  71.277  1.00  0.00    -0.080 A  
HETATM    7  C   UNL     1      -7.756   8.976  71.063  1.00  0.00    -0.153 A  
HETATM    8  C   UNL     1      -8.982   9.454  70.594  1.00  0.00    -0.285 A  
HETATM    9  C   UNL     1     -10.066   8.588  70.357  1.00  0.00    -0.189 A  
ENDROOT
BRANCH   9  10
HETATM   10  N   UNL     1     -11.308   9.110  69.870  1.00  0.00    -0.430 NA 
HETATM   11  H   UNL     1     -12.058   8.445  69.683  1.00  0.00     0.000 HD 
BRANCH  10  12
HETATM   12  C   UNL     1     -11.575  10.490  69.627  1.00  0.00    -0.271 A  
HETATM   13  C   UNL     1     -12.095  11.329  70.627  1.00  0.00    -0.480 A  
HETATM   14  C   UNL     1     -12.304  12.700  70.397  1.00  0.00    -0.315 A  
HETATM   15  C   UNL     1     -12.850  13.603  71.477  1.00  0.00    -0.359 C  
HETATM   16  C   UNL     1     -11.999  13.227  69.135  1.00  0.00    -0.343 A  
HETATM   17  F   UNL     1     -11.972  14.579  71.835  1.00  0.00    -0.373 F  
HETATM   18  F   UNL     1     -13.985  14.248  71.086  1.00  0.00    -0.385 F  
HETATM   19  F   UNL     1     -13.171  12.949  72.627  1.00  0.00    -0.561 F  
HETATM   20  C   UNL     1     -11.557  12.391  68.113  1.00  0.00    -0.395 A  
HETATM   21  C   UNL     1     -11.370  11.027  68.351  1.00  0.00    -0.363 A  
ENDBRANCH  10  12
ENDBRANCH   9  10
TORSDOF 2
ENDMDL
MODEL       91
REMARK 921   NORMALIZED FREE ENERGY PREDICTED BY IDOCK:   -5.65 KCAL/MOL
REMARK 922        TOTAL FREE ENERGY PREDICTED BY IDOCK:   -6.71 KCAL/MOL
REMARK 923 INTER-LIGAND FREE ENERGY PREDICTED BY IDOCK:   -6.17 KCAL/MOL
REMARK 924 INTRA-LIGAND FREE ENERGY PREDICTED BY IDOCK:   -0.54 KCAL/MOL
REMARK 927      BINDING AFFINITY PREDICTED BY RF-SCORE:    0.00 PKD
ROOT
HETATM    1  O   UNL     1     -11.004  19.222  67.439  1.00  0.00    -0.484 OA 
HETATM    2  C   UNL     1      -9.938  19.376  68.253  1.00  0.00    -0.422 C  
HETATM    3  C   UNL     1      -8.626  19.034  67.625  1.00  0.00    -0.317 A  
HETATM    4  O   UNL     1     -10.040  19.781  69.397  1.00  0.00    -0.387 OA 
HETATM    5  C   UNL     1      -7.489  19.578  68.252  1.00  0.00    -0.350 A  
HETATM    6  C   UNL     1      -6.208  19.287  67.789  1.00  0.00    -0.226 A  
HETATM    7  C   UNL     1      -6.045  18.419  66.719  1.00  0.00    -0.179 A  
HETATM    8  C   UNL     1      -7.164  17.872  66.088  1.00  0.00    -0.339 A  
HETATM    9  C   UNL     1      -8.471  18.203  66.493  1.00  0.00    -0.262 A  
ENDROOT
BRANCH   9  10
HETATM   10  N   UNL     1      -9.597  17.619  65.828  1.00  0.00    -0.515 NA 
HETATM   11  H   UNL     1     -10.212  18.242  65.305  1.00  0.00     0.000 HD 
BRANCH  10  12
HETATM   12  C   UNL     1      -9.924  16.230  65.842  1.00  0.00    -0.339 A  
HETATM   13  C   UNL     1      -9.336  15.342  66.757  1.00  0.00    -0.265 A  
HETATM   14  C   UNL     1      -9.703  13.986  66.802  1.00  0.00    -0.283 A  
HETATM   15  C   UNL     1      -9.080  13.035  67.794  1.00  0.00    -0.200 C  
HETATM   16  C   UNL     1     -10.666  13.517  65.898  1.00  0.00    -0.279 A  
HETATM   17  F   UNL     1      -9.990  12.519  68.666  1.00  0.00    -0.217 F  
HETATM   18  F   UNL     1      -8.496  11.964  67.188  1.00  0.00    -0.145 F  
HETATM   19  F   UNL     1      -8.109  13.603  68.562  1.00  0.00    -0.135 F  
HETATM   20  C   UNL     1     -11.199  14.370  64.934  1.00  0.00    -0.392 A  
HETATM   21  C   UNL     1     -10.811  15.713  64.891  1.00  0.00    -0.438 A  
ENDBRANCH  10  12
ENDBRANCH   9  10
TORSDOF 2
ENDMDL
MODEL       92
REMARK 921   NORMALIZED FREE ENERGY PREDICTED BY IDOCK:   -5.64 KCAL/MOL
REMARK 922        TOTAL FREE ENERGY PREDICTED BY IDOCK:   -6.71 KCAL/MOL
REMARK 923 INTER-LIGAND FREE ENERGY PREDICTED BY IDOCK:   -6.28 KCAL/MOL
REMARK 924 INTRA-LIGAND FREE ENERGY PREDICTED BY IDOCK:   -0.43 KCAL/MOL
REMARK 927      BINDING AFFINITY PREDICTED BY RF-SCORE:    0.00 PKD
ROOT
HETATM    1  O   UNL     1     -11.845  12.005  66.033  1.00  0.00    -0.522 OA 
HETATM    2  C   UNL     1     -11.013  11.095  66.583  1.00  0.00    -0.228 C  
HETATM    3  C   UNL     1     -11.219  10.872  68.046  1.00  0.00    -0.378 A  
HETATM    4  O   UNL     1     -10.178  10.492  65.932  1.00  0.00    -0.253 OA 
HETATM    5  C   UNL     1     -10.708   9.664  68.558  1.00  0.00    -0.239 A  
HETATM    6  C   UNL     1     -10.795   9.369  69.916  1.00  0.00    -0.259 A  
HETATM    7  C   UNL     1     -11.357  10.291  70.786  1.00  0.00    -0.421 A  
HETATM    8  C   UNL     1     -11.868  11.493  70.292  1.00  0.00    -0.431 A  
HETATM    9  C   UNL     1     -11.855  11.787  68.915  1.00  0.00    -0.320 A  
ENDROOT
BRANCH   9  10
HETATM   10  N   UNL     1     -12.381  13.032  68.442  1.00  0.00     0.044 NA 
HETATM   11  H   UNL     1     -13.291  13.015  67.981  1.00  0.00     0.000 HD 
BRANCH  10  12
HETATM   12  C   UNL     1     -11.730  14.295  68.568  1.00  0.00    -0.341 A  
HETATM   13  C   UNL     1     -11.206  14.970  67.453  1.00  0.00    -0.337 A  
HETATM   14  C   UNL     1     -10.614  16.240  67.576  1.00  0.00    -0.310 A  
HETATM   15  C   UNL     1     -10.063  16.970  66.375  1.00  0.00    -0.317 C  
HETATM   16  C   UNL     1     -10.536  16.828  68.846  1.00  0.00    -0.350 A  
HETATM   17  F   UNL     1     -10.713  18.141  66.133  1.00  0.00    -0.369 F  
HETATM   18  F   UNL     1      -8.750  17.297  66.527  1.00  0.00    -0.231 F  
HETATM   19  F   UNL     1     -10.138  16.255  65.218  1.00  0.00    -0.324 F  
HETATM   20  C   UNL     1     -10.981  16.135  69.969  1.00  0.00    -0.364 A  
HETATM   21  C   UNL     1     -11.552  14.866  69.833  1.00  0.00    -0.328 A  
ENDBRANCH  10  12
ENDBRANCH   9  10
TORSDOF 2
ENDMDL
MODEL       93
REMARK 921   NORMALIZED FREE ENERGY PREDICTED BY IDOCK:   -5.61 KCAL/MOL
REMARK 922        TOTAL FREE ENERGY PREDICTED BY IDOCK:   -6.67 KCAL/MOL
REMARK 923 INTER-LIGAND FREE ENERGY PREDICTED BY IDOCK:   -6.19 KCAL/MOL
REMARK 924 INTRA-LIGAND FREE ENERGY PREDICTED BY IDOCK:   -0.48 KCAL/MOL
REMARK 927      BINDING AFFINITY PREDICTED BY RF-SCORE:    0.00 PKD
ROOT
HETATM    1  O   UNL     1     -10.417   7.018  69.269  1.00  0.00    -0.197 OA 
HETATM    2  C   UNL     1     -10.955   7.113  70.504  1.00  0.00    -0.262 C  
HETATM    3  C   UNL     1     -11.644   8.409  70.781  1.00  0.00    -0.252 A  
HETATM    4  O   UNL     1     -10.900   6.205  71.314  1.00  0.00    -0.245 OA 
HETATM    5  C   UNL     1     -12.571   8.393  71.841  1.00  0.00    -0.389 A  
HETATM    6  C   UNL     1     -13.237   9.555  72.226  1.00  0.00    -0.507 A  
HETATM    7  C   UNL     1     -12.958  10.752  71.583  1.00  0.00    -0.581 A  
HETATM    8  C   UNL     1     -12.042  10.781  70.530  1.00  0.00    -0.459 A  
HETATM    9  C   UNL     1     -11.406   9.610  70.076  1.00  0.00    -0.195 A  
ENDROOT
BRANCH   9  10
HETATM   10  N   UNL     1     -10.466   9.676  68.998  1.00  0.00    -0.207 NA 
HETATM   11  H   UNL     1      -9.976   8.818  68.746  1.00  0.00     0.000 HD 
BRANCH  10  12
HETATM   12  C   UNL     1     -10.162  10.852  68.249  1.00  0.00    -0.173 A  
HETATM   13  C   UNL     1     -11.023  11.333  67.248  1.00  0.00    -0.342 A  
HETATM   14  C   UNL     1     -10.745  12.523  66.553  1.00  0.00    -0.266 A  
HETATM   15  C   UNL     1     -11.677  13.045  65.486  1.00  0.00    -0.368 C  
HETATM   16  C   UNL     1      -9.573  13.227  66.860  1.00  0.00    -0.249 A  
HETATM   17  F   UNL     1     -12.208  14.258  65.805  1.00  0.00    -0.376 F  
HETATM   18  F   UNL     1     -11.049  13.216  64.290  1.00  0.00    -0.335 F  
HETATM   19  F   UNL     1     -12.737  12.228  65.237  1.00  0.00    -0.457 F  
HETATM   20  C   UNL     1      -8.674  12.719  67.795  1.00  0.00    -0.184 A  
HETATM   21  C   UNL     1      -8.955  11.526  68.467  1.00  0.00    -0.146 A  
ENDBRANCH  10  12
ENDBRANCH   9  10
TORSDOF 2
ENDMDL
MODEL       94
REMARK 921   NORMALIZED FREE ENERGY PREDICTED BY IDOCK:   -5.58 KCAL/MOL
REMARK 922        TOTAL FREE ENERGY PREDICTED BY IDOCK:   -6.64 KCAL/MOL
REMARK 923 INTER-LIGAND FREE ENERGY PREDICTED BY IDOCK:   -6.26 KCAL/MOL
REMARK 924 INTRA-LIGAND FREE ENERGY PREDICTED BY IDOCK:   -0.38 KCAL/MOL
REMARK 927      BINDING AFFINITY PREDICTED BY RF-SCORE:    0.00 PKD
ROOT
HETATM    1  O   UNL     1     -10.136  15.919  66.255  1.00  0.00    -0.266 OA 
HETATM    2  C   UNL     1     -10.834  15.799  65.105  1.00  0.00    -0.428 C  
HETATM    3  C   UNL     1     -11.188  14.395  64.740  1.00  0.00    -0.391 A  
HETATM    4  O   UNL     1     -11.164  16.762  64.435  1.00  0.00    -1.112 OA 
HETATM    5  C   UNL     1     -12.253  14.250  63.830  1.00  0.00    -0.233 A  
HETATM    6  C   UNL     1     -12.640  12.992  63.375  1.00  0.00    -0.224 A  
HETATM    7  C   UNL     1     -11.945  11.866  63.793  1.00  0.00    -0.547 A  
HETATM    8  C   UNL     1     -10.888  11.995  64.695  1.00  0.00    -0.357 A  
HETATM    9  C   UNL     1     -10.519  13.247  65.223  1.00  0.00    -0.313 A  
ENDROOT
BRANCH   9  10
HETATM   10  N   UNL     1      -9.425  13.345  66.141  1.00  0.00    -0.458 NA 
HETATM   11  H   UNL     1      -8.919  14.230  66.179  1.00  0.00     0.000 HD 
BRANCH  10  12
HETATM   12  C   UNL     1      -8.988  12.299  67.007  1.00  0.00    -0.204 A  
HETATM   13  C   UNL     1      -9.886  11.597  67.829  1.00  0.00    -0.186 A  
HETATM   14  C   UNL     1      -9.458  10.531  68.639  1.00  0.00    -0.172 A  
HETATM   15  C   UNL     1     -10.425   9.769  69.512  1.00  0.00    -0.232 C  
HETATM   16  C   UNL     1      -8.101  10.179  68.630  1.00  0.00    -0.109 A  
HETATM   17  F   UNL     1     -10.525   8.458  69.161  1.00  0.00    -0.210 F  
HETATM   18  F   UNL     1     -10.056   9.778  70.823  1.00  0.00    -0.319 F  
HETATM   19  F   UNL     1     -11.695  10.261  69.480  1.00  0.00    -0.264 F  
HETATM   20  C   UNL     1      -7.189  10.917  67.879  1.00  0.00    -0.086 A  
HETATM   21  C   UNL     1      -7.626  11.986  67.092  1.00  0.00    -0.146 A  
ENDBRANCH  10  12
ENDBRANCH   9  10
TORSDOF 2
ENDMDL
MODEL       95
REMARK 921   NORMALIZED FREE ENERGY PREDICTED BY IDOCK:   -5.58 KCAL/MOL
REMARK 922        TOTAL FREE ENERGY PREDICTED BY IDOCK:   -6.63 KCAL/MOL
REMARK 923 INTER-LIGAND FREE ENERGY PREDICTED BY IDOCK:   -6.14 KCAL/MOL
REMARK 924 INTRA-LIGAND FREE ENERGY PREDICTED BY IDOCK:   -0.49 KCAL/MOL
REMARK 927      BINDING AFFINITY PREDICTED BY RF-SCORE:    0.00 PKD
ROOT
HETATM    1  O   UNL     1     -13.380  14.489  71.846  1.00  0.00    -0.321 OA 
HETATM    2  C   UNL     1     -13.607  13.188  72.128  1.00  0.00    -0.544 C  
HETATM    3  C   UNL     1     -12.779  12.230  71.335  1.00  0.00    -0.351 A  
HETATM    4  O   UNL     1     -14.405  12.831  72.976  1.00  0.00     0.212 OA 
HETATM    5  C   UNL     1     -12.653  10.937  71.879  1.00  0.00    -0.225 A  
HETATM    6  C   UNL     1     -11.949   9.943  71.204  1.00  0.00    -0.473 A  
HETATM    7  C   UNL     1     -11.396  10.215  69.961  1.00  0.00    -0.351 A  
HETATM    8  C   UNL     1     -11.514  11.493  69.411  1.00  0.00    -0.376 A  
HETATM    9  C   UNL     1     -12.160  12.535  70.102  1.00  0.00    -0.292 A  
ENDROOT
BRANCH   9  10
HETATM   10  N   UNL     1     -12.270  13.832  69.506  1.00  0.00    -0.325 NA 
HETATM   11  H   UNL     1     -12.968  14.470  69.888  1.00  0.00     0.000 HD 
BRANCH  10  12
HETATM   12  C   UNL     1     -11.476  14.301  68.417  1.00  0.00    -0.301 A  
HETATM   13  C   UNL     1     -11.942  14.260  67.092  1.00  0.00    -0.449 A  
HETATM   14  C   UNL     1     -11.177  14.774  66.030  1.00  0.00    -0.341 A  
HETATM   15  C   UNL     1     -11.684  14.740  64.609  1.00  0.00    -0.422 C  
HETATM   16  C   UNL     1      -9.918  15.322  66.309  1.00  0.00    -0.304 A  
HETATM   17  F   UNL     1     -11.848  15.986  64.083  1.00  0.00    -0.493 F  
HETATM   18  F   UNL     1     -10.828  14.092  63.770  1.00  0.00    -0.026 F  
HETATM   19  F   UNL     1     -12.886  14.116  64.471  1.00  0.00    -0.318 F  
HETATM   20  C   UNL     1      -9.413  15.298  67.607  1.00  0.00    -0.205 A  
HETATM   21  C   UNL     1     -10.178  14.768  68.650  1.00  0.00    -0.236 A  
ENDBRANCH  10  12
ENDBRANCH   9  10
TORSDOF 2
ENDMDL
MODEL       96
REMARK 921   NORMALIZED FREE ENERGY PREDICTED BY IDOCK:   -5.56 KCAL/MOL
REMARK 922        TOTAL FREE ENERGY PREDICTED BY IDOCK:   -6.61 KCAL/MOL
REMARK 923 INTER-LIGAND FREE ENERGY PREDICTED BY IDOCK:   -6.34 KCAL/MOL
REMARK 924 INTRA-LIGAND FREE ENERGY PREDICTED BY IDOCK:   -0.27 KCAL/MOL
REMARK 927      BINDING AFFINITY PREDICTED BY RF-SCORE:    0.00 PKD
ROOT
HETATM    1  O   UNL     1      -7.855  15.727  66.696  1.00  0.00    -0.234 OA 
HETATM    2  C   UNL     1      -7.461  16.999  66.473  1.00  0.00    -0.292 C  
HETATM    3  C   UNL     1      -8.500  18.029  66.772  1.00  0.00    -0.274 A  
HETATM    4  O   UNL     1      -6.343  17.280  66.081  1.00  0.00    -0.209 OA 
HETATM    5  C   UNL     1      -8.022  19.338  66.979  1.00  0.00    -0.277 A  
HETATM    6  C   UNL     1      -8.901  20.393  67.214  1.00  0.00    -0.444 A  
HETATM    7  C   UNL     1     -10.268  20.162  67.208  1.00  0.00    -0.540 A  
HETATM    8  C   UNL     1     -10.756  18.870  67.004  1.00  0.00    -0.477 A  
HETATM    9  C   UNL     1      -9.889  17.774  66.832  1.00  0.00    -0.312 A  
ENDROOT
BRANCH   9  10
HETATM   10  N   UNL     1     -10.423  16.463  66.619  1.00  0.00    -0.293 NA 
HETATM   11  H   UNL     1     -10.482  16.128  65.657  1.00  0.00     0.000 HD 
BRANCH  10  12
HETATM   12  C   UNL     1     -10.879  15.588  67.649  1.00  0.00    -0.306 A  
HETATM   13  C   UNL     1     -10.881  14.193  67.487  1.00  0.00    -0.280 A  
HETATM   14  C   UNL     1     -11.279  13.334  68.526  1.00  0.00    -0.304 A  
HETATM   15  C   UNL     1     -11.268  11.835  68.354  1.00  0.00    -0.251 C  
HETATM   16  C   UNL     1     -11.697  13.894  69.741  1.00  0.00    -0.372 A  
HETATM   17  F   UNL     1     -10.405  11.217  69.207  1.00  0.00    -0.223 F  
HETATM   18  F   UNL     1     -12.489  11.279  68.592  1.00  0.00    -0.289 F  
HETATM   19  F   UNL     1     -10.912  11.429  67.104  1.00  0.00    -0.261 F  
HETATM   20  C   UNL     1     -11.773  15.277  69.888  1.00  0.00    -0.349 A  
HETATM   21  C   UNL     1     -11.390  16.118  68.840  1.00  0.00    -0.350 A  
ENDBRANCH  10  12
ENDBRANCH   9  10
TORSDOF 2
ENDMDL
MODEL       97
REMARK 921   NORMALIZED FREE ENERGY PREDICTED BY IDOCK:   -5.53 KCAL/MOL
REMARK 922        TOTAL FREE ENERGY PREDICTED BY IDOCK:   -6.58 KCAL/MOL
REMARK 923 INTER-LIGAND FREE ENERGY PREDICTED BY IDOCK:   -6.15 KCAL/MOL
REMARK 924 INTRA-LIGAND FREE ENERGY PREDICTED BY IDOCK:   -0.43 KCAL/MOL
REMARK 927      BINDING AFFINITY PREDICTED BY RF-SCORE:    0.00 PKD
ROOT
HETATM    1  O   UNL     1      -8.582  14.028  67.060  1.00  0.00    -0.213 OA 
HETATM    2  C   UNL     1      -8.133  12.857  67.559  1.00  0.00    -0.181 C  
HETATM    3  C   UNL     1      -9.206  11.867  67.875  1.00  0.00    -0.187 A  
HETATM    4  O   UNL     1      -6.948  12.622  67.716  1.00  0.00    -0.096 OA 
HETATM    5  C   UNL     1      -8.790  10.524  67.970  1.00  0.00    -0.131 A  
HETATM    6  C   UNL     1      -9.691   9.518  68.310  1.00  0.00    -0.163 A  
HETATM    7  C   UNL     1     -11.009   9.844  68.598  1.00  0.00    -0.222 A  
HETATM    8  C   UNL     1     -11.434  11.171  68.507  1.00  0.00    -0.371 A  
HETATM    9  C   UNL     1     -10.562  12.197  68.099  1.00  0.00    -0.216 A  
ENDROOT
BRANCH   9  10
HETATM   10  N   UNL     1     -11.029  13.549  68.024  1.00  0.00    -0.244 NA 
HETATM   11  H   UNL     1     -11.166  13.950  67.096  1.00  0.00     0.000 HD 
BRANCH  10  12
HETATM   12  C   UNL     1     -11.318  14.377  69.149  1.00  0.00    -0.277 A  
HETATM   13  C   UNL     1     -12.218  13.977  70.150  1.00  0.00    -0.425 A  
HETATM   14  C   UNL     1     -12.456  14.774  71.283  1.00  0.00    -0.391 A  
HETATM   15  C   UNL     1     -13.414  14.336  72.364  1.00  0.00    -0.489 C  
HETATM   16  C   UNL     1     -11.788  16.000  71.398  1.00  0.00    -0.531 A  
HETATM   17  F   UNL     1     -12.799  14.157  73.566  1.00  0.00    -0.541 F  
HETATM   18  F   UNL     1     -14.400  15.250  72.583  1.00  0.00    -0.536 F  
HETATM   19  F   UNL     1     -14.048  13.162  72.092  1.00  0.00    -0.483 F  
HETATM   20  C   UNL     1     -10.953  16.444  70.376  1.00  0.00    -0.218 A  
HETATM   21  C   UNL     1     -10.739  15.648  69.246  1.00  0.00    -0.239 A  
ENDBRANCH  10  12
ENDBRANCH   9  10
TORSDOF 2
ENDMDL
MODEL       98
REMARK 921   NORMALIZED FREE ENERGY PREDICTED BY IDOCK:   -5.53 KCAL/MOL
REMARK 922        TOTAL FREE ENERGY PREDICTED BY IDOCK:   -6.58 KCAL/MOL
REMARK 923 INTER-LIGAND FREE ENERGY PREDICTED BY IDOCK:   -6.04 KCAL/MOL
REMARK 924 INTRA-LIGAND FREE ENERGY PREDICTED BY IDOCK:   -0.54 KCAL/MOL
REMARK 927      BINDING AFFINITY PREDICTED BY RF-SCORE:    0.00 PKD
ROOT
HETATM    1  O   UNL     1     -10.386  10.344  65.240  1.00  0.00    -0.284 OA 
HETATM    2  C   UNL     1      -9.675  10.085  66.357  1.00  0.00    -0.210 C  
HETATM    3  C   UNL     1     -10.400  10.367  67.632  1.00  0.00    -0.260 A  
HETATM    4  O   UNL     1      -8.542   9.637  66.324  1.00  0.00    -0.125 OA 
HETATM    5  C   UNL     1      -9.896   9.722  68.778  1.00  0.00    -0.176 A  
HETATM    6  C   UNL     1     -10.457   9.948  70.032  1.00  0.00    -0.331 A  
HETATM    7  C   UNL     1     -11.503  10.850  70.165  1.00  0.00    -0.405 A  
HETATM    8  C   UNL     1     -12.012  11.497  69.037  1.00  0.00    -0.377 A  
HETATM    9  C   UNL     1     -11.509  11.235  67.749  1.00  0.00    -0.275 A  
ENDROOT
BRANCH   9  10
HETATM   10  N   UNL     1     -12.050  11.921  66.614  1.00  0.00    -0.485 NA 
HETATM   11  H   UNL     1     -12.800  11.461  66.098  1.00  0.00     0.000 HD 
BRANCH  10  12
HETATM   12  C   UNL     1     -11.619  13.199  66.150  1.00  0.00    -0.355 A  
HETATM   13  C   UNL     1     -10.594  13.912  66.794  1.00  0.00    -0.277 A  
HETATM   14  C   UNL     1     -10.136  15.145  66.299  1.00  0.00    -0.299 A  
HETATM   15  C   UNL     1      -9.026  15.904  66.985  1.00  0.00    -0.217 C  
HETATM   16  C   UNL     1     -10.733  15.674  65.146  1.00  0.00    -0.463 A  
HETATM   17  F   UNL     1      -7.926  16.049  66.195  1.00  0.00    -0.300 F  
HETATM   18  F   UNL     1      -9.402  17.166  67.335  1.00  0.00    -0.227 F  
HETATM   19  F   UNL     1      -8.587  15.315  68.131  1.00  0.00    -0.151 F  
HETATM   20  C   UNL     1     -11.802  15.015  64.544  1.00  0.00    -0.377 A  
HETATM   21  C   UNL     1     -12.258  13.797  65.057  1.00  0.00    -0.448 A  
ENDBRANCH  10  12
ENDBRANCH   9  10
TORSDOF 2
ENDMDL
MODEL       99
REMARK 921   NORMALIZED FREE ENERGY PREDICTED BY IDOCK:   -5.48 KCAL/MOL
REMARK 922        TOTAL FREE ENERGY PREDICTED BY IDOCK:   -6.52 KCAL/MOL
REMARK 923 INTER-LIGAND FREE ENERGY PREDICTED BY IDOCK:   -6.08 KCAL/MOL
REMARK 924 INTRA-LIGAND FREE ENERGY PREDICTED BY IDOCK:   -0.44 KCAL/MOL
REMARK 927      BINDING AFFINITY PREDICTED BY RF-SCORE:    0.00 PKD
ROOT
HETATM    1  O   UNL     1      -9.855  13.383  68.699  1.00  0.00    -0.205 OA 
HETATM    2  C   UNL     1      -9.534  14.146  67.632  1.00  0.00    -0.213 C  
HETATM    3  C   UNL     1     -10.584  14.200  66.571  1.00  0.00    -0.282 A  
HETATM    4  O   UNL     1      -8.482  14.756  67.556  1.00  0.00    -0.167 OA 
HETATM    5  C   UNL     1     -10.498  15.289  65.682  1.00  0.00    -0.377 A  
HETATM    6  C   UNL     1     -11.390  15.418  64.620  1.00  0.00    -0.361 A  
HETATM    7  C   UNL     1     -12.354  14.442  64.410  1.00  0.00    -0.428 A  
HETATM    8  C   UNL     1     -12.450  13.358  65.284  1.00  0.00    -0.532 A  
HETATM    9  C   UNL     1     -11.606  13.238  66.404  1.00  0.00    -0.347 A  
ENDROOT
BRANCH   9  10
HETATM   10  N   UNL     1     -11.726  12.109  67.277  1.00  0.00    -0.521 NA 
HETATM   11  H   UNL     1     -12.334  12.205  68.091  1.00  0.00     0.000 HD 
BRANCH  10  12
HETATM   12  C   UNL     1     -11.061  10.861  67.094  1.00  0.00    -0.240 A  
HETATM   13  C   UNL     1     -11.124   9.842  68.060  1.00  0.00    -0.220 A  
HETATM   14  C   UNL     1     -10.512   8.594  67.849  1.00  0.00    -0.269 A  
HETATM   15  C   UNL     1     -10.591   7.496  68.882  1.00  0.00    -0.169 C  
HETATM   16  C   UNL     1      -9.814   8.377  66.653  1.00  0.00    -0.343 A  
HETATM   17  F   UNL     1     -11.245   6.394  68.424  1.00  0.00    -0.337 F  
HETATM   18  F   UNL     1      -9.359   7.064  69.272  1.00  0.00    -0.145 F  
HETATM   19  F   UNL     1     -11.235   7.864  70.024  1.00  0.00    -0.256 F  
HETATM   20  C   UNL     1      -9.679   9.405  65.723  1.00  0.00    -0.354 A  
HETATM   21  C   UNL     1     -10.278  10.647  65.954  1.00  0.00    -0.314 A  
ENDBRANCH  10  12
ENDBRANCH   9  10
TORSDOF 2
ENDMDL
MODEL      100
REMARK 921   NORMALIZED FREE ENERGY PREDICTED BY IDOCK:   -5.44 KCAL/MOL
REMARK 922        TOTAL FREE ENERGY PREDICTED BY IDOCK:   -6.48 KCAL/MOL
REMARK 923 INTER-LIGAND FREE ENERGY PREDICTED BY IDOCK:   -5.95 KCAL/MOL
REMARK 924 INTRA-LIGAND FREE ENERGY PREDICTED BY IDOCK:   -0.53 KCAL/MOL
REMARK 927      BINDING AFFINITY PREDICTED BY RF-SCORE:    0.00 PKD
ROOT
HETATM    1  O   UNL     1     -11.677  13.490  68.068  1.00  0.00    -0.318 OA 
HETATM    2  C   UNL     1     -11.677  12.246  67.542  1.00  0.00    -0.332 C  
HETATM    3  C   UNL     1     -11.056  12.147  66.187  1.00  0.00    -0.354 A  
HETATM    4  O   UNL     1     -12.128  11.283  68.136  1.00  0.00    -0.635 OA 
HETATM    5  C   UNL     1     -10.641  10.859  65.798  1.00  0.00    -0.230 A  
HETATM    6  C   UNL     1     -10.095  10.634  64.536  1.00  0.00    -0.421 A  
HETATM    7  C   UNL     1      -9.993  11.682  63.634  1.00  0.00    -0.406 A  
HETATM    8  C   UNL     1     -10.400  12.965  64.007  1.00  0.00    -0.346 A  
HETATM    9  C   UNL     1     -10.891  13.234  65.298  1.00  0.00    -0.301 A  
ENDROOT
BRANCH   9  10
HETATM   10  N   UNL     1     -11.308  14.559  65.646  1.00  0.00    -0.331 NA 
HETATM   11  H   UNL     1     -12.306  14.765  65.611  1.00  0.00     0.000 HD 
BRANCH  10  12
HETATM   12  C   UNL     1     -10.432  15.614  66.039  1.00  0.00    -0.331 A  
HETATM   13  C   UNL     1      -9.111  15.365  66.448  1.00  0.00    -0.350 A  
HETATM   14  C   UNL     1      -8.236  16.413  66.781  1.00  0.00    -0.286 A  
HETATM   15  C   UNL     1      -6.814  16.144  67.209  1.00  0.00    -0.201 C  
HETATM   16  C   UNL     1      -8.707  17.732  66.715  1.00  0.00    -0.273 A  
HETATM   17  F   UNL     1      -5.901  16.677  66.351  1.00  0.00    -0.163 F  
HETATM   18  F   UNL     1      -6.532  16.676  68.431  1.00  0.00    -0.125 F  
HETATM   19  F   UNL     1      -6.511  14.820  67.301  1.00  0.00    -0.176 F  
HETATM   20  C   UNL     1     -10.036  17.988  66.386  1.00  0.00    -0.362 A  
HETATM   21  C   UNL     1     -10.899  16.933  66.074  1.00  0.00    -0.005 A  
ENDBRANCH  10  12
ENDBRANCH   9  10
TORSDOF 2
ENDMDL
MODEL      101
REMARK 921   NORMALIZED FREE ENERGY PREDICTED BY IDOCK:   -5.44 KCAL/MOL
REMARK 922        TOTAL FREE ENERGY PREDICTED BY IDOCK:   -6.48 KCAL/MOL
REMARK 923 INTER-LIGAND FREE ENERGY PREDICTED BY IDOCK:   -5.94 KCAL/MOL
REMARK 924 INTRA-LIGAND FREE ENERGY PREDICTED BY IDOCK:   -0.54 KCAL/MOL
REMARK 927      BINDING AFFINITY PREDICTED BY RF-SCORE:    0.00 PKD
ROOT
HETATM    1  O   UNL     1      -8.140   8.191  68.356  1.00  0.00    -0.124 OA 
HETATM    2  C   UNL     1      -8.257   8.126  69.699  1.00  0.00    -0.120 C  
HETATM    3  C   UNL     1      -9.545   8.658  70.235  1.00  0.00    -0.186 A  
HETATM    4  O   UNL     1      -7.388   7.652  70.410  1.00  0.00    -0.068 OA 
HETATM    5  C   UNL     1      -9.895   8.224  71.529  1.00  0.00    -0.250 A  
HETATM    6  C   UNL     1     -11.048   8.692  72.154  1.00  0.00    -0.434 A  
HETATM    7  C   UNL     1     -11.845   9.629  71.512  1.00  0.00    -0.483 A  
HETATM    8  C   UNL     1     -11.511  10.068  70.230  1.00  0.00    -0.372 A  
HETATM    9  C   UNL     1     -10.389   9.560  69.548  1.00  0.00    -0.217 A  
ENDROOT
BRANCH   9  10
HETATM   10  N   UNL     1     -10.070  10.037  68.236  1.00  0.00    -0.153 NA 
HETATM   11  H   UNL     1      -9.672   9.369  67.575  1.00  0.00     0.000 HD 
BRANCH  10  12
HETATM   12  C   UNL     1     -10.266  11.375  67.783  1.00  0.00    -0.181 A  
HETATM   13  C   UNL     1     -11.173  11.682  66.754  1.00  0.00    -0.371 A  
HETATM   14  C   UNL     1     -11.402  13.009  66.351  1.00  0.00    -0.355 A  
HETATM   15  C   UNL     1     -12.386  13.338  65.254  1.00  0.00    -0.476 C  
HETATM   16  C   UNL     1     -10.693  14.039  66.983  1.00  0.00    -0.284 A  
HETATM   17  F   UNL     1     -13.423  14.101  65.695  1.00  0.00    -0.483 F  
HETATM   18  F   UNL     1     -11.812  14.040  64.238  1.00  0.00    -0.397 F  
HETATM   19  F   UNL     1     -12.949  12.240  64.677  1.00  0.00    -0.555 F  
HETATM   20  C   UNL     1      -9.735  13.741  67.950  1.00  0.00    -0.229 A  
HETATM   21  C   UNL     1      -9.506  12.416  68.329  1.00  0.00    -0.203 A  
ENDBRANCH  10  12
ENDBRANCH   9  10
TORSDOF 2
ENDMDL
MODEL      102
REMARK 921   NORMALIZED FREE ENERGY PREDICTED BY IDOCK:   -5.40 KCAL/MOL
REMARK 922        TOTAL FREE ENERGY PREDICTED BY IDOCK:   -6.43 KCAL/MOL
REMARK 923 INTER-LIGAND FREE ENERGY PREDICTED BY IDOCK:   -5.90 KCAL/MOL
REMARK 924 INTRA-LIGAND FREE ENERGY PREDICTED BY IDOCK:   -0.53 KCAL/MOL
REMARK 927      BINDING AFFINITY PREDICTED BY RF-SCORE:    0.00 PKD
ROOT
HETATM    1  O   UNL     1     -11.528  15.732  69.828  1.00  0.00    -0.299 OA 
HETATM    2  C   UNL     1     -12.576  15.179  70.475  1.00  0.00    -0.380 C  
HETATM    3  C   UNL     1     -12.449  13.711  70.717  1.00  0.00    -0.432 A  
HETATM    4  O   UNL     1     -13.535  15.832  70.848  1.00  0.00    -0.568 OA 
HETATM    5  C   UNL     1     -13.267  13.187  71.737  1.00  0.00    -0.494 A  
HETATM    6  C   UNL     1     -13.274  11.823  72.019  1.00  0.00    -0.460 A  
HETATM    7  C   UNL     1     -12.494  10.960  71.262  1.00  0.00    -0.493 A  
HETATM    8  C   UNL     1     -11.679  11.467  70.248  1.00  0.00    -0.397 A  
HETATM    9  C   UNL     1     -11.601  12.848  69.987  1.00  0.00    -0.116 A  
ENDROOT
BRANCH   9  10
HETATM   10  N   UNL     1     -10.760  13.333  68.934  1.00  0.00    -0.366 NA 
HETATM   11  H   UNL     1     -10.408  14.288  69.014  1.00  0.00     0.000 HD 
BRANCH  10  12
HETATM   12  C   UNL     1     -10.376  12.584  67.783  1.00  0.00    -0.222 A  
HETATM   13  C   UNL     1      -9.110  11.981  67.682  1.00  0.00    -0.179 A  
HETATM   14  C   UNL     1      -8.759  11.197  66.570  1.00  0.00    -0.174 A  
HETATM   15  C   UNL     1      -7.403  10.540  66.468  1.00  0.00    -0.125 C  
HETATM   16  C   UNL     1      -9.692  11.034  65.537  1.00  0.00    -0.274 A  
HETATM   17  F   UNL     1      -7.483   9.182  66.436  1.00  0.00    -0.088 F  
HETATM   18  F   UNL     1      -6.737  10.902  65.336  1.00  0.00    -0.096 F  
HETATM   19  F   UNL     1      -6.570  10.841  67.503  1.00  0.00    -0.056 F  
HETATM   20  C   UNL     1     -10.920  11.689  65.589  1.00  0.00    -0.322 A  
HETATM   21  C   UNL     1     -11.249  12.479  66.695  1.00  0.00    -0.357 A  
ENDBRANCH  10  12
ENDBRANCH   9  10
TORSDOF 2
ENDMDL
MODEL      103
REMARK 921   NORMALIZED FREE ENERGY PREDICTED BY IDOCK:   -5.40 KCAL/MOL
REMARK 922        TOTAL FREE ENERGY PREDICTED BY IDOCK:   -6.43 KCAL/MOL
REMARK 923 INTER-LIGAND FREE ENERGY PREDICTED BY IDOCK:   -5.73 KCAL/MOL
REMARK 924 INTRA-LIGAND FREE ENERGY PREDICTED BY IDOCK:   -0.69 KCAL/MOL
REMARK 927      BINDING AFFINITY PREDICTED BY RF-SCORE:    0.00 PKD
ROOT
HETATM    1  O   UNL     1     -10.207  19.449  66.961  1.00  0.00    -0.351 OA 
HETATM    2  C   UNL     1      -9.041  19.571  67.631  1.00  0.00    -0.316 C  
HETATM    3  C   UNL     1      -8.038  18.508  67.326  1.00  0.00    -0.245 A  
HETATM    4  O   UNL     1      -8.822  20.487  68.404  1.00  0.00     0.170 OA 
HETATM    5  C   UNL     1      -6.701  18.821  67.639  1.00  0.00    -0.211 A  
HETATM    6  C   UNL     1      -5.684  17.889  67.447  1.00  0.00    -0.161 A  
HETATM    7  C   UNL     1      -5.993  16.621  66.977  1.00  0.00    -0.188 A  
HETATM    8  C   UNL     1      -7.314  16.297  66.663  1.00  0.00    -0.204 A  
HETATM    9  C   UNL     1      -8.352  17.241  66.782  1.00  0.00    -0.245 A  
ENDROOT
BRANCH   9  10
HETATM   10  N   UNL     1      -9.697  16.874  66.458  1.00  0.00    -0.267 NA 
HETATM   11  H   UNL     1     -10.114  17.295  65.628  1.00  0.00     0.000 HD 
BRANCH  10  12
HETATM   12  C   UNL     1     -10.499  15.964  67.208  1.00  0.00    -0.310 A  
HETATM   13  C   UNL     1     -10.901  16.245  68.525  1.00  0.00    -0.330 A  
HETATM   14  C   UNL     1     -11.738  15.369  69.238  1.00  0.00    -0.367 A  
HETATM   15  C   UNL     1     -12.179  15.678  70.648  1.00  0.00    -0.405 C  
HETATM   16  C   UNL     1     -12.160  14.185  68.620  1.00  0.00    -0.320 A  
HETATM   17  F   UNL     1     -13.528  15.827  70.752  1.00  0.00    -0.535 F  
HETATM   18  F   UNL     1     -11.844  14.690  71.523  1.00  0.00    -0.351 F  
HETATM   19  F   UNL     1     -11.638  16.822  71.153  1.00  0.00    -0.355 F  
HETATM   20  C   UNL     1     -11.706  13.858  67.344  1.00  0.00    -0.422 A  
HETATM   21  C   UNL     1     -10.861  14.731  66.653  1.00  0.00    -0.319 A  
ENDBRANCH  10  12
ENDBRANCH   9  10
TORSDOF 2
ENDMDL
MODEL      104
REMARK 921   NORMALIZED FREE ENERGY PREDICTED BY IDOCK:   -5.39 KCAL/MOL
REMARK 922        TOTAL FREE ENERGY PREDICTED BY IDOCK:   -6.42 KCAL/MOL
REMARK 923 INTER-LIGAND FREE ENERGY PREDICTED BY IDOCK:   -5.96 KCAL/MOL
REMARK 924 INTRA-LIGAND FREE ENERGY PREDICTED BY IDOCK:   -0.46 KCAL/MOL
REMARK 927      BINDING AFFINITY PREDICTED BY RF-SCORE:    0.00 PKD
ROOT
HETATM    1  O   UNL     1      -9.976  16.641  67.502  1.00  0.00    -0.253 OA 
HETATM    2  C   UNL     1     -10.509  17.101  68.654  1.00  0.00    -0.366 C  
HETATM    3  C   UNL     1     -11.192  16.061  69.479  1.00  0.00    -0.348 A  
HETATM    4  O   UNL     1     -10.418  18.266  68.999  1.00  0.00    -0.216 OA 
HETATM    5  C   UNL     1     -11.366  16.377  70.841  1.00  0.00    -0.215 A  
HETATM    6  C   UNL     1     -12.036  15.507  71.698  1.00  0.00    -0.478 A  
HETATM    7  C   UNL     1     -12.573  14.329  71.199  1.00  0.00    -0.432 A  
HETATM    8  C   UNL     1     -12.408  14.003  69.852  1.00  0.00    -0.367 A  
HETATM    9  C   UNL     1     -11.677  14.831  68.979  1.00  0.00    -0.312 A  
ENDROOT
BRANCH   9  10
HETATM   10  N   UNL     1     -11.533  14.471  67.600  1.00  0.00    -0.337 NA 
HETATM   11  H   UNL     1     -12.138  14.938  66.925  1.00  0.00     0.000 HD 
BRANCH  10  12
HETATM   12  C   UNL     1     -10.606  13.508  67.100  1.00  0.00    -0.264 A  
HETATM   13  C   UNL     1     -10.853  12.790  65.918  1.00  0.00    -0.295 A  
HETATM   14  C   UNL     1      -9.911  11.884  65.401  1.00  0.00    -0.281 A  
HETATM   15  C   UNL     1     -10.173  11.122  64.125  1.00  0.00    -0.347 C  
HETATM   16  C   UNL     1      -8.711  11.688  66.096  1.00  0.00    -0.094 A  
HETATM   17  F   UNL     1      -9.280  11.426  63.143  1.00  0.00    -0.259 F  
HETATM   18  F   UNL     1     -10.088   9.774  64.301  1.00  0.00    -0.243 F  
HETATM   19  F   UNL     1     -11.405  11.351  63.592  1.00  0.00    -0.461 F  
HETATM   20  C   UNL     1      -8.488  12.335  67.309  1.00  0.00    -0.181 A  
HETATM   21  C   UNL     1      -9.441  13.221  67.820  1.00  0.00    -0.208 A  
ENDBRANCH  10  12
ENDBRANCH   9  10
TORSDOF 2
ENDMDL
MODEL      105
REMARK 921   NORMALIZED FREE ENERGY PREDICTED BY IDOCK:   -5.39 KCAL/MOL
REMARK 922        TOTAL FREE ENERGY PREDICTED BY IDOCK:   -6.42 KCAL/MOL
REMARK 923 INTER-LIGAND FREE ENERGY PREDICTED BY IDOCK:   -5.90 KCAL/MOL
REMARK 924 INTRA-LIGAND FREE ENERGY PREDICTED BY IDOCK:   -0.52 KCAL/MOL
REMARK 927      BINDING AFFINITY PREDICTED BY RF-SCORE:    0.00 PKD
ROOT
HETATM    1  O   UNL     1     -13.299  12.015  71.864  1.00  0.00    -0.456 OA 
HETATM    2  C   UNL     1     -12.627  12.969  71.185  1.00  0.00    -0.297 C  
HETATM    3  C   UNL     1     -12.171  12.555  69.824  1.00  0.00    -0.199 A  
HETATM    4  O   UNL     1     -12.430  14.082  71.640  1.00  0.00    -0.331 OA 
HETATM    5  C   UNL     1     -11.873  13.605  68.934  1.00  0.00    -0.402 A  
HETATM    6  C   UNL     1     -11.390  13.342  67.654  1.00  0.00    -0.321 A  
HETATM    7  C   UNL     1     -11.162  12.032  67.260  1.00  0.00    -0.371 A  
HETATM    8  C   UNL     1     -11.454  10.981  68.133  1.00  0.00    -0.374 A  
HETATM    9  C   UNL     1     -12.007  11.215  69.406  1.00  0.00    -0.349 A  
ENDROOT
BRANCH   9  10
HETATM   10  N   UNL     1     -12.288  10.115  70.280  1.00  0.00    -0.487 NA 
HETATM   11  H   UNL     1     -13.221  10.063  70.688  1.00  0.00     0.000 HD 
BRANCH  10  12
HETATM   12  C   UNL     1     -11.361   9.086  70.621  1.00  0.00    -0.265 A  
HETATM   13  C   UNL     1     -11.235   7.919  69.848  1.00  0.00    -0.051 A  
HETATM   14  C   UNL     1     -10.281   6.934  70.159  1.00  0.00    -0.208 A  
HETATM   15  C   UNL     1     -10.137   5.687  69.320  1.00  0.00    -0.214 C  
HETATM   16  C   UNL     1      -9.455   7.122  71.275  1.00  0.00    -0.163 A  
HETATM   17  F   UNL     1      -8.915   5.595  68.727  1.00  0.00    -0.113 F  
HETATM   18  F   UNL     1     -10.283   4.550  70.055  1.00  0.00    -0.296 F  
HETATM   19  F   UNL     1     -11.049   5.598  68.312  1.00  0.00    -0.285 F  
HETATM   20  C   UNL     1      -9.624   8.236  72.094  1.00  0.00    -0.338 A  
HETATM   21  C   UNL     1     -10.588   9.199  71.782  1.00  0.00    -0.383 A  
ENDBRANCH  10  12
ENDBRANCH   9  10
TORSDOF 2
ENDMDL
MODEL      106
REMARK 921   NORMALIZED FREE ENERGY PREDICTED BY IDOCK:   -5.37 KCAL/MOL
REMARK 922        TOTAL FREE ENERGY PREDICTED BY IDOCK:   -6.40 KCAL/MOL
REMARK 923 INTER-LIGAND FREE ENERGY PREDICTED BY IDOCK:   -5.89 KCAL/MOL
REMARK 924 INTRA-LIGAND FREE ENERGY PREDICTED BY IDOCK:   -0.51 KCAL/MOL
REMARK 927      BINDING AFFINITY PREDICTED BY RF-SCORE:    0.00 PKD
ROOT
HETATM    1  O   UNL     1     -12.097   6.597  70.290  1.00  0.00    -0.350 OA 
HETATM    2  C   UNL     1     -10.819   6.175  70.196  1.00  0.00    -0.329 C  
HETATM    3  C   UNL     1      -9.796   7.228  70.471  1.00  0.00    -0.183 A  
HETATM    4  O   UNL     1     -10.527   5.022  69.929  1.00  0.00    -0.280 OA 
HETATM    5  C   UNL     1      -8.513   6.759  70.813  1.00  0.00    -0.133 A  
HETATM    6  C   UNL     1      -7.464   7.647  71.041  1.00  0.00    -0.075 A  
HETATM    7  C   UNL     1      -7.673   9.011  70.893  1.00  0.00    -0.149 A  
HETATM    8  C   UNL     1      -8.940   9.489  70.554  1.00  0.00    -0.265 A  
HETATM    9  C   UNL     1     -10.034   8.618  70.385  1.00  0.00    -0.187 A  
ENDROOT
BRANCH   9  10
HETATM   10  N   UNL     1     -11.319   9.141  70.031  1.00  0.00    -0.421 NA 
HETATM   11  H   UNL     1     -12.119   8.511  70.093  1.00  0.00     0.000 HD 
BRANCH  10  12
HETATM   12  C   UNL     1     -11.567  10.478  69.598  1.00  0.00    -0.271 A  
HETATM   13  C   UNL     1     -11.411  10.860  68.255  1.00  0.00    -0.374 A  
HETATM   14  C   UNL     1     -11.710  12.165  67.825  1.00  0.00    -0.390 A  
HETATM   15  C   UNL     1     -11.554  12.571  66.379  1.00  0.00    -0.391 C  
HETATM   16  C   UNL     1     -12.156  13.100  68.767  1.00  0.00    -0.226 A  
HETATM   17  F   UNL     1     -12.735  12.934  65.809  1.00  0.00    -0.482 F  
HETATM   18  F   UNL     1     -10.723  13.640  66.230  1.00  0.00    -0.279 F  
HETATM   19  F   UNL     1     -11.043  11.588  65.587  1.00  0.00    -0.340 F  
HETATM   20  C   UNL     1     -12.241  12.755  70.114  1.00  0.00    -0.320 A  
HETATM   21  C   UNL     1     -11.924  11.459  70.530  1.00  0.00    -0.451 A  
ENDBRANCH  10  12
ENDBRANCH   9  10
TORSDOF 2
ENDMDL
MODEL      107
REMARK 921   NORMALIZED FREE ENERGY PREDICTED BY IDOCK:   -5.37 KCAL/MOL
REMARK 922        TOTAL FREE ENERGY PREDICTED BY IDOCK:   -6.40 KCAL/MOL
REMARK 923 INTER-LIGAND FREE ENERGY PREDICTED BY IDOCK:   -5.92 KCAL/MOL
REMARK 924 INTRA-LIGAND FREE ENERGY PREDICTED BY IDOCK:   -0.48 KCAL/MOL
REMARK 927      BINDING AFFINITY PREDICTED BY RF-SCORE:    0.00 PKD
ROOT
HETATM    1  O   UNL     1      -9.028   7.278  72.374  1.00  0.00    -0.126 OA 
HETATM    2  C   UNL     1      -9.649   8.408  71.975  1.00  0.00    -0.274 C  
HETATM    3  C   UNL     1     -11.136   8.299  71.886  1.00  0.00    -0.357 A  
HETATM    4  O   UNL     1      -9.044   9.437  71.730  1.00  0.00    -0.223 OA 
HETATM    5  C   UNL     1     -11.841   9.518  71.910  1.00  0.00    -0.349 A  
HETATM    6  C   UNL     1     -13.228   9.546  71.781  1.00  0.00    -0.505 A  
HETATM    7  C   UNL     1     -13.924   8.362  71.590  1.00  0.00    -0.460 A  
HETATM    8  C   UNL     1     -13.238   7.146  71.565  1.00  0.00    -0.419 A  
HETATM    9  C   UNL     1     -11.845   7.083  71.760  1.00  0.00    -0.312 A  
ENDROOT
BRANCH   9  10
HETATM   10  N   UNL     1     -11.171   5.820  71.722  1.00  0.00    -0.246 NA 
HETATM   11  H   UNL     1     -11.081   5.306  72.598  1.00  0.00     0.000 HD 
BRANCH  10  12
HETATM   12  C   UNL     1     -10.616   5.225  70.550  1.00  0.00    -0.202 A  
HETATM   13  C   UNL     1     -10.900   5.718  69.266  1.00  0.00    -0.374 A  
HETATM   14  C   UNL     1     -10.306   5.163  68.119  1.00  0.00    -0.140 A  
HETATM   15  C   UNL     1     -10.603   5.701  66.741  1.00  0.00    -0.304 C  
HETATM   16  C   UNL     1      -9.425   4.083  68.271  1.00  0.00    -0.216 A  
HETATM   17  F   UNL     1      -9.498   6.212  66.130  1.00  0.00    -0.171 F  
HETATM   18  F   UNL     1     -11.082   4.741  65.902  1.00  0.00    -0.330 F  
HETATM   19  F   UNL     1     -11.529   6.700  66.731  1.00  0.00    -0.461 F  
HETATM   20  C   UNL     1      -9.196   3.536  69.531  1.00  0.00    -0.224 A  
HETATM   21  C   UNL     1      -9.807   4.088  70.661  1.00  0.00    -0.229 A  
ENDBRANCH  10  12
ENDBRANCH   9  10
TORSDOF 2
ENDMDL
MODEL      108
REMARK 921   NORMALIZED FREE ENERGY PREDICTED BY IDOCK:   -5.37 KCAL/MOL
REMARK 922        TOTAL FREE ENERGY PREDICTED BY IDOCK:   -6.40 KCAL/MOL
REMARK 923 INTER-LIGAND FREE ENERGY PREDICTED BY IDOCK:   -5.90 KCAL/MOL
REMARK 924 INTRA-LIGAND FREE ENERGY PREDICTED BY IDOCK:   -0.50 KCAL/MOL
REMARK 927      BINDING AFFINITY PREDICTED BY RF-SCORE:    0.00 PKD
ROOT
HETATM    1  O   UNL     1     -12.536  13.951  69.644  1.00  0.00    -0.300 OA 
HETATM    2  C   UNL     1     -11.580  14.487  68.856  1.00  0.00    -0.309 C  
HETATM    3  C   UNL     1     -11.299  13.713  67.610  1.00  0.00    -0.328 A  
HETATM    4  O   UNL     1     -11.011  15.529  69.131  1.00  0.00    -0.231 OA 
HETATM    5  C   UNL     1     -10.662  14.427  66.577  1.00  0.00    -0.306 A  
HETATM    6  C   UNL     1     -10.303  13.797  65.387  1.00  0.00    -0.347 A  
HETATM    7  C   UNL     1     -10.541  12.440  65.229  1.00  0.00    -0.322 A  
HETATM    8  C   UNL     1     -11.172  11.720  66.245  1.00  0.00    -0.370 A  
HETATM    9  C   UNL     1     -11.606  12.345  67.429  1.00  0.00    -0.365 A  
ENDROOT
BRANCH   9  10
HETATM   10  N   UNL     1     -12.244  11.576  68.455  1.00  0.00    -0.483 NA 
HETATM   11  H   UNL     1     -13.262  11.619  68.513  1.00  0.00     0.000 HD 
BRANCH  10  12
HETATM   12  C   UNL     1     -11.565  10.753  69.401  1.00  0.00    -0.308 A  
HETATM   13  C   UNL     1     -10.226  10.367  69.218  1.00  0.00    -0.248 A  
HETATM   14  C   UNL     1      -9.546   9.602  70.182  1.00  0.00    -0.300 A  
HETATM   15  C   UNL     1      -8.103   9.200  69.990  1.00  0.00    -0.128 C  
HETATM   16  C   UNL     1     -10.232   9.207  71.338  1.00  0.00    -0.402 A  
HETATM   17  F   UNL     1      -7.284   9.725  70.942  1.00  0.00    -0.124 F  
HETATM   18  F   UNL     1      -7.931   7.850  70.053  1.00  0.00    -0.101 F  
HETATM   19  F   UNL     1      -7.581   9.586  68.793  1.00  0.00    -0.072 F  
HETATM   20  C   UNL     1     -11.581   9.516  71.494  1.00  0.00    -0.465 A  
HETATM   21  C   UNL     1     -12.249  10.264  70.520  1.00  0.00    -0.390 A  
ENDBRANCH  10  12
ENDBRANCH   9  10
TORSDOF 2
ENDMDL
MODEL      109
REMARK 921   NORMALIZED FREE ENERGY PREDICTED BY IDOCK:   -5.36 KCAL/MOL
REMARK 922        TOTAL FREE ENERGY PREDICTED BY IDOCK:   -6.39 KCAL/MOL
REMARK 923 INTER-LIGAND FREE ENERGY PREDICTED BY IDOCK:   -5.87 KCAL/MOL
REMARK 924 INTRA-LIGAND FREE ENERGY PREDICTED BY IDOCK:   -0.52 KCAL/MOL
REMARK 927      BINDING AFFINITY PREDICTED BY RF-SCORE:    0.00 PKD
ROOT
HETATM    1  O   UNL     1     -13.481  11.403  71.632  1.00  0.00    -0.249 OA 
HETATM    2  C   UNL     1     -12.762  12.348  70.989  1.00  0.00    -0.223 C  
HETATM    3  C   UNL     1     -12.141  11.889  69.711  1.00  0.00    -0.321 A  
HETATM    4  O   UNL     1     -12.649  13.485  71.410  1.00  0.00    -0.348 OA 
HETATM    5  C   UNL     1     -11.770  12.908  68.811  1.00  0.00    -0.363 A  
HETATM    6  C   UNL     1     -11.135  12.606  67.609  1.00  0.00    -0.303 A  
HETATM    7  C   UNL     1     -10.828  11.287  67.307  1.00  0.00    -0.317 A  
HETATM    8  C   UNL     1     -11.189  10.268  68.189  1.00  0.00    -0.294 A  
HETATM    9  C   UNL     1     -11.892  10.538  69.379  1.00  0.00    -0.199 A  
ENDROOT
BRANCH   9  10
HETATM   10  N   UNL     1     -12.241   9.470  70.265  1.00  0.00    -0.466 NA 
HETATM   11  H   UNL     1     -13.222   9.193  70.307  1.00  0.00     0.000 HD 
BRANCH  10  12
HETATM   12  C   UNL     1     -11.321   8.761  71.094  1.00  0.00    -0.285 A  
HETATM   13  C   UNL     1     -11.666   7.547  71.711  1.00  0.00    -0.317 A  
HETATM   14  C   UNL     1     -10.737   6.826  72.481  1.00  0.00    -0.261 A  
HETATM   15  C   UNL     1     -11.105   5.516  73.133  1.00  0.00    -0.287 C  
HETATM   16  C   UNL     1      -9.446   7.347  72.643  1.00  0.00    -0.197 A  
HETATM   17  F   UNL     1     -10.369   4.472  72.661  1.00  0.00    -0.213 F  
HETATM   18  F   UNL     1     -10.904   5.535  74.480  1.00  0.00    -0.237 F  
HETATM   19  F   UNL     1     -12.409   5.164  72.956  1.00  0.00    -0.323 F  
HETATM   20  C   UNL     1      -9.116   8.587  72.101  1.00  0.00    -0.319 A  
HETATM   21  C   UNL     1     -10.056   9.301  71.352  1.00  0.00    -0.348 A  
ENDBRANCH  10  12
ENDBRANCH   9  10
TORSDOF 2
ENDMDL
MODEL      110
REMARK 921   NORMALIZED FREE ENERGY PREDICTED BY IDOCK:   -5.36 KCAL/MOL
REMARK 922        TOTAL FREE ENERGY PREDICTED BY IDOCK:   -6.38 KCAL/MOL
REMARK 923 INTER-LIGAND FREE ENERGY PREDICTED BY IDOCK:   -6.14 KCAL/MOL
REMARK 924 INTRA-LIGAND FREE ENERGY PREDICTED BY IDOCK:   -0.25 KCAL/MOL
REMARK 927      BINDING AFFINITY PREDICTED BY RF-SCORE:    0.00 PKD
ROOT
HETATM    1  O   UNL     1     -11.254   7.828  73.192  1.00  0.00    -0.402 OA 
HETATM    2  C   UNL     1     -10.885   6.566  72.885  1.00  0.00    -0.258 C  
HETATM    3  C   UNL     1     -10.757   6.297  71.422  1.00  0.00    -0.297 A  
HETATM    4  O   UNL     1     -10.657   5.724  73.736  1.00  0.00    -0.251 OA 
HETATM    5  C   UNL     1      -9.976   5.178  71.072  1.00  0.00    -0.274 A  
HETATM    6  C   UNL     1      -9.826   4.798  69.740  1.00  0.00    -0.288 A  
HETATM    7  C   UNL     1     -10.484   5.505  68.745  1.00  0.00    -0.261 A  
HETATM    8  C   UNL     1     -11.262   6.616  69.078  1.00  0.00    -0.289 A  
HETATM    9  C   UNL     1     -11.376   7.063  70.408  1.00  0.00    -0.310 A  
ENDROOT
BRANCH   9  10
HETATM   10  N   UNL     1     -12.187   8.202  70.716  1.00  0.00    -0.496 NA 
HETATM   11  H   UNL     1     -13.051   8.039  71.233  1.00  0.00     0.000 HD 
BRANCH  10  12
HETATM   12  C   UNL     1     -11.879   9.547  70.354  1.00  0.00    -0.124 A  
HETATM   13  C   UNL     1     -12.495  10.641  70.984  1.00  0.00    -0.515 A  
HETATM   14  C   UNL     1     -12.146  11.964  70.662  1.00  0.00    -0.389 A  
HETATM   15  C   UNL     1     -12.799  13.139  71.349  1.00  0.00    -0.311 C  
HETATM   16  C   UNL     1     -11.174  12.185  69.677  1.00  0.00    -0.137 A  
HETATM   17  F   UNL     1     -11.911  13.888  72.058  1.00  0.00    -0.197 F  
HETATM   18  F   UNL     1     -13.387  13.993  70.466  1.00  0.00    -0.290 F  
HETATM   19  F   UNL     1     -13.776  12.784  72.230  1.00  0.00    -0.572 F  
HETATM   20  C   UNL     1     -10.613  11.111  68.990  1.00  0.00    -0.251 A  
HETATM   21  C   UNL     1     -10.982   9.801  69.310  1.00  0.00    -0.222 A  
ENDBRANCH  10  12
ENDBRANCH   9  10
TORSDOF 2
ENDMDL
MODEL      111
REMARK 921   NORMALIZED FREE ENERGY PREDICTED BY IDOCK:   -5.35 KCAL/MOL
REMARK 922        TOTAL FREE ENERGY PREDICTED BY IDOCK:   -6.37 KCAL/MOL
REMARK 923 INTER-LIGAND FREE ENERGY PREDICTED BY IDOCK:   -6.42 KCAL/MOL
REMARK 924 INTRA-LIGAND FREE ENERGY PREDICTED BY IDOCK:    0.05 KCAL/MOL
REMARK 927      BINDING AFFINITY PREDICTED BY RF-SCORE:    0.00 PKD
ROOT
HETATM    1  O   UNL     1      -9.621  10.036  66.535  1.00  0.00    -0.170 OA 
HETATM    2  C   UNL     1     -10.403  10.952  65.925  1.00  0.00    -0.250 C  
HETATM    3  C   UNL     1     -10.841  12.076  66.805  1.00  0.00    -0.307 A  
HETATM    4  O   UNL     1     -10.706  10.875  64.747  1.00  0.00    -0.292 OA 
HETATM    5  C   UNL     1     -11.265  13.243  66.140  1.00  0.00    -0.317 A  
HETATM    6  C   UNL     1     -11.745  14.339  66.854  1.00  0.00    -0.430 A  
HETATM    7  C   UNL     1     -11.842  14.270  68.236  1.00  0.00    -0.370 A  
HETATM    8  C   UNL     1     -11.425  13.120  68.908  1.00  0.00    -0.343 A  
HETATM    9  C   UNL     1     -10.873  12.024  68.217  1.00  0.00    -0.229 A  
ENDROOT
BRANCH   9  10
HETATM   10  N   UNL     1     -10.461  10.856  68.936  1.00  0.00    -0.194 NA 
HETATM   11  H   UNL     1      -9.587  10.412  68.654  1.00  0.00     0.000 HD 
BRANCH  10  12
HETATM   12  C   UNL     1     -11.180  10.266  70.018  1.00  0.00    -0.311 A  
HETATM   13  C   UNL     1     -10.709   9.120  70.680  1.00  0.00    -0.313 A  
HETATM   14  C   UNL     1     -11.394   8.576  71.781  1.00  0.00    -0.377 A  
HETATM   15  C   UNL     1     -10.881   7.352  72.499  1.00  0.00    -0.283 C  
HETATM   16  C   UNL     1     -12.579   9.190  72.208  1.00  0.00    -0.425 A  
HETATM   17  F   UNL     1     -10.560   7.604  73.797  1.00  0.00    -0.386 F  
HETATM   18  F   UNL     1     -11.801   6.348  72.530  1.00  0.00    -0.305 F  
HETATM   19  F   UNL     1      -9.763   6.815  71.935  1.00  0.00    -0.158 F  
HETATM   20  C   UNL     1     -13.097  10.280  71.512  1.00  0.00    -0.534 A  
HETATM   21  C   UNL     1     -12.414  10.799  70.409  1.00  0.00    -0.430 A  
ENDBRANCH  10  12
ENDBRANCH   9  10
TORSDOF 2
ENDMDL
MODEL      112
REMARK 921   NORMALIZED FREE ENERGY PREDICTED BY IDOCK:   -5.33 KCAL/MOL
REMARK 922        TOTAL FREE ENERGY PREDICTED BY IDOCK:   -6.36 KCAL/MOL
REMARK 923 INTER-LIGAND FREE ENERGY PREDICTED BY IDOCK:   -6.04 KCAL/MOL
REMARK 924 INTRA-LIGAND FREE ENERGY PREDICTED BY IDOCK:   -0.32 KCAL/MOL
REMARK 927      BINDING AFFINITY PREDICTED BY RF-SCORE:    0.00 PKD
ROOT
HETATM    1  O   UNL     1     -11.116   7.525  73.398  1.00  0.00    -0.344 OA 
HETATM    2  C   UNL     1     -10.541   6.374  72.989  1.00  0.00    -0.242 C  
HETATM    3  C   UNL     1     -10.539   6.174  71.509  1.00  0.00    -0.288 A  
HETATM    4  O   UNL     1     -10.045   5.577  73.766  1.00  0.00    -0.176 OA 
HETATM    5  C   UNL     1      -9.597   5.250  71.018  1.00  0.00    -0.227 A  
HETATM    6  C   UNL     1      -9.536   4.942  69.661  1.00  0.00    -0.243 A  
HETATM    7  C   UNL     1     -10.440   5.523  68.784  1.00  0.00    -0.261 A  
HETATM    8  C   UNL     1     -11.380   6.441  69.257  1.00  0.00    -0.405 A  
HETATM    9  C   UNL     1     -11.418   6.821  70.612  1.00  0.00    -0.351 A  
ENDROOT
BRANCH   9  10
HETATM   10  N   UNL     1     -12.400   7.760  71.066  1.00  0.00    -0.480 NA 
HETATM   11  H   UNL     1     -13.207   7.393  71.570  1.00  0.00     0.000 HD 
BRANCH  10  12
HETATM   12  C   UNL     1     -12.334   9.171  70.867  1.00  0.00    -0.142 A  
HETATM   13  C   UNL     1     -11.721   9.730  69.734  1.00  0.00    -0.008 A  
HETATM   14  C   UNL     1     -11.708  11.119  69.517  1.00  0.00    -0.405 A  
HETATM   15  C   UNL     1     -11.060  11.718  68.292  1.00  0.00    -0.240 C  
HETATM   16  C   UNL     1     -12.309  11.956  70.467  1.00  0.00    -0.372 A  
HETATM   17  F   UNL     1     -11.950  12.374  67.499  1.00  0.00    -0.407 F  
HETATM   18  F   UNL     1     -10.100  12.630  68.610  1.00  0.00    -0.219 F  
HETATM   19  F   UNL     1     -10.452  10.800  67.491  1.00  0.00    -0.207 F  
HETATM   20  C   UNL     1     -12.851  11.420  71.633  1.00  0.00    -0.497 A  
HETATM   21  C   UNL     1     -12.841  10.038  71.843  1.00  0.00    -0.524 A  
ENDBRANCH  10  12
ENDBRANCH   9  10
TORSDOF 2
ENDMDL
MODEL      113
REMARK 921   NORMALIZED FREE ENERGY PREDICTED BY IDOCK:   -5.31 KCAL/MOL
REMARK 922        TOTAL FREE ENERGY PREDICTED BY IDOCK:   -6.33 KCAL/MOL
REMARK 923 INTER-LIGAND FREE ENERGY PREDICTED BY IDOCK:   -6.22 KCAL/MOL
REMARK 924 INTRA-LIGAND FREE ENERGY PREDICTED BY IDOCK:   -0.11 KCAL/MOL
REMARK 927      BINDING AFFINITY PREDICTED BY RF-SCORE:    0.00 PKD
ROOT
HETATM    1  O   UNL     1      -9.984   8.044  68.877  1.00  0.00    -0.183 OA 
HETATM    2  C   UNL     1     -10.197   7.840  70.194  1.00  0.00    -0.205 C  
HETATM    3  C   UNL     1     -11.359   8.591  70.757  1.00  0.00    -0.296 A  
HETATM    4  O   UNL     1      -9.509   7.088  70.861  1.00  0.00    -0.161 OA 
HETATM    5  C   UNL     1     -11.881   8.094  71.967  1.00  0.00    -0.392 A  
HETATM    6  C   UNL     1     -12.931   8.741  72.613  1.00  0.00    -0.305 A  
HETATM    7  C   UNL     1     -13.448   9.913  72.081  1.00  0.00    -0.454 A  
HETATM    8  C   UNL     1     -12.941  10.417  70.882  1.00  0.00    -0.475 A  
HETATM    9  C   UNL     1     -11.926   9.747  70.173  1.00  0.00    -0.021 A  
ENDROOT
BRANCH   9  10
HETATM   10  N   UNL     1     -11.423  10.295  68.949  1.00  0.00    -0.467 NA 
HETATM   11  H   UNL     1     -10.923   9.666  68.321  1.00  0.00     0.000 HD 
BRANCH  10  12
HETATM   12  C   UNL     1     -11.569  11.654  68.542  1.00  0.00    -0.317 A  
HETATM   13  C   UNL     1     -11.536  12.711  69.468  1.00  0.00    -0.294 A  
HETATM   14  C   UNL     1     -11.624  14.051  69.054  1.00  0.00    -0.345 A  
HETATM   15  C   UNL     1     -11.576  15.185  70.049  1.00  0.00    -0.294 C  
HETATM   16  C   UNL     1     -11.765  14.328  67.687  1.00  0.00    -0.421 A  
HETATM   17  F   UNL     1     -10.500  15.999  69.861  1.00  0.00    -0.253 F  
HETATM   18  F   UNL     1     -12.671  15.991  69.968  1.00  0.00    -0.316 F  
HETATM   19  F   UNL     1     -11.511  14.774  71.346  1.00  0.00    -0.358 F  
HETATM   20  C   UNL     1     -11.877  13.288  66.768  1.00  0.00    -0.448 A  
HETATM   21  C   UNL     1     -11.805  11.959  67.196  1.00  0.00    -0.216 A  
ENDBRANCH  10  12
ENDBRANCH   9  10
TORSDOF 2
ENDMDL
MODEL      114
REMARK 921   NORMALIZED FREE ENERGY PREDICTED BY IDOCK:   -5.29 KCAL/MOL
REMARK 922        TOTAL FREE ENERGY PREDICTED BY IDOCK:   -6.31 KCAL/MOL
REMARK 923 INTER-LIGAND FREE ENERGY PREDICTED BY IDOCK:   -6.08 KCAL/MOL
REMARK 924 INTRA-LIGAND FREE ENERGY PREDICTED BY IDOCK:   -0.24 KCAL/MOL
REMARK 927      BINDING AFFINITY PREDICTED BY RF-SCORE:    0.00 PKD
ROOT
HETATM    1  O   UNL     1     -11.946  14.843  69.112  1.00  0.00    -0.304 OA 
HETATM    2  C   UNL     1     -11.238  15.273  68.047  1.00  0.00    -0.326 C  
HETATM    3  C   UNL     1     -11.443  14.472  66.803  1.00  0.00    -0.376 A  
HETATM    4  O   UNL     1     -10.509  16.247  68.094  1.00  0.00    -0.266 OA 
HETATM    5  C   UNL     1     -11.094  15.113  65.598  1.00  0.00    -0.334 A  
HETATM    6  C   UNL     1     -11.193  14.448  64.379  1.00  0.00    -0.235 A  
HETATM    7  C   UNL     1     -11.605  13.123  64.349  1.00  0.00    -0.422 A  
HETATM    8  C   UNL     1     -11.954  12.475  65.536  1.00  0.00    -0.500 A  
HETATM    9  C   UNL     1     -11.928  13.144  66.774  1.00  0.00    -0.373 A  
ENDROOT
BRANCH   9  10
HETATM   10  N   UNL     1     -12.286  12.448  67.974  1.00  0.00    -0.277 NA 
HETATM   11  H   UNL     1     -13.069  12.814  68.516  1.00  0.00     0.000 HD 
BRANCH  10  12
HETATM   12  C   UNL     1     -11.630  11.282  68.468  1.00  0.00    -0.315 A  
HETATM   13  C   UNL     1     -11.071  10.326  67.603  1.00  0.00    -0.319 A  
HETATM   14  C   UNL     1     -10.378   9.208  68.098  1.00  0.00    -0.263 A  
HETATM   15  C   UNL     1      -9.766   8.188  67.167  1.00  0.00    -0.199 C  
HETATM   16  C   UNL     1     -10.262   9.043  69.484  1.00  0.00    -0.205 A  
HETATM   17  F   UNL     1      -8.412   8.120  67.284  1.00  0.00    -0.119 F  
HETATM   18  F   UNL     1     -10.225   6.928  67.408  1.00  0.00    -0.175 F  
HETATM   19  F   UNL     1     -10.015   8.430  65.850  1.00  0.00    -0.273 F  
HETATM   20  C   UNL     1     -10.878   9.942  70.352  1.00  0.00    -0.380 A  
HETATM   21  C   UNL     1     -11.579  11.041  69.846  1.00  0.00    -0.416 A  
ENDBRANCH  10  12
ENDBRANCH   9  10
TORSDOF 2
ENDMDL
MODEL      115
REMARK 921   NORMALIZED FREE ENERGY PREDICTED BY IDOCK:   -5.28 KCAL/MOL
REMARK 922        TOTAL FREE ENERGY PREDICTED BY IDOCK:   -6.30 KCAL/MOL
REMARK 923 INTER-LIGAND FREE ENERGY PREDICTED BY IDOCK:   -5.90 KCAL/MOL
REMARK 924 INTRA-LIGAND FREE ENERGY PREDICTED BY IDOCK:   -0.40 KCAL/MOL
REMARK 927      BINDING AFFINITY PREDICTED BY RF-SCORE:    0.00 PKD
ROOT
HETATM    1  O   UNL     1     -13.635  10.294  71.965  1.00  0.00    -0.339 OA 
HETATM    2  C   UNL     1     -13.136  11.526  71.730  1.00  0.00    -0.398 C  
HETATM    3  C   UNL     1     -12.220  11.610  70.553  1.00  0.00    -0.451 A  
HETATM    4  O   UNL     1     -13.428  12.492  72.412  1.00  0.00    -0.529 OA 
HETATM    5  C   UNL     1     -12.033  12.898  70.015  1.00  0.00    -0.380 A  
HETATM    6  C   UNL     1     -11.162  13.108  68.949  1.00  0.00    -0.324 A  
HETATM    7  C   UNL     1     -10.438  12.044  68.432  1.00  0.00    -0.231 A  
HETATM    8  C   UNL     1     -10.613  10.762  68.957  1.00  0.00    -0.250 A  
HETATM    9  C   UNL     1     -11.538  10.509  69.988  1.00  0.00    -0.313 A  
ENDROOT
BRANCH   9  10
HETATM   10  N   UNL     1     -11.688   9.183  70.508  1.00  0.00    -0.428 NA 
HETATM   11  H   UNL     1     -12.453   8.617  70.141  1.00  0.00     0.000 HD 
BRANCH  10  12
HETATM   12  C   UNL     1     -10.849   8.594  71.500  1.00  0.00    -0.282 A  
HETATM   13  C   UNL     1      -9.450   8.715  71.451  1.00  0.00    -0.306 A  
HETATM   14  C   UNL     1      -8.633   8.180  72.462  1.00  0.00    -0.255 A  
HETATM   15  C   UNL     1      -7.131   8.322  72.415  1.00  0.00    -0.098 C  
HETATM   16  C   UNL     1      -9.235   7.498  73.527  1.00  0.00    -0.301 A  
HETATM   17  F   UNL     1      -6.641   9.042  73.461  1.00  0.00    -0.070 F  
HETATM   18  F   UNL     1      -6.496   7.118  72.461  1.00  0.00    -0.051 F  
HETATM   19  F   UNL     1      -6.674   8.941  71.290  1.00  0.00    -0.057 F  
HETATM   20  C   UNL     1     -10.614   7.304  73.547  1.00  0.00    -0.408 A  
HETATM   21  C   UNL     1     -11.414   7.828  72.526  1.00  0.00    -0.428 A  
ENDBRANCH  10  12
ENDBRANCH   9  10
TORSDOF 2
ENDMDL
MODEL      116
REMARK 921   NORMALIZED FREE ENERGY PREDICTED BY IDOCK:   -5.27 KCAL/MOL
REMARK 922        TOTAL FREE ENERGY PREDICTED BY IDOCK:   -6.29 KCAL/MOL
REMARK 923 INTER-LIGAND FREE ENERGY PREDICTED BY IDOCK:   -5.66 KCAL/MOL
REMARK 924 INTRA-LIGAND FREE ENERGY PREDICTED BY IDOCK:   -0.63 KCAL/MOL
REMARK 927      BINDING AFFINITY PREDICTED BY RF-SCORE:    0.00 PKD
ROOT
HETATM    1  O   UNL     1     -12.599  15.106  68.758  1.00  0.00     0.124 OA 
HETATM    2  C   UNL     1     -11.470  15.706  69.191  1.00  0.00    -0.359 C  
HETATM    3  C   UNL     1     -10.588  16.226  68.103  1.00  0.00    -0.307 A  
HETATM    4  O   UNL     1     -11.206  15.830  70.374  1.00  0.00    -0.307 OA 
HETATM    5  C   UNL     1      -9.661  17.213  68.489  1.00  0.00    -0.288 A  
HETATM    6  C   UNL     1      -8.751  17.737  67.573  1.00  0.00    -0.239 A  
HETATM    7  C   UNL     1      -8.730  17.254  66.272  1.00  0.00    -0.259 A  
HETATM    8  C   UNL     1      -9.644  16.275  65.877  1.00  0.00    -0.336 A  
HETATM    9  C   UNL     1     -10.619  15.779  66.763  1.00  0.00    -0.309 A  
ENDROOT
BRANCH   9  10
HETATM   10  N   UNL     1     -11.537  14.770  66.328  1.00  0.00    -0.336 NA 
HETATM   11  H   UNL     1     -12.529  14.923  66.513  1.00  0.00     0.000 HD 
BRANCH  10  12
HETATM   12  C   UNL     1     -11.171  13.567  65.654  1.00  0.00    -0.292 A  
HETATM   13  C   UNL     1     -10.572  12.493  66.333  1.00  0.00    -0.271 A  
HETATM   14  C   UNL     1     -10.264  11.290  65.675  1.00  0.00    -0.304 A  
HETATM   15  C   UNL     1      -9.632  10.132  66.409  1.00  0.00    -0.191 C  
HETATM   16  C   UNL     1     -10.550  11.176  64.308  1.00  0.00    -0.425 A  
HETATM   17  F   UNL     1     -10.428   9.027  66.426  1.00  0.00    -0.341 F  
HETATM   18  F   UNL     1      -8.459   9.737  65.839  1.00  0.00    -0.121 F  
HETATM   19  F   UNL     1      -9.340  10.403  67.711  1.00  0.00    -0.142 F  
HETATM   20  C   UNL     1     -11.072  12.260  63.607  1.00  0.00    -0.537 A  
HETATM   21  C   UNL     1     -11.358  13.457  64.271  1.00  0.00    -0.420 A  
ENDBRANCH  10  12
ENDBRANCH   9  10
TORSDOF 2
ENDMDL
MODEL      117
REMARK 921   NORMALIZED FREE ENERGY PREDICTED BY IDOCK:   -5.25 KCAL/MOL
REMARK 922        TOTAL FREE ENERGY PREDICTED BY IDOCK:   -6.26 KCAL/MOL
REMARK 923 INTER-LIGAND FREE ENERGY PREDICTED BY IDOCK:   -5.67 KCAL/MOL
REMARK 924 INTRA-LIGAND FREE ENERGY PREDICTED BY IDOCK:   -0.60 KCAL/MOL
REMARK 927      BINDING AFFINITY PREDICTED BY RF-SCORE:    0.00 PKD
ROOT
HETATM    1  O   UNL     1     -11.652  15.350  70.283  1.00  0.00    -0.267 OA 
HETATM    2  C   UNL     1     -11.978  14.250  69.573  1.00  0.00    -0.336 C  
HETATM    3  C   UNL     1     -11.438  14.229  68.180  1.00  0.00    -0.336 A  
HETATM    4  O   UNL     1     -12.640  13.340  70.040  1.00  0.00    -0.151 OA 
HETATM    5  C   UNL     1     -11.370  12.962  67.570  1.00  0.00    -0.354 A  
HETATM    6  C   UNL     1     -10.932  12.823  66.255  1.00  0.00    -0.307 A  
HETATM    7  C   UNL     1     -10.594  13.950  65.521  1.00  0.00    -0.318 A  
HETATM    8  C   UNL     1     -10.657  15.213  66.114  1.00  0.00    -0.318 A  
HETATM    9  C   UNL     1     -11.030  15.375  67.461  1.00  0.00    -0.315 A  
ENDROOT
BRANCH   9  10
HETATM   10  N   UNL     1     -11.091  16.685  68.037  1.00  0.00    -0.312 NA 
HETATM   11  H   UNL     1     -12.000  17.019  68.355  1.00  0.00     0.000 HD 
BRANCH  10  12
HETATM   12  C   UNL     1      -9.975  17.559  68.199  1.00  0.00    -0.321 A  
HETATM   13  C   UNL     1      -8.681  17.068  68.440  1.00  0.00    -0.247 A  
HETATM   14  C   UNL     1      -7.577  17.932  68.543  1.00  0.00    -0.290 A  
HETATM   15  C   UNL     1      -6.185  17.402  68.789  1.00  0.00    -0.182 C  
HETATM   16  C   UNL     1      -7.785  19.312  68.419  1.00  0.00    -0.362 A  
HETATM   17  F   UNL     1      -5.332  17.678  67.764  1.00  0.00    -0.126 F  
HETATM   18  F   UNL     1      -5.615  17.942  69.903  1.00  0.00    -0.190 F  
HETATM   19  F   UNL     1      -6.135  16.052  68.963  1.00  0.00    -0.115 F  
HETATM   20  C   UNL     1      -9.074  19.816  68.258  1.00  0.00    -0.365 A  
HETATM   21  C   UNL     1     -10.165  18.946  68.174  1.00  0.00    -0.454 A  
ENDBRANCH  10  12
ENDBRANCH   9  10
TORSDOF 2
ENDMDL
MODEL      118
REMARK 921   NORMALIZED FREE ENERGY PREDICTED BY IDOCK:   -5.24 KCAL/MOL
REMARK 922        TOTAL FREE ENERGY PREDICTED BY IDOCK:   -6.25 KCAL/MOL
REMARK 923 INTER-LIGAND FREE ENERGY PREDICTED BY IDOCK:   -5.80 KCAL/MOL
REMARK 924 INTRA-LIGAND FREE ENERGY PREDICTED BY IDOCK:   -0.46 KCAL/MOL
REMARK 927      BINDING AFFINITY PREDICTED BY RF-SCORE:    0.00 PKD
ROOT
HETATM    1  O   UNL     1      -7.280   8.347  64.496  1.00  0.00    -0.082 OA 
HETATM    2  C   UNL     1      -7.481   7.140  65.066  1.00  0.00    -0.093 C  
HETATM    3  C   UNL     1      -8.765   7.017  65.819  1.00  0.00    -0.116 A  
HETATM    4  O   UNL     1      -6.687   6.222  64.956  1.00  0.00    -0.041 OA 
HETATM    5  C   UNL     1      -9.218   5.703  66.045  1.00  0.00    -0.164 A  
HETATM    6  C   UNL     1     -10.376   5.461  66.780  1.00  0.00    -0.321 A  
HETATM    7  C   UNL     1     -11.075   6.525  67.330  1.00  0.00    -0.411 A  
HETATM    8  C   UNL     1     -10.638   7.833  67.113  1.00  0.00    -0.401 A  
HETATM    9  C   UNL     1      -9.510   8.110  66.318  1.00  0.00    -0.190 A  
ENDROOT
BRANCH   9  10
HETATM   10  N   UNL     1      -9.084   9.463  66.122  1.00  0.00    -0.159 NA 
HETATM   11  H   UNL     1      -8.201   9.746  66.547  1.00  0.00     0.000 HD 
BRANCH  10  12
HETATM   12  C   UNL     1      -9.800  10.445  65.375  1.00  0.00    -0.283 A  
HETATM   13  C   UNL     1     -10.603  11.410  66.004  1.00  0.00    -0.319 A  
HETATM   14  C   UNL     1     -11.262  12.409  65.267  1.00  0.00    -0.359 A  
HETATM   15  C   UNL     1     -12.115  13.454  65.945  1.00  0.00    -0.439 C  
HETATM   16  C   UNL     1     -11.121  12.423  63.873  1.00  0.00    -0.475 A  
HETATM   17  F   UNL     1     -11.633  14.715  65.770  1.00  0.00    -0.343 F  
HETATM   18  F   UNL     1     -13.390  13.471  65.467  1.00  0.00    -0.408 F  
HETATM   19  F   UNL     1     -12.225  13.281  67.292  1.00  0.00    -0.396 F  
HETATM   20  C   UNL     1     -10.391  11.425  63.231  1.00  0.00    -0.422 A  
HETATM   21  C   UNL     1      -9.755  10.428  63.976  1.00  0.00    -0.373 A  
ENDBRANCH  10  12
ENDBRANCH   9  10
TORSDOF 2
ENDMDL
MODEL      119
REMARK 921   NORMALIZED FREE ENERGY PREDICTED BY IDOCK:   -5.24 KCAL/MOL
REMARK 922        TOTAL FREE ENERGY PREDICTED BY IDOCK:   -6.25 KCAL/MOL
REMARK 923 INTER-LIGAND FREE ENERGY PREDICTED BY IDOCK:   -5.70 KCAL/MOL
REMARK 924 INTRA-LIGAND FREE ENERGY PREDICTED BY IDOCK:   -0.55 KCAL/MOL
REMARK 927      BINDING AFFINITY PREDICTED BY RF-SCORE:    0.00 PKD
ROOT
HETATM    1  O   UNL     1     -11.947  14.151  68.928  1.00  0.00    -0.333 OA 
HETATM    2  C   UNL     1     -11.525  14.814  67.831  1.00  0.00    -0.342 C  
HETATM    3  C   UNL     1     -11.711  14.070  66.549  1.00  0.00    -0.412 A  
HETATM    4  O   UNL     1     -11.051  15.935  67.883  1.00  0.00    -0.331 OA 
HETATM    5  C   UNL     1     -11.704  14.856  65.380  1.00  0.00    -0.238 A  
HETATM    6  C   UNL     1     -11.817  14.268  64.122  1.00  0.00    -0.338 A  
HETATM    7  C   UNL     1     -11.900  12.888  64.013  1.00  0.00    -0.512 A  
HETATM    8  C   UNL     1     -11.908  12.097  65.164  1.00  0.00    -0.356 A  
HETATM    9  C   UNL     1     -11.864  12.669  66.450  1.00  0.00    -0.402 A  
ENDROOT
BRANCH   9  10
HETATM   10  N   UNL     1     -11.867  11.828  67.609  1.00  0.00    -0.603 NA 
HETATM   11  H   UNL     1     -12.679  11.876  68.224  1.00  0.00     0.000 HD 
BRANCH  10  12
HETATM   12  C   UNL     1     -10.820  10.929  67.970  1.00  0.00    -0.245 A  
HETATM   13  C   UNL     1     -11.065   9.779  68.737  1.00  0.00    -0.140 A  
HETATM   14  C   UNL     1     -10.038   8.868  69.042  1.00  0.00    -0.205 A  
HETATM   15  C   UNL     1     -10.306   7.626  69.856  1.00  0.00    -0.225 C  
HETATM   16  C   UNL     1      -8.743   9.132  68.579  1.00  0.00    -0.129 A  
HETATM   17  F   UNL     1     -10.069   6.482  69.157  1.00  0.00    -0.154 F  
HETATM   18  F   UNL     1      -9.519   7.555  70.966  1.00  0.00    -0.158 F  
HETATM   19  F   UNL     1     -11.589   7.530  70.303  1.00  0.00    -0.283 F  
HETATM   20  C   UNL     1      -8.471  10.308  67.884  1.00  0.00    -0.118 A  
HETATM   21  C   UNL     1      -9.499  11.213  67.603  1.00  0.00    -0.173 A  
ENDBRANCH  10  12
ENDBRANCH   9  10
TORSDOF 2
ENDMDL
MODEL      120
REMARK 921   NORMALIZED FREE ENERGY PREDICTED BY IDOCK:   -5.23 KCAL/MOL
REMARK 922        TOTAL FREE ENERGY PREDICTED BY IDOCK:   -6.24 KCAL/MOL
REMARK 923 INTER-LIGAND FREE ENERGY PREDICTED BY IDOCK:   -6.01 KCAL/MOL
REMARK 924 INTRA-LIGAND FREE ENERGY PREDICTED BY IDOCK:   -0.23 KCAL/MOL
REMARK 927      BINDING AFFINITY PREDICTED BY RF-SCORE:    0.00 PKD
ROOT
HETATM    1  O   UNL     1      -7.966  11.733  66.472  1.00  0.00    -0.119 OA 
HETATM    2  C   UNL     1      -8.986  11.067  65.889  1.00  0.00    -0.195 C  
HETATM    3  C   UNL     1      -9.957  11.937  65.160  1.00  0.00    -0.276 A  
HETATM    4  O   UNL     1      -9.090   9.854  65.939  1.00  0.00    -0.148 OA 
HETATM    5  C   UNL     1     -10.756  11.289  64.199  1.00  0.00    -0.436 A  
HETATM    6  C   UNL     1     -11.733  11.986  63.492  1.00  0.00    -0.566 A  
HETATM    7  C   UNL     1     -11.951  13.329  63.764  1.00  0.00    -0.551 A  
HETATM    8  C   UNL     1     -11.166  13.984  64.714  1.00  0.00    -0.375 A  
HETATM    9  C   UNL     1     -10.126  13.321  65.394  1.00  0.00    -0.253 A  
ENDROOT
BRANCH   9  10
HETATM   10  N   UNL     1      -9.344  14.021  66.368  1.00  0.00    -0.429 NA 
HETATM   11  H   UNL     1      -8.733  13.467  66.968  1.00  0.00     0.000 HD 
BRANCH  10  12
HETATM   12  C   UNL     1      -9.355  15.434  66.563  1.00  0.00    -0.282 A  
HETATM   13  C   UNL     1      -8.211  16.218  66.342  1.00  0.00    -0.354 A  
HETATM   14  C   UNL     1      -8.243  17.617  66.482  1.00  0.00    -0.307 A  
HETATM   15  C   UNL     1      -7.016  18.460  66.232  1.00  0.00    -0.243 C  
HETATM   16  C   UNL     1      -9.443  18.229  66.867  1.00  0.00    -0.290 A  
HETATM   17  F   UNL     1      -7.181  19.327  65.195  1.00  0.00    -0.231 F  
HETATM   18  F   UNL     1      -6.686  19.225  67.309  1.00  0.00    -0.193 F  
HETATM   19  F   UNL     1      -5.903  17.733  65.937  1.00  0.00    -0.192 F  
HETATM   20  C   UNL     1     -10.562  17.456  67.164  1.00  0.00    -0.264 A  
HETATM   21  C   UNL     1     -10.511  16.065  67.037  1.00  0.00    -0.307 A  
ENDBRANCH  10  12
ENDBRANCH   9  10
TORSDOF 2
ENDMDL
MODEL      121
REMARK 921   NORMALIZED FREE ENERGY PREDICTED BY IDOCK:   -5.21 KCAL/MOL
REMARK 922        TOTAL FREE ENERGY PREDICTED BY IDOCK:   -6.23 KCAL/MOL
REMARK 923 INTER-LIGAND FREE ENERGY PREDICTED BY IDOCK:   -5.55 KCAL/MOL
REMARK 924 INTRA-LIGAND FREE ENERGY PREDICTED BY IDOCK:   -0.68 KCAL/MOL
REMARK 927      BINDING AFFINITY PREDICTED BY RF-SCORE:    0.00 PKD
ROOT
HETATM    1  O   UNL     1      -7.945  11.099  67.066  1.00  0.00    -0.132 OA 
HETATM    2  C   UNL     1      -8.502  10.425  66.038  1.00  0.00    -0.146 C  
HETATM    3  C   UNL     1      -9.541  11.190  65.285  1.00  0.00    -0.268 A  
HETATM    4  O   UNL     1      -8.167   9.292  65.739  1.00  0.00    -0.111 OA 
HETATM    5  C   UNL     1      -9.822  10.724  63.987  1.00  0.00    -0.390 A  
HETATM    6  C   UNL     1     -10.809  11.326  63.209  1.00  0.00    -0.222 A  
HETATM    7  C   UNL     1     -11.552  12.374  63.731  1.00  0.00    -0.553 A  
HETATM    8  C   UNL     1     -11.283  12.846  65.017  1.00  0.00    -0.324 A  
HETATM    9  C   UNL     1     -10.247  12.302  65.799  1.00  0.00    -0.255 A  
ENDROOT
BRANCH   9  10
HETATM   10  N   UNL     1     -10.002  12.805  67.117  1.00  0.00    -0.215 NA 
HETATM   11  H   UNL     1      -9.110  13.271  67.286  1.00  0.00     0.000 HD 
BRANCH  10  12
HETATM   12  C   UNL     1     -10.910  12.704  68.212  1.00  0.00    -0.239 A  
HETATM   13  C   UNL     1     -11.100  11.497  68.906  1.00  0.00    -0.288 A  
HETATM   14  C   UNL     1     -11.955  11.418  70.019  1.00  0.00    -0.442 A  
HETATM   15  C   UNL     1     -12.149  10.124  70.771  1.00  0.00    -0.343 C  
HETATM   16  C   UNL     1     -12.641  12.570  70.426  1.00  0.00    -0.099 A  
HETATM   17  F   UNL     1     -11.728  10.203  72.063  1.00  0.00    -0.303 F  
HETATM   18  F   UNL     1     -13.457   9.749  70.826  1.00  0.00    -0.382 F  
HETATM   19  F   UNL     1     -11.482   9.069  70.225  1.00  0.00    -0.266 F  
HETATM   20  C   UNL     1     -12.521  13.753  69.700  1.00  0.00    -0.176 A  
HETATM   21  C   UNL     1     -11.680  13.812  68.585  1.00  0.00    -0.391 A  
ENDBRANCH  10  12
ENDBRANCH   9  10
TORSDOF 2
ENDMDL
MODEL      122
REMARK 921   NORMALIZED FREE ENERGY PREDICTED BY IDOCK:   -5.21 KCAL/MOL
REMARK 922        TOTAL FREE ENERGY PREDICTED BY IDOCK:   -6.22 KCAL/MOL
REMARK 923 INTER-LIGAND FREE ENERGY PREDICTED BY IDOCK:   -5.63 KCAL/MOL
REMARK 924 INTRA-LIGAND FREE ENERGY PREDICTED BY IDOCK:   -0.59 KCAL/MOL
REMARK 927      BINDING AFFINITY PREDICTED BY RF-SCORE:    0.00 PKD
ROOT
HETATM    1  O   UNL     1     -11.888   6.411  69.568  1.00  0.00    -0.274 OA 
HETATM    2  C   UNL     1     -10.655   6.016  69.952  1.00  0.00    -0.279 C  
HETATM    3  C   UNL     1      -9.751   7.128  70.373  1.00  0.00    -0.176 A  
HETATM    4  O   UNL     1     -10.319   4.845  69.971  1.00  0.00    -0.268 OA 
HETATM    5  C   UNL     1      -8.655   6.754  71.174  1.00  0.00    -0.132 A  
HETATM    6  C   UNL     1      -7.715   7.696  71.585  1.00  0.00    -0.086 A  
HETATM    7  C   UNL     1      -7.836   9.015  71.171  1.00  0.00    -0.154 A  
HETATM    8  C   UNL     1      -8.919   9.399  70.377  1.00  0.00    -0.294 A  
HETATM    9  C   UNL     1      -9.920   8.482  70.004  1.00  0.00    -0.188 A  
ENDROOT
BRANCH   9  10
HETATM   10  N   UNL     1     -11.013   8.907  69.183  1.00  0.00    -0.428 NA 
HETATM   11  H   UNL     1     -11.954   8.649  69.480  1.00  0.00     0.000 HD 
BRANCH  10  12
HETATM   12  C   UNL     1     -10.886   9.665  67.981  1.00  0.00    -0.196 A  
HETATM   13  C   UNL     1     -11.410  10.964  67.867  1.00  0.00    -0.380 A  
HETATM   14  C   UNL     1     -11.233  11.726  66.699  1.00  0.00    -0.383 A  
HETATM   15  C   UNL     1     -11.785  13.126  66.584  1.00  0.00    -0.375 C  
HETATM   16  C   UNL     1     -10.532  11.162  65.625  1.00  0.00    -0.308 A  
HETATM   17  F   UNL     1     -10.809  14.061  66.423  1.00  0.00    -0.291 F  
HETATM   18  F   UNL     1     -12.616  13.267  65.514  1.00  0.00    -0.463 F  
HETATM   19  F   UNL     1     -12.506  13.522  67.669  1.00  0.00    -0.314 F  
HETATM   20  C   UNL     1     -10.076   9.848  65.696  1.00  0.00    -0.307 A  
HETATM   21  C   UNL     1     -10.274   9.096  66.858  1.00  0.00    -0.336 A  
ENDBRANCH  10  12
ENDBRANCH   9  10
TORSDOF 2
ENDMDL
MODEL      123
REMARK 921   NORMALIZED FREE ENERGY PREDICTED BY IDOCK:   -5.20 KCAL/MOL
REMARK 922        TOTAL FREE ENERGY PREDICTED BY IDOCK:   -6.21 KCAL/MOL
REMARK 923 INTER-LIGAND FREE ENERGY PREDICTED BY IDOCK:   -5.57 KCAL/MOL
REMARK 924 INTRA-LIGAND FREE ENERGY PREDICTED BY IDOCK:   -0.65 KCAL/MOL
REMARK 927      BINDING AFFINITY PREDICTED BY RF-SCORE:    0.00 PKD
ROOT
HETATM    1  O   UNL     1     -12.197  13.477  67.434  1.00  0.00    -0.339 OA 
HETATM    2  C   UNL     1     -12.464  13.428  66.112  1.00  0.00    -0.326 C  
HETATM    3  C   UNL     1     -11.543  12.552  65.326  1.00  0.00    -0.406 A  
HETATM    4  O   UNL     1     -13.394  14.032  65.608  1.00  0.00    -0.636 OA 
HETATM    5  C   UNL     1     -12.025  12.126  64.074  1.00  0.00    -0.533 A  
HETATM    6  C   UNL     1     -11.235  11.349  63.229  1.00  0.00    -0.152 A  
HETATM    7  C   UNL     1      -9.942  11.021  63.608  1.00  0.00    -0.415 A  
HETATM    8  C   UNL     1      -9.451  11.437  64.847  1.00  0.00    -0.194 A  
HETATM    9  C   UNL     1     -10.251  12.164  65.748  1.00  0.00    -0.254 A  
ENDROOT
BRANCH   9  10
HETATM   10  N   UNL     1      -9.714  12.582  67.009  1.00  0.00    -0.208 NA 
HETATM   11  H   UNL     1     -10.044  12.100  67.845  1.00  0.00     0.000 HD 
BRANCH  10  12
HETATM   12  C   UNL     1      -8.753  13.621  67.184  1.00  0.00    -0.216 A  
HETATM   13  C   UNL     1      -9.109  14.978  67.110  1.00  0.00    -0.229 A  
HETATM   14  C   UNL     1      -8.168  15.996  67.339  1.00  0.00    -0.189 A  
HETATM   15  C   UNL     1      -8.555  17.454  67.272  1.00  0.00    -0.212 C  
HETATM   16  C   UNL     1      -6.844  15.639  67.629  1.00  0.00    -0.201 A  
HETATM   17  F   UNL     1      -8.395  18.092  68.464  1.00  0.00    -0.279 F  
HETATM   18  F   UNL     1      -7.803  18.148  66.374  1.00  0.00    -0.241 F  
HETATM   19  F   UNL     1      -9.852  17.660  66.910  1.00  0.00    -0.264 F  
HETATM   20  C   UNL     1      -6.461  14.300  67.627  1.00  0.00    -0.151 A  
HETATM   21  C   UNL     1      -7.405  13.298  67.382  1.00  0.00    -0.125 A  
ENDBRANCH  10  12
ENDBRANCH   9  10
TORSDOF 2
ENDMDL
MODEL      124
REMARK 921   NORMALIZED FREE ENERGY PREDICTED BY IDOCK:   -5.20 KCAL/MOL
REMARK 922        TOTAL FREE ENERGY PREDICTED BY IDOCK:   -6.21 KCAL/MOL
REMARK 923 INTER-LIGAND FREE ENERGY PREDICTED BY IDOCK:   -5.59 KCAL/MOL
REMARK 924 INTRA-LIGAND FREE ENERGY PREDICTED BY IDOCK:   -0.61 KCAL/MOL
REMARK 927      BINDING AFFINITY PREDICTED BY RF-SCORE:    0.00 PKD
ROOT
HETATM    1  O   UNL     1     -13.845   9.584  71.768  1.00  0.00    -0.326 OA 
HETATM    2  C   UNL     1     -13.065  10.647  71.478  1.00  0.00    -0.424 C  
HETATM    3  C   UNL     1     -12.055  10.399  70.406  1.00  0.00    -0.402 A  
HETATM    4  O   UNL     1     -13.193  11.724  72.032  1.00  0.00    -0.506 OA 
HETATM    5  C   UNL     1     -11.539  11.548  69.775  1.00  0.00    -0.401 A  
HETATM    6  C   UNL     1     -10.553  11.445  68.796  1.00  0.00    -0.235 A  
HETATM    7  C   UNL     1     -10.042  10.199  68.463  1.00  0.00    -0.186 A  
HETATM    8  C   UNL     1     -10.545   9.052  69.081  1.00  0.00    -0.219 A  
HETATM    9  C   UNL     1     -11.588   9.121  70.023  1.00  0.00     0.060 A  
ENDROOT
BRANCH   9  10
HETATM   10  N   UNL     1     -12.076   7.926  70.643  1.00  0.00    -0.492 NA 
HETATM   11  H   UNL     1     -13.007   7.603  70.380  1.00  0.00     0.000 HD 
BRANCH  10  12
HETATM   12  C   UNL     1     -11.357   7.151  71.602  1.00  0.00    -0.251 A  
HETATM   13  C   UNL     1     -10.917   5.848  71.318  1.00  0.00    -0.325 A  
HETATM   14  C   UNL     1     -10.162   5.111  72.247  1.00  0.00    -0.255 A  
HETATM   15  C   UNL     1      -9.679   3.715  71.936  1.00  0.00    -0.166 C  
HETATM   16  C   UNL     1      -9.862   5.693  73.486  1.00  0.00    -0.173 A  
HETATM   17  F   UNL     1      -8.320   3.625  71.915  1.00  0.00    -0.072 F  
HETATM   18  F   UNL     1     -10.098   2.805  72.859  1.00  0.00    -0.161 F  
HETATM   19  F   UNL     1     -10.102   3.245  70.730  1.00  0.00    -0.203 F  
HETATM   20  C   UNL     1     -10.358   6.953  73.809  1.00  0.00    -0.409 A  
HETATM   21  C   UNL     1     -11.122   7.668  72.882  1.00  0.00    -0.448 A  
ENDBRANCH  10  12
ENDBRANCH   9  10
TORSDOF 2
ENDMDL
MODEL      125
REMARK 921   NORMALIZED FREE ENERGY PREDICTED BY IDOCK:   -5.17 KCAL/MOL
REMARK 922        TOTAL FREE ENERGY PREDICTED BY IDOCK:   -6.17 KCAL/MOL
REMARK 923 INTER-LIGAND FREE ENERGY PREDICTED BY IDOCK:   -5.61 KCAL/MOL
REMARK 924 INTRA-LIGAND FREE ENERGY PREDICTED BY IDOCK:   -0.56 KCAL/MOL
REMARK 927      BINDING AFFINITY PREDICTED BY RF-SCORE:    0.00 PKD
ROOT
HETATM    1  O   UNL     1      -9.205  10.816  64.539  1.00  0.00    -0.204 OA 
HETATM    2  C   UNL     1     -10.424  11.366  64.360  1.00  0.00    -0.330 C  
HETATM    3  C   UNL     1     -10.926  12.151  65.527  1.00  0.00    -0.343 A  
HETATM    4  O   UNL     1     -11.051  11.248  63.322  1.00  0.00    -0.270 OA 
HETATM    5  C   UNL     1     -11.947  13.080  65.246  1.00  0.00    -0.446 A  
HETATM    6  C   UNL     1     -12.531  13.832  66.262  1.00  0.00    -0.441 A  
HETATM    7  C   UNL     1     -12.129  13.640  67.576  1.00  0.00    -0.352 A  
HETATM    8  C   UNL     1     -11.118  12.723  67.869  1.00  0.00    -0.281 A  
HETATM    9  C   UNL     1     -10.465  11.999  66.854  1.00  0.00    -0.223 A  
ENDROOT
BRANCH   9  10
HETATM   10  N   UNL     1      -9.436  11.061  67.190  1.00  0.00    -0.164 NA 
HETATM   11  H   UNL     1      -8.579  11.084  66.638  1.00  0.00     0.000 HD 
BRANCH  10  12
HETATM   12  C   UNL     1      -9.520  10.098  68.238  1.00  0.00    -0.140 A  
HETATM   13  C   UNL     1     -10.149   8.856  68.052  1.00  0.00    -0.239 A  
HETATM   14  C   UNL     1     -10.179   7.889  69.072  1.00  0.00    -0.216 A  
HETATM   15  C   UNL     1     -10.845   6.550  68.866  1.00  0.00    -0.301 C  
HETATM   16  C   UNL     1      -9.580   8.187  70.303  1.00  0.00    -0.171 A  
HETATM   17  F   UNL     1      -9.970   5.511  68.959  1.00  0.00    -0.169 F  
HETATM   18  F   UNL     1     -11.813   6.306  69.793  1.00  0.00    -0.494 F  
HETATM   19  F   UNL     1     -11.451   6.420  67.653  1.00  0.00    -0.396 F  
HETATM   20  C   UNL     1      -9.021   9.443  70.526  1.00  0.00    -0.303 A  
HETATM   21  C   UNL     1      -9.013  10.401  69.508  1.00  0.00    -0.127 A  
ENDBRANCH  10  12
ENDBRANCH   9  10
TORSDOF 2
ENDMDL
MODEL      126
REMARK 921   NORMALIZED FREE ENERGY PREDICTED BY IDOCK:   -5.16 KCAL/MOL
REMARK 922        TOTAL FREE ENERGY PREDICTED BY IDOCK:   -6.17 KCAL/MOL
REMARK 923 INTER-LIGAND FREE ENERGY PREDICTED BY IDOCK:   -5.68 KCAL/MOL
REMARK 924 INTRA-LIGAND FREE ENERGY PREDICTED BY IDOCK:   -0.49 KCAL/MOL
REMARK 927      BINDING AFFINITY PREDICTED BY RF-SCORE:    0.00 PKD
ROOT
HETATM    1  O   UNL     1     -12.622  12.298  65.158  1.00  0.00    -0.585 OA 
HETATM    2  C   UNL     1     -12.434  13.628  65.294  1.00  0.00    -0.479 C  
HETATM    3  C   UNL     1     -11.095  14.012  65.834  1.00  0.00    -0.301 A  
HETATM    4  O   UNL     1     -13.281  14.445  64.980  1.00  0.00    -0.562 OA 
HETATM    5  C   UNL     1     -10.693  15.338  65.585  1.00  0.00    -0.376 A  
HETATM    6  C   UNL     1      -9.488  15.826  66.084  1.00  0.00    -0.375 A  
HETATM    7  C   UNL     1      -8.687  15.009  66.869  1.00  0.00    -0.285 A  
HETATM    8  C   UNL     1      -9.074  13.692  67.122  1.00  0.00    -0.241 A  
HETATM    9  C   UNL     1     -10.253  13.152  66.574  1.00  0.00    -0.277 A  
ENDROOT
BRANCH   9  10
HETATM   10  N   UNL     1     -10.623  11.799  66.861  1.00  0.00    -0.226 NA 
HETATM   11  H   UNL     1     -11.419  11.649  67.480  1.00  0.00     0.000 HD 
BRANCH  10  12
HETATM   12  C   UNL     1      -9.964  10.644  66.344  1.00  0.00    -0.222 A  
HETATM   13  C   UNL     1     -10.024   9.403  67.000  1.00  0.00    -0.282 A  
HETATM   14  C   UNL     1      -9.418   8.257  66.457  1.00  0.00    -0.284 A  
HETATM   15  C   UNL     1      -9.494   6.922  67.157  1.00  0.00    -0.140 C  
HETATM   16  C   UNL     1      -8.728   8.369  65.243  1.00  0.00    -0.148 A  
HETATM   17  F   UNL     1     -10.156   5.984  66.424  1.00  0.00    -0.201 F  
HETATM   18  F   UNL     1      -8.262   6.398  67.408  1.00  0.00    -0.112 F  
HETATM   19  F   UNL     1     -10.130   6.970  68.361  1.00  0.00    -0.147 F  
HETATM   20  C   UNL     1      -8.595   9.609  64.622  1.00  0.00    -0.201 A  
HETATM   21  C   UNL     1      -9.189  10.744  65.183  1.00  0.00    -0.239 A  
ENDBRANCH  10  12
ENDBRANCH   9  10
TORSDOF 2
ENDMDL
MODEL      127
REMARK 921   NORMALIZED FREE ENERGY PREDICTED BY IDOCK:   -5.15 KCAL/MOL
REMARK 922        TOTAL FREE ENERGY PREDICTED BY IDOCK:   -6.15 KCAL/MOL
REMARK 923 INTER-LIGAND FREE ENERGY PREDICTED BY IDOCK:   -5.58 KCAL/MOL
REMARK 924 INTRA-LIGAND FREE ENERGY PREDICTED BY IDOCK:   -0.57 KCAL/MOL
REMARK 927      BINDING AFFINITY PREDICTED BY RF-SCORE:    0.00 PKD
ROOT
HETATM    1  O   UNL     1     -10.750  17.148  65.426  1.00  0.00    -0.562 OA 
HETATM    2  C   UNL     1      -9.904  17.950  66.107  1.00  0.00    -0.249 C  
HETATM    3  C   UNL     1      -9.101  17.254  67.156  1.00  0.00    -0.234 A  
HETATM    4  O   UNL     1      -9.792  19.139  65.867  1.00  0.00    -0.453 OA 
HETATM    5  C   UNL     1      -7.931  17.919  67.572  1.00  0.00    -0.217 A  
HETATM    6  C   UNL     1      -7.129  17.392  68.581  1.00  0.00    -0.237 A  
HETATM    7  C   UNL     1      -7.503  16.216  69.214  1.00  0.00    -0.222 A  
HETATM    8  C   UNL     1      -8.660  15.546  68.811  1.00  0.00    -0.188 A  
HETATM    9  C   UNL     1      -9.452  16.020  67.748  1.00  0.00    -0.217 A  
ENDROOT
BRANCH   9  10
HETATM   10  N   UNL     1     -10.637  15.312  67.365  1.00  0.00    -0.276 NA 
HETATM   11  H   UNL     1     -11.409  15.857  66.982  1.00  0.00     0.000 HD 
BRANCH  10  12
HETATM   12  C   UNL     1     -10.819  13.902  67.478  1.00  0.00    -0.266 A  
HETATM   13  C   UNL     1     -10.138  13.000  66.643  1.00  0.00    -0.251 A  
HETATM   14  C   UNL     1     -10.280  11.610  66.796  1.00  0.00    -0.248 A  
HETATM   15  C   UNL     1      -9.538  10.641  65.907  1.00  0.00    -0.205 C  
HETATM   16  C   UNL     1     -11.134  11.124  67.795  1.00  0.00    -0.344 A  
HETATM   17  F   UNL     1      -8.667   9.858  66.600  1.00  0.00    -0.125 F  
HETATM   18  F   UNL     1     -10.378   9.785  65.261  1.00  0.00    -0.364 F  
HETATM   19  F   UNL     1      -8.802  11.246  64.933  1.00  0.00    -0.161 F  
HETATM   20  C   UNL     1     -11.873  12.008  68.578  1.00  0.00    -0.369 A  
HETATM   21  C   UNL     1     -11.735  13.388  68.403  1.00  0.00    -0.390 A  
ENDBRANCH  10  12
ENDBRANCH   9  10
TORSDOF 2
ENDMDL
MODEL      128
REMARK 921   NORMALIZED FREE ENERGY PREDICTED BY IDOCK:   -5.12 KCAL/MOL
REMARK 922        TOTAL FREE ENERGY PREDICTED BY IDOCK:   -6.12 KCAL/MOL
REMARK 923 INTER-LIGAND FREE ENERGY PREDICTED BY IDOCK:   -5.50 KCAL/MOL
REMARK 924 INTRA-LIGAND FREE ENERGY PREDICTED BY IDOCK:   -0.62 KCAL/MOL
REMARK 927      BINDING AFFINITY PREDICTED BY RF-SCORE:    0.00 PKD
ROOT
HETATM    1  O   UNL     1      -6.919   9.591  66.684  1.00  0.00    -0.083 OA 
HETATM    2  C   UNL     1      -6.984   8.250  66.819  1.00  0.00    -0.070 C  
HETATM    3  C   UNL     1      -8.371   7.698  66.862  1.00  0.00    -0.124 A  
HETATM    4  O   UNL     1      -5.990   7.548  66.879  1.00  0.00    -0.042 OA 
HETATM    5  C   UNL     1      -8.494   6.327  66.562  1.00  0.00    -0.121 A  
HETATM    6  C   UNL     1      -9.731   5.690  66.620  1.00  0.00    -0.176 A  
HETATM    7  C   UNL     1     -10.853   6.402  67.015  1.00  0.00    -0.464 A  
HETATM    8  C   UNL     1     -10.746   7.762  67.315  1.00  0.00    -0.326 A  
HETATM    9  C   UNL     1      -9.522   8.447  67.198  1.00  0.00    -0.163 A  
ENDROOT
BRANCH   9  10
HETATM   10  N   UNL     1      -9.445   9.840  67.520  1.00  0.00    -0.146 NA 
HETATM   11  H   UNL     1      -8.732  10.131  68.189  1.00  0.00     0.000 HD 
BRANCH  10  12
HETATM   12  C   UNL     1     -10.291  10.852  66.976  1.00  0.00    -0.231 A  
HETATM   13  C   UNL     1     -10.498  10.976  65.592  1.00  0.00    -0.293 A  
HETATM   14  C   UNL     1     -11.376  11.940  65.067  1.00  0.00    -0.333 A  
HETATM   15  C   UNL     1     -11.608  12.064  63.580  1.00  0.00    -0.486 C  
HETATM   16  C   UNL     1     -12.040  12.802  65.950  1.00  0.00    -0.485 A  
HETATM   17  F   UNL     1     -12.899  11.811  63.230  1.00  0.00    -0.698 F  
HETATM   18  F   UNL     1     -11.335  13.316  63.117  1.00  0.00    -0.287 F  
HETATM   19  F   UNL     1     -10.846  11.217  62.835  1.00  0.00    -0.275 F  
HETATM   20  C   UNL     1     -11.783  12.740  67.318  1.00  0.00    -0.440 A  
HETATM   21  C   UNL     1     -10.895  11.787  67.825  1.00  0.00    -0.258 A  
ENDBRANCH  10  12
ENDBRANCH   9  10
TORSDOF 2
ENDMDL
MODEL      129
REMARK 921   NORMALIZED FREE ENERGY PREDICTED BY IDOCK:   -5.12 KCAL/MOL
REMARK 922        TOTAL FREE ENERGY PREDICTED BY IDOCK:   -6.12 KCAL/MOL
REMARK 923 INTER-LIGAND FREE ENERGY PREDICTED BY IDOCK:   -5.62 KCAL/MOL
REMARK 924 INTRA-LIGAND FREE ENERGY PREDICTED BY IDOCK:   -0.50 KCAL/MOL
REMARK 927      BINDING AFFINITY PREDICTED BY RF-SCORE:    0.00 PKD
ROOT
HETATM    1  O   UNL     1      -8.362   6.410  73.676  1.00  0.00    -0.118 OA 
HETATM    2  C   UNL     1      -8.635   5.205  73.132  1.00  0.00    -0.110 C  
HETATM    3  C   UNL     1      -9.167   5.263  71.737  1.00  0.00    -0.160 A  
HETATM    4  O   UNL     1      -8.443   4.159  73.725  1.00  0.00    -0.092 OA 
HETATM    5  C   UNL     1      -9.052   4.074  70.990  1.00  0.00    -0.179 A  
HETATM    6  C   UNL     1      -9.558   3.991  69.695  1.00  0.00    -0.270 A  
HETATM    7  C   UNL     1     -10.220   5.079  69.145  1.00  0.00    -0.227 A  
HETATM    8  C   UNL     1     -10.342   6.263  69.875  1.00  0.00    -0.249 A  
HETATM    9  C   UNL     1      -9.779   6.397  71.159  1.00  0.00    -0.175 A  
ENDROOT
BRANCH   9  10
HETATM   10  N   UNL     1      -9.929   7.623  71.883  1.00  0.00    -0.173 NA 
HETATM   11  H   UNL     1      -9.255   7.818  72.624  1.00  0.00     0.000 HD 
BRANCH  10  12
HETATM   12  C   UNL     1     -10.948   8.593  71.647  1.00  0.00    -0.308 A  
HETATM   13  C   UNL     1     -10.747   9.680  70.780  1.00  0.00    -0.401 A  
HETATM   14  C   UNL     1     -11.774  10.601  70.509  1.00  0.00    -0.451 A  
HETATM   15  C   UNL     1     -11.561  11.761  69.567  1.00  0.00    -0.332 C  
HETATM   16  C   UNL     1     -13.016  10.431  71.137  1.00  0.00    -0.506 A  
HETATM   17  F   UNL     1     -12.371  11.701  68.474  1.00  0.00    -0.326 F  
HETATM   18  F   UNL     1     -11.820  12.961  70.158  1.00  0.00    -0.367 F  
HETATM   19  F   UNL     1     -10.290  11.849  69.086  1.00  0.00    -0.194 F  
HETATM   20  C   UNL     1     -13.202   9.403  72.058  1.00  0.00    -0.529 A  
HETATM   21  C   UNL     1     -12.167   8.505  72.330  1.00  0.00    -0.454 A  
ENDBRANCH  10  12
ENDBRANCH   9  10
TORSDOF 2
ENDMDL
MODEL      130
REMARK 921   NORMALIZED FREE ENERGY PREDICTED BY IDOCK:   -5.10 KCAL/MOL
REMARK 922        TOTAL FREE ENERGY PREDICTED BY IDOCK:   -6.10 KCAL/MOL
REMARK 923 INTER-LIGAND FREE ENERGY PREDICTED BY IDOCK:   -5.66 KCAL/MOL
REMARK 924 INTRA-LIGAND FREE ENERGY PREDICTED BY IDOCK:   -0.45 KCAL/MOL
REMARK 927      BINDING AFFINITY PREDICTED BY RF-SCORE:    0.00 PKD
ROOT
HETATM    1  O   UNL     1      -9.474  10.264  65.131  1.00  0.00    -0.208 OA 
HETATM    2  C   UNL     1     -10.542  11.089  65.119  1.00  0.00    -0.226 C  
HETATM    3  C   UNL     1     -10.799  11.787  66.414  1.00  0.00    -0.325 A  
HETATM    4  O   UNL     1     -11.224  11.265  64.125  1.00  0.00    -0.321 OA 
HETATM    5  C   UNL     1     -11.592  12.949  66.336  1.00  0.00    -0.425 A  
HETATM    6  C   UNL     1     -11.942  13.655  67.484  1.00  0.00    -0.393 A  
HETATM    7  C   UNL     1     -11.539  13.190  68.727  1.00  0.00    -0.348 A  
HETATM    8  C   UNL     1     -10.752  12.040  68.819  1.00  0.00    -0.252 A  
HETATM    9  C   UNL     1     -10.327  11.346  67.671  1.00  0.00    -0.183 A  
ENDROOT
BRANCH   9  10
HETATM   10  N   UNL     1      -9.527  10.165  67.801  1.00  0.00    -0.144 NA 
HETATM   11  H   UNL     1      -8.533  10.242  67.583  1.00  0.00     0.000 HD 
BRANCH  10  12
HETATM   12  C   UNL     1     -10.013   8.889  68.213  1.00  0.00    -0.175 A  
HETATM   13  C   UNL     1     -10.398   8.638  69.541  1.00  0.00    -0.214 A  
HETATM   14  C   UNL     1     -10.929   7.395  69.928  1.00  0.00    -0.239 A  
HETATM   15  C   UNL     1     -11.353   7.132  71.352  1.00  0.00    -0.259 C  
HETATM   16  C   UNL     1     -11.057   6.387  68.964  1.00  0.00    -0.424 A  
HETATM   17  F   UNL     1     -12.685   6.871  71.461  1.00  0.00    -0.368 F  
HETATM   18  F   UNL     1     -10.717   6.053  71.890  1.00  0.00    -0.236 F  
HETATM   19  F   UNL     1     -11.106   8.170  72.198  1.00  0.00    -0.287 F  
HETATM   20  C   UNL     1     -10.608   6.597  67.662  1.00  0.00    -0.325 A  
HETATM   21  C   UNL     1     -10.066   7.833  67.296  1.00  0.00    -0.307 A  
ENDBRANCH  10  12
ENDBRANCH   9  10
TORSDOF 2
ENDMDL
MODEL      131
REMARK 921   NORMALIZED FREE ENERGY PREDICTED BY IDOCK:   -5.10 KCAL/MOL
REMARK 922        TOTAL FREE ENERGY PREDICTED BY IDOCK:   -6.10 KCAL/MOL
REMARK 923 INTER-LIGAND FREE ENERGY PREDICTED BY IDOCK:   -5.57 KCAL/MOL
REMARK 924 INTRA-LIGAND FREE ENERGY PREDICTED BY IDOCK:   -0.53 KCAL/MOL
REMARK 927      BINDING AFFINITY PREDICTED BY RF-SCORE:    0.00 PKD
ROOT
HETATM    1  O   UNL     1     -11.714   8.358  70.494  1.00  0.00    -0.208 OA 
HETATM    2  C   UNL     1     -10.627   7.584  70.294  1.00  0.00    -0.229 C  
HETATM    3  C   UNL     1      -9.593   8.186  69.400  1.00  0.00    -0.167 A  
HETATM    4  O   UNL     1     -10.494   6.492  70.819  1.00  0.00    -0.210 OA 
HETATM    5  C   UNL     1      -8.298   7.643  69.510  1.00  0.00    -0.130 A  
HETATM    6  C   UNL     1      -7.263   8.089  68.691  1.00  0.00    -0.081 A  
HETATM    7  C   UNL     1      -7.516   9.053  67.726  1.00  0.00    -0.085 A  
HETATM    8  C   UNL     1      -8.796   9.600  67.606  1.00  0.00    -0.127 A  
HETATM    9  C   UNL     1      -9.843   9.218  68.466  1.00  0.00    -0.158 A  
ENDROOT
BRANCH   9  10
HETATM   10  N   UNL     1     -11.145   9.793  68.311  1.00  0.00    -0.493 NA 
HETATM   11  H   UNL     1     -11.942   9.157  68.295  1.00  0.00     0.000 HD 
BRANCH  10  12
HETATM   12  C   UNL     1     -11.411  11.188  68.179  1.00  0.00    -0.303 A  
HETATM   13  C   UNL     1     -11.538  11.800  66.921  1.00  0.00    -0.310 A  
HETATM   14  C   UNL     1     -11.856  13.164  66.798  1.00  0.00    -0.444 A  
HETATM   15  C   UNL     1     -12.004  13.817  65.445  1.00  0.00    -0.379 C  
HETATM   16  C   UNL     1     -12.031  13.924  67.962  1.00  0.00    -0.390 A  
HETATM   17  F   UNL     1     -13.262  14.291  65.229  1.00  0.00    -0.455 F  
HETATM   18  F   UNL     1     -11.172  14.885  65.293  1.00  0.00    -0.316 F  
HETATM   19  F   UNL     1     -11.735  12.984  64.402  1.00  0.00    -0.343 F  
HETATM   20  C   UNL     1     -11.832  13.347  69.214  1.00  0.00    -0.385 A  
HETATM   21  C   UNL     1     -11.500  11.993  69.321  1.00  0.00    -0.361 A  
ENDBRANCH  10  12
ENDBRANCH   9  10
TORSDOF 2
ENDMDL
MODEL      132
REMARK 921   NORMALIZED FREE ENERGY PREDICTED BY IDOCK:   -5.09 KCAL/MOL
REMARK 922        TOTAL FREE ENERGY PREDICTED BY IDOCK:   -6.09 KCAL/MOL
REMARK 923 INTER-LIGAND FREE ENERGY PREDICTED BY IDOCK:   -5.63 KCAL/MOL
REMARK 924 INTRA-LIGAND FREE ENERGY PREDICTED BY IDOCK:   -0.46 KCAL/MOL
REMARK 927      BINDING AFFINITY PREDICTED BY RF-SCORE:    0.00 PKD
ROOT
HETATM    1  O   UNL     1      -8.372  14.762  67.570  1.00  0.00    -0.158 OA 
HETATM    2  C   UNL     1      -8.840  15.384  66.467  1.00  0.00    -0.312 C  
HETATM    3  C   UNL     1     -10.004  14.706  65.821  1.00  0.00    -0.365 A  
HETATM    4  O   UNL     1      -8.364  16.425  66.050  1.00  0.00    -0.319 OA 
HETATM    5  C   UNL     1     -10.784  15.511  64.968  1.00  0.00    -0.463 A  
HETATM    6  C   UNL     1     -11.863  14.977  64.269  1.00  0.00    -0.289 A  
HETATM    7  C   UNL     1     -12.155  13.625  64.383  1.00  0.00    -0.470 A  
HETATM    8  C   UNL     1     -11.390  12.816  65.224  1.00  0.00    -0.338 A  
HETATM    9  C   UNL     1     -10.336  13.344  65.994  1.00  0.00    -0.297 A  
ENDROOT
BRANCH   9  10
HETATM   10  N   UNL     1      -9.566  12.484  66.843  1.00  0.00    -0.222 NA 
HETATM   11  H   UNL     1      -8.580  12.357  66.616  1.00  0.00     0.000 HD 
BRANCH  10  12
HETATM   12  C   UNL     1     -10.074  11.792  67.982  1.00  0.00    -0.192 A  
HETATM   13  C   UNL     1      -9.474  10.615  68.459  1.00  0.00    -0.176 A  
HETATM   14  C   UNL     1      -9.947   9.968  69.615  1.00  0.00    -0.263 A  
HETATM   15  C   UNL     1      -9.293   8.710  70.134  1.00  0.00    -0.164 C  
HETATM   16  C   UNL     1     -11.050  10.509  70.288  1.00  0.00    -0.359 A  
HETATM   17  F   UNL     1      -8.755   8.875  71.374  1.00  0.00    -0.206 F  
HETATM   18  F   UNL     1     -10.174   7.677  70.244  1.00  0.00    -0.196 F  
HETATM   19  F   UNL     1      -8.280   8.254  69.346  1.00  0.00    -0.109 F  
HETATM   20  C   UNL     1     -11.702  11.631  69.781  1.00  0.00    -0.425 A  
HETATM   21  C   UNL     1     -11.231  12.253  68.621  1.00  0.00    -0.305 A  
ENDBRANCH  10  12
ENDBRANCH   9  10
TORSDOF 2
ENDMDL
MODEL      133
REMARK 921   NORMALIZED FREE ENERGY PREDICTED BY IDOCK:   -5.08 KCAL/MOL
REMARK 922        TOTAL FREE ENERGY PREDICTED BY IDOCK:   -6.07 KCAL/MOL
REMARK 923 INTER-LIGAND FREE ENERGY PREDICTED BY IDOCK:   -5.48 KCAL/MOL
REMARK 924 INTRA-LIGAND FREE ENERGY PREDICTED BY IDOCK:   -0.59 KCAL/MOL
REMARK 927      BINDING AFFINITY PREDICTED BY RF-SCORE:    0.00 PKD
ROOT
HETATM    1  O   UNL     1     -12.286  14.547  67.805  1.00  0.00    -0.287 OA 
HETATM    2  C   UNL     1     -11.165  15.204  68.172  1.00  0.00    -0.320 C  
HETATM    3  C   UNL     1      -9.917  14.386  68.103  1.00  0.00    -0.223 A  
HETATM    4  O   UNL     1     -11.172  16.374  68.510  1.00  0.00    -0.358 OA 
HETATM    5  C   UNL     1      -8.712  15.113  68.045  1.00  0.00    -0.165 A  
HETATM    6  C   UNL     1      -7.482  14.460  68.030  1.00  0.00    -0.144 A  
HETATM    7  C   UNL     1      -7.438  13.076  68.112  1.00  0.00    -0.130 A  
HETATM    8  C   UNL     1      -8.625  12.343  68.171  1.00  0.00    -0.185 A  
HETATM    9  C   UNL     1      -9.882  12.973  68.118  1.00  0.00    -0.228 A  
ENDROOT
BRANCH   9  10
HETATM   10  N   UNL     1     -11.080  12.192  68.187  1.00  0.00    -0.230 NA 
HETATM   11  H   UNL     1     -11.666  12.151  67.353  1.00  0.00     0.000 HD 
BRANCH  10  12
HETATM   12  C   UNL     1     -11.518  11.466  69.335  1.00  0.00    -0.310 A  
HETATM   13  C   UNL     1     -11.236  10.099  69.496  1.00  0.00    -0.288 A  
HETATM   14  C   UNL     1     -11.622   9.403  70.655  1.00  0.00    -0.330 A  
HETATM   15  C   UNL     1     -11.307   7.938  70.833  1.00  0.00    -0.277 C  
HETATM   16  C   UNL     1     -12.316  10.094  71.657  1.00  0.00    -0.471 A  
HETATM   17  F   UNL     1     -10.485   7.705  71.892  1.00  0.00    -0.217 F  
HETATM   18  F   UNL     1     -12.425   7.193  71.058  1.00  0.00    -0.364 F  
HETATM   19  F   UNL     1     -10.695   7.375  69.754  1.00  0.00    -0.223 F  
HETATM   20  C   UNL     1     -12.670  11.429  71.475  1.00  0.00    -0.462 A  
HETATM   21  C   UNL     1     -12.294  12.104  70.310  1.00  0.00    -0.269 A  
ENDBRANCH  10  12
ENDBRANCH   9  10
TORSDOF 2
ENDMDL
MODEL      134
REMARK 921   NORMALIZED FREE ENERGY PREDICTED BY IDOCK:   -5.07 KCAL/MOL
REMARK 922        TOTAL FREE ENERGY PREDICTED BY IDOCK:   -6.07 KCAL/MOL
REMARK 923 INTER-LIGAND FREE ENERGY PREDICTED BY IDOCK:   -5.57 KCAL/MOL
REMARK 924 INTRA-LIGAND FREE ENERGY PREDICTED BY IDOCK:   -0.50 KCAL/MOL
REMARK 927      BINDING AFFINITY PREDICTED BY RF-SCORE:    0.00 PKD
ROOT
HETATM    1  O   UNL     1     -12.800   7.089  70.941  1.00  0.00    -0.306 OA 
HETATM    2  C   UNL     1     -11.911   6.613  71.838  1.00  0.00    -0.332 C  
HETATM    3  C   UNL     1     -10.622   7.367  71.893  1.00  0.00    -0.233 A  
HETATM    4  O   UNL     1     -12.152   5.659  72.557  1.00  0.00    -0.221 OA 
HETATM    5  C   UNL     1      -9.867   7.201  73.070  1.00  0.00    -0.233 A  
HETATM    6  C   UNL     1      -8.624   7.813  73.215  1.00  0.00    -0.240 A  
HETATM    7  C   UNL     1      -8.103   8.566  72.173  1.00  0.00    -0.162 A  
HETATM    8  C   UNL     1      -8.841   8.738  71.000  1.00  0.00    -0.260 A  
HETATM    9  C   UNL     1     -10.129   8.188  70.854  1.00  0.00    -0.188 A  
ENDROOT
BRANCH   9  10
HETATM   10  N   UNL     1     -10.856   8.377  69.635  1.00  0.00    -0.362 NA 
HETATM   11  H   UNL     1     -11.322   7.564  69.232  1.00  0.00     0.000 HD 
BRANCH  10  12
HETATM   12  C   UNL     1     -10.979   9.618  68.942  1.00  0.00    -0.121 A  
HETATM   13  C   UNL     1     -10.657   9.738  67.579  1.00  0.00    -0.335 A  
HETATM   14  C   UNL     1     -10.834  10.950  66.889  1.00  0.00    -0.307 A  
HETATM   15  C   UNL     1     -10.499  11.074  65.422  1.00  0.00    -0.241 C  
HETATM   16  C   UNL     1     -11.327  12.059  67.588  1.00  0.00    -0.375 A  
HETATM   17  F   UNL     1     -11.589  11.366  64.661  1.00  0.00    -0.303 F  
HETATM   18  F   UNL     1      -9.598  12.066  65.180  1.00  0.00    -0.240 F  
HETATM   19  F   UNL     1      -9.961   9.943  64.885  1.00  0.00    -0.376 F  
HETATM   20  C   UNL     1     -11.576  11.974  68.955  1.00  0.00    -0.370 A  
HETATM   21  C   UNL     1     -11.380  10.767  69.633  1.00  0.00    -0.362 A  
ENDBRANCH  10  12
ENDBRANCH   9  10
TORSDOF 2
ENDMDL
MODEL      135
REMARK 921   NORMALIZED FREE ENERGY PREDICTED BY IDOCK:   -5.06 KCAL/MOL
REMARK 922        TOTAL FREE ENERGY PREDICTED BY IDOCK:   -6.06 KCAL/MOL
REMARK 923 INTER-LIGAND FREE ENERGY PREDICTED BY IDOCK:   -5.63 KCAL/MOL
REMARK 924 INTRA-LIGAND FREE ENERGY PREDICTED BY IDOCK:   -0.42 KCAL/MOL
REMARK 927      BINDING AFFINITY PREDICTED BY RF-SCORE:    0.00 PKD
ROOT
HETATM    1  O   UNL     1      -8.687  13.496  68.457  1.00  0.00    -0.160 OA 
HETATM    2  C   UNL     1      -7.933  12.379  68.366  1.00  0.00    -0.149 C  
HETATM    3  C   UNL     1      -8.617  11.222  67.715  1.00  0.00    -0.126 A  
HETATM    4  O   UNL     1      -6.783  12.331  68.764  1.00  0.00    -0.077 OA 
HETATM    5  C   UNL     1      -7.769  10.217  67.210  1.00  0.00    -0.095 A  
HETATM    6  C   UNL     1      -8.293   9.065  66.627  1.00  0.00    -0.118 A  
HETATM    7  C   UNL     1      -9.668   8.885  66.577  1.00  0.00    -0.322 A  
HETATM    8  C   UNL     1     -10.519   9.873  67.074  1.00  0.00    -0.296 A  
HETATM    9  C   UNL     1     -10.018  11.076  67.606  1.00  0.00    -0.173 A  
ENDROOT
BRANCH   9  10
HETATM   10  N   UNL     1     -10.919  12.066  68.114  1.00  0.00    -0.217 NA 
HETATM   11  H   UNL     1     -11.061  12.907  67.554  1.00  0.00     0.000 HD 
BRANCH  10  12
HETATM   12  C   UNL     1     -11.634  11.966  69.345  1.00  0.00    -0.325 A  
HETATM   13  C   UNL     1     -11.971  10.723  69.904  1.00  0.00    -0.418 A  
HETATM   14  C   UNL     1     -12.627  10.630  71.144  1.00  0.00    -0.526 A  
HETATM   15  C   UNL     1     -12.978   9.293  71.750  1.00  0.00    -0.396 C  
HETATM   16  C   UNL     1     -12.961  11.811  71.820  1.00  0.00    -0.466 A  
HETATM   17  F   UNL     1     -12.343   9.074  72.934  1.00  0.00    -0.332 F  
HETATM   18  F   UNL     1     -14.309   9.178  72.014  1.00  0.00    -0.399 F  
HETATM   19  F   UNL     1     -12.662   8.232  70.956  1.00  0.00    -0.280 F  
HETATM   20  C   UNL     1     -12.702  13.051  71.240  1.00  0.00    -0.385 A  
HETATM   21  C   UNL     1     -12.065  13.127  69.998  1.00  0.00    -0.375 A  
ENDBRANCH  10  12
ENDBRANCH   9  10
TORSDOF 2
ENDMDL
MODEL      136
REMARK 921   NORMALIZED FREE ENERGY PREDICTED BY IDOCK:   -5.04 KCAL/MOL
REMARK 922        TOTAL FREE ENERGY PREDICTED BY IDOCK:   -6.03 KCAL/MOL
REMARK 923 INTER-LIGAND FREE ENERGY PREDICTED BY IDOCK:   -5.59 KCAL/MOL
REMARK 924 INTRA-LIGAND FREE ENERGY PREDICTED BY IDOCK:   -0.43 KCAL/MOL
REMARK 927      BINDING AFFINITY PREDICTED BY RF-SCORE:    0.00 PKD
ROOT
HETATM    1  O   UNL     1     -11.894   9.879  70.710  1.00  0.00    -0.288 OA 
HETATM    2  C   UNL     1     -10.868   9.176  71.235  1.00  0.00    -0.332 C  
HETATM    3  C   UNL     1      -9.707   8.994  70.313  1.00  0.00    -0.229 A  
HETATM    4  O   UNL     1     -10.884   8.744  72.374  1.00  0.00    -0.320 OA 
HETATM    5  C   UNL     1      -8.482   8.672  70.930  1.00  0.00    -0.195 A  
HETATM    6  C   UNL     1      -7.340   8.428  70.170  1.00  0.00    -0.058 A  
HETATM    7  C   UNL     1      -7.416   8.466  68.785  1.00  0.00    -0.092 A  
HETATM    8  C   UNL     1      -8.623   8.784  68.161  1.00  0.00    -0.134 A  
HETATM    9  C   UNL     1      -9.775   9.101  68.906  1.00  0.00    -0.162 A  
ENDROOT
BRANCH   9  10
HETATM   10  N   UNL     1     -11.000   9.417  68.234  1.00  0.00    -0.471 NA 
HETATM   11  H   UNL     1     -11.766   8.747  68.311  1.00  0.00     0.000 HD 
BRANCH  10  12
HETATM   12  C   UNL     1     -11.231  10.597  67.467  1.00  0.00    -0.253 A  
HETATM   13  C   UNL     1     -11.086  10.609  66.069  1.00  0.00     0.169 A  
HETATM   14  C   UNL     1     -11.369  11.760  65.313  1.00  0.00    -0.284 A  
HETATM   15  C   UNL     1     -11.225  11.768  63.811  1.00  0.00    -0.436 C  
HETATM   16  C   UNL     1     -11.787  12.920  65.980  1.00  0.00    -0.485 A  
HETATM   17  F   UNL     1     -12.408  11.992  63.174  1.00  0.00    -0.589 F  
HETATM   18  F   UNL     1     -10.378  12.744  63.378  1.00  0.00    -0.368 F  
HETATM   19  F   UNL     1     -10.741  10.602  63.300  1.00  0.00    -0.255 F  
HETATM   20  C   UNL     1     -11.859  12.943  67.371  1.00  0.00    -0.418 A  
HETATM   21  C   UNL     1     -11.559  11.796  68.111  1.00  0.00    -0.391 A  
ENDBRANCH  10  12
ENDBRANCH   9  10
TORSDOF 2
ENDMDL
MODEL      137
REMARK 921   NORMALIZED FREE ENERGY PREDICTED BY IDOCK:   -5.03 KCAL/MOL
REMARK 922        TOTAL FREE ENERGY PREDICTED BY IDOCK:   -6.03 KCAL/MOL
REMARK 923 INTER-LIGAND FREE ENERGY PREDICTED BY IDOCK:   -5.66 KCAL/MOL
REMARK 924 INTRA-LIGAND FREE ENERGY PREDICTED BY IDOCK:   -0.36 KCAL/MOL
REMARK 927      BINDING AFFINITY PREDICTED BY RF-SCORE:    0.00 PKD
ROOT
HETATM    1  O   UNL     1     -11.599  12.425  67.175  1.00  0.00    -0.333 OA 
HETATM    2  C   UNL     1     -11.915  13.692  67.518  1.00  0.00    -0.358 C  
HETATM    3  C   UNL     1     -12.026  13.926  68.989  1.00  0.00    -0.402 A  
HETATM    4  O   UNL     1     -12.075  14.574  66.693  1.00  0.00    -0.393 OA 
HETATM    5  C   UNL     1     -11.916  15.267  69.404  1.00  0.00    -0.342 A  
HETATM    6  C   UNL     1     -12.054  15.614  70.746  1.00  0.00    -0.454 A  
HETATM    7  C   UNL     1     -12.342  14.633  71.684  1.00  0.00    -0.416 A  
HETATM    8  C   UNL     1     -12.454  13.300  71.285  1.00  0.00    -0.351 A  
HETATM    9  C   UNL     1     -12.251  12.912  69.947  1.00  0.00    -0.188 A  
ENDROOT
BRANCH   9  10
HETATM   10  N   UNL     1     -12.381  11.536  69.571  1.00  0.00    -0.189 NA 
HETATM   11  H   UNL     1     -13.187  11.276  69.004  1.00  0.00     0.000 HD 
BRANCH  10  12
HETATM   12  C   UNL     1     -11.466  10.502  69.929  1.00  0.00    -0.310 A  
HETATM   13  C   UNL     1     -10.511  10.013  69.022  1.00  0.00    -0.233 A  
HETATM   14  C   UNL     1      -9.577   9.032  69.399  1.00  0.00    -0.160 A  
HETATM   15  C   UNL     1      -8.544   8.517  68.427  1.00  0.00    -0.139 C  
HETATM   16  C   UNL     1      -9.619   8.527  70.705  1.00  0.00    -0.203 A  
HETATM   17  F   UNL     1      -7.270   8.789  68.825  1.00  0.00    -0.069 F  
HETATM   18  F   UNL     1      -8.606   7.165  68.275  1.00  0.00    -0.121 F  
HETATM   19  F   UNL     1      -8.662   9.039  67.174  1.00  0.00    -0.114 F  
HETATM   20  C   UNL     1     -10.609   8.947  71.589  1.00  0.00    -0.422 A  
HETATM   21  C   UNL     1     -11.542   9.910  71.196  1.00  0.00    -0.468 A  
ENDBRANCH  10  12
ENDBRANCH   9  10
TORSDOF 2
ENDMDL
MODEL      138
REMARK 921   NORMALIZED FREE ENERGY PREDICTED BY IDOCK:   -5.00 KCAL/MOL
REMARK 922        TOTAL FREE ENERGY PREDICTED BY IDOCK:   -5.99 KCAL/MOL
REMARK 923 INTER-LIGAND FREE ENERGY PREDICTED BY IDOCK:   -5.71 KCAL/MOL
REMARK 924 INTRA-LIGAND FREE ENERGY PREDICTED BY IDOCK:   -0.28 KCAL/MOL
REMARK 927      BINDING AFFINITY PREDICTED BY RF-SCORE:    0.00 PKD
ROOT
HETATM    1  O   UNL     1      -8.885   8.275  72.886  1.00  0.00    -0.211 OA 
HETATM    2  C   UNL     1      -9.357   8.941  71.811  1.00  0.00    -0.234 C  
HETATM    3  C   UNL     1     -10.847   9.006  71.727  1.00  0.00    -0.437 A  
HETATM    4  O   UNL     1      -8.624   9.464  70.990  1.00  0.00    -0.274 OA 
HETATM    5  C   UNL     1     -11.369  10.025  70.908  1.00  0.00    -0.439 A  
HETATM    6  C   UNL     1     -12.743  10.152  70.711  1.00  0.00    -0.397 A  
HETATM    7  C   UNL     1     -13.608   9.240  71.298  1.00  0.00    -0.287 A  
HETATM    8  C   UNL     1     -13.103   8.225  72.113  1.00  0.00    -0.312 A  
HETATM    9  C   UNL     1     -11.726   8.115  72.383  1.00  0.00    -0.399 A  
ENDROOT
BRANCH   9  10
HETATM   10  N   UNL     1     -11.241   7.057  73.218  1.00  0.00    -0.545 NA 
HETATM   11  H   UNL     1     -11.173   7.239  74.219  1.00  0.00     0.000 HD 
BRANCH  10  12
HETATM   12  C   UNL     1     -10.846   5.767  72.755  1.00  0.00    -0.255 A  
HETATM   13  C   UNL     1     -10.267   5.582  71.488  1.00  0.00    -0.270 A  
HETATM   14  C   UNL     1      -9.829   4.317  71.060  1.00  0.00    -0.251 A  
HETATM   15  C   UNL     1      -9.196   4.121  69.704  1.00  0.00    -0.141 C  
HETATM   16  C   UNL     1      -9.993   3.220  71.917  1.00  0.00    -0.209 A  
HETATM   17  F   UNL     1      -7.907   3.693  69.786  1.00  0.00    -0.050 F  
HETATM   18  F   UNL     1      -9.852   3.190  68.957  1.00  0.00    -0.205 F  
HETATM   19  F   UNL     1      -9.166   5.253  68.946  1.00  0.00    -0.113 F  
HETATM   20  C   UNL     1     -10.635   3.377  73.143  1.00  0.00    -0.270 A  
HETATM   21  C   UNL     1     -11.081   4.638  73.549  1.00  0.00    -0.412 A  
ENDBRANCH  10  12
ENDBRANCH   9  10
TORSDOF 2
ENDMDL
MODEL      139
REMARK 921   NORMALIZED FREE ENERGY PREDICTED BY IDOCK:   -4.99 KCAL/MOL
REMARK 922        TOTAL FREE ENERGY PREDICTED BY IDOCK:   -5.97 KCAL/MOL
REMARK 923 INTER-LIGAND FREE ENERGY PREDICTED BY IDOCK:   -5.35 KCAL/MOL
REMARK 924 INTRA-LIGAND FREE ENERGY PREDICTED BY IDOCK:   -0.63 KCAL/MOL
REMARK 927      BINDING AFFINITY PREDICTED BY RF-SCORE:    0.00 PKD
ROOT
HETATM    1  O   UNL     1     -10.095  11.110  67.777  1.00  0.00    -0.174 OA 
HETATM    2  C   UNL     1     -11.313  11.373  68.298  1.00  0.00    -0.286 C  
HETATM    3  C   UNL     1     -11.577  10.719  69.615  1.00  0.00    -0.388 A  
HETATM    4  O   UNL     1     -12.118  12.102  67.747  1.00  0.00    -0.508 OA 
HETATM    5  C   UNL     1     -12.607  11.292  70.386  1.00  0.00    -0.292 A  
HETATM    6  C   UNL     1     -12.979  10.737  71.608  1.00  0.00    -0.581 A  
HETATM    7  C   UNL     1     -12.355   9.583  72.058  1.00  0.00    -0.404 A  
HETATM    8  C   UNL     1     -11.332   9.005  71.303  1.00  0.00    -0.389 A  
HETATM    9  C   UNL     1     -10.889   9.583  70.098  1.00  0.00    -0.258 A  
ENDROOT
BRANCH   9  10
HETATM   10  N   UNL     1      -9.842   8.961  69.345  1.00  0.00    -0.179 NA 
HETATM   11  H   UNL     1      -8.963   9.469  69.250  1.00  0.00     0.000 HD 
BRANCH  10  12
HETATM   12  C   UNL     1      -9.935   7.682  68.719  1.00  0.00    -0.174 A  
HETATM   13  C   UNL     1      -9.301   6.549  69.256  1.00  0.00    -0.141 A  
HETATM   14  C   UNL     1      -9.441   5.282  68.664  1.00  0.00    -0.169 A  
HETATM   15  C   UNL     1      -8.770   4.063  69.249  1.00  0.00    -0.082 C  
HETATM   16  C   UNL     1     -10.220   5.160  67.505  1.00  0.00    -0.210 A  
HETATM   17  F   UNL     1      -9.663   3.123  69.663  1.00  0.00    -0.234 F  
HETATM   18  F   UNL     1      -7.960   3.438  68.349  1.00  0.00    -0.064 F  
HETATM   19  F   UNL     1      -7.986   4.335  70.329  1.00  0.00    -0.053 F  
HETATM   20  C   UNL     1     -10.790   6.288  66.920  1.00  0.00    -0.428 A  
HETATM   21  C   UNL     1     -10.627   7.545  67.510  1.00  0.00    -0.331 A  
ENDBRANCH  10  12
ENDBRANCH   9  10
TORSDOF 2
ENDMDL
MODEL      140
REMARK 921   NORMALIZED FREE ENERGY PREDICTED BY IDOCK:   -4.98 KCAL/MOL
REMARK 922        TOTAL FREE ENERGY PREDICTED BY IDOCK:   -5.96 KCAL/MOL
REMARK 923 INTER-LIGAND FREE ENERGY PREDICTED BY IDOCK:   -5.32 KCAL/MOL
REMARK 924 INTRA-LIGAND FREE ENERGY PREDICTED BY IDOCK:   -0.65 KCAL/MOL
REMARK 927      BINDING AFFINITY PREDICTED BY RF-SCORE:    0.00 PKD
ROOT
HETATM    1  O   UNL     1     -11.933  13.586  69.046  1.00  0.00    -0.327 OA 
HETATM    2  C   UNL     1     -11.637  14.447  68.049  1.00  0.00    -0.327 C  
HETATM    3  C   UNL     1     -11.764  13.871  66.676  1.00  0.00    -0.417 A  
HETATM    4  O   UNL     1     -11.315  15.603  68.255  1.00  0.00    -0.334 OA 
HETATM    5  C   UNL     1     -11.899  14.806  65.632  1.00  0.00    -0.212 A  
HETATM    6  C   UNL     1     -11.973  14.389  64.304  1.00  0.00    -0.433 A  
HETATM    7  C   UNL     1     -11.874  13.040  64.001  1.00  0.00    -0.510 A  
HETATM    8  C   UNL     1     -11.740  12.102  65.027  1.00  0.00    -0.371 A  
HETATM    9  C   UNL     1     -11.732  12.489  66.380  1.00  0.00    -0.397 A  
ENDROOT
BRANCH   9  10
HETATM   10  N   UNL     1     -11.586  11.503  67.408  1.00  0.00    -0.556 NA 
HETATM   11  H   UNL     1     -12.346  11.406  68.080  1.00  0.00     0.000 HD 
BRANCH  10  12
HETATM   12  C   UNL     1     -10.457  10.645  67.562  1.00  0.00    -0.230 A  
HETATM   13  C   UNL     1      -9.281  11.077  68.199  1.00  0.00    -0.165 A  
HETATM   14  C   UNL     1      -8.193  10.210  68.397  1.00  0.00    -0.112 A  
HETATM   15  C   UNL     1      -6.936  10.672  69.093  1.00  0.00    -0.085 C  
HETATM   16  C   UNL     1      -8.287   8.891  67.931  1.00  0.00    -0.118 A  
HETATM   17  F   UNL     1      -6.700   9.996  70.251  1.00  0.00    -0.075 F  
HETATM   18  F   UNL     1      -5.825  10.495  68.324  1.00  0.00    -0.044 F  
HETATM   19  F   UNL     1      -6.950  11.992  69.428  1.00  0.00    -0.106 F  
HETATM   20  C   UNL     1      -9.416   8.473  67.230  1.00  0.00    -0.199 A  
HETATM   21  C   UNL     1     -10.483   9.352  67.026  1.00  0.00    -0.302 A  
ENDBRANCH  10  12
ENDBRANCH   9  10
TORSDOF 2
ENDMDL
MODEL      141
REMARK 921   NORMALIZED FREE ENERGY PREDICTED BY IDOCK:   -4.97 KCAL/MOL
REMARK 922        TOTAL FREE ENERGY PREDICTED BY IDOCK:   -5.95 KCAL/MOL
REMARK 923 INTER-LIGAND FREE ENERGY PREDICTED BY IDOCK:   -6.17 KCAL/MOL
REMARK 924 INTRA-LIGAND FREE ENERGY PREDICTED BY IDOCK:    0.22 KCAL/MOL
REMARK 927      BINDING AFFINITY PREDICTED BY RF-SCORE:    0.00 PKD
ROOT
HETATM    1  O   UNL     1      -9.955  11.639  64.513  1.00  0.00    -0.244 OA 
HETATM    2  C   UNL     1      -9.617  10.395  64.914  1.00  0.00    -0.289 C  
HETATM    3  C   UNL     1      -9.990  10.077  66.325  1.00  0.00    -0.310 A  
HETATM    4  O   UNL     1      -9.072   9.594  64.175  1.00  0.00    -0.241 OA 
HETATM    5  C   UNL     1     -10.064   8.707  66.643  1.00  0.00    -0.364 A  
HETATM    6  C   UNL     1     -10.352   8.288  67.939  1.00  0.00    -0.278 A  
HETATM    7  C   UNL     1     -10.531   9.229  68.942  1.00  0.00    -0.235 A  
HETATM    8  C   UNL     1     -10.460  10.590  68.641  1.00  0.00    -0.211 A  
HETATM    9  C   UNL     1     -10.239  11.042  67.326  1.00  0.00    -0.199 A  
ENDROOT
BRANCH   9  10
HETATM   10  N   UNL     1     -10.165  12.446  67.052  1.00  0.00    -0.219 NA 
HETATM   11  H   UNL     1      -9.641  12.739  66.227  1.00  0.00     0.000 HD 
BRANCH  10  12
HETATM   12  C   UNL     1     -10.768  13.466  67.846  1.00  0.00    -0.247 A  
HETATM   13  C   UNL     1     -11.463  13.167  69.030  1.00  0.00    -0.345 A  
HETATM   14  C   UNL     1     -12.008  14.182  69.836  1.00  0.00    -0.398 A  
HETATM   15  C   UNL     1     -12.743  13.861  71.114  1.00  0.00    -0.367 C  
HETATM   16  C   UNL     1     -11.863  15.516  69.432  1.00  0.00    -0.392 A  
HETATM   17  F   UNL     1     -12.127  14.374  72.214  1.00  0.00    -0.357 F  
HETATM   18  F   UNL     1     -14.008  14.367  71.124  1.00  0.00    -0.403 F  
HETATM   19  F   UNL     1     -12.875  12.525  71.349  1.00  0.00    -0.438 F  
HETATM   20  C   UNL     1     -11.244  15.820  68.222  1.00  0.00    -0.356 A  
HETATM   21  C   UNL     1     -10.722  14.800  67.422  1.00  0.00    -0.281 A  
ENDBRANCH  10  12
ENDBRANCH   9  10
TORSDOF 2
ENDMDL
MODEL      142
REMARK 921   NORMALIZED FREE ENERGY PREDICTED BY IDOCK:   -4.96 KCAL/MOL
REMARK 922        TOTAL FREE ENERGY PREDICTED BY IDOCK:   -5.94 KCAL/MOL
REMARK 923 INTER-LIGAND FREE ENERGY PREDICTED BY IDOCK:   -5.57 KCAL/MOL
REMARK 924 INTRA-LIGAND FREE ENERGY PREDICTED BY IDOCK:   -0.37 KCAL/MOL
REMARK 927      BINDING AFFINITY PREDICTED BY RF-SCORE:    0.00 PKD
ROOT
HETATM    1  O   UNL     1     -12.157   6.521  70.219  1.00  0.00    -0.348 OA 
HETATM    2  C   UNL     1     -10.883   6.101  70.071  1.00  0.00    -0.341 C  
HETATM    3  C   UNL     1      -9.852   7.153  70.322  1.00  0.00    -0.177 A  
HETATM    4  O   UNL     1     -10.600   4.953  69.777  1.00  0.00    -0.152 OA 
HETATM    5  C   UNL     1      -8.556   6.681  70.610  1.00  0.00    -0.142 A  
HETATM    6  C   UNL     1      -7.501   7.568  70.811  1.00  0.00    -0.076 A  
HETATM    7  C   UNL     1      -7.716   8.933  70.690  1.00  0.00    -0.112 A  
HETATM    8  C   UNL     1      -8.996   9.413  70.405  1.00  0.00    -0.294 A  
HETATM    9  C   UNL     1     -10.094   8.544  70.264  1.00  0.00    -0.186 A  
ENDROOT
BRANCH   9  10
HETATM   10  N   UNL     1     -11.392   9.069  69.965  1.00  0.00    -0.422 NA 
HETATM   11  H   UNL     1     -11.998   8.513  69.361  1.00  0.00     0.000 HD 
BRANCH  10  12
HETATM   12  C   UNL     1     -11.902  10.311  70.447  1.00  0.00    -0.309 A  
HETATM   13  C   UNL     1     -11.523  11.537  69.876  1.00  0.00    -0.340 A  
HETATM   14  C   UNL     1     -12.072  12.753  70.320  1.00  0.00    -0.373 A  
HETATM   15  C   UNL     1     -11.673  14.069  69.697  1.00  0.00    -0.311 C  
HETATM   16  C   UNL     1     -13.004  12.731  71.366  1.00  0.00    -0.359 A  
HETATM   17  F   UNL     1     -12.718  14.699  69.094  1.00  0.00    -0.154 F  
HETATM   18  F   UNL     1     -11.186  14.949  70.615  1.00  0.00    -0.280 F  
HETATM   19  F   UNL     1     -10.706  13.953  68.744  1.00  0.00    -0.238 F  
HETATM   20  C   UNL     1     -13.329  11.530  71.992  1.00  0.00    -0.397 A  
HETATM   21  C   UNL     1     -12.763  10.331  71.551  1.00  0.00    -0.557 A  
ENDBRANCH  10  12
ENDBRANCH   9  10
TORSDOF 2
ENDMDL
MODEL      143
REMARK 921   NORMALIZED FREE ENERGY PREDICTED BY IDOCK:   -4.95 KCAL/MOL
REMARK 922        TOTAL FREE ENERGY PREDICTED BY IDOCK:   -5.93 KCAL/MOL
REMARK 923 INTER-LIGAND FREE ENERGY PREDICTED BY IDOCK:   -6.26 KCAL/MOL
REMARK 924 INTRA-LIGAND FREE ENERGY PREDICTED BY IDOCK:    0.32 KCAL/MOL
REMARK 927      BINDING AFFINITY PREDICTED BY RF-SCORE:    0.00 PKD
ROOT
HETATM    1  O   UNL     1     -11.518  17.133  72.805  1.00  0.00     0.129 OA 
HETATM    2  C   UNL     1     -12.412  16.201  73.196  1.00  0.00    -0.519 C  
HETATM    3  C   UNL     1     -12.549  15.044  72.260  1.00  0.00    -0.418 A  
HETATM    4  O   UNL     1     -13.037  16.288  74.238  1.00  0.00    -0.612 OA 
HETATM    5  C   UNL     1     -13.109  13.875  72.811  1.00  0.00    -0.484 A  
HETATM    6  C   UNL     1     -13.334  12.749  72.023  1.00  0.00    -0.565 A  
HETATM    7  C   UNL     1     -13.040  12.789  70.668  1.00  0.00     0.248 A  
HETATM    8  C   UNL     1     -12.484  13.941  70.109  1.00  0.00    -0.355 A  
HETATM    9  C   UNL     1     -12.183  15.069  70.895  1.00  0.00    -0.329 A  
ENDROOT
BRANCH   9  10
HETATM   10  N   UNL     1     -11.620  16.237  70.289  1.00  0.00    -0.435 NA 
HETATM   11  H   UNL     1     -11.607  17.096  70.840  1.00  0.00     0.000 HD 
BRANCH  10  12
HETATM   12  C   UNL     1     -11.076  16.293  68.971  1.00  0.00    -0.331 A  
HETATM   13  C   UNL     1     -11.076  15.172  68.124  1.00  0.00    -0.306 A  
HETATM   14  C   UNL     1     -10.588  15.248  66.808  1.00  0.00    -0.304 A  
HETATM   15  C   UNL     1     -10.601  14.047  65.894  1.00  0.00    -0.301 C  
HETATM   16  C   UNL     1     -10.078  16.469  66.347  1.00  0.00    -0.323 A  
HETATM   17  F   UNL     1     -11.388  14.232  64.799  1.00  0.00    -0.329 F  
HETATM   18  F   UNL     1      -9.361  13.747  65.417  1.00  0.00    -0.071 F  
HETATM   19  F   UNL     1     -11.055  12.910  66.492  1.00  0.00    -0.275 F  
HETATM   20  C   UNL     1     -10.001  17.566  67.202  1.00  0.00    -0.314 A  
HETATM   21  C   UNL     1     -10.474  17.471  68.514  1.00  0.00    -0.361 A  
ENDBRANCH  10  12
ENDBRANCH   9  10
TORSDOF 2
ENDMDL
MODEL      144
REMARK 921   NORMALIZED FREE ENERGY PREDICTED BY IDOCK:   -4.95 KCAL/MOL
REMARK 922        TOTAL FREE ENERGY PREDICTED BY IDOCK:   -5.93 KCAL/MOL
REMARK 923 INTER-LIGAND FREE ENERGY PREDICTED BY IDOCK:   -5.40 KCAL/MOL
REMARK 924 INTRA-LIGAND FREE ENERGY PREDICTED BY IDOCK:   -0.53 KCAL/MOL
REMARK 927      BINDING AFFINITY PREDICTED BY RF-SCORE:    0.00 PKD
ROOT
HETATM    1  O   UNL     1     -13.547   8.530  70.875  1.00  0.00     0.063 OA 
HETATM    2  C   UNL     1     -13.531   9.473  71.841  1.00  0.00    -0.424 C  
HETATM    3  C   UNL     1     -13.127  10.833  71.372  1.00  0.00    -0.469 A  
HETATM    4  O   UNL     1     -13.841   9.235  72.995  1.00  0.00    -0.270 OA 
HETATM    5  C   UNL     1     -13.509  11.904  72.203  1.00  0.00    -0.300 A  
HETATM    6  C   UNL     1     -13.144  13.213  71.897  1.00  0.00    -0.482 A  
HETATM    7  C   UNL     1     -12.363  13.465  70.779  1.00  0.00    -0.433 A  
HETATM    8  C   UNL     1     -11.978  12.412  69.946  1.00  0.00    -0.369 A  
HETATM    9  C   UNL     1     -12.389  11.089  70.195  1.00  0.00    -0.311 A  
ENDROOT
BRANCH   9  10
HETATM   10  N   UNL     1     -11.971  10.032  69.324  1.00  0.00    -0.428 NA 
HETATM   11  H   UNL     1     -12.628   9.270  69.158  1.00  0.00     0.000 HD 
BRANCH  10  12
HETATM   12  C   UNL     1     -10.704   9.963  68.672  1.00  0.00    -0.226 A  
HETATM   13  C   UNL     1     -10.590  10.014  67.273  1.00  0.00    -0.319 A  
HETATM   14  C   UNL     1      -9.335  10.002  66.639  1.00  0.00    -0.202 A  
HETATM   15  C   UNL     1      -9.213  10.069  65.136  1.00  0.00    -0.222 C  
HETATM   16  C   UNL     1      -8.180   9.921  67.429  1.00  0.00    -0.118 A  
HETATM   17  F   UNL     1      -8.561  11.187  64.714  1.00  0.00    -0.121 F  
HETATM   18  F   UNL     1      -8.516   9.016  64.626  1.00  0.00    -0.144 F  
HETATM   19  F   UNL     1     -10.412  10.070  64.489  1.00  0.00    -0.300 F  
HETATM   20  C   UNL     1      -8.283   9.791  68.812  1.00  0.00    -0.108 A  
HETATM   21  C   UNL     1      -9.538   9.788  69.427  1.00  0.00    -0.218 A  
ENDBRANCH  10  12
ENDBRANCH   9  10
TORSDOF 2
ENDMDL
MODEL      145
REMARK 921   NORMALIZED FREE ENERGY PREDICTED BY IDOCK:   -4.91 KCAL/MOL
REMARK 922        TOTAL FREE ENERGY PREDICTED BY IDOCK:   -5.89 KCAL/MOL
REMARK 923 INTER-LIGAND FREE ENERGY PREDICTED BY IDOCK:   -5.46 KCAL/MOL
REMARK 924 INTRA-LIGAND FREE ENERGY PREDICTED BY IDOCK:   -0.43 KCAL/MOL
REMARK 927      BINDING AFFINITY PREDICTED BY RF-SCORE:    0.00 PKD
ROOT
HETATM    1  O   UNL     1     -12.657  10.711  69.941  1.00  0.00    -0.277 OA 
HETATM    2  C   UNL     1     -12.763  11.303  71.149  1.00  0.00    -0.390 C  
HETATM    3  C   UNL     1     -12.882  12.792  71.100  1.00  0.00    -0.315 A  
HETATM    4  O   UNL     1     -12.782  10.671  72.190  1.00  0.00    -0.296 OA 
HETATM    5  C   UNL     1     -13.423  13.399  72.250  1.00  0.00    -0.683 A  
HETATM    6  C   UNL     1     -13.535  14.785  72.341  1.00  0.00    -0.529 A  
HETATM    7  C   UNL     1     -13.074  15.582  71.304  1.00  0.00    -0.581 A  
HETATM    8  C   UNL     1     -12.535  14.992  70.159  1.00  0.00    -0.356 A  
HETATM    9  C   UNL     1     -12.473  13.594  70.011  1.00  0.00    -0.204 A  
ENDROOT
BRANCH   9  10
HETATM   10  N   UNL     1     -11.907  13.021  68.826  1.00  0.00    -0.318 NA 
HETATM   11  H   UNL     1     -12.526  12.480  68.222  1.00  0.00     0.000 HD 
BRANCH  10  12
HETATM   12  C   UNL     1     -10.545  13.151  68.426  1.00  0.00    -0.251 A  
HETATM   13  C   UNL     1      -9.661  12.060  68.448  1.00  0.00    -0.190 A  
HETATM   14  C   UNL     1      -8.334  12.182  68.000  1.00  0.00    -0.167 A  
HETATM   15  C   UNL     1      -7.389  11.005  68.012  1.00  0.00    -0.088 C  
HETATM   16  C   UNL     1      -7.889  13.428  67.538  1.00  0.00    -0.181 A  
HETATM   17  F   UNL     1      -6.970  10.658  66.764  1.00  0.00    -0.086 F  
HETATM   18  F   UNL     1      -6.258  11.257  68.728  1.00  0.00    -0.044 F  
HETATM   19  F   UNL     1      -7.927   9.876  68.552  1.00  0.00    -0.083 F  
HETATM   20  C   UNL     1      -8.732  14.535  67.584  1.00  0.00    -0.186 A  
HETATM   21  C   UNL     1     -10.044  14.403  68.048  1.00  0.00    -0.232 A  
ENDBRANCH  10  12
ENDBRANCH   9  10
TORSDOF 2
ENDMDL
MODEL      146
REMARK 921   NORMALIZED FREE ENERGY PREDICTED BY IDOCK:   -4.91 KCAL/MOL
REMARK 922        TOTAL FREE ENERGY PREDICTED BY IDOCK:   -5.89 KCAL/MOL
REMARK 923 INTER-LIGAND FREE ENERGY PREDICTED BY IDOCK:   -5.84 KCAL/MOL
REMARK 924 INTRA-LIGAND FREE ENERGY PREDICTED BY IDOCK:   -0.04 KCAL/MOL
REMARK 927      BINDING AFFINITY PREDICTED BY RF-SCORE:    0.00 PKD
ROOT
HETATM    1  O   UNL     1      -8.247   9.955  68.864  1.00  0.00    -0.106 OA 
HETATM    2  C   UNL     1      -8.350   9.340  67.666  1.00  0.00    -0.116 C  
HETATM    3  C   UNL     1      -9.142  10.094  66.649  1.00  0.00    -0.164 A  
HETATM    4  O   UNL     1      -7.822   8.267  67.433  1.00  0.00    -0.103 OA 
HETATM    5  C   UNL     1      -8.916   9.731  65.307  1.00  0.00    -0.233 A  
HETATM    6  C   UNL     1      -9.634  10.329  64.274  1.00  0.00    -0.375 A  
HETATM    7  C   UNL     1     -10.612  11.268  64.569  1.00  0.00    -0.401 A  
HETATM    8  C   UNL     1     -10.846  11.637  65.895  1.00  0.00    -0.339 A  
HETATM    9  C   UNL     1     -10.088  11.099  66.953  1.00  0.00    -0.214 A  
ENDROOT
BRANCH   9  10
HETATM   10  N   UNL     1     -10.359  11.494  68.302  1.00  0.00    -0.190 NA 
HETATM   11  H   UNL     1     -10.122  10.834  69.044  1.00  0.00     0.000 HD 
BRANCH  10  12
HETATM   12  C   UNL     1     -10.935  12.740  68.689  1.00  0.00    -0.260 A  
HETATM   13  C   UNL     1     -11.771  12.851  69.813  1.00  0.00    -0.351 A  
HETATM   14  C   UNL     1     -12.290  14.092  70.221  1.00  0.00    -0.425 A  
HETATM   15  C   UNL     1     -13.178  14.211  71.436  1.00  0.00    -0.347 C  
HETATM   16  C   UNL     1     -11.974  15.234  69.474  1.00  0.00    -0.356 A  
HETATM   17  F   UNL     1     -12.628  14.985  72.411  1.00  0.00    -0.338 F  
HETATM   18  F   UNL     1     -14.381  14.779  71.143  1.00  0.00    -0.469 F  
HETATM   19  F   UNL     1     -13.464  13.016  72.024  1.00  0.00    -0.491 F  
HETATM   20  C   UNL     1     -11.210  15.126  68.314  1.00  0.00    -0.315 A  
HETATM   21  C   UNL     1     -10.715  13.883  67.911  1.00  0.00    -0.248 A  
ENDBRANCH  10  12
ENDBRANCH   9  10
TORSDOF 2
ENDMDL
MODEL      147
REMARK 921   NORMALIZED FREE ENERGY PREDICTED BY IDOCK:   -4.91 KCAL/MOL
REMARK 922        TOTAL FREE ENERGY PREDICTED BY IDOCK:   -5.88 KCAL/MOL
REMARK 923 INTER-LIGAND FREE ENERGY PREDICTED BY IDOCK:   -5.37 KCAL/MOL
REMARK 924 INTRA-LIGAND FREE ENERGY PREDICTED BY IDOCK:   -0.51 KCAL/MOL
REMARK 927      BINDING AFFINITY PREDICTED BY RF-SCORE:    0.00 PKD
ROOT
HETATM    1  O   UNL     1     -10.136  15.919  66.255  1.00  0.00    -0.266 OA 
HETATM    2  C   UNL     1     -10.834  15.799  65.105  1.00  0.00    -0.428 C  
HETATM    3  C   UNL     1     -11.188  14.395  64.740  1.00  0.00    -0.391 A  
HETATM    4  O   UNL     1     -11.164  16.762  64.435  1.00  0.00    -1.112 OA 
HETATM    5  C   UNL     1     -12.253  14.250  63.830  1.00  0.00    -0.233 A  
HETATM    6  C   UNL     1     -12.640  12.992  63.375  1.00  0.00    -0.224 A  
HETATM    7  C   UNL     1     -11.945  11.866  63.793  1.00  0.00    -0.547 A  
HETATM    8  C   UNL     1     -10.888  11.995  64.695  1.00  0.00    -0.357 A  
HETATM    9  C   UNL     1     -10.519  13.247  65.223  1.00  0.00    -0.313 A  
ENDROOT
BRANCH   9  10
HETATM   10  N   UNL     1      -9.425  13.345  66.141  1.00  0.00    -0.458 NA 
HETATM   11  H   UNL     1      -8.919  14.230  66.179  1.00  0.00     0.000 HD 
BRANCH  10  12
HETATM   12  C   UNL     1      -8.988  12.299  67.007  1.00  0.00    -0.204 A  
HETATM   13  C   UNL     1      -7.823  11.560  66.743  1.00  0.00    -0.146 A  
HETATM   14  C   UNL     1      -7.369  10.567  67.629  1.00  0.00    -0.087 A  
HETATM   15  C   UNL     1      -6.110   9.782  67.351  1.00  0.00    -0.059 C  
HETATM   16  C   UNL     1      -8.110  10.307  68.790  1.00  0.00    -0.120 A  
HETATM   17  F   UNL     1      -5.149   9.984  68.294  1.00  0.00    -0.037 F  
HETATM   18  F   UNL     1      -6.333   8.439  67.328  1.00  0.00    -0.052 F  
HETATM   19  F   UNL     1      -5.529  10.084  66.157  1.00  0.00    -0.043 F  
HETATM   20  C   UNL     1      -9.308  10.979  69.023  1.00  0.00    -0.105 A  
HETATM   21  C   UNL     1      -9.756  11.952  68.125  1.00  0.00    -0.194 A  
ENDBRANCH  10  12
ENDBRANCH   9  10
TORSDOF 2
ENDMDL
MODEL      148
REMARK 921   NORMALIZED FREE ENERGY PREDICTED BY IDOCK:   -4.87 KCAL/MOL
REMARK 922        TOTAL FREE ENERGY PREDICTED BY IDOCK:   -5.84 KCAL/MOL
REMARK 923 INTER-LIGAND FREE ENERGY PREDICTED BY IDOCK:   -5.32 KCAL/MOL
REMARK 924 INTRA-LIGAND FREE ENERGY PREDICTED BY IDOCK:   -0.52 KCAL/MOL
REMARK 927      BINDING AFFINITY PREDICTED BY RF-SCORE:    0.00 PKD
ROOT
HETATM    1  O   UNL     1      -8.340   8.818  72.746  1.00  0.00    -0.412 OA 
HETATM    2  C   UNL     1      -9.052   7.683  72.912  1.00  0.00    -0.178 C  
HETATM    3  C   UNL     1      -9.606   7.110  71.649  1.00  0.00    -0.163 A  
HETATM    4  O   UNL     1      -9.209   7.161  74.001  1.00  0.00    -0.207 OA 
HETATM    5  C   UNL     1      -9.960   5.748  71.700  1.00  0.00    -0.218 A  
HETATM    6  C   UNL     1     -10.535   5.116  70.599  1.00  0.00    -0.269 A  
HETATM    7  C   UNL     1     -10.799   5.845  69.449  1.00  0.00    -0.422 A  
HETATM    8  C   UNL     1     -10.452   7.196  69.385  1.00  0.00    -0.232 A  
HETATM    9  C   UNL     1      -9.808   7.842  70.457  1.00  0.00    -0.182 A  
ENDROOT
BRANCH   9  10
HETATM   10  N   UNL     1      -9.473   9.231  70.361  1.00  0.00    -0.227 NA 
HETATM   11  H   UNL     1      -8.685   9.565  70.916  1.00  0.00     0.000 HD 
BRANCH  10  12
HETATM   12  C   UNL     1     -10.157  10.182  69.547  1.00  0.00    -0.235 A  
HETATM   13  C   UNL     1      -9.679  10.549  68.278  1.00  0.00    -0.163 A  
HETATM   14  C   UNL     1     -10.387  11.445  67.459  1.00  0.00    -0.224 A  
HETATM   15  C   UNL     1      -9.878  11.828  66.090  1.00  0.00    -0.229 C  
HETATM   16  C   UNL     1     -11.586  11.991  67.935  1.00  0.00    -0.405 A  
HETATM   17  F   UNL     1     -10.723  11.446  65.093  1.00  0.00    -0.322 F  
HETATM   18  F   UNL     1      -9.725  13.175  65.954  1.00  0.00    -0.266 F  
HETATM   19  F   UNL     1      -8.668  11.283  65.784  1.00  0.00    -0.186 F  
HETATM   20  C   UNL     1     -12.030  11.696  69.222  1.00  0.00    -0.382 A  
HETATM   21  C   UNL     1     -11.307  10.816  70.032  1.00  0.00    -0.397 A  
ENDBRANCH  10  12
ENDBRANCH   9  10
TORSDOF 2
ENDMDL
MODEL      149
REMARK 921   NORMALIZED FREE ENERGY PREDICTED BY IDOCK:   -4.85 KCAL/MOL
REMARK 922        TOTAL FREE ENERGY PREDICTED BY IDOCK:   -5.82 KCAL/MOL
REMARK 923 INTER-LIGAND FREE ENERGY PREDICTED BY IDOCK:   -5.41 KCAL/MOL
REMARK 924 INTRA-LIGAND FREE ENERGY PREDICTED BY IDOCK:   -0.41 KCAL/MOL
REMARK 927      BINDING AFFINITY PREDICTED BY RF-SCORE:    0.00 PKD
ROOT
HETATM    1  O   UNL     1     -10.339  15.575  67.704  1.00  0.00    -0.258 OA 
HETATM    2  C   UNL     1     -10.824  16.356  68.693  1.00  0.00    -0.331 C  
HETATM    3  C   UNL     1     -11.462  15.607  69.817  1.00  0.00    -0.346 A  
HETATM    4  O   UNL     1     -10.727  17.570  68.676  1.00  0.00    -0.318 OA 
HETATM    5  C   UNL     1     -11.578  16.310  71.031  1.00  0.00    -0.343 A  
HETATM    6  C   UNL     1     -12.203  15.734  72.135  1.00  0.00    -0.552 A  
HETATM    7  C   UNL     1     -12.753  14.465  72.029  1.00  0.00    -0.403 A  
HETATM    8  C   UNL     1     -12.645  13.757  70.830  1.00  0.00    -0.428 A  
HETATM    9  C   UNL     1     -11.959  14.288  69.721  1.00  0.00    -0.339 A  
ENDROOT
BRANCH   9  10
HETATM   10  N   UNL     1     -11.873  13.538  68.504  1.00  0.00    -0.348 NA 
HETATM   11  H   UNL     1     -12.395  13.884  67.699  1.00  0.00     0.000 HD 
BRANCH  10  12
HETATM   12  C   UNL     1     -11.112  12.344  68.332  1.00  0.00    -0.250 A  
HETATM   13  C   UNL     1      -9.828  12.362  67.764  1.00  0.00    -0.203 A  
HETATM   14  C   UNL     1      -9.061  11.189  67.648  1.00  0.00    -0.147 A  
HETATM   15  C   UNL     1      -7.676  11.212  67.049  1.00  0.00    -0.139 C  
HETATM   16  C   UNL     1      -9.606   9.979  68.098  1.00  0.00    -0.152 A  
HETATM   17  F   UNL     1      -6.715  10.837  67.938  1.00  0.00    -0.062 F  
HETATM   18  F   UNL     1      -7.556  10.362  65.991  1.00  0.00    -0.112 F  
HETATM   19  F   UNL     1      -7.299  12.436  66.586  1.00  0.00    -0.041 F  
HETATM   20  C   UNL     1     -10.908   9.935  68.592  1.00  0.00    -0.244 A  
HETATM   21  C   UNL     1     -11.665  11.107  68.685  1.00  0.00    -0.389 A  
ENDBRANCH  10  12
ENDBRANCH   9  10
TORSDOF 2
ENDMDL
MODEL      150
REMARK 921   NORMALIZED FREE ENERGY PREDICTED BY IDOCK:   -4.84 KCAL/MOL
REMARK 922        TOTAL FREE ENERGY PREDICTED BY IDOCK:   -5.80 KCAL/MOL
REMARK 923 INTER-LIGAND FREE ENERGY PREDICTED BY IDOCK:   -5.46 KCAL/MOL
REMARK 924 INTRA-LIGAND FREE ENERGY PREDICTED BY IDOCK:   -0.34 KCAL/MOL
REMARK 927      BINDING AFFINITY PREDICTED BY RF-SCORE:    0.00 PKD
ROOT
HETATM    1  O   UNL     1      -6.851   6.392  71.504  1.00  0.00    -0.064 OA 
HETATM    2  C   UNL     1      -7.074   5.176  72.046  1.00  0.00    -0.083 C  
HETATM    3  C   UNL     1      -8.485   4.936  72.470  1.00  0.00    -0.120 A  
HETATM    4  O   UNL     1      -6.196   4.338  72.157  1.00  0.00    -0.019 OA 
HETATM    5  C   UNL     1      -8.857   3.585  72.620  1.00  0.00    -0.099 A  
HETATM    6  C   UNL     1     -10.132   3.239  73.062  1.00  0.00    -0.218 A  
HETATM    7  C   UNL     1     -11.038   4.235  73.395  1.00  0.00    -0.371 A  
HETATM    8  C   UNL     1     -10.683   5.577  73.250  1.00  0.00    -0.314 A  
HETATM    9  C   UNL     1      -9.426   5.955  72.741  1.00  0.00    -0.148 A  
ENDROOT
BRANCH   9  10
HETATM   10  N   UNL     1      -9.091   7.341  72.612  1.00  0.00    -0.136 NA 
HETATM   11  H   UNL     1      -8.258   7.673  73.099  1.00  0.00     0.000 HD 
BRANCH  10  12
HETATM   12  C   UNL     1      -9.833   8.294  71.854  1.00  0.00    -0.232 A  
HETATM   13  C   UNL     1     -11.157   8.631  72.183  1.00  0.00    -0.434 A  
HETATM   14  C   UNL     1     -11.864   9.612  71.465  1.00  0.00    -0.483 A  
HETATM   15  C   UNL     1     -13.281   9.982  71.828  1.00  0.00    -0.437 C  
HETATM   16  C   UNL     1     -11.231  10.248  70.389  1.00  0.00    -0.407 A  
HETATM   17  F   UNL     1     -13.398  11.280  72.222  1.00  0.00    -0.584 F  
HETATM   18  F   UNL     1     -14.139   9.831  70.781  1.00  0.00    -0.290 F  
HETATM   19  F   UNL     1     -13.799   9.237  72.844  1.00  0.00    -0.449 F  
HETATM   20  C   UNL     1      -9.947   9.868  70.004  1.00  0.00    -0.302 A  
HETATM   21  C   UNL     1      -9.263   8.879  70.717  1.00  0.00    -0.272 A  
ENDBRANCH  10  12
ENDBRANCH   9  10
TORSDOF 2
ENDMDL
MODEL      151
REMARK 921   NORMALIZED FREE ENERGY PREDICTED BY IDOCK:   -4.82 KCAL/MOL
REMARK 922        TOTAL FREE ENERGY PREDICTED BY IDOCK:   -5.78 KCAL/MOL
REMARK 923 INTER-LIGAND FREE ENERGY PREDICTED BY IDOCK:   -5.26 KCAL/MOL
REMARK 924 INTRA-LIGAND FREE ENERGY PREDICTED BY IDOCK:   -0.53 KCAL/MOL
REMARK 927      BINDING AFFINITY PREDICTED BY RF-SCORE:    0.00 PKD
ROOT
HETATM    1  O   UNL     1      -8.184  13.653  67.220  1.00  0.00    -0.175 OA 
HETATM    2  C   UNL     1      -8.688  14.755  66.625  1.00  0.00    -0.194 C  
HETATM    3  C   UNL     1      -9.872  14.498  65.750  1.00  0.00    -0.343 A  
HETATM    4  O   UNL     1      -8.226  15.867  66.805  1.00  0.00    -0.221 OA 
HETATM    5  C   UNL     1     -10.680  15.618  65.472  1.00  0.00    -0.403 A  
HETATM    6  C   UNL     1     -11.782  15.513  64.627  1.00  0.00    -0.226 A  
HETATM    7  C   UNL     1     -12.068  14.300  64.019  1.00  0.00    -0.350 A  
HETATM    8  C   UNL     1     -11.276  13.182  64.286  1.00  0.00    -0.422 A  
HETATM    9  C   UNL     1     -10.197  13.243  65.189  1.00  0.00    -0.287 A  
ENDROOT
BRANCH   9  10
HETATM   10  N   UNL     1      -9.400  12.079  65.435  1.00  0.00    -0.431 NA 
HETATM   11  H   UNL     1      -8.457  12.063  65.045  1.00  0.00     0.000 HD 
BRANCH  10  12
HETATM   12  C   UNL     1      -9.824  10.942  66.183  1.00  0.00    -0.222 A  
HETATM   13  C   UNL     1      -9.374   9.646  65.877  1.00  0.00    -0.275 A  
HETATM   14  C   UNL     1      -9.752   8.537  66.654  1.00  0.00    -0.318 A  
HETATM   15  C   UNL     1      -9.258   7.147  66.331  1.00  0.00    -0.157 C  
HETATM   16  C   UNL     1     -10.610   8.736  67.744  1.00  0.00    -0.256 A  
HETATM   17  F   UNL     1      -8.497   6.619  67.329  1.00  0.00    -0.117 F  
HETATM   18  F   UNL     1     -10.279   6.268  66.136  1.00  0.00    -0.154 F  
HETATM   19  F   UNL     1      -8.493   7.086  65.206  1.00  0.00    -0.138 F  
HETATM   20  C   UNL     1     -11.124  10.003  68.010  1.00  0.00    -0.263 A  
HETATM   21  C   UNL     1     -10.753  11.094  67.220  1.00  0.00    -0.304 A  
ENDBRANCH  10  12
ENDBRANCH   9  10
TORSDOF 2
ENDMDL
MODEL      152
REMARK 921   NORMALIZED FREE ENERGY PREDICTED BY IDOCK:   -4.81 KCAL/MOL
REMARK 922        TOTAL FREE ENERGY PREDICTED BY IDOCK:   -5.77 KCAL/MOL
REMARK 923 INTER-LIGAND FREE ENERGY PREDICTED BY IDOCK:   -5.08 KCAL/MOL
REMARK 924 INTRA-LIGAND FREE ENERGY PREDICTED BY IDOCK:   -0.69 KCAL/MOL
REMARK 927      BINDING AFFINITY PREDICTED BY RF-SCORE:    0.00 PKD
ROOT
HETATM    1  O   UNL     1     -11.410   6.299  68.692  1.00  0.00    -0.337 OA 
HETATM    2  C   UNL     1     -10.462   5.839  69.536  1.00  0.00    -0.293 C  
HETATM    3  C   UNL     1     -10.511   6.434  70.905  1.00  0.00    -0.275 A  
HETATM    4  O   UNL     1      -9.650   4.992  69.210  1.00  0.00    -0.135 OA 
HETATM    5  C   UNL     1      -9.862   5.698  71.915  1.00  0.00    -0.203 A  
HETATM    6  C   UNL     1      -9.795   6.178  73.221  1.00  0.00    -0.170 A  
HETATM    7  C   UNL     1     -10.342   7.416  73.527  1.00  0.00    -0.405 A  
HETATM    8  C   UNL     1     -10.989   8.156  72.535  1.00  0.00    -0.439 A  
HETATM    9  C   UNL     1     -11.130   7.664  71.224  1.00  0.00    -0.246 A  
ENDROOT
BRANCH   9  10
HETATM   10  N   UNL     1     -11.792   8.453  70.229  1.00  0.00    -0.461 NA 
HETATM   11  H   UNL     1     -12.642   8.070  69.813  1.00  0.00     0.000 HD 
BRANCH  10  12
HETATM   12  C   UNL     1     -11.355   9.732  69.776  1.00  0.00    -0.158 A  
HETATM   13  C   UNL     1     -10.126   9.903  69.116  1.00  0.00    -0.210 A  
HETATM   14  C   UNL     1      -9.727  11.157  68.623  1.00  0.00    -0.202 A  
HETATM   15  C   UNL     1      -8.412  11.336  67.904  1.00  0.00    -0.133 C  
HETATM   16  C   UNL     1     -10.573  12.258  68.813  1.00  0.00    -0.223 A  
HETATM   17  F   UNL     1      -8.573  11.734  66.612  1.00  0.00    -0.166 F  
HETATM   18  F   UNL     1      -7.626  12.281  68.490  1.00  0.00    -0.103 F  
HETATM   19  F   UNL     1      -7.657  10.203  67.853  1.00  0.00    -0.086 F  
HETATM   20  C   UNL     1     -11.757  12.118  69.533  1.00  0.00    -0.402 A  
HETATM   21  C   UNL     1     -12.133  10.867  70.032  1.00  0.00    -0.433 A  
ENDBRANCH  10  12
ENDBRANCH   9  10
TORSDOF 2
ENDMDL
MODEL      153
REMARK 921   NORMALIZED FREE ENERGY PREDICTED BY IDOCK:   -4.80 KCAL/MOL
REMARK 922        TOTAL FREE ENERGY PREDICTED BY IDOCK:   -5.77 KCAL/MOL
REMARK 923 INTER-LIGAND FREE ENERGY PREDICTED BY IDOCK:   -5.27 KCAL/MOL
REMARK 924 INTRA-LIGAND FREE ENERGY PREDICTED BY IDOCK:   -0.50 KCAL/MOL
REMARK 927      BINDING AFFINITY PREDICTED BY RF-SCORE:    0.00 PKD
ROOT
HETATM    1  O   UNL     1     -11.825  13.574  64.772  1.00  0.00    -0.351 OA 
HETATM    2  C   UNL     1     -11.337  14.805  65.034  1.00  0.00    -0.391 C  
HETATM    3  C   UNL     1     -10.313  14.846  66.122  1.00  0.00    -0.312 A  
HETATM    4  O   UNL     1     -11.688  15.795  64.418  1.00  0.00    -0.380 OA 
HETATM    5  C   UNL     1      -9.478  15.980  66.132  1.00  0.00    -0.371 A  
HETATM    6  C   UNL     1      -8.521  16.154  67.129  1.00  0.00    -0.218 A  
HETATM    7  C   UNL     1      -8.411  15.219  68.148  1.00  0.00    -0.151 A  
HETATM    8  C   UNL     1      -9.233  14.091  68.149  1.00  0.00    -0.196 A  
HETATM    9  C   UNL     1     -10.162  13.855  67.118  1.00  0.00    -0.258 A  
ENDROOT
BRANCH   9  10
HETATM   10  N   UNL     1     -10.994  12.691  67.154  1.00  0.00    -0.253 NA 
HETATM   11  H   UNL     1     -11.963  12.813  67.449  1.00  0.00     0.000 HD 
BRANCH  10  12
HETATM   12  C   UNL     1     -10.572  11.373  66.808  1.00  0.00    -0.255 A  
HETATM   13  C   UNL     1      -9.780  11.124  65.675  1.00  0.00    -0.267 A  
HETATM   14  C   UNL     1      -9.321   9.831  65.371  1.00  0.00    -0.311 A  
HETATM   15  C   UNL     1      -8.459   9.567  64.160  1.00  0.00    -0.186 C  
HETATM   16  C   UNL     1      -9.681   8.771  66.214  1.00  0.00    -0.342 A  
HETATM   17  F   UNL     1      -7.224   9.099  64.490  1.00  0.00    -0.093 F  
HETATM   18  F   UNL     1      -9.004   8.633  63.332  1.00  0.00    -0.078 F  
HETATM   19  F   UNL     1      -8.246  10.670  63.389  1.00  0.00    -0.164 F  
HETATM   20  C   UNL     1     -10.530   8.992  67.296  1.00  0.00    -0.343 A  
HETATM   21  C   UNL     1     -10.992  10.281  67.577  1.00  0.00    -0.344 A  
ENDBRANCH  10  12
ENDBRANCH   9  10
TORSDOF 2
ENDMDL
MODEL      154
REMARK 921   NORMALIZED FREE ENERGY PREDICTED BY IDOCK:   -4.80 KCAL/MOL
REMARK 922        TOTAL FREE ENERGY PREDICTED BY IDOCK:   -5.77 KCAL/MOL
REMARK 923 INTER-LIGAND FREE ENERGY PREDICTED BY IDOCK:   -5.28 KCAL/MOL
REMARK 924 INTRA-LIGAND FREE ENERGY PREDICTED BY IDOCK:   -0.48 KCAL/MOL
REMARK 927      BINDING AFFINITY PREDICTED BY RF-SCORE:    0.00 PKD
ROOT
HETATM    1  O   UNL     1      -6.626  18.777  64.402  1.00  0.00    -0.210 OA 
HETATM    2  C   UNL     1      -6.484  19.912  65.119  1.00  0.00    -0.282 C  
HETATM    3  C   UNL     1      -6.584  19.726  66.598  1.00  0.00    -0.202 A  
HETATM    4  O   UNL     1      -6.271  20.993  64.600  1.00  0.00    -0.279 OA 
HETATM    5  C   UNL     1      -6.023  20.752  67.382  1.00  0.00    -0.299 A  
HETATM    6  C   UNL     1      -6.101  20.715  68.772  1.00  0.00    -0.366 A  
HETATM    7  C   UNL     1      -6.774  19.674  69.395  1.00  0.00    -0.389 A  
HETATM    8  C   UNL     1      -7.335  18.650  68.630  1.00  0.00    -0.329 A  
HETATM    9  C   UNL     1      -7.212  18.627  67.227  1.00  0.00    -0.209 A  
ENDROOT
BRANCH   9  10
HETATM   10  N   UNL     1      -7.806  17.566  66.472  1.00  0.00    -0.253 NA 
HETATM   11  H   UNL     1      -7.881  17.691  65.462  1.00  0.00     0.000 HD 
BRANCH  10  12
HETATM   12  C   UNL     1      -8.300  16.347  67.023  1.00  0.00    -0.199 A  
HETATM   13  C   UNL     1      -9.628  16.220  67.464  1.00  0.00    -0.230 A  
HETATM   14  C   UNL     1     -10.123  14.999  67.955  1.00  0.00    -0.223 A  
HETATM   15  C   UNL     1     -11.554  14.861  68.416  1.00  0.00    -0.325 C  
HETATM   16  C   UNL     1      -9.261  13.897  68.018  1.00  0.00    -0.193 A  
HETATM   17  F   UNL     1     -12.259  13.968  67.669  1.00  0.00    -0.402 F  
HETATM   18  F   UNL     1     -11.642  14.423  69.703  1.00  0.00    -0.260 F  
HETATM   19  F   UNL     1     -12.259  16.025  68.370  1.00  0.00    -0.246 F  
HETATM   20  C   UNL     1      -7.922  14.031  67.658  1.00  0.00    -0.186 A  
HETATM   21  C   UNL     1      -7.439  15.255  67.187  1.00  0.00    -0.202 A  
ENDBRANCH  10  12
ENDBRANCH   9  10
TORSDOF 2
ENDMDL
MODEL      155
REMARK 921   NORMALIZED FREE ENERGY PREDICTED BY IDOCK:   -4.80 KCAL/MOL
REMARK 922        TOTAL FREE ENERGY PREDICTED BY IDOCK:   -5.76 KCAL/MOL
REMARK 923 INTER-LIGAND FREE ENERGY PREDICTED BY IDOCK:   -5.24 KCAL/MOL
REMARK 924 INTRA-LIGAND FREE ENERGY PREDICTED BY IDOCK:   -0.52 KCAL/MOL
REMARK 927      BINDING AFFINITY PREDICTED BY RF-SCORE:    0.00 PKD
ROOT
HETATM    1  O   UNL     1     -13.348   8.562  71.130  1.00  0.00    -0.175 OA 
HETATM    2  C   UNL     1     -13.311   9.593  72.001  1.00  0.00    -0.457 C  
HETATM    3  C   UNL     1     -12.954  10.908  71.389  1.00  0.00    -0.527 A  
HETATM    4  O   UNL     1     -13.570   9.461  73.184  1.00  0.00    -0.036 OA 
HETATM    5  C   UNL     1     -13.323  12.047  72.130  1.00  0.00    -0.396 A  
HETATM    6  C   UNL     1     -12.998  13.326  71.686  1.00  0.00    -0.441 A  
HETATM    7  C   UNL     1     -12.267  13.483  70.517  1.00  0.00    -0.433 A  
HETATM    8  C   UNL     1     -11.895  12.362  69.772  1.00  0.00    -0.387 A  
HETATM    9  C   UNL     1     -12.269  11.062  70.162  1.00  0.00    -0.344 A  
ENDROOT
BRANCH   9  10
HETATM   10  N   UNL     1     -11.865   9.933  69.379  1.00  0.00    -0.450 NA 
HETATM   11  H   UNL     1     -12.585   9.448  68.845  1.00  0.00     0.000 HD 
BRANCH  10  12
HETATM   12  C   UNL     1     -10.531   9.436  69.290  1.00  0.00    -0.218 A  
HETATM   13  C   UNL     1     -10.142   8.538  68.282  1.00  0.00    -0.225 A  
HETATM   14  C   UNL     1      -8.813   8.096  68.167  1.00  0.00    -0.132 A  
HETATM   15  C   UNL     1      -8.395   7.141  67.075  1.00  0.00    -0.118 C  
HETATM   16  C   UNL     1      -7.866   8.554  69.092  1.00  0.00    -0.100 A  
HETATM   17  F   UNL     1      -7.480   7.685  66.226  1.00  0.00    -0.076 F  
HETATM   18  F   UNL     1      -7.817   6.011  67.570  1.00  0.00    -0.093 F  
HETATM   19  F   UNL     1      -9.426   6.719  66.292  1.00  0.00    -0.188 F  
HETATM   20  C   UNL     1      -8.255   9.383  70.142  1.00  0.00    -0.180 A  
HETATM   21  C   UNL     1      -9.584   9.801  70.254  1.00  0.00    -0.264 A  
ENDBRANCH  10  12
ENDBRANCH   9  10
TORSDOF 2
ENDMDL
MODEL      156
REMARK 921   NORMALIZED FREE ENERGY PREDICTED BY IDOCK:   -4.78 KCAL/MOL
REMARK 922        TOTAL FREE ENERGY PREDICTED BY IDOCK:   -5.74 KCAL/MOL
REMARK 923 INTER-LIGAND FREE ENERGY PREDICTED BY IDOCK:   -5.25 KCAL/MOL
REMARK 924 INTRA-LIGAND FREE ENERGY PREDICTED BY IDOCK:   -0.49 KCAL/MOL
REMARK 927      BINDING AFFINITY PREDICTED BY RF-SCORE:    0.00 PKD
ROOT
HETATM    1  O   UNL     1     -11.446  15.054  67.046  1.00  0.00    -0.344 OA 
HETATM    2  C   UNL     1     -11.314  14.911  65.711  1.00  0.00    -0.314 C  
HETATM    3  C   UNL     1     -11.101  13.504  65.257  1.00  0.00    -0.307 A  
HETATM    4  O   UNL     1     -11.384  15.852  64.940  1.00  0.00    -0.335 OA 
HETATM    5  C   UNL     1     -11.394  13.248  63.903  1.00  0.00    -0.360 A  
HETATM    6  C   UNL     1     -11.185  11.985  63.352  1.00  0.00    -0.481 A  
HETATM    7  C   UNL     1     -10.648  10.974  64.135  1.00  0.00    -0.412 A  
HETATM    8  C   UNL     1     -10.354  11.214  65.478  1.00  0.00    -0.326 A  
HETATM    9  C   UNL     1     -10.618  12.460  66.078  1.00  0.00    -0.256 A  
ENDROOT
BRANCH   9  10
HETATM   10  N   UNL     1     -10.297  12.676  67.457  1.00  0.00    -0.216 NA 
HETATM   11  H   UNL     1     -10.152  13.638  67.763  1.00  0.00     0.000 HD 
BRANCH  10  12
HETATM   12  C   UNL     1     -10.167  11.646  68.436  1.00  0.00    -0.207 A  
HETATM   13  C   UNL     1      -8.927  11.053  68.724  1.00  0.00    -0.153 A  
HETATM   14  C   UNL     1      -8.796  10.079  69.729  1.00  0.00    -0.205 A  
HETATM   15  C   UNL     1      -7.460   9.452  70.046  1.00  0.00    -0.107 C  
HETATM   16  C   UNL     1      -9.937   9.686  70.441  1.00  0.00    -0.330 A  
HETATM   17  F   UNL     1      -7.047   9.716  71.316  1.00  0.00    -0.070 F  
HETATM   18  F   UNL     1      -7.487   8.094  69.937  1.00  0.00    -0.064 F  
HETATM   19  F   UNL     1      -6.451   9.870  69.231  1.00  0.00    -0.045 F  
HETATM   20  C   UNL     1     -11.185  10.209  70.112  1.00  0.00    -0.377 A  
HETATM   21  C   UNL     1     -11.303  11.166  69.099  1.00  0.00    -0.340 A  
ENDBRANCH  10  12
ENDBRANCH   9  10
TORSDOF 2
ENDMDL
MODEL      157
REMARK 921   NORMALIZED FREE ENERGY PREDICTED BY IDOCK:   -4.75 KCAL/MOL
REMARK 922        TOTAL FREE ENERGY PREDICTED BY IDOCK:   -5.70 KCAL/MOL
REMARK 923 INTER-LIGAND FREE ENERGY PREDICTED BY IDOCK:   -5.43 KCAL/MOL
REMARK 924 INTRA-LIGAND FREE ENERGY PREDICTED BY IDOCK:   -0.28 KCAL/MOL
REMARK 927      BINDING AFFINITY PREDICTED BY RF-SCORE:    0.00 PKD
ROOT
HETATM    1  O   UNL     1     -10.368   8.468  66.729  1.00  0.00    -0.295 OA 
HETATM    2  C   UNL     1      -9.326   9.052  66.100  1.00  0.00    -0.232 C  
HETATM    3  C   UNL     1      -8.812  10.285  66.768  1.00  0.00    -0.143 A  
HETATM    4  O   UNL     1      -8.835   8.596  65.083  1.00  0.00    -0.177 OA 
HETATM    5  C   UNL     1      -7.501  10.667  66.422  1.00  0.00    -0.138 A  
HETATM    6  C   UNL     1      -6.933  11.827  66.941  1.00  0.00    -0.101 A  
HETATM    7  C   UNL     1      -7.678  12.641  67.782  1.00  0.00    -0.145 A  
HETATM    8  C   UNL     1      -8.978  12.275  68.134  1.00  0.00    -0.192 A  
HETATM    9  C   UNL     1      -9.553  11.073  67.678  1.00  0.00    -0.168 A  
ENDROOT
BRANCH   9  10
HETATM   10  N   UNL     1     -10.892  10.730  68.052  1.00  0.00    -0.233 NA 
HETATM   11  H   UNL     1     -11.434  10.165  67.399  1.00  0.00     0.000 HD 
BRANCH  10  12
HETATM   12  C   UNL     1     -11.525  11.120  69.270  1.00  0.00    -0.294 A  
HETATM   13  C   UNL     1     -11.890  12.454  69.519  1.00  0.00    -0.368 A  
HETATM   14  C   UNL     1     -12.563  12.821  70.697  1.00  0.00    -0.248 A  
HETATM   15  C   UNL     1     -12.965  14.253  70.958  1.00  0.00    -0.342 C  
HETATM   16  C   UNL     1     -12.858  11.831  71.644  1.00  0.00    -0.433 A  
HETATM   17  F   UNL     1     -14.315  14.408  71.049  1.00  0.00    -0.352 F  
HETATM   18  F   UNL     1     -12.456  14.727  72.129  1.00  0.00    -0.337 F  
HETATM   19  F   UNL     1     -12.554  15.122  69.994  1.00  0.00    -0.350 F  
HETATM   20  C   UNL     1     -12.433  10.519  71.443  1.00  0.00    -0.516 A  
HETATM   21  C   UNL     1     -11.749  10.171  70.275  1.00  0.00    -0.361 A  
ENDBRANCH  10  12
ENDBRANCH   9  10
TORSDOF 2
ENDMDL
MODEL      158
REMARK 921   NORMALIZED FREE ENERGY PREDICTED BY IDOCK:   -4.74 KCAL/MOL
REMARK 922        TOTAL FREE ENERGY PREDICTED BY IDOCK:   -5.70 KCAL/MOL
REMARK 923 INTER-LIGAND FREE ENERGY PREDICTED BY IDOCK:   -5.14 KCAL/MOL
REMARK 924 INTRA-LIGAND FREE ENERGY PREDICTED BY IDOCK:   -0.56 KCAL/MOL
REMARK 927      BINDING AFFINITY PREDICTED BY RF-SCORE:    0.00 PKD
ROOT
HETATM    1  O   UNL     1      -9.643  16.049  67.145  1.00  0.00    -0.215 OA 
HETATM    2  C   UNL     1     -10.502  16.473  68.097  1.00  0.00    -0.313 C  
HETATM    3  C   UNL     1     -11.066  15.385  68.950  1.00  0.00    -0.275 A  
HETATM    4  O   UNL     1     -10.775  17.650  68.257  1.00  0.00    -0.360 OA 
HETATM    5  C   UNL     1     -11.594  15.793  70.191  1.00  0.00    -0.364 A  
HETATM    6  C   UNL     1     -12.194  14.875  71.050  1.00  0.00    -0.379 A  
HETATM    7  C   UNL     1     -12.309  13.547  70.666  1.00  0.00    -0.432 A  
HETATM    8  C   UNL     1     -11.790  13.129  69.439  1.00  0.00    -0.383 A  
HETATM    9  C   UNL     1     -11.118  14.022  68.582  1.00  0.00    -0.264 A  
ENDROOT
BRANCH   9  10
HETATM   10  N   UNL     1     -10.604  13.562  67.327  1.00  0.00    -0.261 NA 
HETATM   11  H   UNL     1     -10.958  14.006  66.480  1.00  0.00     0.000 HD 
BRANCH  10  12
HETATM   12  C   UNL     1      -9.633  12.528  67.171  1.00  0.00    -0.208 A  
HETATM   13  C   UNL     1     -10.003  11.203  66.889  1.00  0.00    -0.230 A  
HETATM   14  C   UNL     1      -9.039  10.201  66.682  1.00  0.00    -0.164 A  
HETATM   15  C   UNL     1      -9.438   8.779  66.367  1.00  0.00    -0.228 C  
HETATM   16  C   UNL     1      -7.683  10.539  66.778  1.00  0.00    -0.118 A  
HETATM   17  F   UNL     1      -9.009   8.376  65.140  1.00  0.00    -0.196 F  
HETATM   18  F   UNL     1      -8.919   7.887  67.256  1.00  0.00    -0.123 F  
HETATM   19  F   UNL     1     -10.785   8.574  66.377  1.00  0.00    -0.295 F  
HETATM   20  C   UNL     1      -7.304  11.831  67.133  1.00  0.00    -0.146 A  
HETATM   21  C   UNL     1      -8.275  12.814  67.353  1.00  0.00    -0.186 A  
ENDBRANCH  10  12
ENDBRANCH   9  10
TORSDOF 2
ENDMDL
MODEL      159
REMARK 921   NORMALIZED FREE ENERGY PREDICTED BY IDOCK:   -4.74 KCAL/MOL
REMARK 922        TOTAL FREE ENERGY PREDICTED BY IDOCK:   -5.70 KCAL/MOL
REMARK 923 INTER-LIGAND FREE ENERGY PREDICTED BY IDOCK:   -5.34 KCAL/MOL
REMARK 924 INTRA-LIGAND FREE ENERGY PREDICTED BY IDOCK:   -0.36 KCAL/MOL
REMARK 927      BINDING AFFINITY PREDICTED BY RF-SCORE:    0.00 PKD
ROOT
HETATM    1  O   UNL     1      -9.373   6.499  70.957  1.00  0.00    -0.160 OA 
HETATM    2  C   UNL     1     -10.556   6.173  71.520  1.00  0.00    -0.239 C  
HETATM    3  C   UNL     1     -11.552   7.285  71.556  1.00  0.00    -0.306 A  
HETATM    4  O   UNL     1     -10.795   5.056  71.943  1.00  0.00    -0.161 OA 
HETATM    5  C   UNL     1     -12.896   6.897  71.714  1.00  0.00    -0.349 A  
HETATM    6  C   UNL     1     -13.909   7.849  71.813  1.00  0.00    -0.449 A  
HETATM    7  C   UNL     1     -13.588   9.198  71.794  1.00  0.00    -0.476 A  
HETATM    8  C   UNL     1     -12.259   9.597  71.637  1.00  0.00    -0.484 A  
HETATM    9  C   UNL     1     -11.225   8.657  71.466  1.00  0.00    -0.290 A  
ENDROOT
BRANCH   9  10
HETATM   10  N   UNL     1      -9.871   9.100  71.315  1.00  0.00    -0.299 NA 
HETATM   11  H   UNL     1      -9.241   8.970  72.106  1.00  0.00     0.000 HD 
BRANCH  10  12
HETATM   12  C   UNL     1      -9.337   9.709  70.140  1.00  0.00    -0.251 A  
HETATM   13  C   UNL     1     -10.164  10.326  69.187  1.00  0.00    -0.234 A  
HETATM   14  C   UNL     1      -9.626  10.972  68.060  1.00  0.00    -0.175 A  
HETATM   15  C   UNL     1     -10.515  11.647  67.043  1.00  0.00    -0.224 C  
HETATM   16  C   UNL     1      -8.236  10.980  67.885  1.00  0.00    -0.119 A  
HETATM   17  F   UNL     1     -10.295  12.988  66.965  1.00  0.00    -0.240 F  
HETATM   18  F   UNL     1     -10.319  11.163  65.784  1.00  0.00    -0.273 F  
HETATM   19  F   UNL     1     -11.845  11.501  67.295  1.00  0.00    -0.344 F  
HETATM   20  C   UNL     1      -7.412  10.305  68.782  1.00  0.00    -0.089 A  
HETATM   21  C   UNL     1      -7.961   9.652  69.889  1.00  0.00    -0.174 A  
ENDBRANCH  10  12
ENDBRANCH   9  10
TORSDOF 2
ENDMDL
MODEL      160
REMARK 921   NORMALIZED FREE ENERGY PREDICTED BY IDOCK:   -4.74 KCAL/MOL
REMARK 922        TOTAL FREE ENERGY PREDICTED BY IDOCK:   -5.70 KCAL/MOL
REMARK 923 INTER-LIGAND FREE ENERGY PREDICTED BY IDOCK:   -5.50 KCAL/MOL
REMARK 924 INTRA-LIGAND FREE ENERGY PREDICTED BY IDOCK:   -0.20 KCAL/MOL
REMARK 927      BINDING AFFINITY PREDICTED BY RF-SCORE:    0.00 PKD
ROOT
HETATM    1  O   UNL     1      -6.795  18.242  65.081  1.00  0.00    -0.476 OA 
HETATM    2  C   UNL     1      -6.046  19.203  65.663  1.00  0.00    -0.212 C  
HETATM    3  C   UNL     1      -6.343  19.427  67.110  1.00  0.00    -0.195 A  
HETATM    4  O   UNL     1      -5.185  19.819  65.060  1.00  0.00    -0.154 OA 
HETATM    5  C   UNL     1      -5.332  20.072  67.848  1.00  0.00    -0.208 A  
HETATM    6  C   UNL     1      -5.515  20.381  69.194  1.00  0.00    -0.322 A  
HETATM    7  C   UNL     1      -6.723  20.086  69.809  1.00  0.00    -0.286 A  
HETATM    8  C   UNL     1      -7.734  19.447  69.088  1.00  0.00    -0.287 A  
HETATM    9  C   UNL     1      -7.550  19.062  67.747  1.00  0.00    -0.245 A  
ENDROOT
BRANCH   9  10
HETATM   10  N   UNL     1      -8.610  18.414  67.035  1.00  0.00    -0.255 NA 
HETATM   11  H   UNL     1      -8.985  18.888  66.213  1.00  0.00     0.000 HD 
BRANCH  10  12
HETATM   12  C   UNL     1      -9.182  17.155  67.387  1.00  0.00    -0.232 A  
HETATM   13  C   UNL     1      -9.483  16.183  66.418  1.00  0.00    -0.323 A  
HETATM   14  C   UNL     1      -9.994  14.924  66.777  1.00  0.00    -0.252 A  
HETATM   15  C   UNL     1     -10.305  13.876  65.736  1.00  0.00    -0.316 C  
HETATM   16  C   UNL     1     -10.220  14.649  68.132  1.00  0.00    -0.231 A  
HETATM   17  F   UNL     1      -9.544  12.756  65.878  1.00  0.00    -0.250 F  
HETATM   18  F   UNL     1     -11.600  13.457  65.795  1.00  0.00    -0.315 F  
HETATM   19  F   UNL     1     -10.109  14.300  64.456  1.00  0.00    -0.430 F  
HETATM   20  C   UNL     1      -9.999  15.631  69.095  1.00  0.00    -0.244 A  
HETATM   21  C   UNL     1      -9.506  16.884  68.721  1.00  0.00    -0.264 A  
ENDBRANCH  10  12
ENDBRANCH   9  10
TORSDOF 2
ENDMDL
MODEL      161
REMARK 921   NORMALIZED FREE ENERGY PREDICTED BY IDOCK:   -4.74 KCAL/MOL
REMARK 922        TOTAL FREE ENERGY PREDICTED BY IDOCK:   -5.69 KCAL/MOL
REMARK 923 INTER-LIGAND FREE ENERGY PREDICTED BY IDOCK:   -5.01 KCAL/MOL
REMARK 924 INTRA-LIGAND FREE ENERGY PREDICTED BY IDOCK:   -0.68 KCAL/MOL
REMARK 927      BINDING AFFINITY PREDICTED BY RF-SCORE:    0.00 PKD
ROOT
HETATM    1  O   UNL     1      -7.624  10.963  68.411  1.00  0.00    -0.093 OA 
HETATM    2  C   UNL     1      -8.084  11.082  67.147  1.00  0.00    -0.134 C  
HETATM    3  C   UNL     1      -9.455  11.667  67.040  1.00  0.00    -0.191 A  
HETATM    4  O   UNL     1      -7.424  10.758  66.176  1.00  0.00    -0.135 OA 
HETATM    5  C   UNL     1      -9.792  12.208  65.784  1.00  0.00    -0.264 A  
HETATM    6  C   UNL     1     -11.060  12.734  65.548  1.00  0.00    -0.318 A  
HETATM    7  C   UNL     1     -12.018  12.693  66.550  1.00  0.00    -0.401 A  
HETATM    8  C   UNL     1     -11.697  12.160  67.800  1.00  0.00    -0.390 A  
HETATM    9  C   UNL     1     -10.404  11.683  68.087  1.00  0.00    -0.194 A  
ENDROOT
BRANCH   9  10
HETATM   10  N   UNL     1     -10.110  11.136  69.377  1.00  0.00    -0.428 NA 
HETATM   11  H   UNL     1      -9.530  11.693  70.005  1.00  0.00     0.000 HD 
BRANCH  10  12
HETATM   12  C   UNL     1     -10.567   9.871  69.852  1.00  0.00    -0.273 A  
HETATM   13  C   UNL     1     -10.193   8.669  69.229  1.00  0.00    -0.215 A  
HETATM   14  C   UNL     1     -10.603   7.423  69.735  1.00  0.00    -0.245 A  
HETATM   15  C   UNL     1     -10.190   6.131  69.071  1.00  0.00    -0.191 C  
HETATM   16  C   UNL     1     -11.414   7.392  70.877  1.00  0.00    -0.311 A  
HETATM   17  F   UNL     1      -9.426   5.349  69.882  1.00  0.00    -0.160 F  
HETATM   18  F   UNL     1     -11.261   5.367  68.717  1.00  0.00    -0.154 F  
HETATM   19  F   UNL     1      -9.465   6.309  67.932  1.00  0.00    -0.120 F  
HETATM   20  C   UNL     1     -11.855   8.578  71.458  1.00  0.00    -0.353 A  
HETATM   21  C   UNL     1     -11.454   9.811  70.934  1.00  0.00    -0.447 A  
ENDBRANCH  10  12
ENDBRANCH   9  10
TORSDOF 2
ENDMDL
MODEL      162
REMARK 921   NORMALIZED FREE ENERGY PREDICTED BY IDOCK:   -4.72 KCAL/MOL
REMARK 922        TOTAL FREE ENERGY PREDICTED BY IDOCK:   -5.68 KCAL/MOL
REMARK 923 INTER-LIGAND FREE ENERGY PREDICTED BY IDOCK:   -5.03 KCAL/MOL
REMARK 924 INTRA-LIGAND FREE ENERGY PREDICTED BY IDOCK:   -0.65 KCAL/MOL
REMARK 927      BINDING AFFINITY PREDICTED BY RF-SCORE:    0.00 PKD
ROOT
HETATM    1  O   UNL     1     -12.888   8.623  70.696  1.00  0.00     0.180 OA 
HETATM    2  C   UNL     1     -13.118   9.498  71.699  1.00  0.00    -0.401 C  
HETATM    3  C   UNL     1     -12.903  10.930  71.332  1.00  0.00    -0.554 A  
HETATM    4  O   UNL     1     -13.491   9.146  72.804  1.00  0.00    -0.424 OA 
HETATM    5  C   UNL     1     -13.533  11.875  72.165  1.00  0.00    -0.300 A  
HETATM    6  C   UNL     1     -13.363  13.241  71.953  1.00  0.00    -0.540 A  
HETATM    7  C   UNL     1     -12.533  13.681  70.932  1.00  0.00    -0.448 A  
HETATM    8  C   UNL     1     -11.903  12.754  70.099  1.00  0.00    -0.326 A  
HETATM    9  C   UNL     1     -12.111  11.370  70.247  1.00  0.00    -0.374 A  
ENDROOT
BRANCH   9  10
HETATM   10  N   UNL     1     -11.444  10.447  69.380  1.00  0.00    -0.345 NA 
HETATM   11  H   UNL     1     -12.002   9.992  68.656  1.00  0.00     0.000 HD 
BRANCH  10  12
HETATM   12  C   UNL     1     -10.059  10.114  69.450  1.00  0.00    -0.231 A  
HETATM   13  C   UNL     1      -9.521   9.419  70.546  1.00  0.00    -0.327 A  
HETATM   14  C   UNL     1      -8.166   9.045  70.584  1.00  0.00    -0.207 A  
HETATM   15  C   UNL     1      -7.592   8.288  71.756  1.00  0.00    -0.099 C  
HETATM   16  C   UNL     1      -7.340   9.393  69.507  1.00  0.00    -0.073 A  
HETATM   17  F   UNL     1      -7.130   7.056  71.407  1.00  0.00    -0.065 F  
HETATM   18  F   UNL     1      -6.536   8.935  72.323  1.00  0.00    -0.091 F  
HETATM   19  F   UNL     1      -8.485   8.079  72.764  1.00  0.00    -0.157 F  
HETATM   20  C   UNL     1      -7.843  10.149  68.451  1.00  0.00    -0.093 A  
HETATM   21  C   UNL     1      -9.189  10.528  68.435  1.00  0.00    -0.154 A  
ENDBRANCH  10  12
ENDBRANCH   9  10
TORSDOF 2
ENDMDL
MODEL      163
REMARK 921   NORMALIZED FREE ENERGY PREDICTED BY IDOCK:   -4.71 KCAL/MOL
REMARK 922        TOTAL FREE ENERGY PREDICTED BY IDOCK:   -5.67 KCAL/MOL
REMARK 923 INTER-LIGAND FREE ENERGY PREDICTED BY IDOCK:   -5.35 KCAL/MOL
REMARK 924 INTRA-LIGAND FREE ENERGY PREDICTED BY IDOCK:   -0.31 KCAL/MOL
REMARK 927      BINDING AFFINITY PREDICTED BY RF-SCORE:    0.00 PKD
ROOT
HETATM    1  O   UNL     1     -10.012   7.176  69.750  1.00  0.00    -0.175 OA 
HETATM    2  C   UNL     1     -10.971   6.662  70.549  1.00  0.00    -0.286 C  
HETATM    3  C   UNL     1     -12.000   7.648  70.995  1.00  0.00    -0.296 A  
HETATM    4  O   UNL     1     -11.003   5.484  70.860  1.00  0.00    -0.226 OA 
HETATM    5  C   UNL     1     -13.219   7.101  71.440  1.00  0.00    -0.391 A  
HETATM    6  C   UNL     1     -14.234   7.920  71.929  1.00  0.00    -0.508 A  
HETATM    7  C   UNL     1     -14.032   9.289  72.015  1.00  0.00    -0.392 A  
HETATM    8  C   UNL     1     -12.829   9.845  71.577  1.00  0.00    -0.522 A  
HETATM    9  C   UNL     1     -11.812   9.049  71.015  1.00  0.00    -0.285 A  
ENDROOT
BRANCH   9  10
HETATM   10  N   UNL     1     -10.587   9.650  70.582  1.00  0.00    -0.299 NA 
HETATM   11  H   UNL     1      -9.756   9.490  71.151  1.00  0.00     0.000 HD 
BRANCH  10  12
HETATM   12  C   UNL     1     -10.440  10.456  69.414  1.00  0.00    -0.238 A  
HETATM   13  C   UNL     1      -9.180  10.888  68.968  1.00  0.00    -0.128 A  
HETATM   14  C   UNL     1      -9.038  11.635  67.785  1.00  0.00    -0.175 A  
HETATM   15  C   UNL     1      -7.682  12.088  67.301  1.00  0.00    -0.168 C  
HETATM   16  C   UNL     1     -10.186  11.964  67.052  1.00  0.00    -0.233 A  
HETATM   17  F   UNL     1      -7.352  11.551  66.094  1.00  0.00    -0.078 F  
HETATM   18  F   UNL     1      -7.616  13.439  67.138  1.00  0.00    -0.158 F  
HETATM   19  F   UNL     1      -6.663  11.764  68.144  1.00  0.00    -0.058 F  
HETATM   20  C   UNL     1     -11.447  11.608  67.525  1.00  0.00    -0.360 A  
HETATM   21  C   UNL     1     -11.574  10.880  68.711  1.00  0.00    -0.378 A  
ENDBRANCH  10  12
ENDBRANCH   9  10
TORSDOF 2
ENDMDL
MODEL      164
REMARK 921   NORMALIZED FREE ENERGY PREDICTED BY IDOCK:   -4.67 KCAL/MOL
REMARK 922        TOTAL FREE ENERGY PREDICTED BY IDOCK:   -5.62 KCAL/MOL
REMARK 923 INTER-LIGAND FREE ENERGY PREDICTED BY IDOCK:   -5.23 KCAL/MOL
REMARK 924 INTRA-LIGAND FREE ENERGY PREDICTED BY IDOCK:   -0.39 KCAL/MOL
REMARK 927      BINDING AFFINITY PREDICTED BY RF-SCORE:    0.00 PKD
ROOT
HETATM    1  O   UNL     1     -11.497   6.442  69.315  1.00  0.00    -0.381 OA 
HETATM    2  C   UNL     1     -10.741   5.603  70.056  1.00  0.00    -0.320 C  
HETATM    3  C   UNL     1     -10.640   5.973  71.500  1.00  0.00    -0.295 A  
HETATM    4  O   UNL     1     -10.206   4.615  69.586  1.00  0.00    -0.221 OA 
HETATM    5  C   UNL     1     -10.255   4.936  72.371  1.00  0.00    -0.255 A  
HETATM    6  C   UNL     1     -10.077   5.173  73.732  1.00  0.00    -0.223 A  
HETATM    7  C   UNL     1     -10.244   6.455  74.234  1.00  0.00    -0.362 A  
HETATM    8  C   UNL     1     -10.626   7.493  73.381  1.00  0.00    -0.409 A  
HETATM    9  C   UNL     1     -10.879   7.267  72.015  1.00  0.00    -0.233 A  
ENDROOT
BRANCH   9  10
HETATM   10  N   UNL     1     -11.263   8.355  71.167  1.00  0.00    -0.255 NA 
HETATM   11  H   UNL     1     -12.258   8.567  71.092  1.00  0.00     0.000 HD 
BRANCH  10  12
HETATM   12  C   UNL     1     -10.359   9.166  70.418  1.00  0.00    -0.223 A  
HETATM   13  C   UNL     1     -10.809  10.047  69.421  1.00  0.00    -0.270 A  
HETATM   14  C   UNL     1      -9.919  10.883  68.725  1.00  0.00    -0.203 A  
HETATM   15  C   UNL     1     -10.406  11.838  67.662  1.00  0.00    -0.200 C  
HETATM   16  C   UNL     1      -8.553  10.818  69.030  1.00  0.00    -0.143 A  
HETATM   17  F   UNL     1     -10.173  13.141  67.984  1.00  0.00    -0.208 F  
HETATM   18  F   UNL     1      -9.791  11.635  66.464  1.00  0.00    -0.203 F  
HETATM   19  F   UNL     1     -11.742  11.747  67.415  1.00  0.00    -0.373 F  
HETATM   20  C   UNL     1      -8.085   9.894  69.962  1.00  0.00    -0.193 A  
HETATM   21  C   UNL     1      -8.980   9.056  70.634  1.00  0.00    -0.263 A  
ENDBRANCH  10  12
ENDBRANCH   9  10
TORSDOF 2
ENDMDL
MODEL      165
REMARK 921   NORMALIZED FREE ENERGY PREDICTED BY IDOCK:   -4.67 KCAL/MOL
REMARK 922        TOTAL FREE ENERGY PREDICTED BY IDOCK:   -5.62 KCAL/MOL
REMARK 923 INTER-LIGAND FREE ENERGY PREDICTED BY IDOCK:   -4.99 KCAL/MOL
REMARK 924 INTRA-LIGAND FREE ENERGY PREDICTED BY IDOCK:   -0.63 KCAL/MOL
REMARK 927      BINDING AFFINITY PREDICTED BY RF-SCORE:    0.00 PKD
ROOT
HETATM    1  O   UNL     1      -9.281   7.320  67.870  1.00  0.00    -0.132 OA 
HETATM    2  C   UNL     1      -9.157   8.512  67.248  1.00  0.00    -0.133 C  
HETATM    3  C   UNL     1      -8.277   9.491  67.955  1.00  0.00    -0.114 A  
HETATM    4  O   UNL     1      -9.702   8.757  66.186  1.00  0.00    -0.258 OA 
HETATM    5  C   UNL     1      -7.773  10.541  67.164  1.00  0.00    -0.101 A  
HETATM    6  C   UNL     1      -6.984  11.543  67.724  1.00  0.00    -0.078 A  
HETATM    7  C   UNL     1      -6.720  11.530  69.086  1.00  0.00    -0.108 A  
HETATM    8  C   UNL     1      -7.214  10.495  69.881  1.00  0.00    -0.136 A  
HETATM    9  C   UNL     1      -7.956   9.433  69.330  1.00  0.00    -0.093 A  
ENDROOT
BRANCH   9  10
HETATM   10  N   UNL     1      -8.454   8.390  70.175  1.00  0.00    -0.122 NA 
HETATM   11  H   UNL     1      -7.932   7.514  70.201  1.00  0.00     0.000 HD 
BRANCH  10  12
HETATM   12  C   UNL     1      -9.625   8.483  70.985  1.00  0.00    -0.192 A  
HETATM   13  C   UNL     1     -10.644   9.410  70.707  1.00  0.00    -0.371 A  
HETATM   14  C   UNL     1     -11.819   9.459  71.476  1.00  0.00    -0.456 A  
HETATM   15  C   UNL     1     -12.919  10.447  71.169  1.00  0.00    -0.412 C  
HETATM   16  C   UNL     1     -11.961   8.570  72.551  1.00  0.00    -0.401 A  
HETATM   17  F   UNL     1     -14.085   9.838  70.819  1.00  0.00    -0.290 F  
HETATM   18  F   UNL     1     -13.217  11.237  72.238  1.00  0.00    -0.590 F  
HETATM   19  F   UNL     1     -12.621  11.297  70.148  1.00  0.00    -0.326 F  
HETATM   20  C   UNL     1     -10.926   7.700  72.884  1.00  0.00    -0.456 A  
HETATM   21  C   UNL     1      -9.755   7.675  72.120  1.00  0.00    -0.220 A  
ENDBRANCH  10  12
ENDBRANCH   9  10
TORSDOF 2
ENDMDL
MODEL      166
REMARK 921   NORMALIZED FREE ENERGY PREDICTED BY IDOCK:   -4.66 KCAL/MOL
REMARK 922        TOTAL FREE ENERGY PREDICTED BY IDOCK:   -5.61 KCAL/MOL
REMARK 923 INTER-LIGAND FREE ENERGY PREDICTED BY IDOCK:   -5.03 KCAL/MOL
REMARK 924 INTRA-LIGAND FREE ENERGY PREDICTED BY IDOCK:   -0.58 KCAL/MOL
REMARK 927      BINDING AFFINITY PREDICTED BY RF-SCORE:    0.00 PKD
ROOT
HETATM    1  O   UNL     1      -7.919   7.856  70.409  1.00  0.00    -0.094 OA 
HETATM    2  C   UNL     1      -8.653   8.335  71.435  1.00  0.00    -0.149 C  
HETATM    3  C   UNL     1     -10.095   7.947  71.398  1.00  0.00    -0.212 A  
HETATM    4  O   UNL     1      -8.171   9.010  72.328  1.00  0.00    -0.354 OA 
HETATM    5  C   UNL     1     -10.784   8.038  72.624  1.00  0.00    -0.426 A  
HETATM    6  C   UNL     1     -12.145   7.752  72.702  1.00  0.00    -0.191 A  
HETATM    7  C   UNL     1     -12.843   7.410  71.554  1.00  0.00    -0.416 A  
HETATM    8  C   UNL     1     -12.173   7.317  70.332  1.00  0.00    -0.008 A  
HETATM    9  C   UNL     1     -10.785   7.534  70.236  1.00  0.00    -0.238 A  
ENDROOT
BRANCH   9  10
HETATM   10  N   UNL     1     -10.130   7.437  68.967  1.00  0.00    -0.187 NA 
HETATM   11  H   UNL     1      -9.559   6.609  68.792  1.00  0.00     0.000 HD 
BRANCH  10  12
HETATM   12  C   UNL     1     -10.214   8.410  67.927  1.00  0.00    -0.217 A  
HETATM   13  C   UNL     1     -10.839   9.652  68.127  1.00  0.00    -0.241 A  
HETATM   14  C   UNL     1     -10.869  10.628  67.116  1.00  0.00    -0.328 A  
HETATM   15  C   UNL     1     -11.530  11.968  67.336  1.00  0.00    -0.336 C  
HETATM   16  C   UNL     1     -10.275  10.339  65.880  1.00  0.00    -0.293 A  
HETATM   17  F   UNL     1     -10.651  13.004  67.249  1.00  0.00    -0.236 F  
HETATM   18  F   UNL     1     -12.501  12.223  66.415  1.00  0.00    -0.251 F  
HETATM   19  F   UNL     1     -12.130  12.089  68.553  1.00  0.00    -0.359 F  
HETATM   20  C   UNL     1      -9.722   9.083  65.644  1.00  0.00    -0.178 A  
HETATM   21  C   UNL     1      -9.713   8.116  66.653  1.00  0.00    -0.318 A  
ENDBRANCH  10  12
ENDBRANCH   9  10
TORSDOF 2
ENDMDL
MODEL      167
REMARK 921   NORMALIZED FREE ENERGY PREDICTED BY IDOCK:   -4.64 KCAL/MOL
REMARK 922        TOTAL FREE ENERGY PREDICTED BY IDOCK:   -5.58 KCAL/MOL
REMARK 923 INTER-LIGAND FREE ENERGY PREDICTED BY IDOCK:   -5.22 KCAL/MOL
REMARK 924 INTRA-LIGAND FREE ENERGY PREDICTED BY IDOCK:   -0.36 KCAL/MOL
REMARK 927      BINDING AFFINITY PREDICTED BY RF-SCORE:    0.00 PKD
ROOT
HETATM    1  O   UNL     1     -10.037  14.877  65.353  1.00  0.00    -0.346 OA 
HETATM    2  C   UNL     1     -10.482  15.838  66.191  1.00  0.00    -0.317 C  
HETATM    3  C   UNL     1     -10.979  15.331  67.505  1.00  0.00    -0.315 A  
HETATM    4  O   UNL     1     -10.459  17.021  65.903  1.00  0.00    -0.361 OA 
HETATM    5  C   UNL     1     -11.034  16.280  68.544  1.00  0.00    -0.345 A  
HETATM    6  C   UNL     1     -11.528  15.937  69.801  1.00  0.00    -0.342 A  
HETATM    7  C   UNL     1     -12.009  14.655  70.024  1.00  0.00    -0.376 A  
HETATM    8  C   UNL     1     -11.960  13.705  69.003  1.00  0.00    -0.392 A  
HETATM    9  C   UNL     1     -11.403  14.004  67.745  1.00  0.00    -0.303 A  
ENDROOT
BRANCH   9  10
HETATM   10  N   UNL     1     -11.375  13.008  66.717  1.00  0.00    -0.309 NA 
HETATM   11  H   UNL     1     -11.787  13.249  65.815  1.00  0.00     0.000 HD 
BRANCH  10  12
HETATM   12  C   UNL     1     -10.814  11.704  66.857  1.00  0.00    -0.278 A  
HETATM   13  C   UNL     1      -9.654  11.320  66.164  1.00  0.00    -0.241 A  
HETATM   14  C   UNL     1      -9.076  10.052  66.350  1.00  0.00    -0.176 A  
HETATM   15  C   UNL     1      -7.822   9.645  65.614  1.00  0.00    -0.107 C  
HETATM   16  C   UNL     1      -9.686   9.154  67.235  1.00  0.00    -0.225 A  
HETATM   17  F   UNL     1      -6.780   9.398  66.454  1.00  0.00    -0.070 F  
HETATM   18  F   UNL     1      -7.996   8.505  64.889  1.00  0.00    -0.106 F  
HETATM   19  F   UNL     1      -7.376  10.583  64.732  1.00  0.00    -0.140 F  
HETATM   20  C   UNL     1     -10.879   9.495  67.869  1.00  0.00    -0.240 A  
HETATM   21  C   UNL     1     -11.452  10.753  67.662  1.00  0.00    -0.234 A  
ENDBRANCH  10  12
ENDBRANCH   9  10
TORSDOF 2
ENDMDL
MODEL      168
REMARK 921   NORMALIZED FREE ENERGY PREDICTED BY IDOCK:   -4.63 KCAL/MOL
REMARK 922        TOTAL FREE ENERGY PREDICTED BY IDOCK:   -5.58 KCAL/MOL
REMARK 923 INTER-LIGAND FREE ENERGY PREDICTED BY IDOCK:   -4.93 KCAL/MOL
REMARK 924 INTRA-LIGAND FREE ENERGY PREDICTED BY IDOCK:   -0.65 KCAL/MOL
REMARK 927      BINDING AFFINITY PREDICTED BY RF-SCORE:    0.00 PKD
ROOT
HETATM    1  O   UNL     1      -9.902  11.407  67.882  1.00  0.00    -0.171 OA 
HETATM    2  C   UNL     1     -11.187  11.316  68.287  1.00  0.00    -0.267 C  
HETATM    3  C   UNL     1     -11.375  10.634  69.602  1.00  0.00    -0.360 A  
HETATM    4  O   UNL     1     -12.112  11.773  67.639  1.00  0.00    -0.598 OA 
HETATM    5  C   UNL     1     -12.593  10.898  70.258  1.00  0.00    -0.342 A  
HETATM    6  C   UNL     1     -12.904  10.279  71.467  1.00  0.00    -0.557 A  
HETATM    7  C   UNL     1     -12.021   9.361  72.016  1.00  0.00    -0.345 A  
HETATM    8  C   UNL     1     -10.809   9.091  71.376  1.00  0.00    -0.400 A  
HETATM    9  C   UNL     1     -10.440   9.753  70.190  1.00  0.00    -0.286 A  
ENDROOT
BRANCH   9  10
HETATM   10  N   UNL     1      -9.193   9.447  69.555  1.00  0.00    -0.165 NA 
HETATM   11  H   UNL     1      -8.596  10.229  69.288  1.00  0.00     0.000 HD 
BRANCH  10  12
HETATM   12  C   UNL     1      -8.723   8.130  69.270  1.00  0.00    -0.140 A  
HETATM   13  C   UNL     1      -9.413   7.273  68.397  1.00  0.00    -0.142 A  
HETATM   14  C   UNL     1      -8.914   5.998  68.076  1.00  0.00    -0.112 A  
HETATM   15  C   UNL     1      -9.650   5.082  67.128  1.00  0.00    -0.152 C  
HETATM   16  C   UNL     1      -7.712   5.577  68.659  1.00  0.00    -0.088 A  
HETATM   17  F   UNL     1      -8.930   4.804  66.007  1.00  0.00    -0.117 F  
HETATM   18  F   UNL     1      -9.940   3.877  67.694  1.00  0.00    -0.217 F  
HETATM   19  F   UNL     1     -10.839   5.585  66.693  1.00  0.00    -0.305 F  
HETATM   20  C   UNL     1      -7.059   6.387  69.586  1.00  0.00    -0.073 A  
HETATM   21  C   UNL     1      -7.575   7.645  69.908  1.00  0.00    -0.092 A  
ENDBRANCH  10  12
ENDBRANCH   9  10
TORSDOF 2
ENDMDL
MODEL      169
REMARK 921   NORMALIZED FREE ENERGY PREDICTED BY IDOCK:   -4.63 KCAL/MOL
REMARK 922        TOTAL FREE ENERGY PREDICTED BY IDOCK:   -5.58 KCAL/MOL
REMARK 923 INTER-LIGAND FREE ENERGY PREDICTED BY IDOCK:   -5.01 KCAL/MOL
REMARK 924 INTRA-LIGAND FREE ENERGY PREDICTED BY IDOCK:   -0.57 KCAL/MOL
REMARK 927      BINDING AFFINITY PREDICTED BY RF-SCORE:    0.00 PKD
ROOT
HETATM    1  O   UNL     1      -7.497  10.193  67.472  1.00  0.00    -0.089 OA 
HETATM    2  C   UNL     1      -8.389  10.443  66.490  1.00  0.00    -0.130 C  
HETATM    3  C   UNL     1      -9.592  11.213  66.928  1.00  0.00    -0.208 A  
HETATM    4  O   UNL     1      -8.213  10.088  65.338  1.00  0.00    -0.136 OA 
HETATM    5  C   UNL     1     -10.308  11.863  65.904  1.00  0.00    -0.277 A  
HETATM    6  C   UNL     1     -11.476  12.568  66.184  1.00  0.00    -0.426 A  
HETATM    7  C   UNL     1     -11.965  12.600  67.481  1.00  0.00    -0.314 A  
HETATM    8  C   UNL     1     -11.266  11.960  68.506  1.00  0.00    -0.308 A  
HETATM    9  C   UNL     1     -10.047  11.298  68.263  1.00  0.00    -0.188 A  
ENDROOT
BRANCH   9  10
HETATM   10  N   UNL     1      -9.359  10.645  69.336  1.00  0.00    -0.392 NA 
HETATM   11  H   UNL     1      -8.537  11.111  69.722  1.00  0.00     0.000 HD 
BRANCH  10  12
HETATM   12  C   UNL     1      -9.735   9.393  69.906  1.00  0.00    -0.212 A  
HETATM   13  C   UNL     1      -9.413   9.059  71.232  1.00  0.00    -0.339 A  
HETATM   14  C   UNL     1      -9.834   7.846  71.805  1.00  0.00    -0.223 A  
HETATM   15  C   UNL     1      -9.498   7.494  73.234  1.00  0.00    -0.240 C  
HETATM   16  C   UNL     1     -10.578   6.952  71.023  1.00  0.00    -0.244 A  
HETATM   17  F   UNL     1     -10.606   7.363  74.014  1.00  0.00    -0.386 F  
HETATM   18  F   UNL     1      -8.832   6.310  73.331  1.00  0.00    -0.125 F  
HETATM   19  F   UNL     1      -8.711   8.416  73.855  1.00  0.00    -0.304 F  
HETATM   20  C   UNL     1     -10.837   7.238  69.685  1.00  0.00    -0.238 A  
HETATM   21  C   UNL     1     -10.396   8.440  69.123  1.00  0.00    -0.229 A  
ENDBRANCH  10  12
ENDBRANCH   9  10
TORSDOF 2
ENDMDL
MODEL      170
REMARK 921   NORMALIZED FREE ENERGY PREDICTED BY IDOCK:   -4.62 KCAL/MOL
REMARK 922        TOTAL FREE ENERGY PREDICTED BY IDOCK:   -5.57 KCAL/MOL
REMARK 923 INTER-LIGAND FREE ENERGY PREDICTED BY IDOCK:   -5.11 KCAL/MOL
REMARK 924 INTRA-LIGAND FREE ENERGY PREDICTED BY IDOCK:   -0.45 KCAL/MOL
REMARK 927      BINDING AFFINITY PREDICTED BY RF-SCORE:    0.00 PKD
ROOT
HETATM    1  O   UNL     1     -10.902  10.108  65.286  1.00  0.00     0.208 OA 
HETATM    2  C   UNL     1      -9.671   9.720  65.680  1.00  0.00    -0.288 C  
HETATM    3  C   UNL     1      -9.555   9.417  67.138  1.00  0.00    -0.202 A  
HETATM    4  O   UNL     1      -8.739   9.607  64.903  1.00  0.00    -0.156 OA 
HETATM    5  C   UNL     1      -8.460   8.612  67.510  1.00  0.00    -0.124 A  
HETATM    6  C   UNL     1      -8.219   8.306  68.847  1.00  0.00    -0.116 A  
HETATM    7  C   UNL     1      -9.043   8.829  69.832  1.00  0.00    -0.158 A  
HETATM    8  C   UNL     1     -10.132   9.628  69.477  1.00  0.00    -0.223 A  
HETATM    9  C   UNL     1     -10.439   9.898  68.130  1.00  0.00    -0.215 A  
ENDROOT
BRANCH   9  10
HETATM   10  N   UNL     1     -11.559  10.727  67.801  1.00  0.00    -0.637 NA 
HETATM   11  H   UNL     1     -12.415  10.264  67.495  1.00  0.00     0.000 HD 
BRANCH  10  12
HETATM   12  C   UNL     1     -11.569  12.152  67.870  1.00  0.00    -0.347 A  
HETATM   13  C   UNL     1     -11.193  12.947  66.774  1.00  0.00    -0.337 A  
HETATM   14  C   UNL     1     -11.258  14.350  66.831  1.00  0.00    -0.340 A  
HETATM   15  C   UNL     1     -10.866  15.203  65.648  1.00  0.00    -0.360 C  
HETATM   16  C   UNL     1     -11.693  14.959  68.015  1.00  0.00    -0.344 A  
HETATM   17  F   UNL     1     -11.906  15.938  65.167  1.00  0.00    -0.028 F  
HETATM   18  F   UNL     1      -9.888  16.099  65.959  1.00  0.00    -0.280 F  
HETATM   19  F   UNL     1     -10.393  14.488  64.590  1.00  0.00    -0.431 F  
HETATM   20  C   UNL     1     -11.994  14.185  69.133  1.00  0.00    -0.388 A  
HETATM   21  C   UNL     1     -11.909  12.791  69.068  1.00  0.00    -0.344 A  
ENDBRANCH  10  12
ENDBRANCH   9  10
TORSDOF 2
ENDMDL
MODEL      171
REMARK 921   NORMALIZED FREE ENERGY PREDICTED BY IDOCK:   -4.62 KCAL/MOL
REMARK 922        TOTAL FREE ENERGY PREDICTED BY IDOCK:   -5.56 KCAL/MOL
REMARK 923 INTER-LIGAND FREE ENERGY PREDICTED BY IDOCK:   -4.95 KCAL/MOL
REMARK 924 INTRA-LIGAND FREE ENERGY PREDICTED BY IDOCK:   -0.61 KCAL/MOL
REMARK 927      BINDING AFFINITY PREDICTED BY RF-SCORE:    0.00 PKD
ROOT
HETATM    1  O   UNL     1      -6.788  18.392  65.282  1.00  0.00    -0.520 OA 
HETATM    2  C   UNL     1      -7.389  19.546  65.643  1.00  0.00    -0.225 C  
HETATM    3  C   UNL     1      -8.653  19.368  66.419  1.00  0.00    -0.372 A  
HETATM    4  O   UNL     1      -6.925  20.640  65.374  1.00  0.00    -0.199 OA 
HETATM    5  C   UNL     1      -9.067  20.482  67.175  1.00  0.00    -0.452 A  
HETATM    6  C   UNL     1     -10.258  20.453  67.898  1.00  0.00    -0.362 A  
HETATM    7  C   UNL     1     -11.067  19.327  67.845  1.00  0.00    -0.011 A  
HETATM    8  C   UNL     1     -10.668  18.217  67.099  1.00  0.00    -0.309 A  
HETATM    9  C   UNL     1      -9.439  18.193  66.414  1.00  0.00    -0.278 A  
ENDROOT
BRANCH   9  10
HETATM   10  N   UNL     1      -9.063  17.040  65.653  1.00  0.00    -0.413 NA 
HETATM   11  H   UNL     1      -8.944  17.158  64.646  1.00  0.00     0.000 HD 
BRANCH  10  12
HETATM   12  C   UNL     1      -8.842  15.739  66.194  1.00  0.00    -0.311 A  
HETATM   13  C   UNL     1      -7.646  15.406  66.851  1.00  0.00    -0.111 A  
HETATM   14  C   UNL     1      -7.457  14.139  67.431  1.00  0.00    -0.155 A  
HETATM   15  C   UNL     1      -6.176  13.786  68.148  1.00  0.00    -0.126 C  
HETATM   16  C   UNL     1      -8.484  13.191  67.332  1.00  0.00    -0.201 A  
HETATM   17  F   UNL     1      -6.374  13.514  69.467  1.00  0.00    -0.095 F  
HETATM   18  F   UNL     1      -5.579  12.680  67.624  1.00  0.00    -0.083 F  
HETATM   19  F   UNL     1      -5.237  14.772  68.107  1.00  0.00    -0.092 F  
HETATM   20  C   UNL     1      -9.643  13.483  66.616  1.00  0.00    -0.282 A  
HETATM   21  C   UNL     1      -9.810  14.741  66.030  1.00  0.00    -0.350 A  
ENDBRANCH  10  12
ENDBRANCH   9  10
TORSDOF 2
ENDMDL
MODEL      172
REMARK 921   NORMALIZED FREE ENERGY PREDICTED BY IDOCK:   -4.61 KCAL/MOL
REMARK 922        TOTAL FREE ENERGY PREDICTED BY IDOCK:   -5.55 KCAL/MOL
REMARK 923 INTER-LIGAND FREE ENERGY PREDICTED BY IDOCK:   -5.15 KCAL/MOL
REMARK 924 INTRA-LIGAND FREE ENERGY PREDICTED BY IDOCK:   -0.41 KCAL/MOL
REMARK 927      BINDING AFFINITY PREDICTED BY RF-SCORE:    0.00 PKD
ROOT
HETATM    1  O   UNL     1     -11.442  14.479  68.953  1.00  0.00    -0.267 OA 
HETATM    2  C   UNL     1     -10.505  15.231  69.570  1.00  0.00    -0.260 C  
HETATM    3  C   UNL     1      -9.099  14.908  69.183  1.00  0.00    -0.140 A  
HETATM    4  O   UNL     1     -10.789  16.114  70.360  1.00  0.00    -0.315 OA 
HETATM    5  C   UNL     1      -8.148  15.914  69.441  1.00  0.00    -0.178 A  
HETATM    6  C   UNL     1      -6.797  15.707  69.170  1.00  0.00    -0.159 A  
HETATM    7  C   UNL     1      -6.374  14.482  68.676  1.00  0.00    -0.086 A  
HETATM    8  C   UNL     1      -7.307  13.476  68.415  1.00  0.00    -0.115 A  
HETATM    9  C   UNL     1      -8.685  13.682  68.615  1.00  0.00    -0.027 A  
ENDROOT
BRANCH   9  10
HETATM   10  N   UNL     1      -9.615  12.626  68.344  1.00  0.00    -0.315 NA 
HETATM   11  H   UNL     1     -10.091  12.202  69.140  1.00  0.00     0.000 HD 
BRANCH  10  12
HETATM   12  C   UNL     1      -9.925  12.124  67.046  1.00  0.00    -0.202 A  
HETATM   13  C   UNL     1     -11.081  12.526  66.355  1.00  0.00    -0.332 A  
HETATM   14  C   UNL     1     -11.352  12.069  65.053  1.00  0.00    -0.365 A  
HETATM   15  C   UNL     1     -12.587  12.512  64.307  1.00  0.00    -0.396 C  
HETATM   16  C   UNL     1     -10.453  11.181  64.448  1.00  0.00    -0.418 A  
HETATM   17  F   UNL     1     -12.292  13.211  63.176  1.00  0.00    -0.601 F  
HETATM   18  F   UNL     1     -13.354  11.460  63.906  1.00  0.00    -0.193 F  
HETATM   19  F   UNL     1     -13.410  13.315  65.038  1.00  0.00    -0.328 F  
HETATM   20  C   UNL     1      -9.345  10.715  65.152  1.00  0.00    -0.254 A  
HETATM   21  C   UNL     1      -9.097  11.164  66.452  1.00  0.00    -0.198 A  
ENDBRANCH  10  12
ENDBRANCH   9  10
TORSDOF 2
ENDMDL
MODEL      173
REMARK 921   NORMALIZED FREE ENERGY PREDICTED BY IDOCK:   -4.59 KCAL/MOL
REMARK 922        TOTAL FREE ENERGY PREDICTED BY IDOCK:   -5.53 KCAL/MOL
REMARK 923 INTER-LIGAND FREE ENERGY PREDICTED BY IDOCK:   -4.99 KCAL/MOL
REMARK 924 INTRA-LIGAND FREE ENERGY PREDICTED BY IDOCK:   -0.54 KCAL/MOL
REMARK 927      BINDING AFFINITY PREDICTED BY RF-SCORE:    0.00 PKD
ROOT
HETATM    1  O   UNL     1     -12.889  10.348  70.562  1.00  0.00    -0.341 OA 
HETATM    2  C   UNL     1     -12.784   9.249  71.340  1.00  0.00    -0.330 C  
HETATM    3  C   UNL     1     -11.398   8.959  71.817  1.00  0.00    -0.431 A  
HETATM    4  O   UNL     1     -13.745   8.565  71.642  1.00  0.00    -0.365 OA 
HETATM    5  C   UNL     1     -11.304   8.123  72.947  1.00  0.00    -0.301 A  
HETATM    6  C   UNL     1     -10.063   7.741  73.452  1.00  0.00    -0.327 A  
HETATM    7  C   UNL     1      -8.904   8.156  72.815  1.00  0.00    -0.297 A  
HETATM    8  C   UNL     1      -8.983   8.986  71.694  1.00  0.00    -0.144 A  
HETATM    9  C   UNL     1     -10.221   9.442  71.203  1.00  0.00    -0.291 A  
ENDROOT
BRANCH   9  10
HETATM   10  N   UNL     1     -10.267  10.286  70.047  1.00  0.00    -0.412 NA 
HETATM   11  H   UNL     1     -10.352  11.291  70.200  1.00  0.00     0.000 HD 
BRANCH  10  12
HETATM   12  C   UNL     1     -10.203   9.829  68.698  1.00  0.00    -0.190 A  
HETATM   13  C   UNL     1      -9.944   8.483  68.386  1.00  0.00    -0.208 A  
HETATM   14  C   UNL     1      -9.937   8.028  67.056  1.00  0.00    -0.324 A  
HETATM   15  C   UNL     1      -9.671   6.580  66.722  1.00  0.00    -0.164 C  
HETATM   16  C   UNL     1     -10.177   8.948  66.026  1.00  0.00     0.055 A  
HETATM   17  F   UNL     1     -10.732   5.981  66.115  1.00  0.00    -0.190 F  
HETATM   18  F   UNL     1      -8.620   6.430  65.869  1.00  0.00    -0.129 F  
HETATM   19  F   UNL     1      -9.381   5.812  67.809  1.00  0.00    -0.109 F  
HETATM   20  C   UNL     1     -10.357  10.297  66.318  1.00  0.00    -0.256 A  
HETATM   21  C   UNL     1     -10.345  10.739  67.644  1.00  0.00    -0.236 A  
ENDBRANCH  10  12
ENDBRANCH   9  10
TORSDOF 2
ENDMDL
MODEL      174
REMARK 921   NORMALIZED FREE ENERGY PREDICTED BY IDOCK:   -4.59 KCAL/MOL
REMARK 922        TOTAL FREE ENERGY PREDICTED BY IDOCK:   -5.52 KCAL/MOL
REMARK 923 INTER-LIGAND FREE ENERGY PREDICTED BY IDOCK:   -4.85 KCAL/MOL
REMARK 924 INTRA-LIGAND FREE ENERGY PREDICTED BY IDOCK:   -0.67 KCAL/MOL
REMARK 927      BINDING AFFINITY PREDICTED BY RF-SCORE:    0.00 PKD
ROOT
HETATM    1  O   UNL     1      -8.136  10.581  63.067  1.00  0.00    -0.154 OA 
HETATM    2  C   UNL     1      -7.426  10.061  64.091  1.00  0.00    -0.132 C  
HETATM    3  C   UNL     1      -8.254   9.415  65.153  1.00  0.00    -0.136 A  
HETATM    4  O   UNL     1      -6.209  10.099  64.131  1.00  0.00    -0.126 OA 
HETATM    5  C   UNL     1      -7.577   8.502  65.985  1.00  0.00    -0.089 A  
HETATM    6  C   UNL     1      -8.232   7.876  67.043  1.00  0.00    -0.117 A  
HETATM    7  C   UNL     1      -9.559   8.183  67.308  1.00  0.00    -0.211 A  
HETATM    8  C   UNL     1     -10.242   9.087  66.492  1.00  0.00    -0.318 A  
HETATM    9  C   UNL     1      -9.624   9.682  65.375  1.00  0.00    -0.291 A  
ENDROOT
BRANCH   9  10
HETATM   10  N   UNL     1     -10.351  10.610  64.562  1.00  0.00    -0.339 NA 
HETATM   11  H   UNL     1     -10.525  10.351  63.591  1.00  0.00     0.000 HD 
BRANCH  10  12
HETATM   12  C   UNL     1     -10.851  11.870  65.008  1.00  0.00    -0.300 A  
HETATM   13  C   UNL     1     -10.122  12.683  65.892  1.00  0.00    -0.276 A  
HETATM   14  C   UNL     1     -10.595  13.947  66.284  1.00  0.00    -0.289 A  
HETATM   15  C   UNL     1      -9.805  14.825  67.224  1.00  0.00    -0.230 C  
HETATM   16  C   UNL     1     -11.829  14.389  65.789  1.00  0.00    -0.365 A  
HETATM   17  F   UNL     1      -9.420  15.997  66.645  1.00  0.00    -0.209 F  
HETATM   18  F   UNL     1     -10.519  15.173  68.330  1.00  0.00    -0.221 F  
HETATM   19  F   UNL     1      -8.662  14.245  67.685  1.00  0.00    -0.159 F  
HETATM   20  C   UNL     1     -12.597  13.560  64.974  1.00  0.00    -0.441 A  
HETATM   21  C   UNL     1     -12.121  12.298  64.607  1.00  0.00    -0.449 A  
ENDBRANCH  10  12
ENDBRANCH   9  10
TORSDOF 2
ENDMDL
MODEL      175
REMARK 921   NORMALIZED FREE ENERGY PREDICTED BY IDOCK:   -4.58 KCAL/MOL
REMARK 922        TOTAL FREE ENERGY PREDICTED BY IDOCK:   -5.52 KCAL/MOL
REMARK 923 INTER-LIGAND FREE ENERGY PREDICTED BY IDOCK:   -4.93 KCAL/MOL
REMARK 924 INTRA-LIGAND FREE ENERGY PREDICTED BY IDOCK:   -0.59 KCAL/MOL
REMARK 927      BINDING AFFINITY PREDICTED BY RF-SCORE:    0.00 PKD
ROOT
HETATM    1  O   UNL     1     -10.613   8.020  68.787  1.00  0.00    -0.195 OA 
HETATM    2  C   UNL     1     -10.466   7.363  67.617  1.00  0.00    -0.241 C  
HETATM    3  C   UNL     1      -9.421   7.931  66.714  1.00  0.00    -0.257 A  
HETATM    4  O   UNL     1     -11.120   6.374  67.334  1.00  0.00    -0.363 OA 
HETATM    5  C   UNL     1      -8.934   7.061  65.720  1.00  0.00    -0.037 A  
HETATM    6  C   UNL     1      -7.995   7.496  64.787  1.00  0.00    -0.132 A  
HETATM    7  C   UNL     1      -7.560   8.813  64.810  1.00  0.00    -0.107 A  
HETATM    8  C   UNL     1      -8.036   9.686  65.791  1.00  0.00    -0.109 A  
HETATM    9  C   UNL     1      -8.932   9.255  66.787  1.00  0.00    -0.131 A  
ENDROOT
BRANCH   9  10
HETATM   10  N   UNL     1      -9.406  10.179  67.774  1.00  0.00    -0.141 NA 
HETATM   11  H   UNL     1      -9.382   9.880  68.749  1.00  0.00     0.000 HD 
BRANCH  10  12
HETATM   12  C   UNL     1      -9.908  11.485  67.497  1.00  0.00    -0.190 A  
HETATM   13  C   UNL     1     -10.862  11.711  66.490  1.00  0.00    -0.328 A  
HETATM   14  C   UNL     1     -11.393  12.992  66.260  1.00  0.00    -0.354 A  
HETATM   15  C   UNL     1     -12.427  13.232  65.186  1.00  0.00    -0.470 C  
HETATM   16  C   UNL     1     -10.944  14.061  67.046  1.00  0.00    -0.302 A  
HETATM   17  F   UNL     1     -13.614  13.668  65.692  1.00  0.00    -0.193 F  
HETATM   18  F   UNL     1     -12.032  14.180  64.291  1.00  0.00    -0.413 F  
HETATM   19  F   UNL     1     -12.719  12.124  64.450  1.00  0.00    -0.510 F  
HETATM   20  C   UNL     1      -9.943  13.864  67.994  1.00  0.00    -0.241 A  
HETATM   21  C   UNL     1      -9.411  12.588  68.201  1.00  0.00    -0.214 A  
ENDBRANCH  10  12
ENDBRANCH   9  10
TORSDOF 2
ENDMDL
MODEL      176
REMARK 921   NORMALIZED FREE ENERGY PREDICTED BY IDOCK:   -4.58 KCAL/MOL
REMARK 922        TOTAL FREE ENERGY PREDICTED BY IDOCK:   -5.51 KCAL/MOL
REMARK 923 INTER-LIGAND FREE ENERGY PREDICTED BY IDOCK:   -5.33 KCAL/MOL
REMARK 924 INTRA-LIGAND FREE ENERGY PREDICTED BY IDOCK:   -0.18 KCAL/MOL
REMARK 927      BINDING AFFINITY PREDICTED BY RF-SCORE:    0.00 PKD
ROOT
HETATM    1  O   UNL     1      -8.707  15.827  69.829  1.00  0.00    -0.151 OA 
HETATM    2  C   UNL     1      -8.050  16.512  68.868  1.00  0.00    -0.240 C  
HETATM    3  C   UNL     1      -8.926  17.359  68.004  1.00  0.00    -0.255 A  
HETATM    4  O   UNL     1      -6.841  16.456  68.733  1.00  0.00    -0.145 OA 
HETATM    5  C   UNL     1      -8.276  18.396  67.306  1.00  0.00    -0.246 A  
HETATM    6  C   UNL     1      -8.979  19.219  66.430  1.00  0.00    -0.375 A  
HETATM    7  C   UNL     1     -10.330  18.995  66.211  1.00  0.00    -0.530 A  
HETATM    8  C   UNL     1     -10.987  17.971  66.896  1.00  0.00     0.085 A  
HETATM    9  C   UNL     1     -10.316  17.168  67.838  1.00  0.00    -0.350 A  
ENDROOT
BRANCH   9  10
HETATM   10  N   UNL     1     -11.018  16.122  68.519  1.00  0.00    -0.320 NA 
HETATM   11  H   UNL     1     -11.605  16.385  69.310  1.00  0.00     0.000 HD 
BRANCH  10  12
HETATM   12  C   UNL     1     -10.959  14.739  68.174  1.00  0.00    -0.268 A  
HETATM   13  C   UNL     1     -11.378  13.737  69.064  1.00  0.00    -0.333 A  
HETATM   14  C   UNL     1     -11.369  12.380  68.697  1.00  0.00    -0.332 A  
HETATM   15  C   UNL     1     -11.832  11.305  69.651  1.00  0.00    -0.360 C  
HETATM   16  C   UNL     1     -10.914  12.029  67.419  1.00  0.00    -0.311 A  
HETATM   17  F   UNL     1     -12.922  10.632  69.190  1.00  0.00     0.039 F  
HETATM   18  F   UNL     1     -10.875  10.360  69.869  1.00  0.00    -0.255 F  
HETATM   19  F   UNL     1     -12.177  11.776  70.881  1.00  0.00    -0.434 F  
HETATM   20  C   UNL     1     -10.423  13.005  66.556  1.00  0.00    -0.284 A  
HETATM   21  C   UNL     1     -10.422  14.349  66.941  1.00  0.00    -0.269 A  
ENDBRANCH  10  12
ENDBRANCH   9  10
TORSDOF 2
ENDMDL
MODEL      177
REMARK 921   NORMALIZED FREE ENERGY PREDICTED BY IDOCK:   -4.57 KCAL/MOL
REMARK 922        TOTAL FREE ENERGY PREDICTED BY IDOCK:   -5.51 KCAL/MOL
REMARK 923 INTER-LIGAND FREE ENERGY PREDICTED BY IDOCK:   -5.11 KCAL/MOL
REMARK 924 INTRA-LIGAND FREE ENERGY PREDICTED BY IDOCK:   -0.40 KCAL/MOL
REMARK 927      BINDING AFFINITY PREDICTED BY RF-SCORE:    0.00 PKD
ROOT
HETATM    1  O   UNL     1      -9.045   7.183  71.972  1.00  0.00    -0.131 OA 
HETATM    2  C   UNL     1      -9.771   8.317  71.878  1.00  0.00    -0.232 C  
HETATM    3  C   UNL     1     -11.250   8.108  71.876  1.00  0.00    -0.351 A  
HETATM    4  O   UNL     1      -9.258   9.421  71.821  1.00  0.00    -0.233 OA 
HETATM    5  C   UNL     1     -12.027   9.232  72.218  1.00  0.00    -0.204 A  
HETATM    6  C   UNL     1     -13.418   9.172  72.200  1.00  0.00    -0.530 A  
HETATM    7  C   UNL     1     -14.051   8.003  71.804  1.00  0.00    -0.517 A  
HETATM    8  C   UNL     1     -13.293   6.881  71.462  1.00  0.00    -0.303 A  
HETATM    9  C   UNL     1     -11.887   6.893  71.537  1.00  0.00    -0.324 A  
ENDROOT
BRANCH   9  10
HETATM   10  N   UNL     1     -11.140   5.727  71.173  1.00  0.00    -0.230 NA 
HETATM   11  H   UNL     1     -10.938   5.048  71.906  1.00  0.00     0.000 HD 
BRANCH  10  12
HETATM   12  C   UNL     1     -10.655   5.444  69.861  1.00  0.00    -0.281 A  
HETATM   13  C   UNL     1      -9.746   4.400  69.619  1.00  0.00    -0.289 A  
HETATM   14  C   UNL     1      -9.316   4.091  68.317  1.00  0.00    -0.216 A  
HETATM   15  C   UNL     1      -8.349   2.962  68.056  1.00  0.00    -0.079 C  
HETATM   16  C   UNL     1      -9.797   4.857  67.247  1.00  0.00    -0.214 A  
HETATM   17  F   UNL     1      -8.890   1.977  67.288  1.00  0.00    -0.106 F  
HETATM   18  F   UNL     1      -7.232   3.379  67.397  1.00  0.00    -0.055 F  
HETATM   19  F   UNL     1      -7.905   2.349  69.189  1.00  0.00    -0.044 F  
HETATM   20  C   UNL     1     -10.638   5.943  67.482  1.00  0.00    -0.347 A  
HETATM   21  C   UNL     1     -11.044   6.249  68.784  1.00  0.00    -0.424 A  
ENDBRANCH  10  12
ENDBRANCH   9  10
TORSDOF 2
ENDMDL
MODEL      178
REMARK 921   NORMALIZED FREE ENERGY PREDICTED BY IDOCK:   -4.56 KCAL/MOL
REMARK 922        TOTAL FREE ENERGY PREDICTED BY IDOCK:   -5.50 KCAL/MOL
REMARK 923 INTER-LIGAND FREE ENERGY PREDICTED BY IDOCK:   -5.02 KCAL/MOL
REMARK 924 INTRA-LIGAND FREE ENERGY PREDICTED BY IDOCK:   -0.47 KCAL/MOL
REMARK 927      BINDING AFFINITY PREDICTED BY RF-SCORE:    0.00 PKD
ROOT
HETATM    1  O   UNL     1      -7.043  11.973  66.740  1.00  0.00    -0.084 OA 
HETATM    2  C   UNL     1      -6.958  10.642  66.535  1.00  0.00    -0.125 C  
HETATM    3  C   UNL     1      -8.214   9.889  66.831  1.00  0.00    -0.120 A  
HETATM    4  O   UNL     1      -5.945  10.105  66.122  1.00  0.00    -0.066 OA 
HETATM    5  C   UNL     1      -8.318   8.617  66.235  1.00  0.00    -0.124 A  
HETATM    6  C   UNL     1      -9.420   7.800  66.480  1.00  0.00    -0.262 A  
HETATM    7  C   UNL     1     -10.411   8.226  67.352  1.00  0.00    -0.353 A  
HETATM    8  C   UNL     1     -10.320   9.485  67.950  1.00  0.00    -0.276 A  
HETATM    9  C   UNL     1      -9.252  10.358  67.667  1.00  0.00    -0.148 A  
ENDROOT
BRANCH   9  10
HETATM   10  N   UNL     1      -9.185  11.639  68.303  1.00  0.00    -0.183 NA 
HETATM   11  H   UNL     1      -8.573  11.732  69.114  1.00  0.00     0.000 HD 
BRANCH  10  12
HETATM   12  C   UNL     1      -9.909  12.796  67.889  1.00  0.00    -0.223 A  
HETATM   13  C   UNL     1     -10.788  12.765  66.794  1.00  0.00    -0.289 A  
HETATM   14  C   UNL     1     -11.540  13.894  66.425  1.00  0.00    -0.382 A  
HETATM   15  C   UNL     1     -12.493  13.855  65.255  1.00  0.00    -0.478 C  
HETATM   16  C   UNL     1     -11.389  15.075  67.163  1.00  0.00    -0.323 A  
HETATM   17  F   UNL     1     -13.786  14.065  65.628  1.00  0.00    -0.209 F  
HETATM   18  F   UNL     1     -12.212  14.811  64.327  1.00  0.00    -0.468 F  
HETATM   19  F   UNL     1     -12.487  12.670  64.583  1.00  0.00    -0.450 F  
HETATM   20  C   UNL     1     -10.464  15.142  68.202  1.00  0.00    -0.245 A  
HETATM   21  C   UNL     1      -9.711  14.016  68.546  1.00  0.00    -0.215 A  
ENDBRANCH  10  12
ENDBRANCH   9  10
TORSDOF 2
ENDMDL
MODEL      179
REMARK 921   NORMALIZED FREE ENERGY PREDICTED BY IDOCK:   -4.56 KCAL/MOL
REMARK 922        TOTAL FREE ENERGY PREDICTED BY IDOCK:   -5.50 KCAL/MOL
REMARK 923 INTER-LIGAND FREE ENERGY PREDICTED BY IDOCK:   -4.93 KCAL/MOL
REMARK 924 INTRA-LIGAND FREE ENERGY PREDICTED BY IDOCK:   -0.56 KCAL/MOL
REMARK 927      BINDING AFFINITY PREDICTED BY RF-SCORE:    0.00 PKD
ROOT
HETATM    1  O   UNL     1     -13.434  10.039  70.112  1.00  0.00     0.150 OA 
HETATM    2  C   UNL     1     -12.961  11.023  70.906  1.00  0.00    -0.224 C  
HETATM    3  C   UNL     1     -12.393  12.193  70.172  1.00  0.00    -0.219 A  
HETATM    4  O   UNL     1     -13.016  10.966  72.122  1.00  0.00    -0.419 OA 
HETATM    5  C   UNL     1     -12.300  13.390  70.908  1.00  0.00    -0.436 A  
HETATM    6  C   UNL     1     -11.739  14.534  70.345  1.00  0.00    -0.354 A  
HETATM    7  C   UNL     1     -11.229  14.487  69.056  1.00  0.00    -0.289 A  
HETATM    8  C   UNL     1     -11.315  13.307  68.315  1.00  0.00    -0.335 A  
HETATM    9  C   UNL     1     -11.938  12.156  68.834  1.00  0.00    -0.242 A  
ENDROOT
BRANCH   9  10
HETATM   10  N   UNL     1     -12.003  10.959  68.050  1.00  0.00    -0.777 NA 
HETATM   11  H   UNL     1     -12.903  10.716  67.635  1.00  0.00     0.000 HD 
BRANCH  10  12
HETATM   12  C   UNL     1     -10.905  10.082  67.805  1.00  0.00    -0.282 A  
HETATM   13  C   UNL     1     -10.576   9.045  68.693  1.00  0.00    -0.194 A  
HETATM   14  C   UNL     1      -9.528   8.150  68.418  1.00  0.00    -0.146 A  
HETATM   15  C   UNL     1      -9.183   7.027  69.367  1.00  0.00    -0.147 C  
HETATM   16  C   UNL     1      -8.791   8.315  67.238  1.00  0.00    -0.137 A  
HETATM   17  F   UNL     1      -9.356   5.798  68.807  1.00  0.00    -0.116 F  
HETATM   18  F   UNL     1      -7.884   7.073  69.772  1.00  0.00    -0.103 F  
HETATM   19  F   UNL     1      -9.929   7.026  70.507  1.00  0.00    -0.181 F  
HETATM   20  C   UNL     1      -9.057   9.386  66.388  1.00  0.00    -0.199 A  
HETATM   21  C   UNL     1     -10.092  10.279  66.683  1.00  0.00    -0.281 A  
ENDBRANCH  10  12
ENDBRANCH   9  10
TORSDOF 2
ENDMDL
MODEL      180
REMARK 921   NORMALIZED FREE ENERGY PREDICTED BY IDOCK:   -4.56 KCAL/MOL
REMARK 922        TOTAL FREE ENERGY PREDICTED BY IDOCK:   -5.49 KCAL/MOL
REMARK 923 INTER-LIGAND FREE ENERGY PREDICTED BY IDOCK:   -5.21 KCAL/MOL
REMARK 924 INTRA-LIGAND FREE ENERGY PREDICTED BY IDOCK:   -0.28 KCAL/MOL
REMARK 927      BINDING AFFINITY PREDICTED BY RF-SCORE:    0.00 PKD
ROOT
HETATM    1  O   UNL     1      -8.909  15.499  67.617  1.00  0.00    -0.175 OA 
HETATM    2  C   UNL     1      -9.310  15.636  66.335  1.00  0.00    -0.300 C  
HETATM    3  C   UNL     1     -10.405  14.707  65.927  1.00  0.00    -0.334 A  
HETATM    4  O   UNL     1      -8.829  16.466  65.584  1.00  0.00    -0.406 OA 
HETATM    5  C   UNL     1     -11.140  15.092  64.788  1.00  0.00    -0.388 A  
HETATM    6  C   UNL     1     -12.152  14.280  64.282  1.00  0.00    -0.467 A  
HETATM    7  C   UNL     1     -12.417  13.058  64.881  1.00  0.00    -0.512 A  
HETATM    8  C   UNL     1     -11.697  12.664  66.011  1.00  0.00    -0.470 A  
HETATM    9  C   UNL     1     -10.716  13.495  66.584  1.00  0.00    -0.282 A  
ENDROOT
BRANCH   9  10
HETATM   10  N   UNL     1      -9.990  13.058  67.738  1.00  0.00    -0.221 NA 
HETATM   11  H   UNL     1     -10.031  13.646  68.571  1.00  0.00     0.000 HD 
BRANCH  10  12
HETATM   12  C   UNL     1      -9.216  11.863  67.813  1.00  0.00    -0.184 A  
HETATM   13  C   UNL     1      -9.743  10.616  67.436  1.00  0.00    -0.192 A  
HETATM   14  C   UNL     1      -8.956   9.451  67.459  1.00  0.00    -0.130 A  
HETATM   15  C   UNL     1      -9.520   8.114  67.042  1.00  0.00    -0.177 C  
HETATM   16  C   UNL     1      -7.624   9.544  67.884  1.00  0.00    -0.087 A  
HETATM   17  F   UNL     1      -8.889   7.598  65.952  1.00  0.00    -0.155 F  
HETATM   18  F   UNL     1      -9.401   7.175  68.021  1.00  0.00    -0.131 F  
HETATM   19  F   UNL     1     -10.844   8.154  66.723  1.00  0.00    -0.381 F  
HETATM   20  C   UNL     1      -7.114  10.759  68.334  1.00  0.00    -0.075 A  
HETATM   21  C   UNL     1      -7.912  11.906  68.321  1.00  0.00    -0.148 A  
ENDBRANCH  10  12
ENDBRANCH   9  10
TORSDOF 2
ENDMDL
MODEL      181
REMARK 921   NORMALIZED FREE ENERGY PREDICTED BY IDOCK:   -4.55 KCAL/MOL
REMARK 922        TOTAL FREE ENERGY PREDICTED BY IDOCK:   -5.49 KCAL/MOL
REMARK 923 INTER-LIGAND FREE ENERGY PREDICTED BY IDOCK:   -5.09 KCAL/MOL
REMARK 924 INTRA-LIGAND FREE ENERGY PREDICTED BY IDOCK:   -0.40 KCAL/MOL
REMARK 927      BINDING AFFINITY PREDICTED BY RF-SCORE:    0.00 PKD
ROOT
HETATM    1  O   UNL     1     -13.169  10.786  70.872  1.00  0.00    -0.278 OA 
HETATM    2  C   UNL     1     -12.885   9.745  71.683  1.00  0.00    -0.421 C  
HETATM    3  C   UNL     1     -11.629   9.015  71.337  1.00  0.00    -0.396 A  
HETATM    4  O   UNL     1     -13.588   9.443  72.632  1.00  0.00    -0.425 OA 
HETATM    5  C   UNL     1     -11.071   8.236  72.369  1.00  0.00    -0.447 A  
HETATM    6  C   UNL     1      -9.929   7.470  72.150  1.00  0.00    -0.218 A  
HETATM    7  C   UNL     1      -9.352   7.441  70.888  1.00  0.00    -0.155 A  
HETATM    8  C   UNL     1      -9.896   8.208  69.856  1.00  0.00    -0.186 A  
HETATM    9  C   UNL     1     -11.008   9.044  70.068  1.00  0.00    -0.214 A  
ENDROOT
BRANCH   9  10
HETATM   10  N   UNL     1     -11.545   9.813  68.986  1.00  0.00    -0.455 NA 
HETATM   11  H   UNL     1     -12.489   9.589  68.671  1.00  0.00     0.000 HD 
BRANCH  10  12
HETATM   12  C   UNL     1     -10.860  10.869  68.315  1.00  0.00    -0.225 A  
HETATM   13  C   UNL     1      -9.565  11.265  68.689  1.00  0.00    -0.195 A  
HETATM   14  C   UNL     1      -8.874  12.268  67.988  1.00  0.00    -0.182 A  
HETATM   15  C   UNL     1      -7.477  12.684  68.384  1.00  0.00    -0.127 C  
HETATM   16  C   UNL     1      -9.506  12.893  66.905  1.00  0.00    -0.237 A  
HETATM   17  F   UNL     1      -6.563  12.439  67.405  1.00  0.00    -0.103 F  
HETATM   18  F   UNL     1      -7.391  14.017  68.651  1.00  0.00    -0.096 F  
HETATM   19  F   UNL     1      -7.012  12.050  69.496  1.00  0.00    -0.104 F  
HETATM   20  C   UNL     1     -10.818  12.564  66.573  1.00  0.00    -0.287 A  
HETATM   21  C   UNL     1     -11.499  11.575  67.289  1.00  0.00    -0.338 A  
ENDBRANCH  10  12
ENDBRANCH   9  10
TORSDOF 2
ENDMDL
MODEL      182
REMARK 921   NORMALIZED FREE ENERGY PREDICTED BY IDOCK:   -4.54 KCAL/MOL
REMARK 922        TOTAL FREE ENERGY PREDICTED BY IDOCK:   -5.47 KCAL/MOL
REMARK 923 INTER-LIGAND FREE ENERGY PREDICTED BY IDOCK:   -4.84 KCAL/MOL
REMARK 924 INTRA-LIGAND FREE ENERGY PREDICTED BY IDOCK:   -0.63 KCAL/MOL
REMARK 927      BINDING AFFINITY PREDICTED BY RF-SCORE:    0.00 PKD
ROOT
HETATM    1  O   UNL     1      -8.953   8.046  66.644  1.00  0.00    -0.135 OA 
HETATM    2  C   UNL     1      -7.674   8.447  66.474  1.00  0.00    -0.089 C  
HETATM    3  C   UNL     1      -7.238   9.532  67.403  1.00  0.00    -0.087 A  
HETATM    4  O   UNL     1      -6.935   7.946  65.646  1.00  0.00    -0.052 OA 
HETATM    5  C   UNL     1      -5.846   9.672  67.568  1.00  0.00    -0.047 A  
HETATM    6  C   UNL     1      -5.318  10.682  68.369  1.00  0.00    -0.036 A  
HETATM    7  C   UNL     1      -6.170  11.589  68.982  1.00  0.00    -0.060 A  
HETATM    8  C   UNL     1      -7.552  11.462  68.827  1.00  0.00    -0.132 A  
HETATM    9  C   UNL     1      -8.115  10.410  68.080  1.00  0.00    -0.110 A  
ENDROOT
BRANCH   9  10
HETATM   10  N   UNL     1      -9.536  10.313  67.934  1.00  0.00    -0.141 NA 
HETATM   11  H   UNL     1      -9.999   9.505  68.350  1.00  0.00     0.000 HD 
BRANCH  10  12
HETATM   12  C   UNL     1     -10.354  11.262  67.252  1.00  0.00    -0.201 A  
HETATM   13  C   UNL     1     -10.566  11.193  65.865  1.00  0.00    -0.294 A  
HETATM   14  C   UNL     1     -11.417  12.098  65.207  1.00  0.00    -0.388 A  
HETATM   15  C   UNL     1     -11.654  12.015  63.719  1.00  0.00    -0.476 C  
HETATM   16  C   UNL     1     -12.051  13.096  65.959  1.00  0.00    -0.495 A  
HETATM   17  F   UNL     1     -12.954  11.752  63.410  1.00  0.00    -0.680 F  
HETATM   18  F   UNL     1     -11.347  13.178  63.081  1.00  0.00    -0.378 F  
HETATM   19  F   UNL     1     -10.921  11.047  63.101  1.00  0.00    -0.355 F  
HETATM   20  C   UNL     1     -11.788  13.223  67.321  1.00  0.00    -0.421 A  
HETATM   21  C   UNL     1     -10.926  12.326  67.958  1.00  0.00    -0.265 A  
ENDBRANCH  10  12
ENDBRANCH   9  10
TORSDOF 2
ENDMDL
MODEL      183
REMARK 921   NORMALIZED FREE ENERGY PREDICTED BY IDOCK:   -4.54 KCAL/MOL
REMARK 922        TOTAL FREE ENERGY PREDICTED BY IDOCK:   -5.47 KCAL/MOL
REMARK 923 INTER-LIGAND FREE ENERGY PREDICTED BY IDOCK:   -4.96 KCAL/MOL
REMARK 924 INTRA-LIGAND FREE ENERGY PREDICTED BY IDOCK:   -0.51 KCAL/MOL
REMARK 927      BINDING AFFINITY PREDICTED BY RF-SCORE:    0.00 PKD
ROOT
HETATM    1  O   UNL     1      -7.246  13.514  68.504  1.00  0.00    -0.097 OA 
HETATM    2  C   UNL     1      -7.865  14.247  67.553  1.00  0.00    -0.194 C  
HETATM    3  C   UNL     1      -9.340  14.028  67.466  1.00  0.00    -0.209 A  
HETATM    4  O   UNL     1      -7.269  15.036  66.842  1.00  0.00    -0.113 OA 
HETATM    5  C   UNL     1     -10.072  15.048  66.828  1.00  0.00    -0.257 A  
HETATM    6  C   UNL     1     -11.448  14.932  66.641  1.00  0.00    -0.297 A  
HETATM    7  C   UNL     1     -12.103  13.781  67.053  1.00  0.00    -0.436 A  
HETATM    8  C   UNL     1     -11.389  12.762  67.687  1.00  0.00    -0.359 A  
HETATM    9  C   UNL     1     -10.011  12.882  67.950  1.00  0.00    -0.233 A  
ENDROOT
BRANCH   9  10
HETATM   10  N   UNL     1      -9.308  11.815  68.596  1.00  0.00    -0.352 NA 
HETATM   11  H   UNL     1      -8.371  12.013  68.947  1.00  0.00     0.000 HD 
BRANCH  10  12
HETATM   12  C   UNL     1      -9.818  10.497  68.785  1.00  0.00    -0.186 A  
HETATM   13  C   UNL     1     -10.409  10.100  69.996  1.00  0.00    -0.301 A  
HETATM   14  C   UNL     1     -10.960   8.817  70.158  1.00  0.00    -0.236 A  
HETATM   15  C   UNL     1     -11.605   8.396  71.456  1.00  0.00    -0.284 C  
HETATM   16  C   UNL     1     -10.898   7.916  69.086  1.00  0.00    -0.054 A  
HETATM   17  F   UNL     1     -12.929   8.110  71.312  1.00  0.00    -0.313 F  
HETATM   18  F   UNL     1     -11.036   7.274  71.976  1.00  0.00    -0.228 F  
HETATM   19  F   UNL     1     -11.532   9.340  72.435  1.00  0.00    -0.357 F  
HETATM   20  C   UNL     1     -10.246   8.271  67.907  1.00  0.00    -0.276 A  
HETATM   21  C   UNL     1      -9.688   9.545  67.767  1.00  0.00    -0.176 A  
ENDBRANCH  10  12
ENDBRANCH   9  10
TORSDOF 2
ENDMDL
MODEL      184
REMARK 921   NORMALIZED FREE ENERGY PREDICTED BY IDOCK:   -4.50 KCAL/MOL
REMARK 922        TOTAL FREE ENERGY PREDICTED BY IDOCK:   -5.43 KCAL/MOL
REMARK 923 INTER-LIGAND FREE ENERGY PREDICTED BY IDOCK:   -5.47 KCAL/MOL
REMARK 924 INTRA-LIGAND FREE ENERGY PREDICTED BY IDOCK:    0.04 KCAL/MOL
REMARK 927      BINDING AFFINITY PREDICTED BY RF-SCORE:    0.00 PKD
ROOT
HETATM    1  O   UNL     1      -9.604   5.988  66.321  1.00  0.00    -0.157 OA 
HETATM    2  C   UNL     1      -9.649   5.287  67.474  1.00  0.00    -0.134 C  
HETATM    3  C   UNL     1     -10.062   6.085  68.667  1.00  0.00    -0.208 A  
HETATM    4  O   UNL     1      -9.395   4.097  67.528  1.00  0.00    -0.145 OA 
HETATM    5  C   UNL     1     -10.541   5.341  69.763  1.00  0.00    -0.283 A  
HETATM    6  C   UNL     1     -10.906   5.972  70.950  1.00  0.00    -0.349 A  
HETATM    7  C   UNL     1     -10.762   7.346  71.072  1.00  0.00    -0.244 A  
HETATM    8  C   UNL     1     -10.289   8.095  69.993  1.00  0.00    -0.215 A  
HETATM    9  C   UNL     1      -9.977   7.493  68.759  1.00  0.00    -0.172 A  
ENDROOT
BRANCH   9  10
HETATM   10  N   UNL     1      -9.487   8.289  67.675  1.00  0.00    -0.146 NA 
HETATM   11  H   UNL     1      -8.655   7.959  67.186  1.00  0.00     0.000 HD 
BRANCH  10  12
HETATM   12  C   UNL     1     -10.074   9.509  67.227  1.00  0.00    -0.215 A  
HETATM   13  C   UNL     1      -9.978   9.928  65.889  1.00  0.00    -0.347 A  
HETATM   14  C   UNL     1     -10.607  11.103  65.442  1.00  0.00    -0.291 A  
HETATM   15  C   UNL     1     -10.513  11.545  64.001  1.00  0.00    -0.370 C  
HETATM   16  C   UNL     1     -11.328  11.875  66.362  1.00  0.00    -0.400 A  
HETATM   17  F   UNL     1     -11.726  11.574  63.384  1.00  0.00    -0.505 F  
HETATM   18  F   UNL     1     -10.002  12.801  63.878  1.00  0.00    -0.388 F  
HETATM   19  F   UNL     1      -9.723  10.744  63.233  1.00  0.00    -0.258 F  
HETATM   20  C   UNL     1     -11.365  11.512  67.706  1.00  0.00    -0.364 A  
HETATM   21  C   UNL     1     -10.722  10.350  68.140  1.00  0.00    -0.277 A  
ENDBRANCH  10  12
ENDBRANCH   9  10
TORSDOF 2
ENDMDL
MODEL      185
REMARK 921   NORMALIZED FREE ENERGY PREDICTED BY IDOCK:   -4.47 KCAL/MOL
REMARK 922        TOTAL FREE ENERGY PREDICTED BY IDOCK:   -5.39 KCAL/MOL
REMARK 923 INTER-LIGAND FREE ENERGY PREDICTED BY IDOCK:   -5.58 KCAL/MOL
REMARK 924 INTRA-LIGAND FREE ENERGY PREDICTED BY IDOCK:    0.18 KCAL/MOL
REMARK 927      BINDING AFFINITY PREDICTED BY RF-SCORE:    0.00 PKD
ROOT
HETATM    1  O   UNL     1     -13.662   8.269  71.172  1.00  0.00    -0.166 OA 
HETATM    2  C   UNL     1     -13.783   9.311  72.023  1.00  0.00    -0.428 C  
HETATM    3  C   UNL     1     -13.284  10.611  71.484  1.00  0.00    -0.460 A  
HETATM    4  O   UNL     1     -14.280   9.199  73.130  1.00  0.00    -0.320 OA 
HETATM    5  C   UNL     1     -13.774  11.766  72.124  1.00  0.00     0.004 A  
HETATM    6  C   UNL     1     -13.341  13.034  71.743  1.00  0.00    -0.468 A  
HETATM    7  C   UNL     1     -12.384  13.163  70.746  1.00  0.00    -0.404 A  
HETATM    8  C   UNL     1     -11.890  12.026  70.104  1.00  0.00    -0.383 A  
HETATM    9  C   UNL     1     -12.361  10.738  70.421  1.00  0.00    -0.353 A  
ENDROOT
BRANCH   9  10
HETATM   10  N   UNL     1     -11.827   9.592  69.748  1.00  0.00    -0.447 NA 
HETATM   11  H   UNL     1     -12.093   9.452  68.773  1.00  0.00     0.000 HD 
BRANCH  10  12
HETATM   12  C   UNL     1     -10.952   8.632  70.337  1.00  0.00    -0.235 A  
HETATM   13  C   UNL     1     -10.843   7.325  69.833  1.00  0.00    -0.264 A  
HETATM   14  C   UNL     1      -9.937   6.401  70.384  1.00  0.00    -0.213 A  
HETATM   15  C   UNL     1      -9.812   5.001  69.833  1.00  0.00    -0.226 C  
HETATM   16  C   UNL     1      -9.144   6.798  71.468  1.00  0.00    -0.145 A  
HETATM   17  F   UNL     1      -8.574   4.749  69.324  1.00  0.00    -0.081 F  
HETATM   18  F   UNL     1     -10.024   4.051  70.785  1.00  0.00    -0.255 F  
HETATM   19  F   UNL     1     -10.691   4.726  68.830  1.00  0.00    -0.083 F  
HETATM   20  C   UNL     1      -9.299   8.064  72.026  1.00  0.00    -0.237 A  
HETATM   21  C   UNL     1     -10.215   8.967  71.479  1.00  0.00    -0.414 A  
ENDBRANCH  10  12
ENDBRANCH   9  10
TORSDOF 2
ENDMDL
MODEL      186
REMARK 921   NORMALIZED FREE ENERGY PREDICTED BY IDOCK:   -4.45 KCAL/MOL
REMARK 922        TOTAL FREE ENERGY PREDICTED BY IDOCK:   -5.38 KCAL/MOL
REMARK 923 INTER-LIGAND FREE ENERGY PREDICTED BY IDOCK:   -4.94 KCAL/MOL
REMARK 924 INTRA-LIGAND FREE ENERGY PREDICTED BY IDOCK:   -0.44 KCAL/MOL
REMARK 927      BINDING AFFINITY PREDICTED BY RF-SCORE:    0.00 PKD
ROOT
HETATM    1  O   UNL     1      -8.222  10.118  66.231  1.00  0.00    -0.121 OA 
HETATM    2  C   UNL     1      -7.740   8.861  66.327  1.00  0.00    -0.098 C  
HETATM    3  C   UNL     1      -8.788   7.799  66.396  1.00  0.00    -0.180 A  
HETATM    4  O   UNL     1      -6.546   8.615  66.335  1.00  0.00    -0.061 OA 
HETATM    5  C   UNL     1      -8.365   6.499  66.059  1.00  0.00    -0.133 A  
HETATM    6  C   UNL     1      -9.240   5.419  66.136  1.00  0.00    -0.162 A  
HETATM    7  C   UNL     1     -10.537   5.616  66.587  1.00  0.00    -0.361 A  
HETATM    8  C   UNL     1     -10.970   6.899  66.924  1.00  0.00    -0.328 A  
HETATM    9  C   UNL     1     -10.127   8.019  66.790  1.00  0.00    -0.287 A  
ENDROOT
BRANCH   9  10
HETATM   10  N   UNL     1     -10.601   9.321  67.152  1.00  0.00    -0.246 NA 
HETATM   11  H   UNL     1     -10.650  10.026  66.416  1.00  0.00     0.000 HD 
BRANCH  10  12
HETATM   12  C   UNL     1     -11.011   9.707  68.463  1.00  0.00    -0.108 A  
HETATM   13  C   UNL     1     -10.861   8.850  69.566  1.00  0.00    -0.163 A  
HETATM   14  C   UNL     1     -11.215   9.258  70.864  1.00  0.00    -0.372 A  
HETATM   15  C   UNL     1     -11.041   8.341  72.050  1.00  0.00    -0.311 C  
HETATM   16  C   UNL     1     -11.744  10.542  71.047  1.00  0.00    -0.384 A  
HETATM   17  F   UNL     1     -10.159   8.831  72.964  1.00  0.00    -0.212 F  
HETATM   18  F   UNL     1     -12.207   8.144  72.726  1.00  0.00    -0.394 F  
HETATM   19  F   UNL     1     -10.587   7.100  71.721  1.00  0.00    -0.206 F  
HETATM   20  C   UNL     1     -11.971  11.372  69.951  1.00  0.00    -0.434 A  
HETATM   21  C   UNL     1     -11.629  10.947  68.664  1.00  0.00    -0.373 A  
ENDBRANCH  10  12
ENDBRANCH   9  10
TORSDOF 2
ENDMDL
MODEL      187
REMARK 921   NORMALIZED FREE ENERGY PREDICTED BY IDOCK:   -4.45 KCAL/MOL
REMARK 922        TOTAL FREE ENERGY PREDICTED BY IDOCK:   -5.37 KCAL/MOL
REMARK 923 INTER-LIGAND FREE ENERGY PREDICTED BY IDOCK:   -4.93 KCAL/MOL
REMARK 924 INTRA-LIGAND FREE ENERGY PREDICTED BY IDOCK:   -0.45 KCAL/MOL
REMARK 927      BINDING AFFINITY PREDICTED BY RF-SCORE:    0.00 PKD
ROOT
HETATM    1  O   UNL     1      -7.081   8.423  68.538  1.00  0.00    -0.073 OA 
HETATM    2  C   UNL     1      -7.322   7.711  69.659  1.00  0.00    -0.089 C  
HETATM    3  C   UNL     1      -8.672   7.072  69.708  1.00  0.00    -0.142 A  
HETATM    4  O   UNL     1      -6.496   7.584  70.545  1.00  0.00    -0.038 OA 
HETATM    5  C   UNL     1      -8.806   5.996  70.607  1.00  0.00    -0.142 A  
HETATM    6  C   UNL     1     -10.031   5.356  70.778  1.00  0.00    -0.269 A  
HETATM    7  C   UNL     1     -11.145   5.805  70.084  1.00  0.00    -0.323 A  
HETATM    8  C   UNL     1     -11.025   6.870  69.190  1.00  0.00    -0.240 A  
HETATM    9  C   UNL     1      -9.786   7.492  68.947  1.00  0.00    -0.151 A  
ENDROOT
BRANCH   9  10
HETATM   10  N   UNL     1      -9.700   8.587  68.028  1.00  0.00    -0.150 NA 
HETATM   11  H   UNL     1      -9.122   8.461  67.197  1.00  0.00     0.000 HD 
BRANCH  10  12
HETATM   12  C   UNL     1     -10.361   9.841  68.187  1.00  0.00    -0.202 A  
HETATM   13  C   UNL     1     -10.522  10.732  67.113  1.00  0.00    -0.285 A  
HETATM   14  C   UNL     1     -11.224  11.941  67.263  1.00  0.00    -0.376 A  
HETATM   15  C   UNL     1     -11.407  12.893  66.106  1.00  0.00    -0.317 C  
HETATM   16  C   UNL     1     -11.756  12.261  68.520  1.00  0.00    -0.381 A  
HETATM   17  F   UNL     1     -12.715  13.062  65.771  1.00  0.00    -0.483 F  
HETATM   18  F   UNL     1     -10.928  14.138  66.379  1.00  0.00    -0.298 F  
HETATM   19  F   UNL     1     -10.778  12.494  64.965  1.00  0.00    -0.287 F  
HETATM   20  C   UNL     1     -11.536  11.423  69.610  1.00  0.00    -0.399 A  
HETATM   21  C   UNL     1     -10.822  10.232  69.449  1.00  0.00    -0.282 A  
ENDBRANCH  10  12
ENDBRANCH   9  10
TORSDOF 2
ENDMDL
MODEL      188
REMARK 921   NORMALIZED FREE ENERGY PREDICTED BY IDOCK:   -4.44 KCAL/MOL
REMARK 922        TOTAL FREE ENERGY PREDICTED BY IDOCK:   -5.36 KCAL/MOL
REMARK 923 INTER-LIGAND FREE ENERGY PREDICTED BY IDOCK:   -4.81 KCAL/MOL
REMARK 924 INTRA-LIGAND FREE ENERGY PREDICTED BY IDOCK:   -0.55 KCAL/MOL
REMARK 927      BINDING AFFINITY PREDICTED BY RF-SCORE:    0.00 PKD
ROOT
HETATM    1  O   UNL     1      -9.549   9.534  69.213  1.00  0.00    -0.162 OA 
HETATM    2  C   UNL     1     -10.470  10.521  69.244  1.00  0.00    -0.235 C  
HETATM    3  C   UNL     1     -11.458  10.409  70.359  1.00  0.00    -0.420 A  
HETATM    4  O   UNL     1     -10.478  11.436  68.441  1.00  0.00    -0.185 OA 
HETATM    5  C   UNL     1     -12.135  11.597  70.696  1.00  0.00    -0.432 A  
HETATM    6  C   UNL     1     -13.117  11.606  71.685  1.00  0.00    -0.456 A  
HETATM    7  C   UNL     1     -13.461  10.423  72.322  1.00  0.00    -0.195 A  
HETATM    8  C   UNL     1     -12.797   9.238  71.997  1.00  0.00    -0.495 A  
HETATM    9  C   UNL     1     -11.755   9.214  71.051  1.00  0.00    -0.301 A  
ENDROOT
BRANCH   9  10
HETATM   10  N   UNL     1     -11.100   7.980  70.737  1.00  0.00    -0.256 NA 
HETATM   11  H   UNL     1     -11.234   7.600  69.800  1.00  0.00     0.000 HD 
BRANCH  10  12
HETATM   12  C   UNL     1     -10.272   7.242  71.634  1.00  0.00    -0.192 A  
HETATM   13  C   UNL     1     -10.291   5.838  71.671  1.00  0.00    -0.266 A  
HETATM   14  C   UNL     1      -9.433   5.115  72.519  1.00  0.00    -0.166 A  
HETATM   15  C   UNL     1      -9.446   3.606  72.549  1.00  0.00    -0.124 C  
HETATM   16  C   UNL     1      -8.556   5.821  73.352  1.00  0.00    -0.117 A  
HETATM   17  F   UNL     1      -8.261   3.066  72.154  1.00  0.00    -0.059 F  
HETATM   18  F   UNL     1      -9.682   3.116  73.798  1.00  0.00    -0.109 F  
HETATM   19  F   UNL     1     -10.395   3.050  71.745  1.00  0.00    -0.215 F  
HETATM   20  C   UNL     1      -8.582   7.214  73.381  1.00  0.00    -0.162 A  
HETATM   21  C   UNL     1      -9.453   7.919  72.545  1.00  0.00    -0.262 A  
ENDBRANCH  10  12
ENDBRANCH   9  10
TORSDOF 2
ENDMDL
MODEL      189
REMARK 921   NORMALIZED FREE ENERGY PREDICTED BY IDOCK:   -4.44 KCAL/MOL
REMARK 922        TOTAL FREE ENERGY PREDICTED BY IDOCK:   -5.36 KCAL/MOL
REMARK 923 INTER-LIGAND FREE ENERGY PREDICTED BY IDOCK:   -5.52 KCAL/MOL
REMARK 924 INTRA-LIGAND FREE ENERGY PREDICTED BY IDOCK:    0.16 KCAL/MOL
REMARK 927      BINDING AFFINITY PREDICTED BY RF-SCORE:    0.00 PKD
ROOT
HETATM    1  O   UNL     1      -8.000  14.370  68.150  1.00  0.00    -0.119 OA 
HETATM    2  C   UNL     1      -7.936  13.036  68.349  1.00  0.00    -0.135 C  
HETATM    3  C   UNL     1      -9.261  12.347  68.358  1.00  0.00    -0.145 A  
HETATM    4  O   UNL     1      -6.880  12.444  68.487  1.00  0.00    -0.070 OA 
HETATM    5  C   UNL     1      -9.229  10.959  68.121  1.00  0.00    -0.158 A  
HETATM    6  C   UNL     1     -10.397  10.200  68.157  1.00  0.00    -0.217 A  
HETATM    7  C   UNL     1     -11.604  10.810  68.466  1.00  0.00    -0.325 A  
HETATM    8  C   UNL     1     -11.649  12.186  68.702  1.00  0.00    -0.372 A  
HETATM    9  C   UNL     1     -10.496  12.987  68.606  1.00  0.00    -0.219 A  
ENDROOT
BRANCH   9  10
HETATM   10  N   UNL     1     -10.576  14.394  68.861  1.00  0.00    -0.244 NA 
HETATM   11  H   UNL     1     -10.664  14.693  69.833  1.00  0.00     0.000 HD 
BRANCH  10  12
HETATM   12  C   UNL     1     -10.543  15.410  67.860  1.00  0.00    -0.267 A  
HETATM   13  C   UNL     1     -10.334  16.760  68.185  1.00  0.00    -0.318 A  
HETATM   14  C   UNL     1     -10.247  17.749  67.189  1.00  0.00    -0.353 A  
HETATM   15  C   UNL     1     -10.010  19.198  67.539  1.00  0.00    -0.351 C  
HETATM   16  C   UNL     1     -10.389  17.369  65.847  1.00  0.00    -0.276 A  
HETATM   17  F   UNL     1      -8.837  19.672  67.035  1.00  0.00    -0.299 F  
HETATM   18  F   UNL     1     -10.983  20.014  67.048  1.00  0.00    -0.523 F  
HETATM   19  F   UNL     1      -9.964  19.437  68.879  1.00  0.00    -0.439 F  
HETATM   20  C   UNL     1     -10.673  16.046  65.518  1.00  0.00    -0.374 A  
HETATM   21  C   UNL     1     -10.774  15.077  66.520  1.00  0.00    -0.312 A  
ENDBRANCH  10  12
ENDBRANCH   9  10
TORSDOF 2
ENDMDL
MODEL      190
REMARK 921   NORMALIZED FREE ENERGY PREDICTED BY IDOCK:   -4.43 KCAL/MOL
REMARK 922        TOTAL FREE ENERGY PREDICTED BY IDOCK:   -5.35 KCAL/MOL
REMARK 923 INTER-LIGAND FREE ENERGY PREDICTED BY IDOCK:   -5.08 KCAL/MOL
REMARK 924 INTRA-LIGAND FREE ENERGY PREDICTED BY IDOCK:   -0.27 KCAL/MOL
REMARK 927      BINDING AFFINITY PREDICTED BY RF-SCORE:    0.00 PKD
ROOT
HETATM    1  O   UNL     1     -10.795  11.895  69.236  1.00  0.00    -0.200 OA 
HETATM    2  C   UNL     1     -11.183  12.021  67.949  1.00  0.00    -0.264 C  
HETATM    3  C   UNL     1     -10.685  13.255  67.270  1.00  0.00    -0.262 A  
HETATM    4  O   UNL     1     -11.865  11.184  67.385  1.00  0.00    -0.570 OA 
HETATM    5  C   UNL     1     -10.683  13.219  65.862  1.00  0.00    -0.284 A  
HETATM    6  C   UNL     1     -10.290  14.330  65.119  1.00  0.00    -0.440 A  
HETATM    7  C   UNL     1      -9.930  15.500  65.770  1.00  0.00    -0.391 A  
HETATM    8  C   UNL     1      -9.928  15.549  67.165  1.00  0.00    -0.242 A  
HETATM    9  C   UNL     1     -10.255  14.421  67.942  1.00  0.00    -0.232 A  
ENDROOT
BRANCH   9  10
HETATM   10  N   UNL     1     -10.250  14.508  69.371  1.00  0.00    -0.414 NA 
HETATM   11  H   UNL     1      -9.365  14.338  69.850  1.00  0.00     0.000 HD 
BRANCH  10  12
HETATM   12  C   UNL     1     -11.387  14.814  70.176  1.00  0.00    -0.247 A  
HETATM   13  C   UNL     1     -11.282  14.993  71.565  1.00  0.00    -0.246 A  
HETATM   14  C   UNL     1     -12.397  15.349  72.345  1.00  0.00    -0.467 A  
HETATM   15  C   UNL     1     -12.280  15.553  73.836  1.00  0.00    -0.593 C  
HETATM   16  C   UNL     1     -13.637  15.511  71.714  1.00  0.00    -0.578 A  
HETATM   17  F   UNL     1     -12.571  16.828  74.213  1.00  0.00    -0.493 F  
HETATM   18  F   UNL     1     -13.133  14.753  74.535  1.00  0.00     0.197 F  
HETATM   19  F   UNL     1     -11.037  15.292  74.329  1.00  0.00     0.480 F  
HETATM   20  C   UNL     1     -13.770  15.261  70.350  1.00  0.00     0.258 A  
HETATM   21  C   UNL     1     -12.656  14.891  69.591  1.00  0.00    -0.094 A  
ENDBRANCH  10  12
ENDBRANCH   9  10
TORSDOF 2
ENDMDL
MODEL      191
REMARK 921   NORMALIZED FREE ENERGY PREDICTED BY IDOCK:   -4.41 KCAL/MOL
REMARK 922        TOTAL FREE ENERGY PREDICTED BY IDOCK:   -5.33 KCAL/MOL
REMARK 923 INTER-LIGAND FREE ENERGY PREDICTED BY IDOCK:   -4.79 KCAL/MOL
REMARK 924 INTRA-LIGAND FREE ENERGY PREDICTED BY IDOCK:   -0.54 KCAL/MOL
REMARK 927      BINDING AFFINITY PREDICTED BY RF-SCORE:    0.00 PKD
ROOT
HETATM    1  O   UNL     1      -9.222  10.379  63.713  1.00  0.00    -0.221 OA 
HETATM    2  C   UNL     1      -8.811   9.298  64.410  1.00  0.00    -0.159 C  
HETATM    3  C   UNL     1      -9.513   9.099  65.714  1.00  0.00    -0.322 A  
HETATM    4  O   UNL     1      -7.953   8.538  63.996  1.00  0.00    -0.144 OA 
HETATM    5  C   UNL     1      -9.447   7.798  66.250  1.00  0.00    -0.201 A  
HETATM    6  C   UNL     1     -10.020   7.504  67.486  1.00  0.00    -0.228 A  
HETATM    7  C   UNL     1     -10.630   8.512  68.218  1.00  0.00    -0.173 A  
HETATM    8  C   UNL     1     -10.702   9.806  67.697  1.00  0.00    -0.334 A  
HETATM    9  C   UNL     1     -10.193  10.115  66.422  1.00  0.00    -0.221 A  
ENDROOT
BRANCH   9  10
HETATM   10  N   UNL     1     -10.276  11.454  65.921  1.00  0.00    -0.238 NA 
HETATM   11  H   UNL     1     -10.945  11.636  65.172  1.00  0.00     0.000 HD 
BRANCH  10  12
HETATM   12  C   UNL     1      -9.497  12.553  66.390  1.00  0.00    -0.233 A  
HETATM   13  C   UNL     1      -9.867  13.884  66.134  1.00  0.00    -0.316 A  
HETATM   14  C   UNL     1      -9.124  14.962  66.647  1.00  0.00    -0.309 A  
HETATM   15  C   UNL     1      -9.530  16.392  66.381  1.00  0.00    -0.293 C  
HETATM   16  C   UNL     1      -7.984  14.692  67.414  1.00  0.00    -0.223 A  
HETATM   17  F   UNL     1      -9.849  17.064  67.521  1.00  0.00    -0.241 F  
HETATM   18  F   UNL     1      -8.535  17.110  65.790  1.00  0.00    -0.244 F  
HETATM   19  F   UNL     1     -10.612  16.511  65.563  1.00  0.00    -0.347 F  
HETATM   20  C   UNL     1      -7.563  13.379  67.609  1.00  0.00    -0.177 A  
HETATM   21  C   UNL     1      -8.302  12.317  67.080  1.00  0.00    -0.168 A  
ENDBRANCH  10  12
ENDBRANCH   9  10
TORSDOF 2
ENDMDL
MODEL      192
REMARK 921   NORMALIZED FREE ENERGY PREDICTED BY IDOCK:   -4.41 KCAL/MOL
REMARK 922        TOTAL FREE ENERGY PREDICTED BY IDOCK:   -5.32 KCAL/MOL
REMARK 923 INTER-LIGAND FREE ENERGY PREDICTED BY IDOCK:   -4.88 KCAL/MOL
REMARK 924 INTRA-LIGAND FREE ENERGY PREDICTED BY IDOCK:   -0.44 KCAL/MOL
REMARK 927      BINDING AFFINITY PREDICTED BY RF-SCORE:    0.00 PKD
ROOT
HETATM    1  O   UNL     1     -10.770   9.066  66.980  1.00  0.00    -0.242 OA 
HETATM    2  C   UNL     1      -9.663   8.488  66.466  1.00  0.00    -0.260 C  
HETATM    3  C   UNL     1      -9.617   7.002  66.610  1.00  0.00    -0.220 A  
HETATM    4  O   UNL     1      -8.786   9.128  65.913  1.00  0.00    -0.153 OA 
HETATM    5  C   UNL     1      -8.741   6.331  65.734  1.00  0.00    -0.145 A  
HETATM    6  C   UNL     1      -8.574   4.950  65.809  1.00  0.00    -0.128 A  
HETATM    7  C   UNL     1      -9.249   4.228  66.782  1.00  0.00    -0.156 A  
HETATM    8  C   UNL     1     -10.120   4.881  67.656  1.00  0.00    -0.172 A  
HETATM    9  C   UNL     1     -10.360   6.265  67.559  1.00  0.00    -0.200 A  
ENDROOT
BRANCH   9  10
HETATM   10  N   UNL     1     -11.254   6.905  68.476  1.00  0.00    -0.518 NA 
HETATM   11  H   UNL     1     -12.139   7.253  68.107  1.00  0.00     0.000 HD 
BRANCH  10  12
HETATM   12  C   UNL     1     -11.002   7.092  69.867  1.00  0.00    -0.263 A  
HETATM   13  C   UNL     1     -10.819   6.004  70.738  1.00  0.00    -0.358 A  
HETATM   14  C   UNL     1     -10.516   6.197  72.097  1.00  0.00    -0.237 A  
HETATM   15  C   UNL     1     -10.308   5.027  73.029  1.00  0.00    -0.189 C  
HETATM   16  C   UNL     1     -10.412   7.505  72.587  1.00  0.00    -0.322 A  
HETATM   17  F   UNL     1      -9.048   4.986  73.543  1.00  0.00    -0.122 F  
HETATM   18  F   UNL     1     -11.147   5.065  74.101  1.00  0.00    -0.335 F  
HETATM   19  F   UNL     1     -10.511   3.815  72.441  1.00  0.00    -0.237 F  
HETATM   20  C   UNL     1     -10.667   8.590  71.752  1.00  0.00    -0.373 A  
HETATM   21  C   UNL     1     -10.984   8.384  70.406  1.00  0.00    -0.249 A  
ENDBRANCH  10  12
ENDBRANCH   9  10
TORSDOF 2
ENDMDL
MODEL      193
REMARK 921   NORMALIZED FREE ENERGY PREDICTED BY IDOCK:   -4.39 KCAL/MOL
REMARK 922        TOTAL FREE ENERGY PREDICTED BY IDOCK:   -5.31 KCAL/MOL
REMARK 923 INTER-LIGAND FREE ENERGY PREDICTED BY IDOCK:   -5.01 KCAL/MOL
REMARK 924 INTRA-LIGAND FREE ENERGY PREDICTED BY IDOCK:   -0.30 KCAL/MOL
REMARK 927      BINDING AFFINITY PREDICTED BY RF-SCORE:    0.00 PKD
ROOT
HETATM    1  O   UNL     1     -12.093  15.023  68.384  1.00  0.00    -0.242 OA 
HETATM    2  C   UNL     1     -10.900  15.652  68.463  1.00  0.00    -0.282 C  
HETATM    3  C   UNL     1      -9.723  14.788  68.146  1.00  0.00    -0.217 A  
HETATM    4  O   UNL     1     -10.799  16.832  68.747  1.00  0.00    -0.328 OA 
HETATM    5  C   UNL     1      -8.544  15.470  67.789  1.00  0.00    -0.158 A  
HETATM    6  C   UNL     1      -7.368  14.774  67.522  1.00  0.00    -0.225 A  
HETATM    7  C   UNL     1      -7.343  13.392  67.647  1.00  0.00    -0.173 A  
HETATM    8  C   UNL     1      -8.505  12.704  68.001  1.00  0.00    -0.177 A  
HETATM    9  C   UNL     1      -9.724  13.377  68.209  1.00  0.00    -0.226 A  
ENDROOT
BRANCH   9  10
HETATM   10  N   UNL     1     -10.896  12.641  68.577  1.00  0.00    -0.244 NA 
HETATM   11  H   UNL     1     -11.777  13.153  68.633  1.00  0.00     0.000 HD 
BRANCH  10  12
HETATM   12  C   UNL     1     -10.926  11.245  68.872  1.00  0.00    -0.223 A  
HETATM   13  C   UNL     1     -10.649  10.277  67.892  1.00  0.00    -0.282 A  
HETATM   14  C   UNL     1     -10.626   8.906  68.202  1.00  0.00    -0.211 A  
HETATM   15  C   UNL     1     -10.316   7.868  67.152  1.00  0.00    -0.328 C  
HETATM   16  C   UNL     1     -10.903   8.507  69.517  1.00  0.00    -0.134 A  
HETATM   17  F   UNL     1      -9.182   7.168  67.429  1.00  0.00    -0.125 F  
HETATM   18  F   UNL     1     -11.307   6.941  67.032  1.00  0.00    -0.460 F  
HETATM   19  F   UNL     1     -10.138   8.387  65.905  1.00  0.00    -0.258 F  
HETATM   20  C   UNL     1     -11.256   9.451  70.478  1.00  0.00    -0.329 A  
HETATM   21  C   UNL     1     -11.291  10.810  70.151  1.00  0.00    -0.390 A  
ENDBRANCH  10  12
ENDBRANCH   9  10
TORSDOF 2
ENDMDL
MODEL      194
REMARK 921   NORMALIZED FREE ENERGY PREDICTED BY IDOCK:   -4.39 KCAL/MOL
REMARK 922        TOTAL FREE ENERGY PREDICTED BY IDOCK:   -5.31 KCAL/MOL
REMARK 923 INTER-LIGAND FREE ENERGY PREDICTED BY IDOCK:   -4.71 KCAL/MOL
REMARK 924 INTRA-LIGAND FREE ENERGY PREDICTED BY IDOCK:   -0.59 KCAL/MOL
REMARK 927      BINDING AFFINITY PREDICTED BY RF-SCORE:    0.00 PKD
ROOT
HETATM    1  O   UNL     1     -11.499  15.342  67.757  1.00  0.00    -0.335 OA 
HETATM    2  C   UNL     1     -10.584  16.289  68.053  1.00  0.00    -0.308 C  
HETATM    3  C   UNL     1      -9.168  15.881  67.810  1.00  0.00    -0.201 A  
HETATM    4  O   UNL     1     -10.894  17.393  68.466  1.00  0.00    -0.308 OA 
HETATM    5  C   UNL     1      -8.242  16.934  67.680  1.00  0.00    -0.196 A  
HETATM    6  C   UNL     1      -6.885  16.676  67.502  1.00  0.00    -0.177 A  
HETATM    7  C   UNL     1      -6.430  15.366  67.490  1.00  0.00    -0.174 A  
HETATM    8  C   UNL     1      -7.338  14.312  67.617  1.00  0.00    -0.192 A  
HETATM    9  C   UNL     1      -8.722  14.543  67.730  1.00  0.00    -0.174 A  
ENDROOT
BRANCH   9  10
HETATM   10  N   UNL     1      -9.624  13.439  67.866  1.00  0.00    -0.209 NA 
HETATM   11  H   UNL     1     -10.207  13.407  68.702  1.00  0.00     0.000 HD 
BRANCH  10  12
HETATM   12  C   UNL     1      -9.771  12.382  66.920  1.00  0.00    -0.215 A  
HETATM   13  C   UNL     1      -9.597  11.036  67.283  1.00  0.00    -0.183 A  
HETATM   14  C   UNL     1      -9.797   9.996  66.359  1.00  0.00    -0.283 A  
HETATM   15  C   UNL     1      -9.622   8.549  66.753  1.00  0.00    -0.210 C  
HETATM   16  C   UNL     1     -10.162  10.320  65.045  1.00  0.00    -0.277 A  
HETATM   17  F   UNL     1     -10.776   7.835  66.647  1.00  0.00    -0.401 F  
HETATM   18  F   UNL     1      -8.712   7.906  65.970  1.00  0.00    -0.128 F  
HETATM   19  F   UNL     1      -9.195   8.380  68.036  1.00  0.00    -0.136 F  
HETATM   20  C   UNL     1     -10.262  11.653  64.653  1.00  0.00    -0.327 A  
HETATM   21  C   UNL     1     -10.043  12.678  65.579  1.00  0.00    -0.279 A  
ENDBRANCH  10  12
ENDBRANCH   9  10
TORSDOF 2
ENDMDL
MODEL      195
REMARK 921   NORMALIZED FREE ENERGY PREDICTED BY IDOCK:   -4.39 KCAL/MOL
REMARK 922        TOTAL FREE ENERGY PREDICTED BY IDOCK:   -5.30 KCAL/MOL
REMARK 923 INTER-LIGAND FREE ENERGY PREDICTED BY IDOCK:   -5.17 KCAL/MOL
REMARK 924 INTRA-LIGAND FREE ENERGY PREDICTED BY IDOCK:   -0.13 KCAL/MOL
REMARK 927      BINDING AFFINITY PREDICTED BY RF-SCORE:    0.00 PKD
ROOT
HETATM    1  O   UNL     1      -9.386   8.118  69.732  1.00  0.00    -0.158 OA 
HETATM    2  C   UNL     1     -10.078   9.237  70.033  1.00  0.00    -0.212 C  
HETATM    3  C   UNL     1     -11.397   8.991  70.690  1.00  0.00    -0.311 A  
HETATM    4  O   UNL     1      -9.649  10.355  69.807  1.00  0.00    -0.165 OA 
HETATM    5  C   UNL     1     -11.938  10.079  71.402  1.00  0.00    -0.470 A  
HETATM    6  C   UNL     1     -13.186   9.985  72.013  1.00  0.00    -0.545 A  
HETATM    7  C   UNL     1     -13.927   8.819  71.887  1.00  0.00    -0.493 A  
HETATM    8  C   UNL     1     -13.403   7.733  71.183  1.00  0.00    -0.141 A  
HETATM    9  C   UNL     1     -12.116   7.776  70.615  1.00  0.00    -0.010 A  
ENDROOT
BRANCH   9  10
HETATM   10  N   UNL     1     -11.611   6.647  69.893  1.00  0.00    -0.592 NA 
HETATM   11  H   UNL     1     -11.869   6.561  68.910  1.00  0.00     0.000 HD 
BRANCH  10  12
HETATM   12  C   UNL     1     -10.774   5.632  70.445  1.00  0.00    -0.282 A  
HETATM   13  C   UNL     1     -10.796   5.320  71.815  1.00  0.00    -0.198 A  
HETATM   14  C   UNL     1     -10.009   4.281  72.342  1.00  0.00    -0.229 A  
HETATM   15  C   UNL     1     -10.043   3.939  73.812  1.00  0.00    -0.130 C  
HETATM   16  C   UNL     1      -9.176   3.559  71.477  1.00  0.00    -0.193 A  
HETATM   17  F   UNL     1     -10.500   2.677  74.044  1.00  0.00    -0.158 F  
HETATM   18  F   UNL     1      -8.809   4.000  74.386  1.00  0.00    -0.093 F  
HETATM   19  F   UNL     1     -10.837   4.765  74.548  1.00  0.00    -0.316 F  
HETATM   20  C   UNL     1      -9.087   3.910  70.132  1.00  0.00    -0.191 A  
HETATM   21  C   UNL     1      -9.863   4.956  69.625  1.00  0.00    -0.288 A  
ENDBRANCH  10  12
ENDBRANCH   9  10
TORSDOF 2
ENDMDL
MODEL      196
REMARK 921   NORMALIZED FREE ENERGY PREDICTED BY IDOCK:   -4.38 KCAL/MOL
REMARK 922        TOTAL FREE ENERGY PREDICTED BY IDOCK:   -5.30 KCAL/MOL
REMARK 923 INTER-LIGAND FREE ENERGY PREDICTED BY IDOCK:   -4.94 KCAL/MOL
REMARK 924 INTRA-LIGAND FREE ENERGY PREDICTED BY IDOCK:   -0.36 KCAL/MOL
REMARK 927      BINDING AFFINITY PREDICTED BY RF-SCORE:    0.00 PKD
ROOT
HETATM    1  O   UNL     1      -8.186  14.816  68.581  1.00  0.00    -0.145 OA 
HETATM    2  C   UNL     1      -7.116  14.007  68.737  1.00  0.00    -0.108 C  
HETATM    3  C   UNL     1      -7.346  12.591  68.318  1.00  0.00    -0.115 A  
HETATM    4  O   UNL     1      -6.048  14.407  69.163  1.00  0.00    -0.088 OA 
HETATM    5  C   UNL     1      -6.186  11.839  68.048  1.00  0.00    -0.052 A  
HETATM    6  C   UNL     1      -6.272  10.493  67.700  1.00  0.00    -0.056 A  
HETATM    7  C   UNL     1      -7.511   9.872  67.654  1.00  0.00    -0.090 A  
HETATM    8  C   UNL     1      -8.669  10.606  67.920  1.00  0.00    -0.127 A  
HETATM    9  C   UNL     1      -8.616  11.983  68.208  1.00  0.00    -0.174 A  
ENDROOT
BRANCH   9  10
HETATM   10  N   UNL     1      -9.822  12.705  68.483  1.00  0.00    -0.359 NA 
HETATM   11  H   UNL     1     -10.027  12.927  69.457  1.00  0.00     0.000 HD 
BRANCH  10  12
HETATM   12  C   UNL     1     -10.758  13.138  67.497  1.00  0.00    -0.238 A  
HETATM   13  C   UNL     1     -10.864  12.503  66.249  1.00  0.00    -0.299 A  
HETATM   14  C   UNL     1     -11.826  12.899  65.304  1.00  0.00    -0.429 A  
HETATM   15  C   UNL     1     -11.947  12.207  63.968  1.00  0.00    -0.440 C  
HETATM   16  C   UNL     1     -12.682  13.963  65.618  1.00  0.00    -0.534 A  
HETATM   17  F   UNL     1     -13.152  11.595  63.804  1.00  0.00    -0.523 F  
HETATM   18  F   UNL     1     -11.823  13.073  62.924  1.00  0.00    -0.540 F  
HETATM   19  F   UNL     1     -11.008  11.241  63.764  1.00  0.00    -0.415 F  
HETATM   20  C   UNL     1     -12.536  14.651  66.819  1.00  0.00     0.179 A  
HETATM   21  C   UNL     1     -11.563  14.257  67.743  1.00  0.00    -0.383 A  
ENDBRANCH  10  12
ENDBRANCH   9  10
TORSDOF 2
ENDMDL
MODEL      197
REMARK 921   NORMALIZED FREE ENERGY PREDICTED BY IDOCK:   -4.38 KCAL/MOL
REMARK 922        TOTAL FREE ENERGY PREDICTED BY IDOCK:   -5.29 KCAL/MOL
REMARK 923 INTER-LIGAND FREE ENERGY PREDICTED BY IDOCK:   -4.91 KCAL/MOL
REMARK 924 INTRA-LIGAND FREE ENERGY PREDICTED BY IDOCK:   -0.38 KCAL/MOL
REMARK 927      BINDING AFFINITY PREDICTED BY RF-SCORE:    0.00 PKD
ROOT
HETATM    1  O   UNL     1     -10.048  14.494  65.075  1.00  0.00    -0.393 OA 
HETATM    2  C   UNL     1     -10.968  13.550  65.367  1.00  0.00    -0.292 C  
HETATM    3  C   UNL     1     -10.690  12.782  66.618  1.00  0.00    -0.279 A  
HETATM    4  O   UNL     1     -11.953  13.358  64.676  1.00  0.00    -0.366 OA 
HETATM    5  C   UNL     1     -11.796  12.122  67.188  1.00  0.00    -0.292 A  
HETATM    6  C   UNL     1     -11.650  11.333  68.326  1.00  0.00    -0.370 A  
HETATM    7  C   UNL     1     -10.393  11.160  68.886  1.00  0.00    -0.220 A  
HETATM    8  C   UNL     1      -9.288  11.808  68.331  1.00  0.00    -0.185 A  
HETATM    9  C   UNL     1      -9.418  12.666  67.223  1.00  0.00    -0.199 A  
ENDROOT
BRANCH   9  10
HETATM   10  N   UNL     1      -8.263  13.310  66.674  1.00  0.00    -0.378 NA 
HETATM   11  H   UNL     1      -7.901  12.955  65.788  1.00  0.00     0.000 HD 
BRANCH  10  12
HETATM   12  C   UNL     1      -7.580  14.411  67.270  1.00  0.00    -0.108 A  
HETATM   13  C   UNL     1      -8.077  15.722  67.187  1.00  0.00    -0.244 A  
HETATM   14  C   UNL     1      -7.428  16.794  67.824  1.00  0.00    -0.176 A  
HETATM   15  C   UNL     1      -7.970  18.201  67.744  1.00  0.00    -0.237 C  
HETATM   16  C   UNL     1      -6.251  16.540  68.542  1.00  0.00    -0.130 A  
HETATM   17  F   UNL     1      -8.327  18.693  68.962  1.00  0.00    -0.318 F  
HETATM   18  F   UNL     1      -7.058  19.078  67.240  1.00  0.00    -0.205 F  
HETATM   19  F   UNL     1      -9.074  18.318  66.956  1.00  0.00    -0.251 F  
HETATM   20  C   UNL     1      -5.707  15.259  68.568  1.00  0.00    -0.095 A  
HETATM   21  C   UNL     1      -6.354  14.205  67.915  1.00  0.00    -0.173 A  
ENDBRANCH  10  12
ENDBRANCH   9  10
TORSDOF 2
ENDMDL
MODEL      198
REMARK 921   NORMALIZED FREE ENERGY PREDICTED BY IDOCK:   -4.36 KCAL/MOL
REMARK 922        TOTAL FREE ENERGY PREDICTED BY IDOCK:   -5.27 KCAL/MOL
REMARK 923 INTER-LIGAND FREE ENERGY PREDICTED BY IDOCK:   -4.76 KCAL/MOL
REMARK 924 INTRA-LIGAND FREE ENERGY PREDICTED BY IDOCK:   -0.51 KCAL/MOL
REMARK 927      BINDING AFFINITY PREDICTED BY RF-SCORE:    0.00 PKD
ROOT
HETATM    1  O   UNL     1     -10.243   9.634  65.956  1.00  0.00    -0.265 OA 
HETATM    2  C   UNL     1      -9.009  10.182  65.948  1.00  0.00    -0.157 C  
HETATM    3  C   UNL     1      -8.318  10.169  67.272  1.00  0.00    -0.121 A  
HETATM    4  O   UNL     1      -8.497  10.630  64.938  1.00  0.00    -0.172 OA 
HETATM    5  C   UNL     1      -6.918  10.312  67.232  1.00  0.00    -0.086 A  
HETATM    6  C   UNL     1      -6.170  10.366  68.406  1.00  0.00    -0.047 A  
HETATM    7  C   UNL     1      -6.813  10.317  69.633  1.00  0.00    -0.094 A  
HETATM    8  C   UNL     1      -8.201  10.176  69.688  1.00  0.00    -0.176 A  
HETATM    9  C   UNL     1      -8.974  10.050  68.518  1.00  0.00    -0.124 A  
ENDROOT
BRANCH   9  10
HETATM   10  N   UNL     1     -10.397   9.913  68.609  1.00  0.00    -0.187 NA 
HETATM   11  H   UNL     1     -10.942  10.083  67.764  1.00  0.00     0.000 HD 
BRANCH  10  12
HETATM   12  C   UNL     1     -11.109   9.556  69.792  1.00  0.00    -0.191 A  
HETATM   13  C   UNL     1     -11.080   8.249  70.307  1.00  0.00    -0.220 A  
HETATM   14  C   UNL     1     -11.740   7.918  71.503  1.00  0.00    -0.317 A  
HETATM   15  C   UNL     1     -11.697   6.516  72.061  1.00  0.00    -0.323 C  
HETATM   16  C   UNL     1     -12.451   8.916  72.181  1.00  0.00    -0.459 A  
HETATM   17  F   UNL     1     -11.087   6.455  73.277  1.00  0.00    -0.261 F  
HETATM   18  F   UNL     1     -12.942   5.994  72.242  1.00  0.00    -0.291 F  
HETATM   19  F   UNL     1     -11.034   5.630  71.267  1.00  0.00    -0.305 F  
HETATM   20  C   UNL     1     -12.552  10.196  71.641  1.00  0.00    -0.533 A  
HETATM   21  C   UNL     1     -11.905  10.507  70.441  1.00  0.00    -0.431 A  
ENDBRANCH  10  12
ENDBRANCH   9  10
TORSDOF 2
ENDMDL
MODEL      199
REMARK 921   NORMALIZED FREE ENERGY PREDICTED BY IDOCK:   -4.36 KCAL/MOL
REMARK 922        TOTAL FREE ENERGY PREDICTED BY IDOCK:   -5.27 KCAL/MOL
REMARK 923 INTER-LIGAND FREE ENERGY PREDICTED BY IDOCK:   -5.14 KCAL/MOL
REMARK 924 INTRA-LIGAND FREE ENERGY PREDICTED BY IDOCK:   -0.13 KCAL/MOL
REMARK 927      BINDING AFFINITY PREDICTED BY RF-SCORE:    0.00 PKD
ROOT
HETATM    1  O   UNL     1     -10.304   7.152  67.141  1.00  0.00    -0.227 OA 
HETATM    2  C   UNL     1      -9.918   7.444  68.401  1.00  0.00    -0.164 C  
HETATM    3  C   UNL     1     -10.544   8.675  68.971  1.00  0.00    -0.179 A  
HETATM    4  O   UNL     1      -9.139   6.747  69.027  1.00  0.00    -0.138 OA 
HETATM    5  C   UNL     1     -10.526   8.775  70.376  1.00  0.00    -0.240 A  
HETATM    6  C   UNL     1     -11.034   9.902  71.019  1.00  0.00    -0.360 A  
HETATM    7  C   UNL     1     -11.530  10.957  70.268  1.00  0.00    -0.391 A  
HETATM    8  C   UNL     1     -11.554  10.871  68.875  1.00  0.00    -0.378 A  
HETATM    9  C   UNL     1     -11.110   9.716  68.202  1.00  0.00    -0.050 A  
ENDROOT
BRANCH   9  10
HETATM   10  N   UNL     1     -11.142   9.663  66.771  1.00  0.00     0.065 NA 
HETATM   11  H   UNL     1     -11.367   8.768  66.337  1.00  0.00     0.000 HD 
BRANCH  10  12
HETATM   12  C   UNL     1     -10.883  10.768  65.906  1.00  0.00    -0.007 A  
HETATM   13  C   UNL     1     -11.604  11.970  66.007  1.00  0.00    -0.371 A  
HETATM   14  C   UNL     1     -11.306  13.073  65.188  1.00  0.00    -0.320 A  
HETATM   15  C   UNL     1     -12.073  14.368  65.306  1.00  0.00    -0.380 C  
HETATM   16  C   UNL     1     -10.277  12.956  64.244  1.00  0.00    -0.337 A  
HETATM   17  F   UNL     1     -11.284  15.410  65.687  1.00  0.00    -0.326 F  
HETATM   18  F   UNL     1     -12.640  14.742  64.125  1.00  0.00    -0.500 F  
HETATM   19  F   UNL     1     -13.092  14.321  66.209  1.00  0.00    -0.356 F  
HETATM   20  C   UNL     1      -9.607  11.745  64.082  1.00  0.00    -0.095 A  
HETATM   21  C   UNL     1      -9.926  10.651  64.892  1.00  0.00    -0.382 A  
ENDBRANCH  10  12
ENDBRANCH   9  10
TORSDOF 2
ENDMDL
MODEL      200
REMARK 921   NORMALIZED FREE ENERGY PREDICTED BY IDOCK:   -4.35 KCAL/MOL
REMARK 922        TOTAL FREE ENERGY PREDICTED BY IDOCK:   -5.27 KCAL/MOL
REMARK 923 INTER-LIGAND FREE ENERGY PREDICTED BY IDOCK:   -4.75 KCAL/MOL
REMARK 924 INTRA-LIGAND FREE ENERGY PREDICTED BY IDOCK:   -0.52 KCAL/MOL
REMARK 927      BINDING AFFINITY PREDICTED BY RF-SCORE:    0.00 PKD
ROOT
HETATM    1  O   UNL     1      -6.528  13.034  67.128  1.00  0.00    -0.224 OA 
HETATM    2  C   UNL     1      -6.978  11.805  66.801  1.00  0.00    -0.047 C  
HETATM    3  C   UNL     1      -8.436  11.593  67.049  1.00  0.00    -0.168 A  
HETATM    4  O   UNL     1      -6.257  10.948  66.321  1.00  0.00    -0.113 OA 
HETATM    5  C   UNL     1      -9.028  10.530  66.340  1.00  0.00    -0.174 A  
HETATM    6  C   UNL     1     -10.369  10.204  66.529  1.00  0.00    -0.270 A  
HETATM    7  C   UNL     1     -11.125  10.908  67.455  1.00  0.00    -0.375 A  
HETATM    8  C   UNL     1     -10.550  11.964  68.164  1.00  0.00    -0.233 A  
HETATM    9  C   UNL     1      -9.217  12.359  67.944  1.00  0.00    -0.192 A  
ENDROOT
BRANCH   9  10
HETATM   10  N   UNL     1      -8.656  13.443  68.694  1.00  0.00    -0.354 NA 
HETATM   11  H   UNL     1      -7.794  13.263  69.209  1.00  0.00     0.000 HD 
BRANCH  10  12
HETATM   12  C   UNL     1      -9.210  14.755  68.774  1.00  0.00    -0.196 A  
HETATM   13  C   UNL     1      -8.769  15.796  67.940  1.00  0.00    -0.170 A  
HETATM   14  C   UNL     1      -9.357  17.071  67.986  1.00  0.00    -0.245 A  
HETATM   15  C   UNL     1      -8.891  18.185  67.080  1.00  0.00    -0.259 C  
HETATM   16  C   UNL     1     -10.395  17.303  68.899  1.00  0.00    -0.352 A  
HETATM   17  F   UNL     1      -9.864  18.607  66.228  1.00  0.00    -0.316 F  
HETATM   18  F   UNL     1      -8.501  19.289  67.777  1.00  0.00    -0.304 F  
HETATM   19  F   UNL     1      -7.830  17.846  66.297  1.00  0.00    -0.259 F  
HETATM   20  C   UNL     1     -10.788  16.303  69.784  1.00  0.00    -0.356 A  
HETATM   21  C   UNL     1     -10.182  15.044  69.738  1.00  0.00    -0.142 A  
ENDBRANCH  10  12
ENDBRANCH   9  10
TORSDOF 2
ENDMDL
MODEL      201
REMARK 921   NORMALIZED FREE ENERGY PREDICTED BY IDOCK:   -4.35 KCAL/MOL
REMARK 922        TOTAL FREE ENERGY PREDICTED BY IDOCK:   -5.26 KCAL/MOL
REMARK 923 INTER-LIGAND FREE ENERGY PREDICTED BY IDOCK:   -4.70 KCAL/MOL
REMARK 924 INTRA-LIGAND FREE ENERGY PREDICTED BY IDOCK:   -0.56 KCAL/MOL
REMARK 927      BINDING AFFINITY PREDICTED BY RF-SCORE:    0.00 PKD
ROOT
HETATM    1  O   UNL     1      -6.671   9.293  69.194  1.00  0.00    -0.049 OA 
HETATM    2  C   UNL     1      -6.574   9.947  68.017  1.00  0.00    -0.060 C  
HETATM    3  C   UNL     1      -7.833   9.961  67.212  1.00  0.00    -0.102 A  
HETATM    4  O   UNL     1      -5.549  10.497  67.654  1.00  0.00    -0.044 OA 
HETATM    5  C   UNL     1      -7.917  10.965  66.228  1.00  0.00    -0.161 A  
HETATM    6  C   UNL     1      -9.020  11.046  65.381  1.00  0.00    -0.192 A  
HETATM    7  C   UNL     1     -10.033  10.104  65.480  1.00  0.00    -0.363 A  
HETATM    8  C   UNL     1      -9.962   9.103  66.451  1.00  0.00    -0.358 A  
HETATM    9  C   UNL     1      -8.893   9.039  67.364  1.00  0.00    -0.118 A  
ENDROOT
BRANCH   9  10
HETATM   10  N   UNL     1      -8.847   7.995  68.343  1.00  0.00    -0.134 NA 
HETATM   11  H   UNL     1      -7.997   7.433  68.394  1.00  0.00     0.000 HD 
BRANCH  10  12
HETATM   12  C   UNL     1      -9.899   7.683  69.254  1.00  0.00    -0.168 A  
HETATM   13  C   UNL     1     -10.661   8.686  69.876  1.00  0.00    -0.227 A  
HETATM   14  C   UNL     1     -11.732   8.371  70.730  1.00  0.00    -0.219 A  
HETATM   15  C   UNL     1     -12.557   9.450  71.387  1.00  0.00    -0.348 C  
HETATM   16  C   UNL     1     -12.028   7.023  70.972  1.00  0.00    -0.406 A  
HETATM   17  F   UNL     1     -13.861   9.421  70.996  1.00  0.00    -0.401 F  
HETATM   18  F   UNL     1     -12.572   9.335  72.744  1.00  0.00    -0.370 F  
HETATM   19  F   UNL     1     -12.117  10.712  71.125  1.00  0.00    -0.389 F  
HETATM   20  C   UNL     1     -11.232   6.020  70.424  1.00  0.00    -0.380 A  
HETATM   21  C   UNL     1     -10.159   6.349  69.590  1.00  0.00    -0.209 A  
ENDBRANCH  10  12
ENDBRANCH   9  10
TORSDOF 2
ENDMDL
MODEL      202
REMARK 921   NORMALIZED FREE ENERGY PREDICTED BY IDOCK:   -4.34 KCAL/MOL
REMARK 922        TOTAL FREE ENERGY PREDICTED BY IDOCK:   -5.25 KCAL/MOL
REMARK 923 INTER-LIGAND FREE ENERGY PREDICTED BY IDOCK:   -4.65 KCAL/MOL
REMARK 924 INTRA-LIGAND FREE ENERGY PREDICTED BY IDOCK:   -0.60 KCAL/MOL
REMARK 927      BINDING AFFINITY PREDICTED BY RF-SCORE:    0.00 PKD
ROOT
HETATM    1  O   UNL     1      -9.351  18.979  68.448  1.00  0.00    -0.322 OA 
HETATM    2  C   UNL     1      -8.117  19.507  68.600  1.00  0.00    -0.340 C  
HETATM    3  C   UNL     1      -7.311  19.569  67.344  1.00  0.00    -0.261 A  
HETATM    4  O   UNL     1      -7.708  19.918  69.671  1.00  0.00    -0.047 OA 
HETATM    5  C   UNL     1      -6.237  20.480  67.351  1.00  0.00    -0.279 A  
HETATM    6  C   UNL     1      -5.384  20.589  66.256  1.00  0.00    -0.204 A  
HETATM    7  C   UNL     1      -5.567  19.763  65.157  1.00  0.00    -0.205 A  
HETATM    8  C   UNL     1      -6.628  18.856  65.136  1.00  0.00    -0.200 A  
HETATM    9  C   UNL     1      -7.546  18.773  66.200  1.00  0.00    -0.258 A  
ENDROOT
BRANCH   9  10
HETATM   10  N   UNL     1      -8.619  17.825  66.150  1.00  0.00    -0.488 NA 
HETATM   11  H   UNL     1      -9.534  18.164  65.852  1.00  0.00     0.000 HD 
BRANCH  10  12
HETATM   12  C   UNL     1      -8.506  16.444  66.485  1.00  0.00    -0.301 A  
HETATM   13  C   UNL     1      -7.390  15.940  67.174  1.00  0.00    -0.258 A  
HETATM   14  C   UNL     1      -7.310  14.587  67.550  1.00  0.00    -0.212 A  
HETATM   15  C   UNL     1      -6.116  14.050  68.301  1.00  0.00    -0.117 C  
HETATM   16  C   UNL     1      -8.364  13.729  67.211  1.00  0.00    -0.186 A  
HETATM   17  F   UNL     1      -6.444  13.581  69.536  1.00  0.00    -0.101 F  
HETATM   18  F   UNL     1      -5.522  13.010  67.652  1.00  0.00    -0.100 F  
HETATM   19  F   UNL     1      -5.134  14.973  68.501  1.00  0.00    -0.084 F  
HETATM   20  C   UNL     1      -9.439  14.199  66.460  1.00  0.00    -0.303 A  
HETATM   21  C   UNL     1      -9.497  15.543  66.079  1.00  0.00    -0.387 A  
ENDBRANCH  10  12
ENDBRANCH   9  10
TORSDOF 2
ENDMDL
MODEL      203
REMARK 921   NORMALIZED FREE ENERGY PREDICTED BY IDOCK:   -4.32 KCAL/MOL
REMARK 922        TOTAL FREE ENERGY PREDICTED BY IDOCK:   -5.23 KCAL/MOL
REMARK 923 INTER-LIGAND FREE ENERGY PREDICTED BY IDOCK:   -4.90 KCAL/MOL
REMARK 924 INTRA-LIGAND FREE ENERGY PREDICTED BY IDOCK:   -0.33 KCAL/MOL
REMARK 927      BINDING AFFINITY PREDICTED BY RF-SCORE:    0.00 PKD
ROOT
HETATM    1  O   UNL     1      -9.261   7.355  70.514  1.00  0.00    -0.157 OA 
HETATM    2  C   UNL     1     -10.256   7.213  71.416  1.00  0.00    -0.192 C  
HETATM    3  C   UNL     1     -11.253   8.324  71.418  1.00  0.00    -0.304 A  
HETATM    4  O   UNL     1     -10.340   6.245  72.151  1.00  0.00    -0.188 OA 
HETATM    5  C   UNL     1     -12.501   8.024  71.998  1.00  0.00    -0.357 A  
HETATM    6  C   UNL     1     -13.493   8.996  72.104  1.00  0.00    -0.514 A  
HETATM    7  C   UNL     1     -13.239  10.288  71.669  1.00  0.00    -0.509 A  
HETATM    8  C   UNL     1     -12.006  10.600  71.092  1.00  0.00    -0.401 A  
HETATM    9  C   UNL     1     -11.011   9.621  70.910  1.00  0.00    -0.342 A  
ENDROOT
BRANCH   9  10
HETATM   10  N   UNL     1      -9.754   9.975  70.322  1.00  0.00    -0.395 NA 
HETATM   11  H   UNL     1      -8.932   9.965  70.925  1.00  0.00     0.000 HD 
BRANCH  10  12
HETATM   12  C   UNL     1      -9.566  10.341  68.956  1.00  0.00    -0.203 A  
HETATM   13  C   UNL     1      -8.866   9.515  68.060  1.00  0.00    -0.123 A  
HETATM   14  C   UNL     1      -8.731   9.855  66.703  1.00  0.00    -0.138 A  
HETATM   15  C   UNL     1      -7.990   8.962  65.738  1.00  0.00    -0.101 C  
HETATM   16  C   UNL     1      -9.298  11.053  66.247  1.00  0.00    -0.206 A  
HETATM   17  F   UNL     1      -8.792   8.481  64.749  1.00  0.00    -0.187 F  
HETATM   18  F   UNL     1      -6.971   9.612  65.110  1.00  0.00    -0.089 F  
HETATM   19  F   UNL     1      -7.428   7.869  66.326  1.00  0.00    -0.074 F  
HETATM   20  C   UNL     1      -9.927  11.917  67.141  1.00  0.00    -0.209 A  
HETATM   21  C   UNL     1     -10.038  11.574  68.492  1.00  0.00    -0.211 A  
ENDBRANCH  10  12
ENDBRANCH   9  10
TORSDOF 2
ENDMDL
MODEL      204
REMARK 921   NORMALIZED FREE ENERGY PREDICTED BY IDOCK:   -4.31 KCAL/MOL
REMARK 922        TOTAL FREE ENERGY PREDICTED BY IDOCK:   -5.22 KCAL/MOL
REMARK 923 INTER-LIGAND FREE ENERGY PREDICTED BY IDOCK:   -4.55 KCAL/MOL
REMARK 924 INTRA-LIGAND FREE ENERGY PREDICTED BY IDOCK:   -0.67 KCAL/MOL
REMARK 927      BINDING AFFINITY PREDICTED BY RF-SCORE:    0.00 PKD
ROOT
HETATM    1  O   UNL     1      -8.004   7.507  72.310  1.00  0.00    -0.096 OA 
HETATM    2  C   UNL     1      -8.686   6.352  72.462  1.00  0.00    -0.123 C  
HETATM    3  C   UNL     1      -8.929   5.605  71.192  1.00  0.00    -0.148 A  
HETATM    4  O   UNL     1      -9.053   5.945  73.551  1.00  0.00    -0.132 OA 
HETATM    5  C   UNL     1      -9.228   4.236  71.336  1.00  0.00    -0.194 A  
HETATM    6  C   UNL     1      -9.523   3.448  70.226  1.00  0.00    -0.247 A  
HETATM    7  C   UNL     1      -9.563   4.023  68.964  1.00  0.00    -0.223 A  
HETATM    8  C   UNL     1      -9.269   5.379  68.808  1.00  0.00    -0.148 A  
HETATM    9  C   UNL     1      -8.900   6.183  69.903  1.00  0.00    -0.140 A  
ENDROOT
BRANCH   9  10
HETATM   10  N   UNL     1      -8.612   7.572  69.708  1.00  0.00    -0.139 NA 
HETATM   11  H   UNL     1      -7.639   7.869  69.795  1.00  0.00     0.000 HD 
BRANCH  10  12
HETATM   12  C   UNL     1      -9.581   8.573  69.402  1.00  0.00    -0.170 A  
HETATM   13  C   UNL     1     -10.510   9.019  70.357  1.00  0.00    -0.254 A  
HETATM   14  C   UNL     1     -11.426  10.045  70.065  1.00  0.00    -0.310 A  
HETATM   15  C   UNL     1     -12.415  10.531  71.096  1.00  0.00    -0.412 C  
HETATM   16  C   UNL     1     -11.414  10.617  68.786  1.00  0.00    -0.330 A  
HETATM   17  F   UNL     1     -12.227  11.839  71.425  1.00  0.00    -0.348 F  
HETATM   18  F   UNL     1     -13.703  10.438  70.662  1.00  0.00    -0.267 F  
HETATM   19  F   UNL     1     -12.368   9.841  72.270  1.00  0.00    -0.404 F  
HETATM   20  C   UNL     1     -10.551  10.130  67.807  1.00  0.00    -0.304 A  
HETATM   21  C   UNL     1      -9.657   9.098  68.107  1.00  0.00    -0.160 A  
ENDBRANCH  10  12
ENDBRANCH   9  10
TORSDOF 2
ENDMDL
MODEL      205
REMARK 921   NORMALIZED FREE ENERGY PREDICTED BY IDOCK:   -4.31 KCAL/MOL
REMARK 922        TOTAL FREE ENERGY PREDICTED BY IDOCK:   -5.21 KCAL/MOL
REMARK 923 INTER-LIGAND FREE ENERGY PREDICTED BY IDOCK:   -4.81 KCAL/MOL
REMARK 924 INTRA-LIGAND FREE ENERGY PREDICTED BY IDOCK:   -0.41 KCAL/MOL
REMARK 927      BINDING AFFINITY PREDICTED BY RF-SCORE:    0.00 PKD
ROOT
HETATM    1  O   UNL     1      -9.950  12.680  68.194  1.00  0.00    -0.214 OA 
HETATM    2  C   UNL     1      -9.513  13.917  67.875  1.00  0.00    -0.212 C  
HETATM    3  C   UNL     1     -10.252  14.563  66.749  1.00  0.00    -0.266 A  
HETATM    4  O   UNL     1      -8.605  14.466  68.473  1.00  0.00    -0.168 OA 
HETATM    5  C   UNL     1     -10.143  15.965  66.671  1.00  0.00    -0.287 A  
HETATM    6  C   UNL     1     -10.746  16.673  65.634  1.00  0.00    -0.222 A  
HETATM    7  C   UNL     1     -11.431  15.988  64.641  1.00  0.00    -0.252 A  
HETATM    8  C   UNL     1     -11.547  14.598  64.706  1.00  0.00    -0.418 A  
HETATM    9  C   UNL     1     -11.006  13.864  65.779  1.00  0.00    -0.285 A  
ENDROOT
BRANCH   9  10
HETATM   10  N   UNL     1     -11.137  12.438  65.811  1.00  0.00    -0.303 NA 
HETATM   11  H   UNL     1     -11.790  12.040  66.486  1.00  0.00     0.000 HD 
BRANCH  10  12
HETATM   12  C   UNL     1     -10.424  11.533  64.971  1.00  0.00    -0.290 A  
HETATM   13  C   UNL     1      -9.556  10.562  65.499  1.00  0.00    -0.282 A  
HETATM   14  C   UNL     1      -8.899   9.637  64.669  1.00  0.00    -0.253 A  
HETATM   15  C   UNL     1      -7.978   8.586  65.239  1.00  0.00    -0.120 C  
HETATM   16  C   UNL     1      -9.108   9.705  63.285  1.00  0.00    -0.223 A  
HETATM   17  F   UNL     1      -8.422   7.320  65.006  1.00  0.00    -0.137 F  
HETATM   18  F   UNL     1      -6.728   8.648  64.702  1.00  0.00    -0.067 F  
HETATM   19  F   UNL     1      -7.808   8.680  66.588  1.00  0.00    -0.092 F  
HETATM   20  C   UNL     1      -9.903  10.711  62.743  1.00  0.00    -0.220 A  
HETATM   21  C   UNL     1     -10.537  11.635  63.580  1.00  0.00    -0.496 A  
ENDBRANCH  10  12
ENDBRANCH   9  10
TORSDOF 2
ENDMDL
MODEL      206
REMARK 921   NORMALIZED FREE ENERGY PREDICTED BY IDOCK:   -4.29 KCAL/MOL
REMARK 922        TOTAL FREE ENERGY PREDICTED BY IDOCK:   -5.20 KCAL/MOL
REMARK 923 INTER-LIGAND FREE ENERGY PREDICTED BY IDOCK:   -4.69 KCAL/MOL
REMARK 924 INTRA-LIGAND FREE ENERGY PREDICTED BY IDOCK:   -0.51 KCAL/MOL
REMARK 927      BINDING AFFINITY PREDICTED BY RF-SCORE:    0.00 PKD
ROOT
HETATM    1  O   UNL     1      -8.250   9.762  70.730  1.00  0.00    -0.251 OA 
HETATM    2  C   UNL     1      -8.559   8.638  70.049  1.00  0.00    -0.132 C  
HETATM    3  C   UNL     1      -9.007   8.870  68.643  1.00  0.00    -0.137 A  
HETATM    4  O   UNL     1      -8.458   7.526  70.537  1.00  0.00    -0.129 OA 
HETATM    5  C   UNL     1      -8.915   7.760  67.781  1.00  0.00    -0.128 A  
HETATM    6  C   UNL     1      -9.352   7.841  66.461  1.00  0.00    -0.243 A  
HETATM    7  C   UNL     1      -9.920   9.017  65.995  1.00  0.00    -0.246 A  
HETATM    8  C   UNL     1     -10.017  10.125  66.839  1.00  0.00    -0.259 A  
HETATM    9  C   UNL     1      -9.522  10.093  68.157  1.00  0.00    -0.142 A  
ENDROOT
BRANCH   9  10
HETATM   10  N   UNL     1      -9.644  11.245  68.998  1.00  0.00    -0.394 NA 
HETATM   11  H   UNL     1      -9.362  11.149  69.973  1.00  0.00     0.000 HD 
BRANCH  10  12
HETATM   12  C   UNL     1     -10.130  12.518  68.575  1.00  0.00    -0.181 A  
HETATM   13  C   UNL     1      -9.310  13.433  67.895  1.00  0.00    -0.216 A  
HETATM   14  C   UNL     1      -9.811  14.663  67.432  1.00  0.00    -0.222 A  
HETATM   15  C   UNL     1      -8.932  15.640  66.690  1.00  0.00    -0.284 C  
HETATM   16  C   UNL     1     -11.155  14.979  67.676  1.00  0.00    -0.317 A  
HETATM   17  F   UNL     1      -9.357  15.860  65.415  1.00  0.00    -0.298 F  
HETATM   18  F   UNL     1      -8.899  16.863  67.289  1.00  0.00    -0.189 F  
HETATM   19  F   UNL     1      -7.634  15.240  66.587  1.00  0.00    -0.204 F  
HETATM   20  C   UNL     1     -11.957  14.114  68.417  1.00  0.00    -0.366 A  
HETATM   21  C   UNL     1     -11.440  12.903  68.885  1.00  0.00    -0.350 A  
ENDBRANCH  10  12
ENDBRANCH   9  10
TORSDOF 2
ENDMDL
MODEL      207
REMARK 921   NORMALIZED FREE ENERGY PREDICTED BY IDOCK:   -4.28 KCAL/MOL
REMARK 922        TOTAL FREE ENERGY PREDICTED BY IDOCK:   -5.19 KCAL/MOL
REMARK 923 INTER-LIGAND FREE ENERGY PREDICTED BY IDOCK:   -4.57 KCAL/MOL
REMARK 924 INTRA-LIGAND FREE ENERGY PREDICTED BY IDOCK:   -0.62 KCAL/MOL
REMARK 927      BINDING AFFINITY PREDICTED BY RF-SCORE:    0.00 PKD
ROOT
HETATM    1  O   UNL     1      -9.940   5.049  69.287  1.00  0.00    -0.183 OA 
HETATM    2  C   UNL     1      -9.706   5.592  70.501  1.00  0.00    -0.183 C  
HETATM    3  C   UNL     1     -10.406   6.889  70.745  1.00  0.00    -0.223 A  
HETATM    4  O   UNL     1      -8.999   5.053  71.334  1.00  0.00    -0.131 OA 
HETATM    5  C   UNL     1     -10.552   7.259  72.096  1.00  0.00    -0.242 A  
HETATM    6  C   UNL     1     -11.142   8.472  72.445  1.00  0.00    -0.397 A  
HETATM    7  C   UNL     1     -11.557   9.346  71.451  1.00  0.00    -0.451 A  
HETATM    8  C   UNL     1     -11.418   8.991  70.108  1.00  0.00    -0.078 A  
HETATM    9  C   UNL     1     -10.888   7.743  69.728  1.00  0.00    -0.209 A  
ENDROOT
BRANCH   9  10
HETATM   10  N   UNL     1     -10.753   7.413  68.341  1.00  0.00    -0.378 NA 
HETATM   11  H   UNL     1     -11.334   6.658  67.977  1.00  0.00     0.000 HD 
BRANCH  10  12
HETATM   12  C   UNL     1      -9.867   8.061  67.430  1.00  0.00    -0.186 A  
HETATM   13  C   UNL     1     -10.323   9.026  66.516  1.00  0.00    -0.263 A  
HETATM   14  C   UNL     1      -9.436   9.700  65.658  1.00  0.00    -0.318 A  
HETATM   15  C   UNL     1      -9.926  10.745  64.685  1.00  0.00    -0.324 C  
HETATM   16  C   UNL     1      -8.072   9.384  65.714  1.00  0.00    -0.114 A  
HETATM   17  F   UNL     1      -9.409  11.979  64.940  1.00  0.00    -0.141 F  
HETATM   18  F   UNL     1      -9.584  10.455  63.399  1.00  0.00    -0.275 F  
HETATM   19  F   UNL     1     -11.279  10.901  64.684  1.00  0.00    -0.262 F  
HETATM   20  C   UNL     1      -7.619   8.375  66.560  1.00  0.00    -0.088 A  
HETATM   21  C   UNL     1      -8.515   7.701  67.395  1.00  0.00    -0.122 A  
ENDBRANCH  10  12
ENDBRANCH   9  10
TORSDOF 2
ENDMDL
MODEL      208
REMARK 921   NORMALIZED FREE ENERGY PREDICTED BY IDOCK:   -4.27 KCAL/MOL
REMARK 922        TOTAL FREE ENERGY PREDICTED BY IDOCK:   -5.17 KCAL/MOL
REMARK 923 INTER-LIGAND FREE ENERGY PREDICTED BY IDOCK:   -5.26 KCAL/MOL
REMARK 924 INTRA-LIGAND FREE ENERGY PREDICTED BY IDOCK:    0.09 KCAL/MOL
REMARK 927      BINDING AFFINITY PREDICTED BY RF-SCORE:    0.00 PKD
ROOT
HETATM    1  O   UNL     1      -8.401   9.395  68.024  1.00  0.00    -0.118 OA 
HETATM    2  C   UNL     1      -8.263   8.561  66.971  1.00  0.00    -0.107 C  
HETATM    3  C   UNL     1      -8.591   9.174  65.649  1.00  0.00    -0.178 A  
HETATM    4  O   UNL     1      -7.881   7.411  67.092  1.00  0.00    -0.112 OA 
HETATM    5  C   UNL     1      -8.058   8.519  64.522  1.00  0.00    -0.158 A  
HETATM    6  C   UNL     1      -8.338   8.967  63.234  1.00  0.00    -0.189 A  
HETATM    7  C   UNL     1      -9.184  10.052  63.052  1.00  0.00    -0.313 A  
HETATM    8  C   UNL     1      -9.720  10.711  64.161  1.00  0.00    -0.378 A  
HETATM    9  C   UNL     1      -9.398  10.321  65.475  1.00  0.00    -0.199 A  
ENDROOT
BRANCH   9  10
HETATM   10  N   UNL     1      -9.971  11.015  66.589  1.00  0.00    -0.203 NA 
HETATM   11  H   UNL     1      -9.809  10.627  67.519  1.00  0.00     0.000 HD 
BRANCH  10  12
HETATM   12  C   UNL     1     -10.748  12.207  66.498  1.00  0.00    -0.255 A  
HETATM   13  C   UNL     1     -10.578  13.271  67.399  1.00  0.00    -0.250 A  
HETATM   14  C   UNL     1     -11.309  14.465  67.270  1.00  0.00    -0.357 A  
HETATM   15  C   UNL     1     -11.115  15.613  68.231  1.00  0.00    -0.336 C  
HETATM   16  C   UNL     1     -12.236  14.579  66.226  1.00  0.00    -0.270 A  
HETATM   17  F   UNL     1     -10.643  16.733  67.619  1.00  0.00    -0.302 F  
HETATM   18  F   UNL     1     -12.278  15.980  68.838  1.00  0.00    -0.363 F  
HETATM   19  F   UNL     1     -10.239  15.341  69.238  1.00  0.00    -0.204 F  
HETATM   20  C   UNL     1     -12.471  13.503  65.374  1.00  0.00    -0.540 A  
HETATM   21  C   UNL     1     -11.749  12.315  65.525  1.00  0.00    -0.433 A  
ENDBRANCH  10  12
ENDBRANCH   9  10
TORSDOF 2
ENDMDL
MODEL      209
REMARK 921   NORMALIZED FREE ENERGY PREDICTED BY IDOCK:   -4.26 KCAL/MOL
REMARK 922        TOTAL FREE ENERGY PREDICTED BY IDOCK:   -5.16 KCAL/MOL
REMARK 923 INTER-LIGAND FREE ENERGY PREDICTED BY IDOCK:   -4.64 KCAL/MOL
REMARK 924 INTRA-LIGAND FREE ENERGY PREDICTED BY IDOCK:   -0.52 KCAL/MOL
REMARK 927      BINDING AFFINITY PREDICTED BY RF-SCORE:    0.00 PKD
ROOT
HETATM    1  O   UNL     1     -12.918   8.741  70.508  1.00  0.00     0.364 OA 
HETATM    2  C   UNL     1     -12.736   9.735  71.404  1.00  0.00    -0.387 C  
HETATM    3  C   UNL     1     -12.479  11.075  70.797  1.00  0.00    -0.491 A  
HETATM    4  O   UNL     1     -12.799   9.552  72.607  1.00  0.00    -0.261 OA 
HETATM    5  C   UNL     1     -12.719  12.181  71.636  1.00  0.00    -0.314 A  
HETATM    6  C   UNL     1     -12.466  13.479  71.198  1.00  0.00    -0.424 A  
HETATM    7  C   UNL     1     -11.935  13.687  69.934  1.00  0.00    -0.415 A  
HETATM    8  C   UNL     1     -11.693  12.599  69.092  1.00  0.00    -0.375 A  
HETATM    9  C   UNL     1     -12.003  11.283  69.483  1.00  0.00    -0.351 A  
ENDROOT
BRANCH   9  10
HETATM   10  N   UNL     1     -11.736  10.189  68.598  1.00  0.00    -0.607 NA 
HETATM   11  H   UNL     1     -12.498   9.869  68.001  1.00  0.00     0.000 HD 
BRANCH  10  12
HETATM   12  C   UNL     1     -10.484   9.515  68.488  1.00  0.00    -0.217 A  
HETATM   13  C   UNL     1      -9.316  10.023  69.081  1.00  0.00    -0.200 A  
HETATM   14  C   UNL     1      -8.097   9.325  69.016  1.00  0.00    -0.106 A  
HETATM   15  C   UNL     1      -6.846   9.865  69.664  1.00  0.00    -0.076 C  
HETATM   16  C   UNL     1      -8.054   8.105  68.327  1.00  0.00    -0.128 A  
HETATM   17  F   UNL     1      -6.378   9.054  70.652  1.00  0.00    -0.034 F  
HETATM   18  F   UNL     1      -5.822  10.003  68.777  1.00  0.00    -0.036 F  
HETATM   19  F   UNL     1      -7.011  11.091  70.235  1.00  0.00    -0.145 F  
HETATM   20  C   UNL     1      -9.186   7.629  67.669  1.00  0.00    -0.144 A  
HETATM   21  C   UNL     1     -10.387   8.343  67.729  1.00  0.00    -0.297 A  
ENDBRANCH  10  12
ENDBRANCH   9  10
TORSDOF 2
ENDMDL
MODEL      210
REMARK 921   NORMALIZED FREE ENERGY PREDICTED BY IDOCK:   -4.24 KCAL/MOL
REMARK 922        TOTAL FREE ENERGY PREDICTED BY IDOCK:   -5.14 KCAL/MOL
REMARK 923 INTER-LIGAND FREE ENERGY PREDICTED BY IDOCK:   -4.71 KCAL/MOL
REMARK 924 INTRA-LIGAND FREE ENERGY PREDICTED BY IDOCK:   -0.43 KCAL/MOL
REMARK 927      BINDING AFFINITY PREDICTED BY RF-SCORE:    0.00 PKD
ROOT
HETATM    1  O   UNL     1      -9.850   4.906  68.531  1.00  0.00    -0.152 OA 
HETATM    2  C   UNL     1     -10.052   5.566  67.371  1.00  0.00    -0.179 C  
HETATM    3  C   UNL     1      -9.342   6.876  67.273  1.00  0.00    -0.152 A  
HETATM    4  O   UNL     1     -10.741   5.117  66.472  1.00  0.00    -0.300 OA 
HETATM    5  C   UNL     1      -9.160   7.376  65.969  1.00  0.00    -0.129 A  
HETATM    6  C   UNL     1      -8.557   8.614  65.754  1.00  0.00    -0.184 A  
HETATM    7  C   UNL     1      -8.162   9.383  66.839  1.00  0.00    -0.116 A  
HETATM    8  C   UNL     1      -8.336   8.899  68.137  1.00  0.00    -0.125 A  
HETATM    9  C   UNL     1      -8.880   7.623  68.380  1.00  0.00    -0.130 A  
ENDROOT
BRANCH   9  10
HETATM   10  N   UNL     1      -9.051   7.160  69.724  1.00  0.00    -0.142 NA 
HETATM   11  H   UNL     1      -8.307   6.589  70.124  1.00  0.00     0.000 HD 
BRANCH  10  12
HETATM   12  C   UNL     1     -10.184   7.437  70.546  1.00  0.00    -0.193 A  
HETATM   13  C   UNL     1     -10.855   8.670  70.488  1.00  0.00    -0.257 A  
HETATM   14  C   UNL     1     -12.003   8.916  71.261  1.00  0.00    -0.365 A  
HETATM   15  C   UNL     1     -12.731  10.237  71.188  1.00  0.00    -0.403 C  
HETATM   16  C   UNL     1     -12.470   7.909  72.116  1.00  0.00    -0.304 A  
HETATM   17  F   UNL     1     -14.004  10.106  70.725  1.00  0.00    -0.223 F  
HETATM   18  F   UNL     1     -12.837  10.836  72.406  1.00  0.00    -0.444 F  
HETATM   19  F   UNL     1     -12.130  11.149  70.375  1.00  0.00    -0.347 F  
HETATM   20  C   UNL     1     -11.769   6.712  72.240  1.00  0.00    -0.305 A  
HETATM   21  C   UNL     1     -10.619   6.488  71.478  1.00  0.00    -0.265 A  
ENDBRANCH  10  12
ENDBRANCH   9  10
TORSDOF 2
ENDMDL
MODEL      211
REMARK 921   NORMALIZED FREE ENERGY PREDICTED BY IDOCK:   -4.21 KCAL/MOL
REMARK 922        TOTAL FREE ENERGY PREDICTED BY IDOCK:   -5.11 KCAL/MOL
REMARK 923 INTER-LIGAND FREE ENERGY PREDICTED BY IDOCK:   -4.48 KCAL/MOL
REMARK 924 INTRA-LIGAND FREE ENERGY PREDICTED BY IDOCK:   -0.62 KCAL/MOL
REMARK 927      BINDING AFFINITY PREDICTED BY RF-SCORE:    0.00 PKD
ROOT
HETATM    1  O   UNL     1      -9.754  10.466  65.651  1.00  0.00    -0.204 OA 
HETATM    2  C   UNL     1     -10.351  11.674  65.739  1.00  0.00    -0.249 C  
HETATM    3  C   UNL     1     -10.915  11.989  67.085  1.00  0.00    -0.320 A  
HETATM    4  O   UNL     1     -10.403  12.449  64.800  1.00  0.00    -0.283 OA 
HETATM    5  C   UNL     1     -11.140  13.354  67.349  1.00  0.00    -0.297 A  
HETATM    6  C   UNL     1     -11.712  13.765  68.551  1.00  0.00    -0.391 A  
HETATM    7  C   UNL     1     -12.100  12.818  69.488  1.00  0.00    -0.265 A  
HETATM    8  C   UNL     1     -11.882  11.462  69.239  1.00  0.00    -0.417 A  
HETATM    9  C   UNL     1     -11.245  11.023  68.063  1.00  0.00    -0.309 A  
ENDROOT
BRANCH   9  10
HETATM   10  N   UNL     1     -11.043   9.624  67.835  1.00  0.00    -0.508 NA 
HETATM   11  H   UNL     1     -11.473   9.214  67.006  1.00  0.00     0.000 HD 
BRANCH  10  12
HETATM   12  C   UNL     1     -10.286   8.759  68.681  1.00  0.00    -0.194 A  
HETATM   13  C   UNL     1      -9.075   9.170  69.263  1.00  0.00    -0.146 A  
HETATM   14  C   UNL     1      -8.362   8.333  70.139  1.00  0.00    -0.124 A  
HETATM   15  C   UNL     1      -7.069   8.780  70.775  1.00  0.00    -0.069 C  
HETATM   16  C   UNL     1      -8.871   7.057  70.417  1.00  0.00    -0.155 A  
HETATM   17  F   UNL     1      -7.150   8.850  72.132  1.00  0.00    -0.103 F  
HETATM   18  F   UNL     1      -6.039   7.930  70.506  1.00  0.00    -0.032 F  
HETATM   19  F   UNL     1      -6.653  10.010  70.363  1.00  0.00    -0.077 F  
HETATM   20  C   UNL     1     -10.028   6.609  69.785  1.00  0.00    -0.189 A  
HETATM   21  C   UNL     1     -10.718   7.446  68.903  1.00  0.00    -0.152 A  
ENDBRANCH  10  12
ENDBRANCH   9  10
TORSDOF 2
ENDMDL
MODEL      212
REMARK 921   NORMALIZED FREE ENERGY PREDICTED BY IDOCK:   -4.20 KCAL/MOL
REMARK 922        TOTAL FREE ENERGY PREDICTED BY IDOCK:   -5.09 KCAL/MOL
REMARK 923 INTER-LIGAND FREE ENERGY PREDICTED BY IDOCK:   -4.56 KCAL/MOL
REMARK 924 INTRA-LIGAND FREE ENERGY PREDICTED BY IDOCK:   -0.53 KCAL/MOL
REMARK 927      BINDING AFFINITY PREDICTED BY RF-SCORE:    0.00 PKD
ROOT
HETATM    1  O   UNL     1      -6.562  12.987  67.459  1.00  0.00    -0.151 OA 
HETATM    2  C   UNL     1      -6.946  11.906  66.746  1.00  0.00    -0.003 C  
HETATM    3  C   UNL     1      -8.416  11.820  66.496  1.00  0.00    -0.125 A  
HETATM    4  O   UNL     1      -6.152  11.084  66.325  1.00  0.00    -0.124 OA 
HETATM    5  C   UNL     1      -8.806  10.993  65.425  1.00  0.00    -0.157 A  
HETATM    6  C   UNL     1     -10.152  10.792  65.129  1.00  0.00    -0.363 A  
HETATM    7  C   UNL     1     -11.125  11.384  65.920  1.00  0.00    -0.225 A  
HETATM    8  C   UNL     1     -10.753  12.206  66.986  1.00  0.00    -0.272 A  
HETATM    9  C   UNL     1      -9.401  12.480  67.265  1.00  0.00    -0.190 A  
ENDROOT
BRANCH   9  10
HETATM   10  N   UNL     1      -9.053  13.322  68.370  1.00  0.00    -0.301 NA 
HETATM   11  H   UNL     1      -8.226  13.072  68.912  1.00  0.00     0.000 HD 
BRANCH  10  12
HETATM   12  C   UNL     1      -9.774  14.486  68.769  1.00  0.00    -0.210 A  
HETATM   13  C   UNL     1     -10.467  14.544  69.990  1.00  0.00     0.216 A  
HETATM   14  C   UNL     1     -11.130  15.713  70.403  1.00  0.00    -0.369 A  
HETATM   15  C   UNL     1     -11.862  15.777  71.721  1.00  0.00    -0.467 C  
HETATM   16  C   UNL     1     -11.107  16.834  69.562  1.00  0.00    -0.053 A  
HETATM   17  F   UNL     1     -11.329  16.697  72.571  1.00  0.00    -0.365 F  
HETATM   18  F   UNL     1     -13.170  16.125  71.568  1.00  0.00    -0.468 F  
HETATM   19  F   UNL     1     -11.867  14.598  72.403  1.00  0.00    -0.379 F  
HETATM   20  C   UNL     1     -10.490  16.765  68.315  1.00  0.00    -0.341 A  
HETATM   21  C   UNL     1      -9.849  15.590  67.911  1.00  0.00    -0.216 A  
ENDBRANCH  10  12
ENDBRANCH   9  10
TORSDOF 2
ENDMDL
MODEL      213
REMARK 921   NORMALIZED FREE ENERGY PREDICTED BY IDOCK:   -4.20 KCAL/MOL
REMARK 922        TOTAL FREE ENERGY PREDICTED BY IDOCK:   -5.09 KCAL/MOL
REMARK 923 INTER-LIGAND FREE ENERGY PREDICTED BY IDOCK:   -4.51 KCAL/MOL
REMARK 924 INTRA-LIGAND FREE ENERGY PREDICTED BY IDOCK:   -0.58 KCAL/MOL
REMARK 927      BINDING AFFINITY PREDICTED BY RF-SCORE:    0.00 PKD
ROOT
HETATM    1  O   UNL     1     -10.628  14.699  65.661  1.00  0.00    -0.297 OA 
HETATM    2  C   UNL     1     -10.093  15.897  65.978  1.00  0.00    -0.337 C  
HETATM    3  C   UNL     1      -9.122  15.861  67.113  1.00  0.00    -0.226 A  
HETATM    4  O   UNL     1     -10.365  16.918  65.371  1.00  0.00    -0.609 OA 
HETATM    5  C   UNL     1      -8.233  16.950  67.192  1.00  0.00    -0.215 A  
HETATM    6  C   UNL     1      -7.318  17.053  68.236  1.00  0.00    -0.203 A  
HETATM    7  C   UNL     1      -7.304  16.090  69.235  1.00  0.00    -0.231 A  
HETATM    8  C   UNL     1      -8.179  15.005  69.169  1.00  0.00    -0.188 A  
HETATM    9  C   UNL     1      -9.068  14.841  68.089  1.00  0.00    -0.180 A  
ENDROOT
BRANCH   9  10
HETATM   10  N   UNL     1      -9.958  13.719  68.056  1.00  0.00    -0.239 NA 
HETATM   11  H   UNL     1     -10.958  13.909  68.114  1.00  0.00     0.000 HD 
BRANCH  10  12
HETATM   12  C   UNL     1      -9.551  12.356  67.947  1.00  0.00    -0.205 A  
HETATM   13  C   UNL     1      -9.878  11.407  68.930  1.00  0.00    -0.127 A  
HETATM   14  C   UNL     1      -9.522  10.055  68.790  1.00  0.00    -0.162 A  
HETATM   15  C   UNL     1      -9.884   9.034  69.841  1.00  0.00    -0.183 C  
HETATM   16  C   UNL     1      -8.812   9.658  67.649  1.00  0.00    -0.127 A  
HETATM   17  F   UNL     1     -10.721   8.070  69.367  1.00  0.00    -0.226 F  
HETATM   18  F   UNL     1      -8.792   8.376  70.322  1.00  0.00    -0.130 F  
HETATM   19  F   UNL     1     -10.507   9.566  70.929  1.00  0.00    -0.299 F  
HETATM   20  C   UNL     1      -8.415  10.602  66.705  1.00  0.00    -0.134 A  
HETATM   21  C   UNL     1      -8.761  11.947  66.866  1.00  0.00    -0.191 A  
ENDBRANCH  10  12
ENDBRANCH   9  10
TORSDOF 2
ENDMDL
MODEL      214
REMARK 921   NORMALIZED FREE ENERGY PREDICTED BY IDOCK:   -4.16 KCAL/MOL
REMARK 922        TOTAL FREE ENERGY PREDICTED BY IDOCK:   -5.05 KCAL/MOL
REMARK 923 INTER-LIGAND FREE ENERGY PREDICTED BY IDOCK:   -4.37 KCAL/MOL
REMARK 924 INTRA-LIGAND FREE ENERGY PREDICTED BY IDOCK:   -0.68 KCAL/MOL
REMARK 927      BINDING AFFINITY PREDICTED BY RF-SCORE:    0.00 PKD
ROOT
HETATM    1  O   UNL     1      -8.461  10.669  63.920  1.00  0.00    -0.148 OA 
HETATM    2  C   UNL     1      -9.708  11.151  64.109  1.00  0.00    -0.276 C  
HETATM    3  C   UNL     1      -9.965  11.681  65.482  1.00  0.00    -0.277 A  
HETATM    4  O   UNL     1     -10.544  11.171  63.223  1.00  0.00    -0.343 OA 
HETATM    5  C   UNL     1     -11.054  12.567  65.600  1.00  0.00    -0.338 A  
HETATM    6  C   UNL     1     -11.422  13.085  66.840  1.00  0.00    -0.387 A  
HETATM    7  C   UNL     1     -10.735  12.696  67.980  1.00  0.00    -0.243 A  
HETATM    8  C   UNL     1      -9.654  11.818  67.876  1.00  0.00    -0.187 A  
HETATM    9  C   UNL     1      -9.217  11.333  66.629  1.00  0.00    -0.180 A  
ENDROOT
BRANCH   9  10
HETATM   10  N   UNL     1      -8.109  10.428  66.559  1.00  0.00    -0.118 NA 
HETATM   11  H   UNL     1      -7.230  10.787  66.186  1.00  0.00     0.000 HD 
BRANCH  10  12
HETATM   12  C   UNL     1      -8.141   9.064  66.972  1.00  0.00    -0.106 A  
HETATM   13  C   UNL     1      -9.300   8.280  66.845  1.00  0.00    -0.222 A  
HETATM   14  C   UNL     1      -9.309   6.920  67.203  1.00  0.00    -0.162 A  
HETATM   15  C   UNL     1     -10.552   6.077  67.054  1.00  0.00    -0.316 C  
HETATM   16  C   UNL     1      -8.135   6.349  67.712  1.00  0.00    -0.115 A  
HETATM   17  F   UNL     1     -10.385   5.054  66.170  1.00  0.00    -0.208 F  
HETATM   18  F   UNL     1     -10.927   5.498  68.228  1.00  0.00    -0.260 F  
HETATM   19  F   UNL     1     -11.638   6.773  66.618  1.00  0.00    -0.328 F  
HETATM   20  C   UNL     1      -7.003   7.134  67.915  1.00  0.00    -0.080 A  
HETATM   21  C   UNL     1      -7.014   8.489  67.571  1.00  0.00    -0.079 A  
ENDBRANCH  10  12
ENDBRANCH   9  10
TORSDOF 2
ENDMDL
MODEL      215
REMARK 921   NORMALIZED FREE ENERGY PREDICTED BY IDOCK:   -4.16 KCAL/MOL
REMARK 922        TOTAL FREE ENERGY PREDICTED BY IDOCK:   -5.05 KCAL/MOL
REMARK 923 INTER-LIGAND FREE ENERGY PREDICTED BY IDOCK:   -4.75 KCAL/MOL
REMARK 924 INTRA-LIGAND FREE ENERGY PREDICTED BY IDOCK:   -0.30 KCAL/MOL
REMARK 927      BINDING AFFINITY PREDICTED BY RF-SCORE:    0.00 PKD
ROOT
HETATM    1  O   UNL     1      -8.695  11.215  68.488  1.00  0.00    -0.150 OA 
HETATM    2  C   UNL     1      -9.885  11.029  67.877  1.00  0.00    -0.171 C  
HETATM    3  C   UNL     1     -10.517  12.278  67.357  1.00  0.00    -0.228 A  
HETATM    4  O   UNL     1     -10.388   9.927  67.744  1.00  0.00    -0.191 OA 
HETATM    5  C   UNL     1     -11.496  12.099  66.361  1.00  0.00    -0.430 A  
HETATM    6  C   UNL     1     -12.191  13.186  65.836  1.00  0.00    -0.497 A  
HETATM    7  C   UNL     1     -11.944  14.461  66.326  1.00  0.00    -0.391 A  
HETATM    8  C   UNL     1     -10.976  14.652  67.314  1.00  0.00    -0.317 A  
HETATM    9  C   UNL     1     -10.212  13.581  67.813  1.00  0.00    -0.242 A  
ENDROOT
BRANCH   9  10
HETATM   10  N   UNL     1      -9.231  13.811  68.831  1.00  0.00    -0.397 NA 
HETATM   11  H   UNL     1      -9.400  13.402  69.750  1.00  0.00     0.000 HD 
BRANCH  10  12
HETATM   12  C   UNL     1      -8.035  14.569  68.657  1.00  0.00    -0.145 A  
HETATM   13  C   UNL     1      -7.941  15.592  67.698  1.00  0.00    -0.168 A  
HETATM   14  C   UNL     1      -6.778  16.371  67.570  1.00  0.00    -0.181 A  
HETATM   15  C   UNL     1      -6.683  17.478  66.548  1.00  0.00    -0.241 C  
HETATM   16  C   UNL     1      -5.690  16.103  68.411  1.00  0.00    -0.108 A  
HETATM   17  F   UNL     1      -6.520  18.703  67.119  1.00  0.00    -0.181 F  
HETATM   18  F   UNL     1      -5.625  17.315  65.706  1.00  0.00    -0.197 F  
HETATM   19  F   UNL     1      -7.782  17.582  65.750  1.00  0.00    -0.294 F  
HETATM   20  C   UNL     1      -5.742  15.042  69.311  1.00  0.00    -0.095 A  
HETATM   21  C   UNL     1      -6.899  14.264  69.416  1.00  0.00    -0.122 A  
ENDBRANCH  10  12
ENDBRANCH   9  10
TORSDOF 2
ENDMDL
MODEL      216
REMARK 921   NORMALIZED FREE ENERGY PREDICTED BY IDOCK:   -4.13 KCAL/MOL
REMARK 922        TOTAL FREE ENERGY PREDICTED BY IDOCK:   -5.01 KCAL/MOL
REMARK 923 INTER-LIGAND FREE ENERGY PREDICTED BY IDOCK:   -4.62 KCAL/MOL
REMARK 924 INTRA-LIGAND FREE ENERGY PREDICTED BY IDOCK:   -0.39 KCAL/MOL
REMARK 927      BINDING AFFINITY PREDICTED BY RF-SCORE:    0.00 PKD
ROOT
HETATM    1  O   UNL     1     -11.751  14.748  68.346  1.00  0.00    -0.307 OA 
HETATM    2  C   UNL     1     -10.618  15.445  68.576  1.00  0.00    -0.240 C  
HETATM    3  C   UNL     1      -9.363  14.729  68.195  1.00  0.00    -0.197 A  
HETATM    4  O   UNL     1     -10.623  16.572  69.037  1.00  0.00    -0.280 OA 
HETATM    5  C   UNL     1      -8.230  15.542  68.002  1.00  0.00    -0.146 A  
HETATM    6  C   UNL     1      -6.992  14.984  67.695  1.00  0.00    -0.205 A  
HETATM    7  C   UNL     1      -6.860  13.605  67.615  1.00  0.00    -0.185 A  
HETATM    8  C   UNL     1      -7.976  12.787  67.804  1.00  0.00    -0.157 A  
HETATM    9  C   UNL     1      -9.252  13.328  68.048  1.00  0.00    -0.217 A  
ENDROOT
BRANCH   9  10
HETATM   10  N   UNL     1     -10.374  12.460  68.244  1.00  0.00    -0.222 NA 
HETATM   11  H   UNL     1     -11.297  12.889  68.314  1.00  0.00     0.000 HD 
BRANCH  10  12
HETATM   12  C   UNL     1     -10.300  11.039  68.350  1.00  0.00    -0.183 A  
HETATM   13  C   UNL     1     -10.345  10.387  69.593  1.00  0.00    -0.261 A  
HETATM   14  C   UNL     1     -10.327   8.984  69.687  1.00  0.00    -0.217 A  
HETATM   15  C   UNL     1     -10.389   8.285  71.023  1.00  0.00    -0.191 C  
HETATM   16  C   UNL     1     -10.245   8.230  68.509  1.00  0.00    -0.234 A  
HETATM   17  F   UNL     1     -11.503   7.515  71.159  1.00  0.00    -0.260 F  
HETATM   18  F   UNL     1      -9.331   7.449  71.218  1.00  0.00    -0.151 F  
HETATM   19  F   UNL     1     -10.391   9.136  72.087  1.00  0.00    -0.403 F  
HETATM   20  C   UNL     1     -10.121   8.866  67.275  1.00  0.00    -0.303 A  
HETATM   21  C   UNL     1     -10.124  10.262  67.199  1.00  0.00    -0.259 A  
ENDBRANCH  10  12
ENDBRANCH   9  10
TORSDOF 2
ENDMDL
MODEL      217
REMARK 921   NORMALIZED FREE ENERGY PREDICTED BY IDOCK:   -4.11 KCAL/MOL
REMARK 922        TOTAL FREE ENERGY PREDICTED BY IDOCK:   -5.00 KCAL/MOL
REMARK 923 INTER-LIGAND FREE ENERGY PREDICTED BY IDOCK:   -4.29 KCAL/MOL
REMARK 924 INTRA-LIGAND FREE ENERGY PREDICTED BY IDOCK:   -0.70 KCAL/MOL
REMARK 927      BINDING AFFINITY PREDICTED BY RF-SCORE:    0.00 PKD
ROOT
HETATM    1  O   UNL     1      -7.581   6.578  71.557  1.00  0.00    -0.091 OA 
HETATM    2  C   UNL     1      -8.327   7.621  71.979  1.00  0.00    -0.110 C  
HETATM    3  C   UNL     1      -9.796   7.460  71.762  1.00  0.00    -0.187 A  
HETATM    4  O   UNL     1      -7.840   8.602  72.513  1.00  0.00    -0.331 OA 
HETATM    5  C   UNL     1     -10.624   8.280  72.553  1.00  0.00    -0.407 A  
HETATM    6  C   UNL     1     -12.009   8.255  72.402  1.00  0.00    -0.447 A  
HETATM    7  C   UNL     1     -12.581   7.442  71.435  1.00  0.00    -0.405 A  
HETATM    8  C   UNL     1     -11.771   6.625  70.644  1.00  0.00    -0.452 A  
HETATM    9  C   UNL     1     -10.376   6.579  70.821  1.00  0.00    -0.204 A  
ENDROOT
BRANCH   9  10
HETATM   10  N   UNL     1      -9.574   5.734  69.988  1.00  0.00    -0.160 NA 
HETATM   11  H   UNL     1      -9.113   4.938  70.428  1.00  0.00     0.000 HD 
BRANCH  10  12
HETATM   12  C   UNL     1      -9.370   5.922  68.588  1.00  0.00    -0.117 A  
HETATM   13  C   UNL     1      -9.106   7.190  68.044  1.00  0.00    -0.132 A  
HETATM   14  C   UNL     1      -8.852   7.360  66.672  1.00  0.00    -0.157 A  
HETATM   15  C   UNL     1      -8.555   8.720  66.090  1.00  0.00    -0.146 C  
HETATM   16  C   UNL     1      -8.882   6.235  65.835  1.00  0.00    -0.148 A  
HETATM   17  F   UNL     1      -7.309   8.797  65.549  1.00  0.00    -0.080 F  
HETATM   18  F   UNL     1      -9.417   9.054  65.089  1.00  0.00    -0.278 F  
HETATM   19  F   UNL     1      -8.630   9.733  66.998  1.00  0.00    -0.122 F  
HETATM   20  C   UNL     1      -9.219   4.986  66.350  1.00  0.00    -0.139 A  
HETATM   21  C   UNL     1      -9.486   4.835  67.714  1.00  0.00    -0.180 A  
ENDBRANCH  10  12
ENDBRANCH   9  10
TORSDOF 2
ENDMDL
MODEL      218
REMARK 921   NORMALIZED FREE ENERGY PREDICTED BY IDOCK:   -4.09 KCAL/MOL
REMARK 922        TOTAL FREE ENERGY PREDICTED BY IDOCK:   -4.97 KCAL/MOL
REMARK 923 INTER-LIGAND FREE ENERGY PREDICTED BY IDOCK:   -4.58 KCAL/MOL
REMARK 924 INTRA-LIGAND FREE ENERGY PREDICTED BY IDOCK:   -0.39 KCAL/MOL
REMARK 927      BINDING AFFINITY PREDICTED BY RF-SCORE:    0.00 PKD
ROOT
HETATM    1  O   UNL     1      -9.027  10.714  63.950  1.00  0.00    -0.185 OA 
HETATM    2  C   UNL     1     -10.236  11.303  64.072  1.00  0.00    -0.348 C  
HETATM    3  C   UNL     1     -10.681  11.516  65.482  1.00  0.00    -0.328 A  
HETATM    4  O   UNL     1     -10.897  11.650  63.109  1.00  0.00    -0.313 OA 
HETATM    5  C   UNL     1     -11.683  12.488  65.666  1.00  0.00    -0.473 A  
HETATM    6  C   UNL     1     -12.214  12.738  66.929  1.00  0.00    -0.109 A  
HETATM    7  C   UNL     1     -11.780  11.995  68.017  1.00  0.00    -0.398 A  
HETATM    8  C   UNL     1     -10.786  11.029  67.849  1.00  0.00    -0.285 A  
HETATM    9  C   UNL     1     -10.184  10.803  66.596  1.00  0.00    -0.233 A  
ENDROOT
BRANCH   9  10
HETATM   10  N   UNL     1      -9.172   9.799  66.457  1.00  0.00    -0.152 NA 
HETATM   11  H   UNL     1      -8.202  10.111  66.404  1.00  0.00     0.000 HD 
BRANCH  10  12
HETATM   12  C   UNL     1      -9.418   8.396  66.387  1.00  0.00    -0.227 A  
HETATM   13  C   UNL     1      -8.485   7.510  65.823  1.00  0.00    -0.151 A  
HETATM   14  C   UNL     1      -8.709   6.122  65.807  1.00  0.00    -0.151 A  
HETATM   15  C   UNL     1      -7.701   5.170  65.212  1.00  0.00    -0.087 C  
HETATM   16  C   UNL     1      -9.899   5.624  66.355  1.00  0.00    -0.184 A  
HETATM   17  F   UNL     1      -7.192   4.305  66.132  1.00  0.00    -0.068 F  
HETATM   18  F   UNL     1      -8.239   4.395  64.229  1.00  0.00    -0.089 F  
HETATM   19  F   UNL     1      -6.626   5.791  64.650  1.00  0.00    -0.037 F  
HETATM   20  C   UNL     1     -10.865   6.498  66.847  1.00  0.00    -0.427 A  
HETATM   21  C   UNL     1     -10.636   7.877  66.841  1.00  0.00    -0.333 A  
ENDBRANCH  10  12
ENDBRANCH   9  10
TORSDOF 2
ENDMDL
MODEL      219
REMARK 921   NORMALIZED FREE ENERGY PREDICTED BY IDOCK:   -4.06 KCAL/MOL
REMARK 922        TOTAL FREE ENERGY PREDICTED BY IDOCK:   -4.94 KCAL/MOL
REMARK 923 INTER-LIGAND FREE ENERGY PREDICTED BY IDOCK:   -5.02 KCAL/MOL
REMARK 924 INTRA-LIGAND FREE ENERGY PREDICTED BY IDOCK:    0.08 KCAL/MOL
REMARK 927      BINDING AFFINITY PREDICTED BY RF-SCORE:    0.00 PKD
ROOT
HETATM    1  O   UNL     1     -10.078   5.705  69.413  1.00  0.00    -0.183 OA 
HETATM    2  C   UNL     1     -10.047   5.837  68.070  1.00  0.00    -0.161 C  
HETATM    3  C   UNL     1      -9.670   7.201  67.591  1.00  0.00    -0.172 A  
HETATM    4  O   UNL     1     -10.286   4.912  67.314  1.00  0.00    -0.183 OA 
HETATM    5  C   UNL     1      -9.203   7.275  66.264  1.00  0.00    -0.175 A  
HETATM    6  C   UNL     1      -8.871   8.500  65.690  1.00  0.00    -0.214 A  
HETATM    7  C   UNL     1      -9.037   9.668  66.419  1.00  0.00    -0.191 A  
HETATM    8  C   UNL     1      -9.498   9.609  67.735  1.00  0.00    -0.146 A  
HETATM    9  C   UNL     1      -9.776   8.380  68.363  1.00  0.00    -0.156 A  
ENDROOT
BRANCH   9  10
HETATM   10  N   UNL     1     -10.255   8.355  69.712  1.00  0.00    -0.202 NA 
HETATM   11  H   UNL     1      -9.964   7.575  70.302  1.00  0.00     0.000 HD 
BRANCH  10  12
HETATM   12  C   UNL     1     -11.107   9.339  70.295  1.00  0.00    -0.251 A  
HETATM   13  C   UNL     1     -11.008  10.698  69.955  1.00  0.00    -0.337 A  
HETATM   14  C   UNL     1     -11.887  11.655  70.491  1.00  0.00    -0.328 A  
HETATM   15  C   UNL     1     -11.787  13.113  70.114  1.00  0.00    -0.257 C  
HETATM   16  C   UNL     1     -12.870  11.235  71.398  1.00  0.00    -0.515 A  
HETATM   17  F   UNL     1     -12.903  13.565  69.478  1.00  0.00    -0.136 F  
HETATM   18  F   UNL     1     -11.625  13.918  71.201  1.00  0.00    -0.276 F  
HETATM   19  F   UNL     1     -10.745  13.394  69.284  1.00  0.00    -0.226 F  
HETATM   20  C   UNL     1     -12.929   9.903  71.803  1.00  0.00    -0.549 A  
HETATM   21  C   UNL     1     -12.037   8.966  71.274  1.00  0.00    -0.360 A  
ENDBRANCH  10  12
ENDBRANCH   9  10
TORSDOF 2
ENDMDL
MODEL      220
REMARK 921   NORMALIZED FREE ENERGY PREDICTED BY IDOCK:   -4.03 KCAL/MOL
REMARK 922        TOTAL FREE ENERGY PREDICTED BY IDOCK:   -4.90 KCAL/MOL
REMARK 923 INTER-LIGAND FREE ENERGY PREDICTED BY IDOCK:   -4.61 KCAL/MOL
REMARK 924 INTRA-LIGAND FREE ENERGY PREDICTED BY IDOCK:   -0.30 KCAL/MOL
REMARK 927      BINDING AFFINITY PREDICTED BY RF-SCORE:    0.00 PKD
ROOT
HETATM    1  O   UNL     1     -11.261  10.394  68.547  1.00  0.00    -0.262 OA 
HETATM    2  C   UNL     1     -11.076  10.850  67.290  1.00  0.00    -0.283 C  
HETATM    3  C   UNL     1     -10.051  10.100  66.503  1.00  0.00    -0.296 A  
HETATM    4  O   UNL     1     -11.710  11.784  66.832  1.00  0.00    -0.557 OA 
HETATM    5  C   UNL     1     -10.134  10.238  65.104  1.00  0.00    -0.355 A  
HETATM    6  C   UNL     1      -9.202   9.627  64.269  1.00  0.00    -0.235 A  
HETATM    7  C   UNL     1      -8.154   8.904  64.820  1.00  0.00    -0.144 A  
HETATM    8  C   UNL     1      -8.061   8.759  66.205  1.00  0.00    -0.107 A  
HETATM    9  C   UNL     1      -9.027   9.308  67.070  1.00  0.00    -0.126 A  
ENDROOT
BRANCH   9  10
HETATM   10  N   UNL     1      -8.897   9.146  68.486  1.00  0.00    -0.129 NA 
HETATM   11  H   UNL     1      -8.443   9.897  69.007  1.00  0.00     0.000 HD 
BRANCH  10  12
HETATM   12  C   UNL     1      -9.356   8.016  69.226  1.00  0.00    -0.151 A  
HETATM   13  C   UNL     1      -9.546   8.070  70.617  1.00  0.00    -0.172 A  
HETATM   14  C   UNL     1     -10.050   6.969  71.331  1.00  0.00    -0.197 A  
HETATM   15  C   UNL     1     -10.266   7.033  72.823  1.00  0.00    -0.201 C  
HETATM   16  C   UNL     1     -10.351   5.792  70.633  1.00  0.00    -0.310 A  
HETATM   17  F   UNL     1     -11.574   6.882  73.169  1.00  0.00    -0.185 F  
HETATM   18  F   UNL     1      -9.590   6.053  73.486  1.00  0.00    -0.138 F  
HETATM   19  F   UNL     1      -9.864   8.207  73.385  1.00  0.00    -0.349 F  
HETATM   20  C   UNL     1     -10.094   5.700  69.267  1.00  0.00    -0.281 A  
HETATM   21  C   UNL     1      -9.576   6.797  68.573  1.00  0.00    -0.130 A  
ENDBRANCH  10  12
ENDBRANCH   9  10
TORSDOF 2
ENDMDL
MODEL      221
REMARK 921   NORMALIZED FREE ENERGY PREDICTED BY IDOCK:   -4.03 KCAL/MOL
REMARK 922        TOTAL FREE ENERGY PREDICTED BY IDOCK:   -4.90 KCAL/MOL
REMARK 923 INTER-LIGAND FREE ENERGY PREDICTED BY IDOCK:   -4.53 KCAL/MOL
REMARK 924 INTRA-LIGAND FREE ENERGY PREDICTED BY IDOCK:   -0.38 KCAL/MOL
REMARK 927      BINDING AFFINITY PREDICTED BY RF-SCORE:    0.00 PKD
ROOT
HETATM    1  O   UNL     1     -13.029  10.635  70.649  1.00  0.00    -0.345 OA 
HETATM    2  C   UNL     1     -12.903   9.407  71.197  1.00  0.00    -0.251 C  
HETATM    3  C   UNL     1     -11.492   8.955  71.384  1.00  0.00    -0.381 A  
HETATM    4  O   UNL     1     -13.863   8.736  71.529  1.00  0.00    -0.379 OA 
HETATM    5  C   UNL     1     -11.300   7.921  72.321  1.00  0.00    -0.393 A  
HETATM    6  C   UNL     1     -10.036   7.382  72.543  1.00  0.00    -0.228 A  
HETATM    7  C   UNL     1      -8.954   7.840  71.806  1.00  0.00    -0.155 A  
HETATM    8  C   UNL     1      -9.129   8.865  70.874  1.00  0.00    -0.283 A  
HETATM    9  C   UNL     1     -10.383   9.475  70.679  1.00  0.00    -0.302 A  
ENDROOT
BRANCH   9  10
HETATM   10  N   UNL     1     -10.530  10.519  69.710  1.00  0.00    -0.376 NA 
HETATM   11  H   UNL     1     -10.585  11.478  70.054  1.00  0.00     0.000 HD 
BRANCH  10  12
HETATM   12  C   UNL     1     -10.603  10.321  68.299  1.00  0.00    -0.221 A  
HETATM   13  C   UNL     1     -11.304  11.207  67.464  1.00  0.00    -0.351 A  
HETATM   14  C   UNL     1     -11.326  11.036  66.069  1.00  0.00     0.197 A  
HETATM   15  C   UNL     1     -12.069  11.996  65.171  1.00  0.00    -0.094 C  
HETATM   16  C   UNL     1     -10.646   9.945  65.511  1.00  0.00     0.303 A  
HETATM   17  F   UNL     1     -11.243  12.650  64.309  1.00  0.00    -0.321 F  
HETATM   18  F   UNL     1     -12.995  11.367  64.395  1.00  0.00     0.102 F  
HETATM   19  F   UNL     1     -12.746  12.965  65.847  1.00  0.00    -0.443 F  
HETATM   20  C   UNL     1     -10.013   9.017  66.334  1.00  0.00    -0.370 A  
HETATM   21  C   UNL     1     -10.013   9.190  67.721  1.00  0.00    -0.236 A  
ENDBRANCH  10  12
ENDBRANCH   9  10
TORSDOF 2
ENDMDL
MODEL      222
REMARK 921   NORMALIZED FREE ENERGY PREDICTED BY IDOCK:   -4.02 KCAL/MOL
REMARK 922        TOTAL FREE ENERGY PREDICTED BY IDOCK:   -4.89 KCAL/MOL
REMARK 923 INTER-LIGAND FREE ENERGY PREDICTED BY IDOCK:   -4.33 KCAL/MOL
REMARK 924 INTRA-LIGAND FREE ENERGY PREDICTED BY IDOCK:   -0.56 KCAL/MOL
REMARK 927      BINDING AFFINITY PREDICTED BY RF-SCORE:    0.00 PKD
ROOT
HETATM    1  O   UNL     1     -10.795   6.749  69.464  1.00  0.00    -0.238 OA 
HETATM    2  C   UNL     1     -11.314   7.084  70.665  1.00  0.00    -0.307 C  
HETATM    3  C   UNL     1     -11.810   8.490  70.755  1.00  0.00    -0.184 A  
HETATM    4  O   UNL     1     -11.388   6.294  71.589  1.00  0.00    -0.272 OA 
HETATM    5  C   UNL     1     -12.728   8.748  71.791  1.00  0.00    -0.408 A  
HETATM    6  C   UNL     1     -13.221  10.033  72.007  1.00  0.00    -0.545 A  
HETATM    7  C   UNL     1     -12.774  11.082  71.216  1.00  0.00    -0.537 A  
HETATM    8  C   UNL     1     -11.864  10.840  70.186  1.00  0.00    -0.427 A  
HETATM    9  C   UNL     1     -11.402   9.541  69.902  1.00  0.00    -0.126 A  
ENDROOT
BRANCH   9  10
HETATM   10  N   UNL     1     -10.463   9.328  68.842  1.00  0.00    -0.214 NA 
HETATM   11  H   UNL     1     -10.799   8.855  68.003  1.00  0.00     0.000 HD 
BRANCH  10  12
HETATM   12  C   UNL     1      -9.094   9.727  68.871  1.00  0.00    -0.148 A  
HETATM   13  C   UNL     1      -8.678  10.977  68.382  1.00  0.00    -0.150 A  
HETATM   14  C   UNL     1      -7.336  11.386  68.464  1.00  0.00    -0.105 A  
HETATM   15  C   UNL     1      -6.893  12.735  67.950  1.00  0.00    -0.114 C  
HETATM   16  C   UNL     1      -6.398  10.514  69.033  1.00  0.00    -0.045 A  
HETATM   17  F   UNL     1      -6.398  13.532  68.936  1.00  0.00    -0.078 F  
HETATM   18  F   UNL     1      -5.904  12.633  67.020  1.00  0.00    -0.139 F  
HETATM   19  F   UNL     1      -7.890  13.449  67.357  1.00  0.00    -0.138 F  
HETATM   20  C   UNL     1      -6.783   9.243  69.450  1.00  0.00    -0.048 A  
HETATM   21  C   UNL     1      -8.119   8.842  69.347  1.00  0.00    -0.105 A  
ENDBRANCH  10  12
ENDBRANCH   9  10
TORSDOF 2
ENDMDL
MODEL      223
REMARK 921   NORMALIZED FREE ENERGY PREDICTED BY IDOCK:   -4.01 KCAL/MOL
REMARK 922        TOTAL FREE ENERGY PREDICTED BY IDOCK:   -4.88 KCAL/MOL
REMARK 923 INTER-LIGAND FREE ENERGY PREDICTED BY IDOCK:   -4.63 KCAL/MOL
REMARK 924 INTRA-LIGAND FREE ENERGY PREDICTED BY IDOCK:   -0.25 KCAL/MOL
REMARK 927      BINDING AFFINITY PREDICTED BY RF-SCORE:    0.00 PKD
ROOT
HETATM    1  O   UNL     1      -6.320   8.925  65.510  1.00  0.00    -0.061 OA 
HETATM    2  C   UNL     1      -6.439   8.098  66.570  1.00  0.00    -0.055 C  
HETATM    3  C   UNL     1      -7.789   8.101  67.209  1.00  0.00    -0.105 A  
HETATM    4  O   UNL     1      -5.524   7.393  66.958  1.00  0.00    -0.024 OA 
HETATM    5  C   UNL     1      -8.092   6.977  68.002  1.00  0.00    -0.119 A  
HETATM    6  C   UNL     1      -9.301   6.892  68.690  1.00  0.00    -0.135 A  
HETATM    7  C   UNL     1     -10.204   7.942  68.626  1.00  0.00    -0.223 A  
HETATM    8  C   UNL     1      -9.916   9.062  67.843  1.00  0.00    -0.220 A  
HETATM    9  C   UNL     1      -8.734   9.145  67.084  1.00  0.00    -0.123 A  
ENDROOT
BRANCH   9  10
HETATM   10  N   UNL     1      -8.466  10.311  66.297  1.00  0.00    -0.132 NA 
HETATM   11  H   UNL     1      -7.752  10.955  66.636  1.00  0.00     0.000 HD 
BRANCH  10  12
HETATM   12  C   UNL     1      -9.122  10.640  65.074  1.00  0.00    -0.202 A  
HETATM   13  C   UNL     1     -10.392  11.241  65.055  1.00  0.00    -0.359 A  
HETATM   14  C   UNL     1     -11.009  11.613  63.848  1.00  0.00    -0.478 A  
HETATM   15  C   UNL     1     -12.368  12.270  63.830  1.00  0.00    -0.509 C  
HETATM   16  C   UNL     1     -10.341  11.359  62.643  1.00  0.00     0.220 A  
HETATM   17  F   UNL     1     -12.333  13.528  63.312  1.00  0.00    -0.578 F  
HETATM   18  F   UNL     1     -13.266  11.580  63.074  1.00  0.00    -0.488 F  
HETATM   19  F   UNL     1     -12.934  12.390  65.063  1.00  0.00    -0.533 F  
HETATM   20  C   UNL     1      -9.118  10.694  62.644  1.00  0.00    -0.321 A  
HETATM   21  C   UNL     1      -8.524  10.315  63.851  1.00  0.00    -0.179 A  
ENDBRANCH  10  12
ENDBRANCH   9  10
TORSDOF 2
ENDMDL
MODEL      224
REMARK 921   NORMALIZED FREE ENERGY PREDICTED BY IDOCK:   -3.98 KCAL/MOL
REMARK 922        TOTAL FREE ENERGY PREDICTED BY IDOCK:   -4.85 KCAL/MOL
REMARK 923 INTER-LIGAND FREE ENERGY PREDICTED BY IDOCK:   -4.23 KCAL/MOL
REMARK 924 INTRA-LIGAND FREE ENERGY PREDICTED BY IDOCK:   -0.63 KCAL/MOL
REMARK 927      BINDING AFFINITY PREDICTED BY RF-SCORE:    0.00 PKD
ROOT
HETATM    1  O   UNL     1     -10.536   5.356  68.237  1.00  0.00    -0.178 OA 
HETATM    2  C   UNL     1     -10.414   6.074  67.100  1.00  0.00    -0.264 C  
HETATM    3  C   UNL     1     -10.272   7.546  67.310  1.00  0.00    -0.337 A  
HETATM    4  O   UNL     1     -10.400   5.557  65.997  1.00  0.00    -0.115 OA 
HETATM    5  C   UNL     1      -9.715   8.265  66.234  1.00  0.00    -0.253 A  
HETATM    6  C   UNL     1      -9.580   9.650  66.293  1.00  0.00    -0.281 A  
HETATM    7  C   UNL     1     -10.035  10.338  67.408  1.00  0.00    -0.230 A  
HETATM    8  C   UNL     1     -10.589   9.638  68.481  1.00  0.00    -0.253 A  
HETATM    9  C   UNL     1     -10.674   8.233  68.477  1.00  0.00    -0.017 A  
ENDROOT
BRANCH   9  10
HETATM   10  N   UNL     1     -11.255   7.546  69.591  1.00  0.00    -0.453 NA 
HETATM   11  H   UNL     1     -12.137   7.057  69.437  1.00  0.00     0.000 HD 
BRANCH  10  12
HETATM   12  C   UNL     1     -10.693   7.491  70.901  1.00  0.00    -0.235 A  
HETATM   13  C   UNL     1      -9.305   7.414  71.107  1.00  0.00    -0.156 A  
HETATM   14  C   UNL     1      -8.755   7.417  72.401  1.00  0.00    -0.145 A  
HETATM   15  C   UNL     1      -7.263   7.347  72.621  1.00  0.00    -0.072 C  
HETATM   16  C   UNL     1      -9.619   7.482  73.502  1.00  0.00    -0.339 A  
HETATM   17  F   UNL     1      -6.774   8.457  73.239  1.00  0.00    -0.108 F  
HETATM   18  F   UNL     1      -6.905   6.294  73.407  1.00  0.00    -0.071 F  
HETATM   19  F   UNL     1      -6.546   7.214  71.470  1.00  0.00    -0.046 F  
HETATM   20  C   UNL     1     -10.999   7.481  73.313  1.00  0.00    -0.362 A  
HETATM   21  C   UNL     1     -11.533   7.460  72.021  1.00  0.00    -0.310 A  
ENDBRANCH  10  12
ENDBRANCH   9  10
TORSDOF 2
ENDMDL
MODEL      225
REMARK 921   NORMALIZED FREE ENERGY PREDICTED BY IDOCK:   -3.96 KCAL/MOL
REMARK 922        TOTAL FREE ENERGY PREDICTED BY IDOCK:   -4.83 KCAL/MOL
REMARK 923 INTER-LIGAND FREE ENERGY PREDICTED BY IDOCK:   -4.29 KCAL/MOL
REMARK 924 INTRA-LIGAND FREE ENERGY PREDICTED BY IDOCK:   -0.54 KCAL/MOL
REMARK 927      BINDING AFFINITY PREDICTED BY RF-SCORE:    0.00 PKD
ROOT
HETATM    1  O   UNL     1     -10.489   7.906  66.510  1.00  0.00    -0.233 OA 
HETATM    2  C   UNL     1      -9.740   9.017  66.341  1.00  0.00    -0.268 C  
HETATM    3  C   UNL     1      -8.934   9.408  67.536  1.00  0.00    -0.130 A  
HETATM    4  O   UNL     1      -9.710   9.633  65.291  1.00  0.00    -0.300 OA 
HETATM    5  C   UNL     1      -7.840  10.259  67.284  1.00  0.00    -0.103 A  
HETATM    6  C   UNL     1      -7.047  10.732  68.326  1.00  0.00    -0.078 A  
HETATM    7  C   UNL     1      -7.358  10.394  69.635  1.00  0.00    -0.156 A  
HETATM    8  C   UNL     1      -8.439   9.552  69.900  1.00  0.00    -0.198 A  
HETATM    9  C   UNL     1      -9.216   9.004  68.861  1.00  0.00    -0.140 A  
ENDROOT
BRANCH   9  10
HETATM   10  N   UNL     1     -10.323   8.149  69.167  1.00  0.00    -0.219 NA 
HETATM   11  H   UNL     1     -11.251   8.457  68.879  1.00  0.00     0.000 HD 
BRANCH  10  12
HETATM   12  C   UNL     1     -10.225   6.897  69.844  1.00  0.00    -0.199 A  
HETATM   13  C   UNL     1     -10.414   6.790  71.232  1.00  0.00    -0.237 A  
HETATM   14  C   UNL     1     -10.372   5.546  71.884  1.00  0.00    -0.270 A  
HETATM   15  C   UNL     1     -10.587   5.432  73.374  1.00  0.00    -0.258 C  
HETATM   16  C   UNL     1     -10.118   4.395  71.126  1.00  0.00    -0.196 A  
HETATM   17  F   UNL     1     -11.689   4.697  73.687  1.00  0.00    -0.351 F  
HETATM   18  F   UNL     1      -9.542   4.824  74.002  1.00  0.00    -0.121 F  
HETATM   19  F   UNL     1     -10.749   6.632  73.997  1.00  0.00    -0.332 F  
HETATM   20  C   UNL     1      -9.853   4.496  69.763  1.00  0.00    -0.295 A  
HETATM   21  C   UNL     1      -9.882   5.742  69.130  1.00  0.00    -0.211 A  
ENDBRANCH  10  12
ENDBRANCH   9  10
TORSDOF 2
ENDMDL
MODEL      226
REMARK 921   NORMALIZED FREE ENERGY PREDICTED BY IDOCK:   -3.96 KCAL/MOL
REMARK 922        TOTAL FREE ENERGY PREDICTED BY IDOCK:   -4.83 KCAL/MOL
REMARK 923 INTER-LIGAND FREE ENERGY PREDICTED BY IDOCK:   -4.26 KCAL/MOL
REMARK 924 INTRA-LIGAND FREE ENERGY PREDICTED BY IDOCK:   -0.57 KCAL/MOL
REMARK 927      BINDING AFFINITY PREDICTED BY RF-SCORE:    0.00 PKD
ROOT
HETATM    1  O   UNL     1      -7.201   7.600  71.349  1.00  0.00    -0.063 OA 
HETATM    2  C   UNL     1      -7.481   6.497  72.077  1.00  0.00    -0.092 C  
HETATM    3  C   UNL     1      -8.938   6.256  72.301  1.00  0.00    -0.136 A  
HETATM    4  O   UNL     1      -6.613   5.751  72.496  1.00  0.00    -0.063 OA 
HETATM    5  C   UNL     1      -9.292   4.939  72.653  1.00  0.00    -0.152 A  
HETATM    6  C   UNL     1     -10.614   4.606  72.937  1.00  0.00    -0.277 A  
HETATM    7  C   UNL     1     -11.592   5.590  72.912  1.00  0.00    -0.280 A  
HETATM    8  C   UNL     1     -11.254   6.899  72.565  1.00  0.00    -0.304 A  
HETATM    9  C   UNL     1      -9.939   7.249  72.206  1.00  0.00    -0.169 A  
ENDROOT
BRANCH   9  10
HETATM   10  N   UNL     1      -9.625   8.604  71.862  1.00  0.00    -0.283 NA 
HETATM   11  H   UNL     1      -9.014   9.122  72.495  1.00  0.00     0.000 HD 
BRANCH  10  12
HETATM   12  C   UNL     1     -10.100   9.283  70.702  1.00  0.00    -0.276 A  
HETATM   13  C   UNL     1      -9.587   9.010  69.423  1.00  0.00    -0.160 A  
HETATM   14  C   UNL     1     -10.098   9.643  68.277  1.00  0.00    -0.203 A  
HETATM   15  C   UNL     1      -9.555   9.339  66.902  1.00  0.00    -0.174 C  
HETATM   16  C   UNL     1     -11.131  10.578  68.427  1.00  0.00    -0.335 A  
HETATM   17  F   UNL     1     -10.490   8.789  66.080  1.00  0.00    -0.329 F  
HETATM   18  F   UNL     1      -9.108  10.456  66.264  1.00  0.00    -0.157 F  
HETATM   19  F   UNL     1      -8.506   8.469  66.908  1.00  0.00    -0.108 F  
HETATM   20  C   UNL     1     -11.595  10.915  69.696  1.00  0.00    -0.394 A  
HETATM   21  C   UNL     1     -11.065  10.289  70.828  1.00  0.00    -0.303 A  
ENDBRANCH  10  12
ENDBRANCH   9  10
TORSDOF 2
ENDMDL
MODEL      227
REMARK 921   NORMALIZED FREE ENERGY PREDICTED BY IDOCK:   -3.94 KCAL/MOL
REMARK 922        TOTAL FREE ENERGY PREDICTED BY IDOCK:   -4.81 KCAL/MOL
REMARK 923 INTER-LIGAND FREE ENERGY PREDICTED BY IDOCK:   -4.28 KCAL/MOL
REMARK 924 INTRA-LIGAND FREE ENERGY PREDICTED BY IDOCK:   -0.53 KCAL/MOL
REMARK 927      BINDING AFFINITY PREDICTED BY RF-SCORE:    0.00 PKD
ROOT
HETATM    1  O   UNL     1     -10.624   9.225  66.996  1.00  0.00    -0.246 OA 
HETATM    2  C   UNL     1      -9.693   8.410  66.456  1.00  0.00    -0.260 C  
HETATM    3  C   UNL     1      -9.770   6.992  66.917  1.00  0.00    -0.228 A  
HETATM    4  O   UNL     1      -8.873   8.799  65.644  1.00  0.00    -0.178 OA 
HETATM    5  C   UNL     1      -9.141   6.044  66.087  1.00  0.00    -0.159 A  
HETATM    6  C   UNL     1      -9.102   4.697  66.440  1.00  0.00    -0.120 A  
HETATM    7  C   UNL     1      -9.656   4.285  67.643  1.00  0.00    -0.215 A  
HETATM    8  C   UNL     1     -10.283   5.214  68.475  1.00  0.00    -0.182 A  
HETATM    9  C   UNL     1     -10.397   6.569  68.112  1.00  0.00    -0.187 A  
ENDROOT
BRANCH   9  10
HETATM   10  N   UNL     1     -11.040   7.498  68.992  1.00  0.00    -0.430 NA 
HETATM   11  H   UNL     1     -11.677   8.178  68.577  1.00  0.00     0.000 HD 
BRANCH  10  12
HETATM   12  C   UNL     1     -10.858   7.543  70.406  1.00  0.00    -0.244 A  
HETATM   13  C   UNL     1      -9.581   7.480  70.989  1.00  0.00    -0.162 A  
HETATM   14  C   UNL     1      -9.405   7.581  72.380  1.00  0.00    -0.192 A  
HETATM   15  C   UNL     1      -8.032   7.526  73.004  1.00  0.00    -0.106 C  
HETATM   16  C   UNL     1     -10.535   7.731  73.195  1.00  0.00    -0.413 A  
HETATM   17  F   UNL     1      -7.705   8.679  73.650  1.00  0.00    -0.196 F  
HETATM   18  F   UNL     1      -7.925   6.536  73.933  1.00  0.00    -0.102 F  
HETATM   19  F   UNL     1      -7.031   7.305  72.107  1.00  0.00    -0.061 F  
HETATM   20  C   UNL     1     -11.811   7.717  72.636  1.00  0.00    -0.269 A  
HETATM   21  C   UNL     1     -11.972   7.598  71.252  1.00  0.00    -0.330 A  
ENDBRANCH  10  12
ENDBRANCH   9  10
TORSDOF 2
ENDMDL
MODEL      228
REMARK 921   NORMALIZED FREE ENERGY PREDICTED BY IDOCK:   -3.92 KCAL/MOL
REMARK 922        TOTAL FREE ENERGY PREDICTED BY IDOCK:   -4.78 KCAL/MOL
REMARK 923 INTER-LIGAND FREE ENERGY PREDICTED BY IDOCK:   -4.26 KCAL/MOL
REMARK 924 INTRA-LIGAND FREE ENERGY PREDICTED BY IDOCK:   -0.52 KCAL/MOL
REMARK 927      BINDING AFFINITY PREDICTED BY RF-SCORE:    0.00 PKD
ROOT
HETATM    1  O   UNL     1      -8.400   8.577  65.985  1.00  0.00    -0.117 OA 
HETATM    2  C   UNL     1      -7.248   9.239  66.226  1.00  0.00    -0.088 C  
HETATM    3  C   UNL     1      -6.991   9.530  67.668  1.00  0.00    -0.080 A  
HETATM    4  O   UNL     1      -6.474   9.551  65.338  1.00  0.00    -0.068 OA 
HETATM    5  C   UNL     1      -5.652   9.806  68.006  1.00  0.00    -0.040 A  
HETATM    6  C   UNL     1      -5.298  10.143  69.311  1.00  0.00    -0.038 A  
HETATM    7  C   UNL     1      -6.281  10.246  70.284  1.00  0.00    -0.113 A  
HETATM    8  C   UNL     1      -7.612   9.975  69.963  1.00  0.00    -0.182 A  
HETATM    9  C   UNL     1      -7.988   9.566  68.669  1.00  0.00    -0.092 A  
ENDROOT
BRANCH   9  10
HETATM   10  N   UNL     1      -9.363   9.303  68.371  1.00  0.00    -0.138 NA 
HETATM   11  H   UNL     1      -9.732   9.662  67.490  1.00  0.00     0.000 HD 
BRANCH  10  12
HETATM   12  C   UNL     1     -10.257   8.576  69.211  1.00  0.00    -0.208 A  
HETATM   13  C   UNL     1     -11.114   9.226  70.115  1.00  0.00    -0.260 A  
HETATM   14  C   UNL     1     -12.032   8.507  70.901  1.00  0.00    -0.204 A  
HETATM   15  C   UNL     1     -12.961   9.207  71.863  1.00  0.00    -0.404 C  
HETATM   16  C   UNL     1     -12.073   7.111  70.784  1.00  0.00    -0.331 A  
HETATM   17  F   UNL     1     -14.272   9.037  71.540  1.00  0.00    -0.411 F  
HETATM   18  F   UNL     1     -12.828   8.747  73.138  1.00  0.00    -0.330 F  
HETATM   19  F   UNL     1     -12.766  10.554  71.931  1.00  0.00    -0.472 F  
HETATM   20  C   UNL     1     -11.175   6.450  69.949  1.00  0.00    -0.485 A  
HETATM   21  C   UNL     1     -10.257   7.176  69.186  1.00  0.00    -0.196 A  
ENDBRANCH  10  12
ENDBRANCH   9  10
TORSDOF 2
ENDMDL
MODEL      229
REMARK 921   NORMALIZED FREE ENERGY PREDICTED BY IDOCK:   -3.92 KCAL/MOL
REMARK 922        TOTAL FREE ENERGY PREDICTED BY IDOCK:   -4.78 KCAL/MOL
REMARK 923 INTER-LIGAND FREE ENERGY PREDICTED BY IDOCK:   -4.46 KCAL/MOL
REMARK 924 INTRA-LIGAND FREE ENERGY PREDICTED BY IDOCK:   -0.32 KCAL/MOL
REMARK 927      BINDING AFFINITY PREDICTED BY RF-SCORE:    0.00 PKD
ROOT
HETATM    1  O   UNL     1      -7.035  14.629  70.029  1.00  0.00    -0.161 OA 
HETATM    2  C   UNL     1      -6.898  15.864  69.501  1.00  0.00    -0.192 C  
HETATM    3  C   UNL     1      -7.836  16.165  68.378  1.00  0.00    -0.160 A  
HETATM    4  O   UNL     1      -6.088  16.670  69.923  1.00  0.00    -0.215 OA 
HETATM    5  C   UNL     1      -8.036  17.531  68.099  1.00  0.00    -0.250 A  
HETATM    6  C   UNL     1      -8.848  17.933  67.042  1.00  0.00    -0.256 A  
HETATM    7  C   UNL     1      -9.440  16.979  66.227  1.00  0.00    -0.281 A  
HETATM    8  C   UNL     1      -9.250  15.622  66.493  1.00  0.00    -0.325 A  
HETATM    9  C   UNL     1      -8.490  15.187  67.595  1.00  0.00    -0.160 A  
ENDROOT
BRANCH   9  10
HETATM   10  N   UNL     1      -8.309  13.787  67.835  1.00  0.00    -0.159 NA 
HETATM   11  H   UNL     1      -7.365  13.411  67.745  1.00  0.00     0.000 HD 
BRANCH  10  12
HETATM   12  C   UNL     1      -9.349  12.878  68.190  1.00  0.00    -0.214 A  
HETATM   13  C   UNL     1      -9.113  11.498  68.317  1.00  0.00    -0.185 A  
HETATM   14  C   UNL     1     -10.130  10.615  68.722  1.00  0.00    -0.203 A  
HETATM   15  C   UNL     1      -9.872   9.135  68.870  1.00  0.00    -0.174 C  
HETATM   16  C   UNL     1     -11.406  11.130  68.985  1.00  0.00    -0.343 A  
HETATM   17  F   UNL     1     -10.041   8.701  70.149  1.00  0.00    -0.175 F  
HETATM   18  F   UNL     1     -10.714   8.385  68.107  1.00  0.00    -0.248 F  
HETATM   19  F   UNL     1      -8.612   8.761  68.512  1.00  0.00    -0.128 F  
HETATM   20  C   UNL     1     -11.672  12.483  68.788  1.00  0.00    -0.371 A  
HETATM   21  C   UNL     1     -10.656  13.347  68.369  1.00  0.00    -0.259 A  
ENDBRANCH  10  12
ENDBRANCH   9  10
TORSDOF 2
ENDMDL
MODEL      230
REMARK 921   NORMALIZED FREE ENERGY PREDICTED BY IDOCK:   -3.89 KCAL/MOL
REMARK 922        TOTAL FREE ENERGY PREDICTED BY IDOCK:   -4.75 KCAL/MOL
REMARK 923 INTER-LIGAND FREE ENERGY PREDICTED BY IDOCK:   -4.46 KCAL/MOL
REMARK 924 INTRA-LIGAND FREE ENERGY PREDICTED BY IDOCK:   -0.29 KCAL/MOL
REMARK 927      BINDING AFFINITY PREDICTED BY RF-SCORE:    0.00 PKD
ROOT
HETATM    1  O   UNL     1      -9.210   7.820  65.676  1.00  0.00    -0.027 OA 
HETATM    2  C   UNL     1      -9.259   7.009  66.754  1.00  0.00    -0.153 C  
HETATM    3  C   UNL     1      -9.913   7.613  67.954  1.00  0.00    -0.208 A  
HETATM    4  O   UNL     1      -8.823   5.871  66.739  1.00  0.00    -0.116 OA 
HETATM    5  C   UNL     1     -10.374   6.701  68.922  1.00  0.00    -0.216 A  
HETATM    6  C   UNL     1     -10.954   7.148  70.107  1.00  0.00    -0.293 A  
HETATM    7  C   UNL     1     -11.046   8.509  70.357  1.00  0.00    -0.246 A  
HETATM    8  C   UNL     1     -10.593   9.424  69.405  1.00  0.00    -0.235 A  
HETATM    9  C   UNL     1     -10.065   9.001  68.171  1.00  0.00    -0.191 A  
ENDROOT
BRANCH   9  10
HETATM   10  N   UNL     1      -9.602   9.966  67.219  1.00  0.00    -0.156 NA 
HETATM   11  H   UNL     1      -8.890   9.668  66.553  1.00  0.00     0.000 HD 
BRANCH  10  12
HETATM   12  C   UNL     1     -10.062  11.314  67.132  1.00  0.00    -0.192 A  
HETATM   13  C   UNL     1      -9.169  12.398  67.100  1.00  0.00    -0.199 A  
HETATM   14  C   UNL     1      -9.627  13.720  66.959  1.00  0.00    -0.251 A  
HETATM   15  C   UNL     1      -8.666  14.883  66.912  1.00  0.00    -0.248 C  
HETATM   16  C   UNL     1     -11.006  13.950  66.865  1.00  0.00    -0.300 A  
HETATM   17  F   UNL     1      -8.713  15.552  65.727  1.00  0.00    -0.301 F  
HETATM   18  F   UNL     1      -8.930  15.811  67.874  1.00  0.00    -0.176 F  
HETATM   19  F   UNL     1      -7.364  14.525  67.087  1.00  0.00    -0.207 F  
HETATM   20  C   UNL     1     -11.904  12.892  66.974  1.00  0.00    -0.437 A  
HETATM   21  C   UNL     1     -11.435  11.584  67.131  1.00  0.00    -0.313 A  
ENDBRANCH  10  12
ENDBRANCH   9  10
TORSDOF 2
ENDMDL
MODEL      231
REMARK 921   NORMALIZED FREE ENERGY PREDICTED BY IDOCK:   -3.88 KCAL/MOL
REMARK 922        TOTAL FREE ENERGY PREDICTED BY IDOCK:   -4.73 KCAL/MOL
REMARK 923 INTER-LIGAND FREE ENERGY PREDICTED BY IDOCK:   -5.25 KCAL/MOL
REMARK 924 INTRA-LIGAND FREE ENERGY PREDICTED BY IDOCK:    0.52 KCAL/MOL
REMARK 927      BINDING AFFINITY PREDICTED BY RF-SCORE:    0.00 PKD
ROOT
HETATM    1  O   UNL     1      -6.741  15.330  70.069  1.00  0.00    -0.167 OA 
HETATM    2  C   UNL     1      -6.177  16.549  69.931  1.00  0.00    -0.159 C  
HETATM    3  C   UNL     1      -6.957  17.499  69.084  1.00  0.00    -0.211 A  
HETATM    4  O   UNL     1      -5.129  16.851  70.473  1.00  0.00    -0.197 OA 
HETATM    5  C   UNL     1      -6.660  18.864  69.263  1.00  0.00    -0.311 A  
HETATM    6  C   UNL     1      -7.286  19.841  68.492  1.00  0.00    -0.356 A  
HETATM    7  C   UNL     1      -8.187  19.465  67.507  1.00  0.00    -0.321 A  
HETATM    8  C   UNL     1      -8.492  18.116  67.318  1.00  0.00    -0.243 A  
HETATM    9  C   UNL     1      -7.925  17.114  68.129  1.00  0.00    -0.216 A  
ENDROOT
BRANCH   9  10
HETATM   10  N   UNL     1      -8.254  15.738  67.904  1.00  0.00    -0.143 NA 
HETATM   11  H   UNL     1      -7.866  15.049  68.548  1.00  0.00     0.000 HD 
BRANCH  10  12
HETATM   12  C   UNL     1      -9.082  15.258  66.847  1.00  0.00    -0.240 A  
HETATM   13  C   UNL     1      -9.319  13.886  66.659  1.00  0.00    -0.282 A  
HETATM   14  C   UNL     1     -10.181  13.423  65.649  1.00  0.00    -0.300 A  
HETATM   15  C   UNL     1     -10.445  11.949  65.456  1.00  0.00    -0.268 C  
HETATM   16  C   UNL     1     -10.799  14.358  64.808  1.00  0.00    -0.415 A  
HETATM   17  F   UNL     1     -11.751  11.621  65.659  1.00  0.00    -0.334 F  
HETATM   18  F   UNL     1     -10.147  11.532  64.194  1.00  0.00    -0.256 F  
HETATM   19  F   UNL     1      -9.725  11.150  66.292  1.00  0.00    -0.209 F  
HETATM   20  C   UNL     1     -10.512  15.715  64.935  1.00  0.00    -0.261 A  
HETATM   21  C   UNL     1      -9.640  16.159  65.932  1.00  0.00    -0.359 A  
ENDBRANCH  10  12
ENDBRANCH   9  10
TORSDOF 2
ENDMDL
MODEL      232
REMARK 921   NORMALIZED FREE ENERGY PREDICTED BY IDOCK:   -3.85 KCAL/MOL
REMARK 922        TOTAL FREE ENERGY PREDICTED BY IDOCK:   -4.70 KCAL/MOL
REMARK 923 INTER-LIGAND FREE ENERGY PREDICTED BY IDOCK:   -4.47 KCAL/MOL
REMARK 924 INTRA-LIGAND FREE ENERGY PREDICTED BY IDOCK:   -0.24 KCAL/MOL
REMARK 927      BINDING AFFINITY PREDICTED BY RF-SCORE:    0.00 PKD
ROOT
HETATM    1  O   UNL     1      -8.729   7.862  66.861  1.00  0.00    -0.125 OA 
HETATM    2  C   UNL     1      -8.385   6.718  66.231  1.00  0.00    -0.126 C  
HETATM    3  C   UNL     1      -8.778   5.471  66.953  1.00  0.00    -0.112 A  
HETATM    4  O   UNL     1      -7.819   6.708  65.152  1.00  0.00    -0.101 OA 
HETATM    5  C   UNL     1      -8.844   4.305  66.167  1.00  0.00    -0.116 A  
HETATM    6  C   UNL     1      -9.150   3.072  66.740  1.00  0.00    -0.179 A  
HETATM    7  C   UNL     1      -9.356   2.982  68.109  1.00  0.00    -0.254 A  
HETATM    8  C   UNL     1      -9.294   4.131  68.900  1.00  0.00    -0.228 A  
HETATM    9  C   UNL     1      -9.054   5.399  68.338  1.00  0.00    -0.109 A  
ENDROOT
BRANCH   9  10
HETATM   10  N   UNL     1      -8.990   6.557  69.179  1.00  0.00    -0.130 NA 
HETATM   11  H   UNL     1      -8.147   7.130  69.128  1.00  0.00     0.000 HD 
BRANCH  10  12
HETATM   12  C   UNL     1     -10.014   6.969  70.081  1.00  0.00    -0.182 A  
HETATM   13  C   UNL     1     -10.578   8.255  70.021  1.00  0.00    -0.235 A  
HETATM   14  C   UNL     1     -11.626   8.636  70.877  1.00  0.00    -0.307 A  
HETATM   15  C   UNL     1     -12.239  10.013  70.803  1.00  0.00    -0.315 C  
HETATM   16  C   UNL     1     -12.099   7.712  71.818  1.00  0.00    -0.337 A  
HETATM   17  F   UNL     1     -13.556   9.981  70.459  1.00  0.00    -0.370 F  
HETATM   18  F   UNL     1     -12.182  10.669  71.996  1.00  0.00    -0.330 F  
HETATM   19  F   UNL     1     -11.637  10.833  69.898  1.00  0.00    -0.277 F  
HETATM   20  C   UNL     1     -11.497   6.462  71.940  1.00  0.00    -0.352 A  
HETATM   21  C   UNL     1     -10.444   6.102  71.093  1.00  0.00    -0.281 A  
ENDBRANCH  10  12
ENDBRANCH   9  10
TORSDOF 2
ENDMDL
MODEL      233
REMARK 921   NORMALIZED FREE ENERGY PREDICTED BY IDOCK:   -3.85 KCAL/MOL
REMARK 922        TOTAL FREE ENERGY PREDICTED BY IDOCK:   -4.70 KCAL/MOL
REMARK 923 INTER-LIGAND FREE ENERGY PREDICTED BY IDOCK:   -4.19 KCAL/MOL
REMARK 924 INTRA-LIGAND FREE ENERGY PREDICTED BY IDOCK:   -0.51 KCAL/MOL
REMARK 927      BINDING AFFINITY PREDICTED BY RF-SCORE:    0.00 PKD
ROOT
HETATM    1  O   UNL     1      -7.195   7.560  71.318  1.00  0.00    -0.061 OA 
HETATM    2  C   UNL     1      -7.407   6.479  72.099  1.00  0.00    -0.091 C  
HETATM    3  C   UNL     1      -8.841   6.077  72.222  1.00  0.00    -0.138 A  
HETATM    4  O   UNL     1      -6.500   5.873  72.640  1.00  0.00    -0.059 OA 
HETATM    5  C   UNL     1      -9.069   4.751  72.640  1.00  0.00    -0.139 A  
HETATM    6  C   UNL     1     -10.363   4.277  72.840  1.00  0.00    -0.241 A  
HETATM    7  C   UNL     1     -11.443   5.130  72.665  1.00  0.00    -0.221 A  
HETATM    8  C   UNL     1     -11.231   6.447  72.251  1.00  0.00    -0.314 A  
HETATM    9  C   UNL     1      -9.938   6.932  71.975  1.00  0.00    -0.166 A  
ENDROOT
BRANCH   9  10
HETATM   10  N   UNL     1      -9.755   8.290  71.560  1.00  0.00    -0.176 NA 
HETATM   11  H   UNL     1      -9.342   8.937  72.231  1.00  0.00     0.000 HD 
BRANCH  10  12
HETATM   12  C   UNL     1     -10.105   8.806  70.277  1.00  0.00    -0.191 A  
HETATM   13  C   UNL     1     -10.438  10.159  70.091  1.00  0.00    -0.311 A  
HETATM   14  C   UNL     1     -10.728  10.673  68.815  1.00  0.00    -0.249 A  
HETATM   15  C   UNL     1     -11.073  12.129  68.614  1.00  0.00    -0.251 C  
HETATM   16  C   UNL     1     -10.699   9.805  67.715  1.00  0.00    -0.329 A  
HETATM   17  F   UNL     1     -10.169  12.776  67.829  1.00  0.00    -0.207 F  
HETATM   18  F   UNL     1     -12.281  12.295  68.007  1.00  0.00    -0.380 F  
HETATM   19  F   UNL     1     -11.138  12.841  69.774  1.00  0.00    -0.196 F  
HETATM   20  C   UNL     1     -10.447   8.448  67.897  1.00  0.00    -0.255 A  
HETATM   21  C   UNL     1     -10.176   7.947  69.174  1.00  0.00    -0.219 A  
ENDBRANCH  10  12
ENDBRANCH   9  10
TORSDOF 2
ENDMDL
MODEL      234
REMARK 921   NORMALIZED FREE ENERGY PREDICTED BY IDOCK:   -3.83 KCAL/MOL
REMARK 922        TOTAL FREE ENERGY PREDICTED BY IDOCK:   -4.68 KCAL/MOL
REMARK 923 INTER-LIGAND FREE ENERGY PREDICTED BY IDOCK:   -4.16 KCAL/MOL
REMARK 924 INTRA-LIGAND FREE ENERGY PREDICTED BY IDOCK:   -0.52 KCAL/MOL
REMARK 927      BINDING AFFINITY PREDICTED BY RF-SCORE:    0.00 PKD
ROOT
HETATM    1  O   UNL     1      -7.102   5.352  69.358  1.00  0.00    -0.060 OA 
HETATM    2  C   UNL     1      -6.884   4.688  68.203  1.00  0.00    -0.055 C  
HETATM    3  C   UNL     1      -8.021   4.742  67.235  1.00  0.00    -0.102 A  
HETATM    4  O   UNL     1      -5.837   4.113  67.965  1.00  0.00    -0.024 OA 
HETATM    5  C   UNL     1      -7.694   4.461  65.894  1.00  0.00    -0.094 A  
HETATM    6  C   UNL     1      -8.679   4.430  64.909  1.00  0.00    -0.135 A  
HETATM    7  C   UNL     1     -10.006   4.640  65.257  1.00  0.00    -0.130 A  
HETATM    8  C   UNL     1     -10.343   4.919  66.583  1.00  0.00    -0.285 A  
HETATM    9  C   UNL     1      -9.360   5.024  67.585  1.00  0.00    -0.126 A  
ENDROOT
BRANCH   9  10
HETATM   10  N   UNL     1      -9.741   5.305  68.937  1.00  0.00    -0.137 NA 
HETATM   11  H   UNL     1      -9.692   4.540  69.609  1.00  0.00     0.000 HD 
BRANCH  10  12
HETATM   12  C   UNL     1     -10.183   6.575  69.414  1.00  0.00    -0.183 A  
HETATM   13  C   UNL     1     -11.295   6.699  70.263  1.00  0.00    -0.431 A  
HETATM   14  C   UNL     1     -11.692   7.947  70.775  1.00  0.00    -0.230 A  
HETATM   15  C   UNL     1     -12.880   8.076  71.697  1.00  0.00    -0.329 C  
HETATM   16  C   UNL     1     -10.964   9.087  70.410  1.00  0.00    -0.283 A  
HETATM   17  F   UNL     1     -12.535   8.540  72.930  1.00  0.00    -0.436 F  
HETATM   18  F   UNL     1     -13.813   8.946  71.219  1.00  0.00    -0.395 F  
HETATM   19  F   UNL     1     -13.538   6.903  71.910  1.00  0.00    -0.394 F  
HETATM   20  C   UNL     1      -9.908   8.988  69.508  1.00  0.00    -0.181 A  
HETATM   21  C   UNL     1      -9.535   7.743  68.994  1.00  0.00    -0.150 A  
ENDBRANCH  10  12
ENDBRANCH   9  10
TORSDOF 2
ENDMDL
MODEL      235
REMARK 921   NORMALIZED FREE ENERGY PREDICTED BY IDOCK:   -3.83 KCAL/MOL
REMARK 922        TOTAL FREE ENERGY PREDICTED BY IDOCK:   -4.68 KCAL/MOL
REMARK 923 INTER-LIGAND FREE ENERGY PREDICTED BY IDOCK:   -4.84 KCAL/MOL
REMARK 924 INTRA-LIGAND FREE ENERGY PREDICTED BY IDOCK:    0.16 KCAL/MOL
REMARK 927      BINDING AFFINITY PREDICTED BY RF-SCORE:    0.00 PKD
ROOT
HETATM    1  O   UNL     1      -9.744  14.569  68.963  1.00  0.00    -0.200 OA 
HETATM    2  C   UNL     1      -8.395  14.579  68.933  1.00  0.00    -0.112 C  
HETATM    3  C   UNL     1      -7.782  13.394  68.260  1.00  0.00    -0.141 A  
HETATM    4  O   UNL     1      -7.735  15.491  69.398  1.00  0.00    -0.209 OA 
HETATM    5  C   UNL     1      -6.455  13.560  67.820  1.00  0.00    -0.175 A  
HETATM    6  C   UNL     1      -5.761  12.508  67.225  1.00  0.00    -0.084 A  
HETATM    7  C   UNL     1      -6.370  11.269  67.097  1.00  0.00    -0.096 A  
HETATM    8  C   UNL     1      -7.686  11.090  67.529  1.00  0.00    -0.114 A  
HETATM    9  C   UNL     1      -8.433  12.154  68.071  1.00  0.00    -0.170 A  
ENDROOT
BRANCH   9  10
HETATM   10  N   UNL     1      -9.778  11.935  68.511  1.00  0.00    -0.290 NA 
HETATM   11  H   UNL     1     -10.465  12.660  68.306  1.00  0.00     0.000 HD 
BRANCH  10  12
HETATM   12  C   UNL     1     -10.230  10.779  69.215  1.00  0.00    -0.194 A  
HETATM   13  C   UNL     1     -11.308  10.836  70.113  1.00  0.00    -0.390 A  
HETATM   14  C   UNL     1     -11.784   9.682  70.761  1.00  0.00    -0.390 A  
HETATM   15  C   UNL     1     -12.951   9.742  71.716  1.00  0.00    -0.438 C  
HETATM   16  C   UNL     1     -11.151   8.458  70.510  1.00  0.00    -0.267 A  
HETATM   17  F   UNL     1     -14.016   9.011  71.287  1.00  0.00    -0.415 F  
HETATM   18  F   UNL     1     -12.636   9.255  72.948  1.00  0.00    -0.313 F  
HETATM   19  F   UNL     1     -13.424  11.003  71.924  1.00  0.00    -0.480 F  
HETATM   20  C   UNL     1     -10.032   8.402  69.682  1.00  0.00    -0.193 A  
HETATM   21  C   UNL     1      -9.560   9.560  69.058  1.00  0.00    -0.166 A  
ENDBRANCH  10  12
ENDBRANCH   9  10
TORSDOF 2
ENDMDL
MODEL      236
REMARK 921   NORMALIZED FREE ENERGY PREDICTED BY IDOCK:   -3.80 KCAL/MOL
REMARK 922        TOTAL FREE ENERGY PREDICTED BY IDOCK:   -4.64 KCAL/MOL
REMARK 923 INTER-LIGAND FREE ENERGY PREDICTED BY IDOCK:   -4.04 KCAL/MOL
REMARK 924 INTRA-LIGAND FREE ENERGY PREDICTED BY IDOCK:   -0.61 KCAL/MOL
REMARK 927      BINDING AFFINITY PREDICTED BY RF-SCORE:    0.00 PKD
ROOT
HETATM    1  O   UNL     1      -8.037   5.174  70.131  1.00  0.00    -0.080 OA 
HETATM    2  C   UNL     1      -8.646   5.211  71.335  1.00  0.00    -0.128 C  
HETATM    3  C   UNL     1     -10.036   5.756  71.309  1.00  0.00    -0.253 A  
HETATM    4  O   UNL     1      -8.110   4.810  72.353  1.00  0.00    -0.103 OA 
HETATM    5  C   UNL     1     -10.847   5.416  72.409  1.00  0.00    -0.297 A  
HETATM    6  C   UNL     1     -12.145   5.909  72.521  1.00  0.00    -0.100 A  
HETATM    7  C   UNL     1     -12.636   6.776  71.557  1.00  0.00    -0.371 A  
HETATM    8  C   UNL     1     -11.844   7.122  70.461  1.00  0.00    -0.286 A  
HETATM    9  C   UNL     1     -10.554   6.585  70.288  1.00  0.00    -0.228 A  
ENDROOT
BRANCH   9  10
HETATM   10  N   UNL     1      -9.764   6.965  69.156  1.00  0.00    -0.154 NA 
HETATM   11  H   UNL     1      -9.410   6.220  68.556  1.00  0.00     0.000 HD 
BRANCH  10  12
HETATM   12  C   UNL     1      -9.435   8.308  68.803  1.00  0.00    -0.148 A  
HETATM   13  C   UNL     1      -9.798   8.855  67.561  1.00  0.00    -0.237 A  
HETATM   14  C   UNL     1      -9.520  10.196  67.241  1.00  0.00    -0.178 A  
HETATM   15  C   UNL     1      -9.922  10.786  65.912  1.00  0.00    -0.250 C  
HETATM   16  C   UNL     1      -8.850  10.989  68.183  1.00  0.00    -0.141 A  
HETATM   17  F   UNL     1     -10.817  11.803  66.041  1.00  0.00    -0.292 F  
HETATM   18  F   UNL     1      -8.860  11.308  65.236  1.00  0.00    -0.189 F  
HETATM   19  F   UNL     1     -10.497   9.888  65.065  1.00  0.00    -0.311 F  
HETATM   20  C   UNL     1      -8.416  10.437  69.385  1.00  0.00    -0.145 A  
HETATM   21  C   UNL     1      -8.686   9.097  69.683  1.00  0.00    -0.145 A  
ENDBRANCH  10  12
ENDBRANCH   9  10
TORSDOF 2
ENDMDL
MODEL      237
REMARK 921   NORMALIZED FREE ENERGY PREDICTED BY IDOCK:   -3.80 KCAL/MOL
REMARK 922        TOTAL FREE ENERGY PREDICTED BY IDOCK:   -4.64 KCAL/MOL
REMARK 923 INTER-LIGAND FREE ENERGY PREDICTED BY IDOCK:   -4.14 KCAL/MOL
REMARK 924 INTRA-LIGAND FREE ENERGY PREDICTED BY IDOCK:   -0.50 KCAL/MOL
REMARK 927      BINDING AFFINITY PREDICTED BY RF-SCORE:    0.00 PKD
ROOT
HETATM    1  O   UNL     1      -8.420   5.199  71.527  1.00  0.00    -0.120 OA 
HETATM    2  C   UNL     1      -8.713   6.421  72.022  1.00  0.00    -0.133 C  
HETATM    3  C   UNL     1     -10.134   6.840  71.833  1.00  0.00    -0.195 A  
HETATM    4  O   UNL     1      -7.889   7.112  72.593  1.00  0.00    -0.093 OA 
HETATM    5  C   UNL     1     -10.587   7.865  72.686  1.00  0.00    -0.394 A  
HETATM    6  C   UNL     1     -11.878   8.375  72.569  1.00  0.00    -0.427 A  
HETATM    7  C   UNL     1     -12.719   7.896  71.575  1.00  0.00    -0.342 A  
HETATM    8  C   UNL     1     -12.283   6.881  70.722  1.00  0.00    -0.364 A  
HETATM    9  C   UNL     1     -11.008   6.300  70.862  1.00  0.00    -0.286 A  
ENDROOT
BRANCH   9  10
HETATM   10  N   UNL     1     -10.589   5.264  69.966  1.00  0.00    -0.286 NA 
HETATM   11  H   UNL     1     -10.611   4.305  70.311  1.00  0.00     0.000 HD 
BRANCH  10  12
HETATM   12  C   UNL     1     -10.142   5.473  68.628  1.00  0.00    -0.183 A  
HETATM   13  C   UNL     1      -9.875   4.400  67.762  1.00  0.00    -0.152 A  
HETATM   14  C   UNL     1      -9.489   4.613  66.427  1.00  0.00    -0.169 A  
HETATM   15  C   UNL     1      -9.215   3.459  65.494  1.00  0.00    -0.153 C  
HETATM   16  C   UNL     1      -9.355   5.929  65.965  1.00  0.00    -0.117 A  
HETATM   17  F   UNL     1     -10.072   3.426  64.437  1.00  0.00    -0.157 F  
HETATM   18  F   UNL     1      -7.964   3.513  64.958  1.00  0.00    -0.085 F  
HETATM   19  F   UNL     1      -9.311   2.238  66.090  1.00  0.00    -0.125 F  
HETATM   20  C   UNL     1      -9.541   7.001  66.835  1.00  0.00    -0.214 A  
HETATM   21  C   UNL     1      -9.908   6.774  68.165  1.00  0.00    -0.144 A  
ENDBRANCH  10  12
ENDBRANCH   9  10
TORSDOF 2
ENDMDL
MODEL      238
REMARK 921   NORMALIZED FREE ENERGY PREDICTED BY IDOCK:   -3.80 KCAL/MOL
REMARK 922        TOTAL FREE ENERGY PREDICTED BY IDOCK:   -4.64 KCAL/MOL
REMARK 923 INTER-LIGAND FREE ENERGY PREDICTED BY IDOCK:   -4.14 KCAL/MOL
REMARK 924 INTRA-LIGAND FREE ENERGY PREDICTED BY IDOCK:   -0.50 KCAL/MOL
REMARK 927      BINDING AFFINITY PREDICTED BY RF-SCORE:    0.00 PKD
ROOT
HETATM    1  O   UNL     1      -7.884   7.595  67.877  1.00  0.00    -0.113 OA 
HETATM    2  C   UNL     1      -7.108   6.509  67.680  1.00  0.00    -0.084 C  
HETATM    3  C   UNL     1      -7.846   5.298  67.210  1.00  0.00    -0.100 A  
HETATM    4  O   UNL     1      -5.902   6.525  67.852  1.00  0.00    -0.017 OA 
HETATM    5  C   UNL     1      -7.061   4.309  66.584  1.00  0.00    -0.063 A  
HETATM    6  C   UNL     1      -7.629   3.114  66.151  1.00  0.00    -0.077 A  
HETATM    7  C   UNL     1      -8.978   2.874  66.370  1.00  0.00    -0.158 A  
HETATM    8  C   UNL     1      -9.767   3.846  66.988  1.00  0.00    -0.186 A  
HETATM    9  C   UNL     1      -9.234   5.090  67.375  1.00  0.00    -0.119 A  
ENDROOT
BRANCH   9  10
HETATM   10  N   UNL     1     -10.069   6.062  68.014  1.00  0.00    -0.146 NA 
HETATM   11  H   UNL     1     -10.426   6.827  67.441  1.00  0.00     0.000 HD 
BRANCH  10  12
HETATM   12  C   UNL     1     -10.441   6.041  69.391  1.00  0.00    -0.267 A  
HETATM   13  C   UNL     1     -11.367   6.956  69.919  1.00  0.00    -0.321 A  
HETATM   14  C   UNL     1     -11.771   6.895  71.265  1.00  0.00    -0.371 A  
HETATM   15  C   UNL     1     -12.776   7.870  71.828  1.00  0.00    -0.329 C  
HETATM   16  C   UNL     1     -11.219   5.907  72.091  1.00  0.00    -0.342 A  
HETATM   17  F   UNL     1     -13.914   7.258  72.256  1.00  0.00    -0.253 F  
HETATM   18  F   UNL     1     -12.290   8.549  72.905  1.00  0.00    -0.443 F  
HETATM   19  F   UNL     1     -13.175   8.821  70.938  1.00  0.00    -0.181 F  
HETATM   20  C   UNL     1     -10.242   5.045  71.599  1.00  0.00    -0.275 A  
HETATM   21  C   UNL     1      -9.838   5.128  70.263  1.00  0.00    -0.295 A  
ENDBRANCH  10  12
ENDBRANCH   9  10
TORSDOF 2
ENDMDL
MODEL      239
REMARK 921   NORMALIZED FREE ENERGY PREDICTED BY IDOCK:   -3.71 KCAL/MOL
REMARK 922        TOTAL FREE ENERGY PREDICTED BY IDOCK:   -4.54 KCAL/MOL
REMARK 923 INTER-LIGAND FREE ENERGY PREDICTED BY IDOCK:   -4.18 KCAL/MOL
REMARK 924 INTRA-LIGAND FREE ENERGY PREDICTED BY IDOCK:   -0.36 KCAL/MOL
REMARK 927      BINDING AFFINITY PREDICTED BY RF-SCORE:    0.00 PKD
ROOT
HETATM    1  O   UNL     1      -7.222   7.630  70.678  1.00  0.00    -0.060 OA 
HETATM    2  C   UNL     1      -8.023   8.136  71.640  1.00  0.00    -0.121 C  
HETATM    3  C   UNL     1      -9.448   7.697  71.554  1.00  0.00    -0.166 A  
HETATM    4  O   UNL     1      -7.608   8.872  72.518  1.00  0.00    -0.356 OA 
HETATM    5  C   UNL     1     -10.200   7.826  72.737  1.00  0.00    -0.360 A  
HETATM    6  C   UNL     1     -11.553   7.498  72.765  1.00  0.00    -0.299 A  
HETATM    7  C   UNL     1     -12.181   7.073  71.603  1.00  0.00    -0.395 A  
HETATM    8  C   UNL     1     -11.448   6.940  70.423  1.00  0.00    -0.387 A  
HETATM    9  C   UNL     1     -10.065   7.200  70.383  1.00  0.00    -0.191 A  
ENDROOT
BRANCH   9  10
HETATM   10  N   UNL     1      -9.343   7.060  69.154  1.00  0.00    -0.141 NA 
HETATM   11  H   UNL     1      -8.719   6.258  69.062  1.00  0.00     0.000 HD 
BRANCH  10  12
HETATM   12  C   UNL     1      -9.430   7.957  68.049  1.00  0.00    -0.149 A  
HETATM   13  C   UNL     1      -8.463   7.972  67.031  1.00  0.00    -0.120 A  
HETATM   14  C   UNL     1      -8.584   8.820  65.916  1.00  0.00    -0.174 A  
HETATM   15  C   UNL     1      -7.550   8.826  64.817  1.00  0.00    -0.107 C  
HETATM   16  C   UNL     1      -9.690   9.677  65.837  1.00  0.00    -0.343 A  
HETATM   17  F   UNL     1      -8.062   8.439  63.616  1.00  0.00    -0.140 F  
HETATM   18  F   UNL     1      -7.018  10.063  64.614  1.00  0.00    -0.115 F  
HETATM   19  F   UNL     1      -6.493   8.000  65.055  1.00  0.00    -0.047 F  
HETATM   20  C   UNL     1     -10.615   9.728  66.877  1.00  0.00    -0.243 A  
HETATM   21  C   UNL     1     -10.472   8.891  67.988  1.00  0.00    -0.263 A  
ENDBRANCH  10  12
ENDBRANCH   9  10
TORSDOF 2
ENDMDL
MODEL      240
REMARK 921   NORMALIZED FREE ENERGY PREDICTED BY IDOCK:   -3.69 KCAL/MOL
REMARK 922        TOTAL FREE ENERGY PREDICTED BY IDOCK:   -4.53 KCAL/MOL
REMARK 923 INTER-LIGAND FREE ENERGY PREDICTED BY IDOCK:   -4.16 KCAL/MOL
REMARK 924 INTRA-LIGAND FREE ENERGY PREDICTED BY IDOCK:   -0.36 KCAL/MOL
REMARK 927      BINDING AFFINITY PREDICTED BY RF-SCORE:    0.00 PKD
ROOT
HETATM    1  O   UNL     1      -8.464  13.522  68.053  1.00  0.00    -0.155 OA 
HETATM    2  C   UNL     1      -8.845  14.283  67.005  1.00  0.00    -0.226 C  
HETATM    3  C   UNL     1     -10.177  13.925  66.432  1.00  0.00    -0.292 A  
HETATM    4  O   UNL     1      -8.165  15.198  66.578  1.00  0.00    -0.150 OA 
HETATM    5  C   UNL     1     -10.800  14.925  65.661  1.00  0.00    -0.347 A  
HETATM    6  C   UNL     1     -12.021  14.689  65.034  1.00  0.00    -0.364 A  
HETATM    7  C   UNL     1     -12.616  13.440  65.136  1.00  0.00    -0.495 A  
HETATM    8  C   UNL     1     -12.010  12.440  65.898  1.00  0.00    -0.434 A  
HETATM    9  C   UNL     1     -10.811  12.672  66.598  1.00  0.00    -0.258 A  
ENDROOT
BRANCH   9  10
HETATM   10  N   UNL     1     -10.212  11.621  67.364  1.00  0.00    -0.201 NA 
HETATM   11  H   UNL     1     -10.297  11.670  68.379  1.00  0.00     0.000 HD 
BRANCH  10  12
HETATM   12  C   UNL     1      -9.505  10.511  66.815  1.00  0.00    -0.163 A  
HETATM   13  C   UNL     1      -8.523   9.824  67.549  1.00  0.00    -0.122 A  
HETATM   14  C   UNL     1      -7.870   8.696  67.023  1.00  0.00    -0.096 A  
HETATM   15  C   UNL     1      -6.824   7.952  67.818  1.00  0.00    -0.069 C  
HETATM   16  C   UNL     1      -8.200   8.266  65.731  1.00  0.00    -0.123 A  
HETATM   17  F   UNL     1      -7.187   6.667  68.083  1.00  0.00    -0.076 F  
HETATM   18  F   UNL     1      -5.633   7.875  67.161  1.00  0.00    -0.031 F  
HETATM   19  F   UNL     1      -6.548   8.518  69.025  1.00  0.00    -0.045 F  
HETATM   20  C   UNL     1      -9.115   8.984  64.964  1.00  0.00    -0.171 A  
HETATM   21  C   UNL     1      -9.744  10.114  65.494  1.00  0.00    -0.344 A  
ENDBRANCH  10  12
ENDBRANCH   9  10
TORSDOF 2
ENDMDL
MODEL      241
REMARK 921   NORMALIZED FREE ENERGY PREDICTED BY IDOCK:   -3.58 KCAL/MOL
REMARK 922        TOTAL FREE ENERGY PREDICTED BY IDOCK:   -4.40 KCAL/MOL
REMARK 923 INTER-LIGAND FREE ENERGY PREDICTED BY IDOCK:   -3.89 KCAL/MOL
REMARK 924 INTRA-LIGAND FREE ENERGY PREDICTED BY IDOCK:   -0.51 KCAL/MOL
REMARK 927      BINDING AFFINITY PREDICTED BY RF-SCORE:    0.00 PKD
ROOT
HETATM    1  O   UNL     1      -7.154   6.474  69.450  1.00  0.00    -0.071 OA 
HETATM    2  C   UNL     1      -7.109   5.479  68.539  1.00  0.00    -0.066 C  
HETATM    3  C   UNL     1      -7.978   4.307  68.859  1.00  0.00    -0.072 A  
HETATM    4  O   UNL     1      -6.432   5.545  67.529  1.00  0.00    -0.047 OA 
HETATM    5  C   UNL     1      -8.303   3.472  67.773  1.00  0.00    -0.097 A  
HETATM    6  C   UNL     1      -9.063   2.319  67.958  1.00  0.00    -0.223 A  
HETATM    7  C   UNL     1      -9.476   1.966  69.234  1.00  0.00    -0.136 A  
HETATM    8  C   UNL     1      -9.161   2.785  70.320  1.00  0.00    -0.183 A  
HETATM    9  C   UNL     1      -8.452   3.990  70.152  1.00  0.00    -0.064 A  
ENDROOT
BRANCH   9  10
HETATM   10  N   UNL     1      -8.140   4.803  71.289  1.00  0.00    -0.098 NA 
HETATM   11  H   UNL     1      -7.206   4.714  71.690  1.00  0.00     0.000 HD 
BRANCH  10  12
HETATM   12  C   UNL     1      -9.034   5.730  71.902  1.00  0.00    -0.138 A  
HETATM   13  C   UNL     1     -10.265   6.067  71.314  1.00  0.00    -0.253 A  
HETATM   14  C   UNL     1     -11.166   6.939  71.951  1.00  0.00    -0.287 A  
HETATM   15  C   UNL     1     -12.494   7.291  71.325  1.00  0.00    -0.366 C  
HETATM   16  C   UNL     1     -10.812   7.489  73.190  1.00  0.00    -0.448 A  
HETATM   17  F   UNL     1     -13.551   6.878  72.076  1.00  0.00    -0.354 F  
HETATM   18  F   UNL     1     -12.650   8.634  71.166  1.00  0.00    -0.301 F  
HETATM   19  F   UNL     1     -12.678   6.746  70.090  1.00  0.00    -0.229 F  
HETATM   20  C   UNL     1      -9.563   7.223  73.745  1.00  0.00    -0.330 A  
HETATM   21  C   UNL     1      -8.670   6.368  73.093  1.00  0.00    -0.125 A  
ENDBRANCH  10  12
ENDBRANCH   9  10
TORSDOF 2
ENDMDL
MODEL      242
REMARK 921   NORMALIZED FREE ENERGY PREDICTED BY IDOCK:   -3.54 KCAL/MOL
REMARK 922        TOTAL FREE ENERGY PREDICTED BY IDOCK:   -4.36 KCAL/MOL
REMARK 923 INTER-LIGAND FREE ENERGY PREDICTED BY IDOCK:   -3.96 KCAL/MOL
REMARK 924 INTRA-LIGAND FREE ENERGY PREDICTED BY IDOCK:   -0.40 KCAL/MOL
REMARK 927      BINDING AFFINITY PREDICTED BY RF-SCORE:    0.00 PKD
ROOT
HETATM    1  O   UNL     1      -8.485  14.871  69.278  1.00  0.00    -0.179 OA 
HETATM    2  C   UNL     1      -7.240  14.354  69.189  1.00  0.00    -0.118 C  
HETATM    3  C   UNL     1      -7.126  13.168  68.288  1.00  0.00    -0.105 A  
HETATM    4  O   UNL     1      -6.288  14.833  69.780  1.00  0.00    -0.128 OA 
HETATM    5  C   UNL     1      -5.828  12.876  67.825  1.00  0.00    -0.139 A  
HETATM    6  C   UNL     1      -5.589  11.765  67.021  1.00  0.00    -0.131 A  
HETATM    7  C   UNL     1      -6.633  10.910  66.701  1.00  0.00    -0.120 A  
HETATM    8  C   UNL     1      -7.925  11.188  67.154  1.00  0.00    -0.139 A  
HETATM    9  C   UNL     1      -8.207  12.341  67.910  1.00  0.00    -0.161 A  
ENDROOT
BRANCH   9  10
HETATM   10  N   UNL     1      -9.541  12.592  68.365  1.00  0.00    -0.315 NA 
HETATM   11  H   UNL     1      -9.963  13.487  68.117  1.00  0.00     0.000 HD 
BRANCH  10  12
HETATM   12  C   UNL     1     -10.326  11.686  69.138  1.00  0.00    -0.014 A  
HETATM   13  C   UNL     1      -9.755  10.570  69.773  1.00  0.00    -0.010 A  
HETATM   14  C   UNL     1     -10.524   9.712  70.578  1.00  0.00    -0.367 A  
HETATM   15  C   UNL     1      -9.906   8.521  71.271  1.00  0.00    -0.216 C  
HETATM   16  C   UNL     1     -11.892   9.975  70.731  1.00  0.00    -0.435 A  
HETATM   17  F   UNL     1      -9.979   8.610  72.627  1.00  0.00    -0.345 F  
HETATM   18  F   UNL     1     -10.524   7.353  70.940  1.00  0.00    -0.212 F  
HETATM   19  F   UNL     1      -8.588   8.341  70.979  1.00  0.00    -0.117 F  
HETATM   20  C   UNL     1     -12.485  11.032  70.044  1.00  0.00    -0.319 A  
HETATM   21  C   UNL     1     -11.711  11.867  69.233  1.00  0.00    -0.389 A  
ENDBRANCH  10  12
ENDBRANCH   9  10
TORSDOF 2
ENDMDL
MODEL      243
REMARK 921   NORMALIZED FREE ENERGY PREDICTED BY IDOCK:   -3.54 KCAL/MOL
REMARK 922        TOTAL FREE ENERGY PREDICTED BY IDOCK:   -4.35 KCAL/MOL
REMARK 923 INTER-LIGAND FREE ENERGY PREDICTED BY IDOCK:   -4.01 KCAL/MOL
REMARK 924 INTRA-LIGAND FREE ENERGY PREDICTED BY IDOCK:   -0.34 KCAL/MOL
REMARK 927      BINDING AFFINITY PREDICTED BY RF-SCORE:    0.00 PKD
ROOT
HETATM    1  O   UNL     1      -8.212  15.725  67.092  1.00  0.00    -0.170 OA 
HETATM    2  C   UNL     1      -9.221  15.792  66.198  1.00  0.00    -0.350 C  
HETATM    3  C   UNL     1     -10.180  14.649  66.260  1.00  0.00    -0.302 A  
HETATM    4  O   UNL     1      -9.348  16.722  65.422  1.00  0.00    -0.343 OA 
HETATM    5  C   UNL     1     -11.445  14.880  65.685  1.00  0.00    -0.290 A  
HETATM    6  C   UNL     1     -12.404  13.871  65.636  1.00  0.00    -0.511 A  
HETATM    7  C   UNL     1     -12.100  12.609  66.126  1.00  0.00    -0.399 A  
HETATM    8  C   UNL     1     -10.850  12.367  66.699  1.00  0.00    -0.281 A  
HETATM    9  C   UNL     1      -9.887  13.386  66.823  1.00  0.00    -0.265 A  
ENDROOT
BRANCH   9  10
HETATM   10  N   UNL     1      -8.612  13.101  67.410  1.00  0.00    -0.194 NA 
HETATM   11  H   UNL     1      -8.220  13.796  68.045  1.00  0.00     0.000 HD 
BRANCH  10  12
HETATM   12  C   UNL     1      -7.850  11.919  67.174  1.00  0.00    -0.168 A  
HETATM   13  C   UNL     1      -7.932  11.217  65.960  1.00  0.00    -0.041 A  
HETATM   14  C   UNL     1      -7.137  10.084  65.713  1.00  0.00    -0.117 A  
HETATM   15  C   UNL     1      -7.217   9.337  64.404  1.00  0.00    -0.097 C  
HETATM   16  C   UNL     1      -6.258   9.645  66.713  1.00  0.00    -0.065 A  
HETATM   17  F   UNL     1      -6.044   9.365  63.714  1.00  0.00    -0.084 F  
HETATM   18  F   UNL     1      -7.517   8.020  64.578  1.00  0.00    -0.080 F  
HETATM   19  F   UNL     1      -8.162   9.825  63.553  1.00  0.00    -0.125 F  
HETATM   20  C   UNL     1      -6.224  10.287  67.949  1.00  0.00    -0.059 A  
HETATM   21  C   UNL     1      -7.033  11.402  68.186  1.00  0.00    -0.069 A  
ENDBRANCH  10  12
ENDBRANCH   9  10
TORSDOF 2
ENDMDL
MODEL      244
REMARK 921   NORMALIZED FREE ENERGY PREDICTED BY IDOCK:   -3.52 KCAL/MOL
REMARK 922        TOTAL FREE ENERGY PREDICTED BY IDOCK:   -4.33 KCAL/MOL
REMARK 923 INTER-LIGAND FREE ENERGY PREDICTED BY IDOCK:   -3.87 KCAL/MOL
REMARK 924 INTRA-LIGAND FREE ENERGY PREDICTED BY IDOCK:   -0.46 KCAL/MOL
REMARK 927      BINDING AFFINITY PREDICTED BY RF-SCORE:    0.00 PKD
ROOT
HETATM    1  O   UNL     1     -11.856  11.126  68.226  1.00  0.00    -0.522 OA 
HETATM    2  C   UNL     1     -12.135  10.505  69.391  1.00  0.00    -0.104 C  
HETATM    3  C   UNL     1     -10.963   9.835  70.031  1.00  0.00    -0.319 A  
HETATM    4  O   UNL     1     -13.247  10.511  69.888  1.00  0.00    -0.025 OA 
HETATM    5  C   UNL     1     -11.089   9.567  71.408  1.00  0.00    -0.438 A  
HETATM    6  C   UNL     1     -10.083   8.900  72.103  1.00  0.00    -0.287 A  
HETATM    7  C   UNL     1      -8.957   8.458  71.425  1.00  0.00    -0.237 A  
HETATM    8  C   UNL     1      -8.819   8.716  70.060  1.00  0.00    -0.142 A  
HETATM    9  C   UNL     1      -9.788   9.448  69.348  1.00  0.00    -0.178 A  
ENDROOT
BRANCH   9  10
HETATM   10  N   UNL     1      -9.619   9.690  67.946  1.00  0.00    -0.138 NA 
HETATM   11  H   UNL     1      -9.845  10.621  67.598  1.00  0.00     0.000 HD 
BRANCH  10  12
HETATM   12  C   UNL     1      -9.157   8.727  67.001  1.00  0.00    -0.133 A  
HETATM   13  C   UNL     1      -9.552   7.380  67.065  1.00  0.00    -0.221 A  
HETATM   14  C   UNL     1      -9.137   6.448  66.098  1.00  0.00    -0.150 A  
HETATM   15  C   UNL     1      -9.572   5.004  66.162  1.00  0.00    -0.168 C  
HETATM   16  C   UNL     1      -8.300   6.879  65.061  1.00  0.00    -0.054 A  
HETATM   17  F   UNL     1     -10.321   4.636  65.086  1.00  0.00    -0.195 F  
HETATM   18  F   UNL     1      -8.514   4.146  66.190  1.00  0.00    -0.107 F  
HETATM   19  F   UNL     1     -10.322   4.706  67.259  1.00  0.00    -0.213 F  
HETATM   20  C   UNL     1      -7.839   8.193  65.029  1.00  0.00    -0.128 A  
HETATM   21  C   UNL     1      -8.246   9.105  66.008  1.00  0.00    -0.115 A  
ENDBRANCH  10  12
ENDBRANCH   9  10
TORSDOF 2
ENDMDL
MODEL      245
REMARK 921   NORMALIZED FREE ENERGY PREDICTED BY IDOCK:   -3.51 KCAL/MOL
REMARK 922        TOTAL FREE ENERGY PREDICTED BY IDOCK:   -4.32 KCAL/MOL
REMARK 923 INTER-LIGAND FREE ENERGY PREDICTED BY IDOCK:   -3.96 KCAL/MOL
REMARK 924 INTRA-LIGAND FREE ENERGY PREDICTED BY IDOCK:   -0.36 KCAL/MOL
REMARK 927      BINDING AFFINITY PREDICTED BY RF-SCORE:    0.00 PKD
ROOT
HETATM    1  O   UNL     1      -7.326   7.619  71.964  1.00  0.00    -0.066 OA 
HETATM    2  C   UNL     1      -8.250   7.698  72.946  1.00  0.00    -0.120 C  
HETATM    3  C   UNL     1      -9.112   6.486  73.084  1.00  0.00    -0.137 A  
HETATM    4  O   UNL     1      -8.354   8.672  73.671  1.00  0.00    -0.380 OA 
HETATM    5  C   UNL     1      -9.763   6.338  74.323  1.00  0.00    -0.269 A  
HETATM    6  C   UNL     1     -10.634   5.275  74.551  1.00  0.00    -0.114 A  
HETATM    7  C   UNL     1     -10.895   4.369  73.533  1.00  0.00    -0.358 A  
HETATM    8  C   UNL     1     -10.256   4.505  72.300  1.00  0.00    -0.257 A  
HETATM    9  C   UNL     1      -9.320   5.530  72.064  1.00  0.00    -0.147 A  
ENDROOT
BRANCH   9  10
HETATM   10  N   UNL     1      -8.687   5.644  70.785  1.00  0.00    -0.130 NA 
HETATM   11  H   UNL     1      -7.739   5.278  70.692  1.00  0.00     0.000 HD 
BRANCH  10  12
HETATM   12  C   UNL     1      -9.282   6.231  69.629  1.00  0.00    -0.141 A  
HETATM   13  C   UNL     1      -8.691   7.319  68.965  1.00  0.00    -0.132 A  
HETATM   14  C   UNL     1      -9.253   7.857  67.794  1.00  0.00    -0.144 A  
HETATM   15  C   UNL     1      -8.610   9.018  67.075  1.00  0.00    -0.116 C  
HETATM   16  C   UNL     1     -10.439   7.299  67.297  1.00  0.00    -0.380 A  
HETATM   17  F   UNL     1      -8.207   8.693  65.816  1.00  0.00    -0.104 F  
HETATM   18  F   UNL     1      -9.459  10.073  66.934  1.00  0.00    -0.169 F  
HETATM   19  F   UNL     1      -7.506   9.509  67.705  1.00  0.00    -0.087 F  
HETATM   20  C   UNL     1     -11.076   6.272  67.989  1.00  0.00    -0.365 A  
HETATM   21  C   UNL     1     -10.514   5.758  69.161  1.00  0.00    -0.346 A  
ENDBRANCH  10  12
ENDBRANCH   9  10
TORSDOF 2
ENDMDL
MODEL      246
REMARK 921   NORMALIZED FREE ENERGY PREDICTED BY IDOCK:   -3.46 KCAL/MOL
REMARK 922        TOTAL FREE ENERGY PREDICTED BY IDOCK:   -4.27 KCAL/MOL
REMARK 923 INTER-LIGAND FREE ENERGY PREDICTED BY IDOCK:   -4.36 KCAL/MOL
REMARK 924 INTRA-LIGAND FREE ENERGY PREDICTED BY IDOCK:    0.09 KCAL/MOL
REMARK 927      BINDING AFFINITY PREDICTED BY RF-SCORE:    0.00 PKD
ROOT
HETATM    1  O   UNL     1      -9.288   9.361  69.527  1.00  0.00    -0.161 OA 
HETATM    2  C   UNL     1     -10.431  10.023  69.804  1.00  0.00    -0.256 C  
HETATM    3  C   UNL     1     -11.476   9.199  70.483  1.00  0.00    -0.271 A  
HETATM    4  O   UNL     1     -10.586  11.202  69.539  1.00  0.00    -0.194 OA 
HETATM    5  C   UNL     1     -12.472   9.919  71.169  1.00  0.00    -0.464 A  
HETATM    6  C   UNL     1     -13.527   9.261  71.797  1.00  0.00    -0.483 A  
HETATM    7  C   UNL     1     -13.622   7.879  71.714  1.00  0.00    -0.396 A  
HETATM    8  C   UNL     1     -12.641   7.153  71.037  1.00  0.00    -0.335 A  
HETATM    9  C   UNL     1     -11.528   7.787  70.452  1.00  0.00    -0.158 A  
ENDROOT
BRANCH   9  10
HETATM   10  N   UNL     1     -10.543   7.012  69.759  1.00  0.00    -0.226 NA 
HETATM   11  H   UNL     1     -10.117   7.425  68.929  1.00  0.00     0.000 HD 
BRANCH  10  12
HETATM   12  C   UNL     1     -10.112   5.707  70.141  1.00  0.00    -0.227 A  
HETATM   13  C   UNL     1      -9.315   4.916  69.296  1.00  0.00    -0.185 A  
HETATM   14  C   UNL     1      -8.848   3.653  69.701  1.00  0.00    -0.149 A  
HETATM   15  C   UNL     1      -7.982   2.809  68.798  1.00  0.00    -0.052 C  
HETATM   16  C   UNL     1      -9.204   3.177  70.970  1.00  0.00    -0.200 A  
HETATM   17  F   UNL     1      -6.745   2.585  69.321  1.00  0.00    -0.032 F  
HETATM   18  F   UNL     1      -8.519   1.578  68.570  1.00  0.00    -0.064 F  
HETATM   19  F   UNL     1      -7.774   3.358  67.569  1.00  0.00    -0.073 F  
HETATM   20  C   UNL     1     -10.056   3.918  71.785  1.00  0.00    -0.186 A  
HETATM   21  C   UNL     1     -10.527   5.164  71.362  1.00  0.00    -0.249 A  
ENDBRANCH  10  12
ENDBRANCH   9  10
TORSDOF 2
ENDMDL
MODEL      247
REMARK 921   NORMALIZED FREE ENERGY PREDICTED BY IDOCK:   -3.40 KCAL/MOL
REMARK 922        TOTAL FREE ENERGY PREDICTED BY IDOCK:   -4.20 KCAL/MOL
REMARK 923 INTER-LIGAND FREE ENERGY PREDICTED BY IDOCK:   -3.94 KCAL/MOL
REMARK 924 INTRA-LIGAND FREE ENERGY PREDICTED BY IDOCK:   -0.27 KCAL/MOL
REMARK 927      BINDING AFFINITY PREDICTED BY RF-SCORE:    0.00 PKD
ROOT
HETATM    1  O   UNL     1      -9.282  15.470  68.488  1.00  0.00    -0.185 OA 
HETATM    2  C   UNL     1      -8.047  15.525  69.030  1.00  0.00    -0.220 C  
HETATM    3  C   UNL     1      -7.345  14.209  69.106  1.00  0.00    -0.067 A  
HETATM    4  O   UNL     1      -7.541  16.568  69.406  1.00  0.00    -0.215 OA 
HETATM    5  C   UNL     1      -5.944  14.270  69.242  1.00  0.00    -0.095 A  
HETATM    6  C   UNL     1      -5.187  13.109  69.374  1.00  0.00    -0.075 A  
HETATM    7  C   UNL     1      -5.820  11.875  69.412  1.00  0.00    -0.076 A  
HETATM    8  C   UNL     1      -7.208  11.800  69.279  1.00  0.00     0.009 A  
HETATM    9  C   UNL     1      -7.991  12.952  69.075  1.00  0.00     0.308 A  
ENDROOT
BRANCH   9  10
HETATM   10  N   UNL     1      -9.413  12.841  68.950  1.00  0.00    -0.389 NA 
HETATM   11  H   UNL     1      -9.968  12.900  69.803  1.00  0.00     0.000 HD 
BRANCH  10  12
HETATM   12  C   UNL     1     -10.113  12.654  67.721  1.00  0.00    -0.220 A  
HETATM   13  C   UNL     1      -9.495  12.076  66.599  1.00  0.00    -0.222 A  
HETATM   14  C   UNL     1     -10.206  11.843  65.409  1.00  0.00    -0.300 A  
HETATM   15  C   UNL     1      -9.544  11.210  64.209  1.00  0.00    -0.252 C  
HETATM   16  C   UNL     1     -11.555  12.215  65.345  1.00  0.00    -0.383 A  
HETATM   17  F   UNL     1     -10.102  10.014  63.875  1.00  0.00    -0.307 F  
HETATM   18  F   UNL     1      -9.638  11.990  63.096  1.00  0.00    -0.378 F  
HETATM   19  F   UNL     1      -8.215  10.967  64.382  1.00  0.00    -0.102 F  
HETATM   20  C   UNL     1     -12.158  12.860  66.423  1.00  0.00    -0.400 A  
HETATM   21  C   UNL     1     -11.434  13.100  67.594  1.00  0.00    -0.366 A  
ENDBRANCH  10  12
ENDBRANCH   9  10
TORSDOF 2
ENDMDL
MODEL      248
REMARK 921   NORMALIZED FREE ENERGY PREDICTED BY IDOCK:   -3.39 KCAL/MOL
REMARK 922        TOTAL FREE ENERGY PREDICTED BY IDOCK:   -4.19 KCAL/MOL
REMARK 923 INTER-LIGAND FREE ENERGY PREDICTED BY IDOCK:   -3.57 KCAL/MOL
REMARK 924 INTRA-LIGAND FREE ENERGY PREDICTED BY IDOCK:   -0.62 KCAL/MOL
REMARK 927      BINDING AFFINITY PREDICTED BY RF-SCORE:    0.00 PKD
ROOT
HETATM    1  O   UNL     1      -7.974   7.575  68.144  1.00  0.00    -0.119 OA 
HETATM    2  C   UNL     1      -7.143   6.512  68.111  1.00  0.00    -0.083 C  
HETATM    3  C   UNL     1      -7.801   5.223  67.739  1.00  0.00    -0.092 A  
HETATM    4  O   UNL     1      -5.951   6.603  68.345  1.00  0.00    -0.019 OA 
HETATM    5  C   UNL     1      -6.941   4.211  67.270  1.00  0.00    -0.059 A  
HETATM    6  C   UNL     1      -7.433   2.950  66.942  1.00  0.00    -0.070 A  
HETATM    7  C   UNL     1      -8.781   2.671  67.114  1.00  0.00    -0.135 A  
HETATM    8  C   UNL     1      -9.644   3.666  67.578  1.00  0.00    -0.194 A  
HETATM    9  C   UNL     1      -9.186   4.969  67.852  1.00  0.00    -0.119 A  
ENDROOT
BRANCH   9  10
HETATM   10  N   UNL     1     -10.097   5.963  68.333  1.00  0.00    -0.154 NA 
HETATM   11  H   UNL     1     -10.393   6.688  67.679  1.00  0.00     0.000 HD 
BRANCH  10  12
HETATM   12  C   UNL     1     -10.623   6.017  69.658  1.00  0.00    -0.300 A  
HETATM   13  C   UNL     1     -10.043   5.294  70.714  1.00  0.00    -0.294 A  
HETATM   14  C   UNL     1     -10.532   5.395  72.028  1.00  0.00    -0.278 A  
HETATM   15  C   UNL     1      -9.900   4.626  73.163  1.00  0.00    -0.143 C  
HETATM   16  C   UNL     1     -11.633   6.225  72.276  1.00  0.00    -0.355 A  
HETATM   17  F   UNL     1      -9.368   5.443  74.114  1.00  0.00    -0.128 F  
HETATM   18  F   UNL     1     -10.796   3.832  73.811  1.00  0.00    -0.228 F  
HETATM   19  F   UNL     1      -8.888   3.803  72.770  1.00  0.00    -0.091 F  
HETATM   20  C   UNL     1     -12.265   6.887  71.226  1.00  0.00    -0.427 A  
HETATM   21  C   UNL     1     -11.778   6.764  69.921  1.00  0.00    -0.279 A  
ENDBRANCH  10  12
ENDBRANCH   9  10
TORSDOF 2
ENDMDL
MODEL      249
REMARK 921   NORMALIZED FREE ENERGY PREDICTED BY IDOCK:   -3.38 KCAL/MOL
REMARK 922        TOTAL FREE ENERGY PREDICTED BY IDOCK:   -4.18 KCAL/MOL
REMARK 923 INTER-LIGAND FREE ENERGY PREDICTED BY IDOCK:   -3.75 KCAL/MOL
REMARK 924 INTRA-LIGAND FREE ENERGY PREDICTED BY IDOCK:   -0.43 KCAL/MOL
REMARK 927      BINDING AFFINITY PREDICTED BY RF-SCORE:    0.00 PKD
ROOT
HETATM    1  O   UNL     1      -7.280   7.635  70.648  1.00  0.00    -0.060 OA 
HETATM    2  C   UNL     1      -8.009   8.276  71.587  1.00  0.00    -0.128 C  
HETATM    3  C   UNL     1      -9.480   8.028  71.504  1.00  0.00    -0.204 A  
HETATM    4  O   UNL     1      -7.502   8.980  72.442  1.00  0.00    -0.340 OA 
HETATM    5  C   UNL     1     -10.211   8.297  72.677  1.00  0.00    -0.368 A  
HETATM    6  C   UNL     1     -11.597   8.154  72.704  1.00  0.00    -0.441 A  
HETATM    7  C   UNL     1     -12.272   7.778  71.553  1.00  0.00    -0.344 A  
HETATM    8  C   UNL     1     -11.559   7.508  70.383  1.00  0.00    -0.172 A  
HETATM    9  C   UNL     1     -10.153   7.579  70.346  1.00  0.00    -0.196 A  
ENDROOT
BRANCH   9  10
HETATM   10  N   UNL     1      -9.453   7.302  69.128  1.00  0.00    -0.149 NA 
HETATM   11  H   UNL     1      -9.017   8.088  68.646  1.00  0.00     0.000 HD 
BRANCH  10  12
HETATM   12  C   UNL     1      -9.319   6.011  68.537  1.00  0.00    -0.117 A  
HETATM   13  C   UNL     1      -8.899   5.847  67.206  1.00  0.00    -0.106 A  
HETATM   14  C   UNL     1      -8.716   4.570  66.648  1.00  0.00    -0.111 A  
HETATM   15  C   UNL     1      -8.253   4.395  65.222  1.00  0.00    -0.110 C  
HETATM   16  C   UNL     1      -8.976   3.443  67.439  1.00  0.00    -0.174 A  
HETATM   17  F   UNL     1      -7.049   3.765  65.137  1.00  0.00    -0.059 F  
HETATM   18  F   UNL     1      -9.119   3.645  64.485  1.00  0.00    -0.115 F  
HETATM   19  F   UNL     1      -8.109   5.569  64.545  1.00  0.00    -0.101 F  
HETATM   20  C   UNL     1      -9.466   3.592  68.734  1.00  0.00    -0.214 A  
HETATM   21  C   UNL     1      -9.660   4.869  69.271  1.00  0.00    -0.241 A  
ENDBRANCH  10  12
ENDBRANCH   9  10
TORSDOF 2
ENDMDL
MODEL      250
REMARK 921   NORMALIZED FREE ENERGY PREDICTED BY IDOCK:   -3.36 KCAL/MOL
REMARK 922        TOTAL FREE ENERGY PREDICTED BY IDOCK:   -4.15 KCAL/MOL
REMARK 923 INTER-LIGAND FREE ENERGY PREDICTED BY IDOCK:   -3.53 KCAL/MOL
REMARK 924 INTRA-LIGAND FREE ENERGY PREDICTED BY IDOCK:   -0.63 KCAL/MOL
REMARK 927      BINDING AFFINITY PREDICTED BY RF-SCORE:    0.00 PKD
ROOT
HETATM    1  O   UNL     1      -6.556   8.131  67.043  1.00  0.00    -0.055 OA 
HETATM    2  C   UNL     1      -6.717   6.834  66.706  1.00  0.00    -0.056 C  
HETATM    3  C   UNL     1      -8.082   6.290  66.975  1.00  0.00    -0.109 A  
HETATM    4  O   UNL     1      -5.826   6.171  66.205  1.00  0.00    -0.019 OA 
HETATM    5  C   UNL     1      -8.427   5.126  66.262  1.00  0.00    -0.114 A  
HETATM    6  C   UNL     1      -9.654   4.498  66.467  1.00  0.00    -0.200 A  
HETATM    7  C   UNL     1     -10.534   5.002  67.413  1.00  0.00    -0.121 A  
HETATM    8  C   UNL     1     -10.205   6.155  68.127  1.00  0.00    -0.208 A  
HETATM    9  C   UNL     1      -9.002   6.849  67.891  1.00  0.00    -0.121 A  
ENDROOT
BRANCH   9  10
HETATM   10  N   UNL     1      -8.692   8.025  68.645  1.00  0.00    -0.131 NA 
HETATM   11  H   UNL     1      -7.846   8.010  69.216  1.00  0.00     0.000 HD 
BRANCH  10  12
HETATM   12  C   UNL     1      -9.476   9.217  68.660  1.00  0.00    -0.146 A  
HETATM   13  C   UNL     1      -9.415  10.154  67.615  1.00  0.00    -0.166 A  
HETATM   14  C   UNL     1     -10.230  11.299  67.609  1.00  0.00    -0.206 A  
HETATM   15  C   UNL     1     -10.173  12.298  66.479  1.00  0.00    -0.214 C  
HETATM   16  C   UNL     1     -11.107  11.509  68.681  1.00  0.00    -0.291 A  
HETATM   17  F   UNL     1     -11.352  12.392  65.804  1.00  0.00    -0.328 F  
HETATM   18  F   UNL     1      -9.893  13.557  66.916  1.00  0.00    -0.231 F  
HETATM   19  F   UNL     1      -9.228  12.011  65.541  1.00  0.00    -0.199 F  
HETATM   20  C   UNL     1     -11.121  10.628  69.760  1.00  0.00    -0.358 A  
HETATM   21  C   UNL     1     -10.292   9.503  69.761  1.00  0.00    -0.251 A  
ENDBRANCH  10  12
ENDBRANCH   9  10
TORSDOF 2
ENDMDL
MODEL      251
REMARK 921   NORMALIZED FREE ENERGY PREDICTED BY IDOCK:   -3.35 KCAL/MOL
REMARK 922        TOTAL FREE ENERGY PREDICTED BY IDOCK:   -4.14 KCAL/MOL
REMARK 923 INTER-LIGAND FREE ENERGY PREDICTED BY IDOCK:   -3.55 KCAL/MOL
REMARK 924 INTRA-LIGAND FREE ENERGY PREDICTED BY IDOCK:   -0.59 KCAL/MOL
REMARK 927      BINDING AFFINITY PREDICTED BY RF-SCORE:    0.00 PKD
ROOT
HETATM    1  O   UNL     1      -6.614   5.865  67.822  1.00  0.00    -0.052 OA 
HETATM    2  C   UNL     1      -6.689   4.922  66.859  1.00  0.00    -0.054 C  
HETATM    3  C   UNL     1      -8.052   4.736  66.279  1.00  0.00    -0.107 A  
HETATM    4  O   UNL     1      -5.716   4.292  66.482  1.00  0.00    -0.017 OA 
HETATM    5  C   UNL     1      -8.100   4.113  65.017  1.00  0.00    -0.097 A  
HETATM    6  C   UNL     1      -9.318   3.839  64.399  1.00  0.00    -0.150 A  
HETATM    7  C   UNL     1     -10.503   4.148  65.050  1.00  0.00    -0.187 A  
HETATM    8  C   UNL     1     -10.471   4.766  66.301  1.00  0.00    -0.311 A  
HETATM    9  C   UNL     1      -9.254   5.116  66.918  1.00  0.00    -0.118 A  
ENDROOT
BRANCH   9  10
HETATM   10  N   UNL     1      -9.256   5.742  68.205  1.00  0.00    -0.117 NA 
HETATM   11  H   UNL     1      -9.060   6.742  68.244  1.00  0.00     0.000 HD 
BRANCH  10  12
HETATM   12  C   UNL     1      -9.512   5.073  69.439  1.00  0.00    -0.144 A  
HETATM   13  C   UNL     1     -10.235   5.687  70.476  1.00  0.00    -0.297 A  
HETATM   14  C   UNL     1     -10.531   5.002  71.667  1.00  0.00    -0.232 A  
HETATM   15  C   UNL     1     -11.319   5.658  72.775  1.00  0.00    -0.299 C  
HETATM   16  C   UNL     1     -10.077   3.686  71.820  1.00  0.00    -0.160 A  
HETATM   17  F   UNL     1     -12.501   5.028  73.020  1.00  0.00    -0.301 F  
HETATM   18  F   UNL     1     -10.645   5.658  73.959  1.00  0.00    -0.240 F  
HETATM   19  F   UNL     1     -11.634   6.960  72.527  1.00  0.00    -0.278 F  
HETATM   20  C   UNL     1      -9.294   3.094  70.833  1.00  0.00    -0.221 A  
HETATM   21  C   UNL     1      -8.992   3.793  69.660  1.00  0.00    -0.171 A  
ENDBRANCH  10  12
ENDBRANCH   9  10
TORSDOF 2
ENDMDL
MODEL      252
REMARK 921   NORMALIZED FREE ENERGY PREDICTED BY IDOCK:   -3.34 KCAL/MOL
REMARK 922        TOTAL FREE ENERGY PREDICTED BY IDOCK:   -4.13 KCAL/MOL
REMARK 923 INTER-LIGAND FREE ENERGY PREDICTED BY IDOCK:   -4.45 KCAL/MOL
REMARK 924 INTRA-LIGAND FREE ENERGY PREDICTED BY IDOCK:    0.32 KCAL/MOL
REMARK 927      BINDING AFFINITY PREDICTED BY RF-SCORE:    0.00 PKD
ROOT
HETATM    1  O   UNL     1      -7.032  14.346  69.934  1.00  0.00    -0.111 OA 
HETATM    2  C   UNL     1      -6.534  15.539  69.543  1.00  0.00    -0.165 C  
HETATM    3  C   UNL     1      -7.235  16.149  68.374  1.00  0.00    -0.135 A  
HETATM    4  O   UNL     1      -5.604  16.080  70.114  1.00  0.00    -0.153 OA 
HETATM    5  C   UNL     1      -7.059  17.537  68.211  1.00  0.00    -0.210 A  
HETATM    6  C   UNL     1      -7.621  18.208  67.128  1.00  0.00    -0.225 A  
HETATM    7  C   UNL     1      -8.333  17.497  66.173  1.00  0.00    -0.200 A  
HETATM    8  C   UNL     1      -8.516  16.120  66.322  1.00  0.00    -0.357 A  
HETATM    9  C   UNL     1      -8.017  15.429  67.442  1.00  0.00    -0.188 A  
ENDROOT
BRANCH   9  10
HETATM   10  N   UNL     1      -8.216  14.016  67.560  1.00  0.00    -0.173 NA 
HETATM   11  H   UNL     1      -7.729  13.532  68.315  1.00  0.00     0.000 HD 
BRANCH  10  12
HETATM   12  C   UNL     1      -9.045  13.233  66.703  1.00  0.00    -0.171 A  
HETATM   13  C   UNL     1      -8.838  11.853  66.534  1.00  0.00    -0.178 A  
HETATM   14  C   UNL     1      -9.693  11.077  65.731  1.00  0.00    -0.268 A  
HETATM   15  C   UNL     1      -9.477   9.593  65.561  1.00  0.00    -0.266 C  
HETATM   16  C   UNL     1     -10.760  11.706  65.077  1.00  0.00    -0.351 A  
HETATM   17  F   UNL     1     -10.516   8.856  66.042  1.00  0.00    -0.303 F  
HETATM   18  F   UNL     1      -9.342   9.237  64.253  1.00  0.00    -0.246 F  
HETATM   19  F   UNL     1      -8.364   9.125  66.191  1.00  0.00    -0.110 F  
HETATM   20  C   UNL     1     -10.929  13.085  65.174  1.00  0.00    -0.317 A  
HETATM   21  C   UNL     1     -10.061  13.847  65.962  1.00  0.00    -0.324 A  
ENDBRANCH  10  12
ENDBRANCH   9  10
TORSDOF 2
ENDMDL
MODEL      253
REMARK 921   NORMALIZED FREE ENERGY PREDICTED BY IDOCK:   -3.32 KCAL/MOL
REMARK 922        TOTAL FREE ENERGY PREDICTED BY IDOCK:   -4.11 KCAL/MOL
REMARK 923 INTER-LIGAND FREE ENERGY PREDICTED BY IDOCK:   -3.49 KCAL/MOL
REMARK 924 INTRA-LIGAND FREE ENERGY PREDICTED BY IDOCK:   -0.63 KCAL/MOL
REMARK 927      BINDING AFFINITY PREDICTED BY RF-SCORE:    0.00 PKD
ROOT
HETATM    1  O   UNL     1      -7.905   7.270  67.063  1.00  0.00    -0.108 OA 
HETATM    2  C   UNL     1      -8.153   6.089  66.458  1.00  0.00    -0.109 C  
HETATM    3  C   UNL     1      -8.414   4.956  67.396  1.00  0.00    -0.105 A  
HETATM    4  O   UNL     1      -8.181   5.966  65.246  1.00  0.00    -0.129 OA 
HETATM    5  C   UNL     1      -9.091   3.851  66.845  1.00  0.00    -0.164 A  
HETATM    6  C   UNL     1      -9.346   2.714  67.609  1.00  0.00    -0.209 A  
HETATM    7  C   UNL     1      -8.894   2.651  68.919  1.00  0.00    -0.151 A  
HETATM    8  C   UNL     1      -8.221   3.740  69.477  1.00  0.00    -0.067 A  
HETATM    9  C   UNL     1      -8.011   4.927  68.750  1.00  0.00    -0.080 A  
ENDROOT
BRANCH   9  10
HETATM   10  N   UNL     1      -7.312   6.022  69.350  1.00  0.00    -0.077 NA 
HETATM   11  H   UNL     1      -6.390   6.253  68.980  1.00  0.00     0.000 HD 
BRANCH  10  12
HETATM   12  C   UNL     1      -7.806   6.816  70.427  1.00  0.00    -0.109 A  
HETATM   13  C   UNL     1      -9.165   7.158  70.530  1.00  0.00    -0.158 A  
HETATM   14  C   UNL     1      -9.655   7.894  71.623  1.00  0.00    -0.206 A  
HETATM   15  C   UNL     1     -11.118   8.249  71.739  1.00  0.00    -0.278 C  
HETATM   16  C   UNL     1      -8.757   8.304  72.617  1.00  0.00    -0.291 A  
HETATM   17  F   UNL     1     -11.706   7.691  72.832  1.00  0.00    -0.347 F  
HETATM   18  F   UNL     1     -11.316   9.592  71.853  1.00  0.00    -0.428 F  
HETATM   19  F   UNL     1     -11.864   7.852  70.670  1.00  0.00    -0.283 F  
HETATM   20  C   UNL     1      -7.396   8.039  72.488  1.00  0.00    -0.122 A  
HETATM   21  C   UNL     1      -6.921   7.321  71.387  1.00  0.00    -0.063 A  
ENDBRANCH  10  12
ENDBRANCH   9  10
TORSDOF 2
ENDMDL
MODEL      254
REMARK 921   NORMALIZED FREE ENERGY PREDICTED BY IDOCK:   -3.31 KCAL/MOL
REMARK 922        TOTAL FREE ENERGY PREDICTED BY IDOCK:   -4.10 KCAL/MOL
REMARK 923 INTER-LIGAND FREE ENERGY PREDICTED BY IDOCK:   -3.59 KCAL/MOL
REMARK 924 INTRA-LIGAND FREE ENERGY PREDICTED BY IDOCK:   -0.51 KCAL/MOL
REMARK 927      BINDING AFFINITY PREDICTED BY RF-SCORE:    0.00 PKD
ROOT
HETATM    1  O   UNL     1      -7.541   5.954  68.674  1.00  0.00    -0.087 OA 
HETATM    2  C   UNL     1      -7.353   5.108  67.639  1.00  0.00    -0.075 C  
HETATM    3  C   UNL     1      -8.517   4.997  66.711  1.00  0.00    -0.106 A  
HETATM    4  O   UNL     1      -6.309   4.503  67.469  1.00  0.00    -0.038 OA 
HETATM    5  C   UNL     1      -8.229   4.498  65.426  1.00  0.00    -0.111 A  
HETATM    6  C   UNL     1      -9.242   4.301  64.490  1.00  0.00    -0.155 A  
HETATM    7  C   UNL     1     -10.559   4.564  64.838  1.00  0.00    -0.042 A  
HETATM    8  C   UNL     1     -10.859   5.059  66.109  1.00  0.00    -0.160 A  
HETATM    9  C   UNL     1      -9.848   5.332  67.049  1.00  0.00    -0.167 A  
ENDROOT
BRANCH   9  10
HETATM   10  N   UNL     1     -10.191   5.833  68.346  1.00  0.00    -0.174 NA 
HETATM   11  H   UNL     1     -10.232   5.163  69.115  1.00  0.00     0.000 HD 
BRANCH  10  12
HETATM   12  C   UNL     1     -10.477   7.198  68.645  1.00  0.00    -0.197 A  
HETATM   13  C   UNL     1     -10.302   8.215  67.693  1.00  0.00    -0.313 A  
HETATM   14  C   UNL     1     -10.639   9.551  67.977  1.00  0.00    -0.282 A  
HETATM   15  C   UNL     1     -10.462  10.641  66.948  1.00  0.00    -0.249 C  
HETATM   16  C   UNL     1     -11.145   9.864  69.245  1.00  0.00    -0.220 A  
HETATM   17  F   UNL     1     -11.642  11.222  66.594  1.00  0.00    -0.326 F  
HETATM   18  F   UNL     1      -9.669  11.652  67.398  1.00  0.00    -0.173 F  
HETATM   19  F   UNL     1      -9.895  10.211  65.787  1.00  0.00    -0.248 F  
HETATM   20  C   UNL     1     -11.250   8.878  70.223  1.00  0.00    -0.219 A  
HETATM   21  C   UNL     1     -10.895   7.558  69.932  1.00  0.00    -0.250 A  
ENDBRANCH  10  12
ENDBRANCH   9  10
TORSDOF 2
ENDMDL
MODEL      255
REMARK 921   NORMALIZED FREE ENERGY PREDICTED BY IDOCK:   -3.25 KCAL/MOL
REMARK 922        TOTAL FREE ENERGY PREDICTED BY IDOCK:   -4.03 KCAL/MOL
REMARK 923 INTER-LIGAND FREE ENERGY PREDICTED BY IDOCK:   -3.49 KCAL/MOL
REMARK 924 INTRA-LIGAND FREE ENERGY PREDICTED BY IDOCK:   -0.54 KCAL/MOL
REMARK 927      BINDING AFFINITY PREDICTED BY RF-SCORE:    0.00 PKD
ROOT
HETATM    1  O   UNL     1      -7.144   8.143  71.533  1.00  0.00    -0.063 OA 
HETATM    2  C   UNL     1      -8.066   8.140  72.520  1.00  0.00    -0.150 C  
HETATM    3  C   UNL     1      -8.866   6.883  72.615  1.00  0.00    -0.137 A  
HETATM    4  O   UNL     1      -8.213   9.079  73.281  1.00  0.00    -0.166 OA 
HETATM    5  C   UNL     1      -9.502   6.656  73.851  1.00  0.00    -0.212 A  
HETATM    6  C   UNL     1     -10.318   5.543  74.043  1.00  0.00    -0.297 A  
HETATM    7  C   UNL     1     -10.540   4.665  72.993  1.00  0.00    -0.278 A  
HETATM    8  C   UNL     1      -9.915   4.877  71.762  1.00  0.00    -0.252 A  
HETATM    9  C   UNL     1      -9.032   5.955  71.562  1.00  0.00    -0.143 A  
ENDROOT
BRANCH   9  10
HETATM   10  N   UNL     1      -8.413   6.149  70.285  1.00  0.00    -0.124 NA 
HETATM   11  H   UNL     1      -7.402   6.282  70.266  1.00  0.00     0.000 HD 
BRANCH  10  12
HETATM   12  C   UNL     1      -9.104   6.169  69.037  1.00  0.00    -0.124 A  
HETATM   13  C   UNL     1      -8.643   5.443  67.926  1.00  0.00    -0.104 A  
HETATM   14  C   UNL     1      -9.358   5.424  66.716  1.00  0.00    -0.136 A  
HETATM   15  C   UNL     1      -8.868   4.633  65.526  1.00  0.00    -0.134 C  
HETATM   16  C   UNL     1     -10.546   6.160  66.622  1.00  0.00    -0.296 A  
HETATM   17  F   UNL     1      -9.731   3.644  65.166  1.00  0.00    -0.159 F  
HETATM   18  F   UNL     1      -8.709   5.411  64.419  1.00  0.00    -0.142 F  
HETATM   19  F   UNL     1      -7.667   4.025  65.730  1.00  0.00    -0.084 F  
HETATM   20  C   UNL     1     -10.972   6.945  67.690  1.00  0.00    -0.304 A  
HETATM   21  C   UNL     1     -10.242   6.969  68.882  1.00  0.00    -0.183 A  
ENDBRANCH  10  12
ENDBRANCH   9  10
TORSDOF 2
ENDMDL
MODEL      256
REMARK 921   NORMALIZED FREE ENERGY PREDICTED BY IDOCK:   -3.25 KCAL/MOL
REMARK 922        TOTAL FREE ENERGY PREDICTED BY IDOCK:   -4.03 KCAL/MOL
REMARK 923 INTER-LIGAND FREE ENERGY PREDICTED BY IDOCK:   -3.47 KCAL/MOL
REMARK 924 INTRA-LIGAND FREE ENERGY PREDICTED BY IDOCK:   -0.56 KCAL/MOL
REMARK 927      BINDING AFFINITY PREDICTED BY RF-SCORE:    0.00 PKD
ROOT
HETATM    1  O   UNL     1     -11.860   6.517  70.800  1.00  0.00    -0.373 OA 
HETATM    2  C   UNL     1     -11.309   6.148  71.976  1.00  0.00    -0.297 C  
HETATM    3  C   UNL     1     -10.101   6.935  72.367  1.00  0.00    -0.189 A  
HETATM    4  O   UNL     1     -11.774   5.260  72.668  1.00  0.00    -0.231 OA 
HETATM    5  C   UNL     1      -9.764   6.898  73.734  1.00  0.00    -0.286 A  
HETATM    6  C   UNL     1      -8.630   7.551  74.209  1.00  0.00    -0.270 A  
HETATM    7  C   UNL     1      -7.796   8.216  73.321  1.00  0.00    -0.220 A  
HETATM    8  C   UNL     1      -8.118   8.260  71.964  1.00  0.00    -0.188 A  
HETATM    9  C   UNL     1      -9.294   7.667  71.467  1.00  0.00    -0.136 A  
ENDROOT
BRANCH   9  10
HETATM   10  N   UNL     1      -9.591   7.725  70.067  1.00  0.00    -0.161 NA 
HETATM   11  H   UNL     1     -10.289   8.403  69.760  1.00  0.00     0.000 HD 
BRANCH  10  12
HETATM   12  C   UNL     1      -8.985   6.906  69.069  1.00  0.00    -0.132 A  
HETATM   13  C   UNL     1      -8.818   7.353  67.747  1.00  0.00    -0.128 A  
HETATM   14  C   UNL     1      -8.170   6.563  66.782  1.00  0.00    -0.110 A  
HETATM   15  C   UNL     1      -7.979   7.050  65.366  1.00  0.00    -0.129 C  
HETATM   16  C   UNL     1      -7.699   5.296  67.153  1.00  0.00    -0.096 A  
HETATM   17  F   UNL     1      -6.666   7.180  65.031  1.00  0.00    -0.043 F  
HETATM   18  F   UNL     1      -8.516   6.198  64.450  1.00  0.00    -0.128 F  
HETATM   19  F   UNL     1      -8.548   8.264  65.124  1.00  0.00    -0.160 F  
HETATM   20  C   UNL     1      -7.927   4.810  68.438  1.00  0.00    -0.084 A  
HETATM   21  C   UNL     1      -8.588   5.601  69.383  1.00  0.00    -0.106 A  
ENDBRANCH  10  12
ENDBRANCH   9  10
TORSDOF 2
ENDMDL
MODEL      257
REMARK 921   NORMALIZED FREE ENERGY PREDICTED BY IDOCK:   -3.21 KCAL/MOL
REMARK 922        TOTAL FREE ENERGY PREDICTED BY IDOCK:   -3.99 KCAL/MOL
REMARK 923 INTER-LIGAND FREE ENERGY PREDICTED BY IDOCK:   -3.54 KCAL/MOL
REMARK 924 INTRA-LIGAND FREE ENERGY PREDICTED BY IDOCK:   -0.45 KCAL/MOL
REMARK 927      BINDING AFFINITY PREDICTED BY RF-SCORE:    0.00 PKD
ROOT
HETATM    1  O   UNL     1     -12.260  13.471  64.838  1.00  0.00    -0.375 OA 
HETATM    2  C   UNL     1     -11.446  12.413  64.637  1.00  0.00    -0.331 C  
HETATM    3  C   UNL     1     -10.628  12.027  65.826  1.00  0.00    -0.301 A  
HETATM    4  O   UNL     1     -11.400  11.812  63.578  1.00  0.00    -0.418 OA 
HETATM    5  C   UNL     1     -10.117  10.715  65.816  1.00  0.00    -0.327 A  
HETATM    6  C   UNL     1      -9.297  10.258  66.846  1.00  0.00    -0.183 A  
HETATM    7  C   UNL     1      -8.947  11.117  67.878  1.00  0.00    -0.143 A  
HETATM    8  C   UNL     1      -9.447  12.420  67.900  1.00  0.00    -0.198 A  
HETATM    9  C   UNL     1     -10.332  12.886  66.908  1.00  0.00    -0.243 A  
ENDROOT
BRANCH   9  10
HETATM   10  N   UNL     1     -10.821  14.231  66.957  1.00  0.00    -0.293 NA 
HETATM   11  H   UNL     1     -11.795  14.369  67.226  1.00  0.00     0.000 HD 
BRANCH  10  12
HETATM   12  C   UNL     1     -10.048  15.393  66.660  1.00  0.00    -0.265 A  
HETATM   13  C   UNL     1      -8.946  15.769  67.445  1.00  0.00    -0.204 A  
HETATM   14  C   UNL     1      -8.156  16.883  67.114  1.00  0.00    -0.214 A  
HETATM   15  C   UNL     1      -6.965  17.279  67.953  1.00  0.00    -0.166 C  
HETATM   16  C   UNL     1      -8.494  17.638  65.983  1.00  0.00    -0.078 A  
HETATM   17  F   UNL     1      -5.793  17.205  67.263  1.00  0.00    -0.123 F  
HETATM   18  F   UNL     1      -7.053  18.561  68.403  1.00  0.00    -0.237 F  
HETATM   19  F   UNL     1      -6.794  16.505  69.061  1.00  0.00    -0.154 F  
HETATM   20  C   UNL     1      -9.629  17.321  65.241  1.00  0.00     1.107 A  
HETATM   21  C   UNL     1     -10.415  16.220  65.592  1.00  0.00    -0.386 A  
ENDBRANCH  10  12
ENDBRANCH   9  10
TORSDOF 2
ENDMDL
MODEL      258
REMARK 921   NORMALIZED FREE ENERGY PREDICTED BY IDOCK:   -3.17 KCAL/MOL
REMARK 922        TOTAL FREE ENERGY PREDICTED BY IDOCK:   -3.94 KCAL/MOL
REMARK 923 INTER-LIGAND FREE ENERGY PREDICTED BY IDOCK:   -3.97 KCAL/MOL
REMARK 924 INTRA-LIGAND FREE ENERGY PREDICTED BY IDOCK:    0.03 KCAL/MOL
REMARK 927      BINDING AFFINITY PREDICTED BY RF-SCORE:    0.00 PKD
ROOT
HETATM    1  O   UNL     1      -8.028   4.935  70.617  1.00  0.00    -0.075 OA 
HETATM    2  C   UNL     1      -8.346   3.623  70.647  1.00  0.00    -0.068 C  
HETATM    3  C   UNL     1      -9.229   3.226  71.785  1.00  0.00    -0.186 A  
HETATM    4  O   UNL     1      -7.961   2.836  69.801  1.00  0.00    -0.043 OA 
HETATM    5  C   UNL     1      -9.929   2.015  71.621  1.00  0.00    -0.192 A  
HETATM    6  C   UNL     1     -10.742   1.516  72.636  1.00  0.00    -0.230 A  
HETATM    7  C   UNL     1     -10.837   2.198  73.840  1.00  0.00    -0.259 A  
HETATM    8  C   UNL     1     -10.148   3.400  74.015  1.00  0.00    -0.194 A  
HETATM    9  C   UNL     1      -9.374   3.962  72.982  1.00  0.00    -0.110 A  
ENDROOT
BRANCH   9  10
HETATM   10  N   UNL     1      -8.675   5.193  73.198  1.00  0.00    -0.116 NA 
HETATM   11  H   UNL     1      -7.798   5.153  73.716  1.00  0.00     0.000 HD 
BRANCH  10  12
HETATM   12  C   UNL     1      -9.112   6.472  72.741  1.00  0.00    -0.136 A  
HETATM   13  C   UNL     1     -10.471   6.754  72.525  1.00  0.00    -0.235 A  
HETATM   14  C   UNL     1     -10.900   8.033  72.128  1.00  0.00    -0.342 A  
HETATM   15  C   UNL     1     -12.362   8.338  71.908  1.00  0.00    -0.338 C  
HETATM   16  C   UNL     1      -9.942   9.036  71.932  1.00  0.00    -0.304 A  
HETATM   17  F   UNL     1     -12.833   9.285  72.765  1.00  0.00    -0.431 F  
HETATM   18  F   UNL     1     -12.608   8.814  70.655  1.00  0.00    -0.134 F  
HETATM   19  F   UNL     1     -13.176   7.257  72.061  1.00  0.00    -0.324 F  
HETATM   20  C   UNL     1      -8.586   8.748  72.068  1.00  0.00    -0.132 A  
HETATM   21  C   UNL     1      -8.173   7.467  72.447  1.00  0.00    -0.124 A  
ENDBRANCH  10  12
ENDBRANCH   9  10
TORSDOF 2
ENDMDL
MODEL      259
REMARK 921   NORMALIZED FREE ENERGY PREDICTED BY IDOCK:   -3.10 KCAL/MOL
REMARK 922        TOTAL FREE ENERGY PREDICTED BY IDOCK:   -3.87 KCAL/MOL
REMARK 923 INTER-LIGAND FREE ENERGY PREDICTED BY IDOCK:   -3.73 KCAL/MOL
REMARK 924 INTRA-LIGAND FREE ENERGY PREDICTED BY IDOCK:   -0.14 KCAL/MOL
REMARK 927      BINDING AFFINITY PREDICTED BY RF-SCORE:    0.00 PKD
ROOT
HETATM    1  O   UNL     1     -10.264   6.091  68.817  1.00  0.00    -0.157 OA 
HETATM    2  C   UNL     1     -10.630   7.027  67.916  1.00  0.00    -0.218 C  
HETATM    3  C   UNL     1     -10.895   8.377  68.499  1.00  0.00     0.030 A  
HETATM    4  O   UNL     1     -10.714   6.792  66.723  1.00  0.00    -0.294 OA 
HETATM    5  C   UNL     1     -10.844   9.454  67.593  1.00  0.00    -0.222 A  
HETATM    6  C   UNL     1     -11.125  10.753  68.010  1.00  0.00    -0.359 A  
HETATM    7  C   UNL     1     -11.497  10.988  69.326  1.00  0.00    -0.370 A  
HETATM    8  C   UNL     1     -11.551   9.928  70.234  1.00  0.00    -0.319 A  
HETATM    9  C   UNL     1     -11.206   8.617  69.856  1.00  0.00    -0.041 A  
ENDROOT
BRANCH   9  10
HETATM   10  N   UNL     1     -11.279   7.552  70.811  1.00  0.00    -0.266 NA 
HETATM   11  H   UNL     1     -12.148   7.019  70.857  1.00  0.00     0.000 HD 
BRANCH  10  12
HETATM   12  C   UNL     1     -10.230   7.180  71.702  1.00  0.00    -0.193 A  
HETATM   13  C   UNL     1      -9.982   5.837  72.032  1.00  0.00    -0.208 A  
HETATM   14  C   UNL     1      -8.911   5.473  72.866  1.00  0.00    -0.117 A  
HETATM   15  C   UNL     1      -8.638   4.028  73.210  1.00  0.00    -0.092 C  
HETATM   16  C   UNL     1      -8.089   6.480  73.389  1.00  0.00    -0.109 A  
HETATM   17  F   UNL     1      -7.427   3.603  72.755  1.00  0.00    -0.052 F  
HETATM   18  F   UNL     1      -8.630   3.809  74.554  1.00  0.00    -0.086 F  
HETATM   19  F   UNL     1      -9.554   3.161  72.696  1.00  0.00    -0.136 F  
HETATM   20  C   UNL     1      -8.371   7.820  73.132  1.00  0.00    -0.207 A  
HETATM   21  C   UNL     1      -9.450   8.168  72.314  1.00  0.00    -0.312 A  
ENDBRANCH  10  12
ENDBRANCH   9  10
TORSDOF 2
ENDMDL
MODEL      260
REMARK 921   NORMALIZED FREE ENERGY PREDICTED BY IDOCK:   -3.03 KCAL/MOL
REMARK 922        TOTAL FREE ENERGY PREDICTED BY IDOCK:   -3.79 KCAL/MOL
REMARK 923 INTER-LIGAND FREE ENERGY PREDICTED BY IDOCK:   -3.19 KCAL/MOL
REMARK 924 INTRA-LIGAND FREE ENERGY PREDICTED BY IDOCK:   -0.60 KCAL/MOL
REMARK 927      BINDING AFFINITY PREDICTED BY RF-SCORE:    0.00 PKD
ROOT
HETATM    1  O   UNL     1      -7.045   6.744  69.996  1.00  0.00    -0.067 OA 
HETATM    2  C   UNL     1      -7.276   7.087  68.711  1.00  0.00    -0.091 C  
HETATM    3  C   UNL     1      -8.226   6.186  67.991  1.00  0.00    -0.114 A  
HETATM    4  O   UNL     1      -6.767   8.064  68.192  1.00  0.00    -0.061 OA 
HETATM    5  C   UNL     1      -8.826   6.727  66.838  1.00  0.00    -0.120 A  
HETATM    6  C   UNL     1      -9.689   5.964  66.055  1.00  0.00    -0.019 A  
HETATM    7  C   UNL     1      -9.933   4.640  66.391  1.00  0.00    -0.267 A  
HETATM    8  C   UNL     1      -9.344   4.091  67.532  1.00  0.00    -0.219 A  
HETATM    9  C   UNL     1      -8.523   4.860  68.378  1.00  0.00    -0.094 A  
ENDROOT
BRANCH   9  10
HETATM   10  N   UNL     1      -7.929   4.263  69.537  1.00  0.00    -0.057 NA 
HETATM   11  H   UNL     1      -6.922   4.100  69.520  1.00  0.00     0.000 HD 
BRANCH  10  12
HETATM   12  C   UNL     1      -8.639   3.880  70.713  1.00  0.00    -0.071 A  
HETATM   13  C   UNL     1      -9.510   4.764  71.372  1.00  0.00    -0.213 A  
HETATM   14  C   UNL     1     -10.248   4.362  72.499  1.00  0.00    -0.242 A  
HETATM   15  C   UNL     1     -11.193   5.309  73.198  1.00  0.00    -0.318 C  
HETATM   16  C   UNL     1     -10.092   3.054  72.977  1.00  0.00    -0.214 A  
HETATM   17  F   UNL     1     -12.486   4.886  73.151  1.00  0.00    -0.296 F  
HETATM   18  F   UNL     1     -10.896   5.455  74.519  1.00  0.00    -0.260 F  
HETATM   19  F   UNL     1     -11.193   6.567  72.675  1.00  0.00    -0.254 F  
HETATM   20  C   UNL     1      -9.174   2.193  72.380  1.00  0.00    -0.123 A  
HETATM   21  C   UNL     1      -8.434   2.612  71.271  1.00  0.00    -0.093 A  
ENDBRANCH  10  12
ENDBRANCH   9  10
TORSDOF 2
ENDMDL
MODEL      261
REMARK 921   NORMALIZED FREE ENERGY PREDICTED BY IDOCK:   -2.82 KCAL/MOL
REMARK 922        TOTAL FREE ENERGY PREDICTED BY IDOCK:   -3.56 KCAL/MOL
REMARK 923 INTER-LIGAND FREE ENERGY PREDICTED BY IDOCK:   -3.58 KCAL/MOL
REMARK 924 INTRA-LIGAND FREE ENERGY PREDICTED BY IDOCK:    0.03 KCAL/MOL
REMARK 927      BINDING AFFINITY PREDICTED BY RF-SCORE:    0.00 PKD
ROOT
HETATM    1  O   UNL     1      -6.233  13.078  71.198  1.00  0.00    -0.050 OA 
HETATM    2  C   UNL     1      -6.085  14.237  70.522  1.00  0.00    -0.180 C  
HETATM    3  C   UNL     1      -7.040  14.419  69.389  1.00  0.00    -0.113 A  
HETATM    4  O   UNL     1      -5.254  15.073  70.829  1.00  0.00    -0.122 OA 
HETATM    5  C   UNL     1      -7.223  15.745  68.950  1.00  0.00    -0.147 A  
HETATM    6  C   UNL     1      -8.049  16.033  67.867  1.00  0.00    -0.149 A  
HETATM    7  C   UNL     1      -8.673  14.999  67.184  1.00  0.00    -0.242 A  
HETATM    8  C   UNL     1      -8.501  13.680  67.608  1.00  0.00    -0.183 A  
HETATM    9  C   UNL     1      -7.726  13.367  68.741  1.00  0.00    -0.037 A  
ENDROOT
BRANCH   9  10
HETATM   10  N   UNL     1      -7.565  12.003  69.145  1.00  0.00    -0.331 NA 
HETATM   11  H   UNL     1      -6.738  11.769  69.695  1.00  0.00     0.000 HD 
BRANCH  10  12
HETATM   12  C   UNL     1      -8.472  10.946  68.837  1.00  0.00    -0.141 A  
HETATM   13  C   UNL     1      -8.940  10.063  69.824  1.00  0.00    -0.209 A  
HETATM   14  C   UNL     1      -9.877   9.059  69.525  1.00  0.00    -0.181 A  
HETATM   15  C   UNL     1     -10.388   8.118  70.589  1.00  0.00    -0.199 C  
HETATM   16  C   UNL     1     -10.335   8.934  68.206  1.00  0.00    -0.250 A  
HETATM   17  F   UNL     1     -11.729   8.240  70.793  1.00  0.00    -0.285 F  
HETATM   18  F   UNL     1     -10.177   6.811  70.269  1.00  0.00    -0.194 F  
HETATM   19  F   UNL     1      -9.807   8.302  71.807  1.00  0.00    -0.204 F  
HETATM   20  C   UNL     1      -9.820   9.753  67.204  1.00  0.00    -0.238 A  
HETATM   21  C   UNL     1      -8.876  10.736  67.513  1.00  0.00    -0.128 A  
ENDBRANCH  10  12
ENDBRANCH   9  10
TORSDOF 2
ENDMDL
MODEL      262
REMARK 921   NORMALIZED FREE ENERGY PREDICTED BY IDOCK:   -2.79 KCAL/MOL
REMARK 922        TOTAL FREE ENERGY PREDICTED BY IDOCK:   -3.52 KCAL/MOL
REMARK 923 INTER-LIGAND FREE ENERGY PREDICTED BY IDOCK:   -2.89 KCAL/MOL
REMARK 924 INTRA-LIGAND FREE ENERGY PREDICTED BY IDOCK:   -0.63 KCAL/MOL
REMARK 927      BINDING AFFINITY PREDICTED BY RF-SCORE:    0.00 PKD
ROOT
HETATM    1  O   UNL     1      -6.775   4.360  70.872  1.00  0.00    -0.033 OA 
HETATM    2  C   UNL     1      -7.562   4.138  71.947  1.00  0.00    -0.070 C  
HETATM    3  C   UNL     1      -8.853   4.888  71.934  1.00  0.00    -0.140 A  
HETATM    4  O   UNL     1      -7.249   3.373  72.842  1.00  0.00    -0.043 OA 
HETATM    5  C   UNL     1      -9.866   4.377  72.769  1.00  0.00    -0.194 A  
HETATM    6  C   UNL     1     -11.096   5.021  72.880  1.00  0.00    -0.348 A  
HETATM    7  C   UNL     1     -11.317   6.203  72.190  1.00  0.00    -0.347 A  
HETATM    8  C   UNL     1     -10.322   6.722  71.358  1.00  0.00    -0.223 A  
HETATM    9  C   UNL     1      -9.096   6.055  71.175  1.00  0.00    -0.146 A  
ENDROOT
BRANCH   9  10
HETATM   10  N   UNL     1      -8.094   6.618  70.320  1.00  0.00    -0.119 NA 
HETATM   11  H   UNL     1      -7.223   6.926  70.754  1.00  0.00     0.000 HD 
BRANCH  10  12
HETATM   12  C   UNL     1      -8.221   6.780  68.909  1.00  0.00    -0.121 A  
HETATM   13  C   UNL     1      -8.400   5.682  68.052  1.00  0.00    -0.100 A  
HETATM   14  C   UNL     1      -8.580   5.853  66.668  1.00  0.00    -0.119 A  
HETATM   15  C   UNL     1      -8.785   4.673  65.750  1.00  0.00    -0.124 C  
HETATM   16  C   UNL     1      -8.562   7.151  66.141  1.00  0.00    -0.151 A  
HETATM   17  F   UNL     1     -10.000   4.694  65.136  1.00  0.00    -0.178 F  
HETATM   18  F   UNL     1      -7.862   4.629  64.750  1.00  0.00    -0.080 F  
HETATM   19  F   UNL     1      -8.708   3.468  66.382  1.00  0.00    -0.107 F  
HETATM   20  C   UNL     1      -8.307   8.242  66.968  1.00  0.00    -0.122 A  
HETATM   21  C   UNL     1      -8.113   8.055  68.340  1.00  0.00    -0.122 A  
ENDBRANCH  10  12
ENDBRANCH   9  10
TORSDOF 2
ENDMDL
MODEL      263
REMARK 921   NORMALIZED FREE ENERGY PREDICTED BY IDOCK:   -2.77 KCAL/MOL
REMARK 922        TOTAL FREE ENERGY PREDICTED BY IDOCK:   -3.49 KCAL/MOL
REMARK 923 INTER-LIGAND FREE ENERGY PREDICTED BY IDOCK:   -3.20 KCAL/MOL
REMARK 924 INTRA-LIGAND FREE ENERGY PREDICTED BY IDOCK:   -0.30 KCAL/MOL
REMARK 927      BINDING AFFINITY PREDICTED BY RF-SCORE:    0.00 PKD
ROOT
HETATM    1  O   UNL     1     -10.485   6.915  66.843  1.00  0.00    -0.257 OA 
HETATM    2  C   UNL     1      -9.368   6.766  66.099  1.00  0.00    -0.051 C  
HETATM    3  C   UNL     1      -9.062   5.354  65.719  1.00  0.00    -0.160 A  
HETATM    4  O   UNL     1      -8.681   7.710  65.750  1.00  0.00    -0.156 OA 
HETATM    5  C   UNL     1      -8.201   5.191  64.617  1.00  0.00    -0.132 A  
HETATM    6  C   UNL     1      -7.802   3.923  64.201  1.00  0.00    -0.085 A  
HETATM    7  C   UNL     1      -8.228   2.804  64.903  1.00  0.00    -0.087 A  
HETATM    8  C   UNL     1      -9.082   2.952  65.997  1.00  0.00    -0.133 A  
HETATM    9  C   UNL     1      -9.555   4.216  66.397  1.00  0.00    -0.202 A  
ENDROOT
BRANCH   9  10
HETATM   10  N   UNL     1     -10.425   4.333  67.528  1.00  0.00     0.188 NA 
HETATM   11  H   UNL     1     -11.430   4.298  67.356  1.00  0.00     0.000 HD 
BRANCH  10  12
HETATM   12  C   UNL     1      -9.993   4.493  68.878  1.00  0.00    -0.061 A  
HETATM   13  C   UNL     1     -10.647   5.365  69.765  1.00  0.00    -0.347 A  
HETATM   14  C   UNL     1     -10.251   5.476  71.109  1.00  0.00    -0.285 A  
HETATM   15  C   UNL     1     -10.963   6.404  72.063  1.00  0.00    -0.250 C  
HETATM   16  C   UNL     1      -9.169   4.709  71.559  1.00  0.00    -0.186 A  
HETATM   17  F   UNL     1     -11.558   5.739  73.092  1.00  0.00    -0.276 F  
HETATM   18  F   UNL     1     -10.116   7.302  72.640  1.00  0.00    -0.185 F  
HETATM   19  F   UNL     1     -11.946   7.143  71.478  1.00  0.00    -0.290 F  
HETATM   20  C   UNL     1      -8.463   3.900  70.672  1.00  0.00    -0.099 A  
HETATM   21  C   UNL     1      -8.858   3.811  69.334  1.00  0.00    -0.146 A  
ENDBRANCH  10  12
ENDBRANCH   9  10
TORSDOF 2
ENDMDL
MODEL      264
REMARK 921   NORMALIZED FREE ENERGY PREDICTED BY IDOCK:   -2.76 KCAL/MOL
REMARK 922        TOTAL FREE ENERGY PREDICTED BY IDOCK:   -3.49 KCAL/MOL
REMARK 923 INTER-LIGAND FREE ENERGY PREDICTED BY IDOCK:   -3.03 KCAL/MOL
REMARK 924 INTRA-LIGAND FREE ENERGY PREDICTED BY IDOCK:   -0.46 KCAL/MOL
REMARK 927      BINDING AFFINITY PREDICTED BY RF-SCORE:    0.00 PKD
ROOT
HETATM    1  O   UNL     1      -6.182  13.129  71.120  1.00  0.00    -0.072 OA 
HETATM    2  C   UNL     1      -6.014  14.299  70.467  1.00  0.00    -0.183 C  
HETATM    3  C   UNL     1      -6.952  14.510  69.324  1.00  0.00    -0.141 A  
HETATM    4  O   UNL     1      -5.179  15.121  70.799  1.00  0.00    -0.128 OA 
HETATM    5  C   UNL     1      -7.116  15.845  68.906  1.00  0.00    -0.148 A  
HETATM    6  C   UNL     1      -7.925  16.159  67.817  1.00  0.00    -0.155 A  
HETATM    7  C   UNL     1      -8.550  15.144  67.108  1.00  0.00    -0.247 A  
HETATM    8  C   UNL     1      -8.396  13.816  67.511  1.00  0.00    -0.197 A  
HETATM    9  C   UNL     1      -7.640  13.475  68.649  1.00  0.00    -0.108 A  
ENDROOT
BRANCH   9  10
HETATM   10  N   UNL     1      -7.496  12.103  69.031  1.00  0.00    -0.306 NA 
HETATM   11  H   UNL     1      -6.738  11.868  69.671  1.00  0.00     0.000 HD 
BRANCH  10  12
HETATM   12  C   UNL     1      -8.334  11.038  68.584  1.00  0.00    -0.153 A  
HETATM   13  C   UNL     1      -7.887  10.087  67.652  1.00  0.00    -0.095 A  
HETATM   14  C   UNL     1      -8.699   9.009  67.258  1.00  0.00    -0.122 A  
HETATM   15  C   UNL     1      -8.212   7.981  66.266  1.00  0.00    -0.116 C  
HETATM   16  C   UNL     1      -9.986   8.900  67.801  1.00  0.00    -0.241 A  
HETATM   17  F   UNL     1      -8.135   6.732  66.803  1.00  0.00    -0.103 F  
HETATM   18  F   UNL     1      -9.036   7.873  65.187  1.00  0.00    -0.056 F  
HETATM   19  F   UNL     1      -6.974   8.247  65.764  1.00  0.00    -0.063 F  
HETATM   20  C   UNL     1     -10.469   9.879  68.665  1.00  0.00    -0.231 A  
HETATM   21  C   UNL     1      -9.657  10.955  69.035  1.00  0.00    -0.170 A  
ENDBRANCH  10  12
ENDBRANCH   9  10
TORSDOF 2
ENDMDL
MODEL      265
REMARK 921   NORMALIZED FREE ENERGY PREDICTED BY IDOCK:   -2.62 KCAL/MOL
REMARK 922        TOTAL FREE ENERGY PREDICTED BY IDOCK:   -3.33 KCAL/MOL
REMARK 923 INTER-LIGAND FREE ENERGY PREDICTED BY IDOCK:   -3.04 KCAL/MOL
REMARK 924 INTRA-LIGAND FREE ENERGY PREDICTED BY IDOCK:   -0.29 KCAL/MOL
REMARK 927      BINDING AFFINITY PREDICTED BY RF-SCORE:    0.00 PKD
ROOT
HETATM    1  O   UNL     1      -6.069   3.944  70.278  1.00  0.00    -0.018 OA 
HETATM    2  C   UNL     1      -6.521   3.753  71.536  1.00  0.00    -0.015 C  
HETATM    3  C   UNL     1      -7.913   4.240  71.774  1.00  0.00    -0.087 A  
HETATM    4  O   UNL     1      -5.854   3.208  72.397  1.00  0.00    -0.008 OA 
HETATM    5  C   UNL     1      -8.571   3.688  72.890  1.00  0.00    -0.095 A  
HETATM    6  C   UNL     1      -9.854   4.103  73.242  1.00  0.00    -0.169 A  
HETATM    7  C   UNL     1     -10.479   5.100  72.509  1.00  0.00    -0.267 A  
HETATM    8  C   UNL     1      -9.838   5.657  71.401  1.00  0.00    -0.221 A  
HETATM    9  C   UNL     1      -8.571   5.208  70.982  1.00  0.00    -0.124 A  
ENDROOT
BRANCH   9  10
HETATM   10  N   UNL     1      -7.938   5.805  69.844  1.00  0.00    -0.095 NA 
HETATM   11  H   UNL     1      -6.937   5.652  69.727  1.00  0.00     0.000 HD 
BRANCH  10  12
HETATM   12  C   UNL     1      -8.603   6.598  68.862  1.00  0.00    -0.126 A  
HETATM   13  C   UNL     1      -9.103   7.877  69.159  1.00  0.00    -0.145 A  
HETATM   14  C   UNL     1      -9.707   8.675  68.172  1.00  0.00    -0.178 A  
HETATM   15  C   UNL     1     -10.233  10.054  68.490  1.00  0.00    -0.175 C  
HETATM   16  C   UNL     1      -9.823   8.168  66.871  1.00  0.00    -0.316 A  
HETATM   17  F   UNL     1      -9.586  11.032  67.798  1.00  0.00    -0.161 F  
HETATM   18  F   UNL     1     -11.552  10.188  68.180  1.00  0.00    -0.294 F  
HETATM   19  F   UNL     1     -10.122  10.392  69.805  1.00  0.00    -0.243 F  
HETATM   20  C   UNL     1      -9.402   6.872  66.582  1.00  0.00    -0.198 A  
HETATM   21  C   UNL     1      -8.818   6.083  67.578  1.00  0.00    -0.109 A  
ENDBRANCH  10  12
ENDBRANCH   9  10
TORSDOF 2
ENDMDL
MODEL      266
REMARK 921   NORMALIZED FREE ENERGY PREDICTED BY IDOCK:   -2.61 KCAL/MOL
REMARK 922        TOTAL FREE ENERGY PREDICTED BY IDOCK:   -3.31 KCAL/MOL
REMARK 923 INTER-LIGAND FREE ENERGY PREDICTED BY IDOCK:   -2.96 KCAL/MOL
REMARK 924 INTRA-LIGAND FREE ENERGY PREDICTED BY IDOCK:   -0.35 KCAL/MOL
REMARK 927      BINDING AFFINITY PREDICTED BY RF-SCORE:    0.00 PKD
ROOT
HETATM    1  O   UNL     1      -5.518  12.803  72.453  1.00  0.00    -0.355 OA 
HETATM    2  C   UNL     1      -5.567  14.046  71.929  1.00  0.00    -0.206 C  
HETATM    3  C   UNL     1      -6.187  14.123  70.573  1.00  0.00    -0.138 A  
HETATM    4  O   UNL     1      -5.157  15.026  72.527  1.00  0.00    -0.190 OA 
HETATM    5  C   UNL     1      -6.652  15.394  70.184  1.00  0.00    -0.035 A  
HETATM    6  C   UNL     1      -7.203  15.599  68.921  1.00  0.00    -0.146 A  
HETATM    7  C   UNL     1      -7.260  14.548  68.017  1.00  0.00    -0.148 A  
HETATM    8  C   UNL     1      -6.802  13.283  68.389  1.00  0.00    -0.098 A  
HETATM    9  C   UNL     1      -6.304  13.032  69.682  1.00  0.00    -0.089 A  
ENDROOT
BRANCH   9  10
HETATM   10  N   UNL     1      -5.836  11.724  70.029  1.00  0.00    -0.132 NA 
HETATM   11  H   UNL     1      -4.869  11.637  70.344  1.00  0.00     0.000 HD 
BRANCH  10  12
HETATM   12  C   UNL     1      -6.618  10.533  69.968  1.00  0.00    -0.144 A  
HETATM   13  C   UNL     1      -7.989  10.564  69.660  1.00  0.00    -0.076 A  
HETATM   14  C   UNL     1      -8.742   9.382  69.547  1.00  0.00    -0.162 A  
HETATM   15  C   UNL     1     -10.211   9.416  69.204  1.00  0.00    -0.202 C  
HETATM   16  C   UNL     1      -8.105   8.153  69.765  1.00  0.00    -0.116 A  
HETATM   17  F   UNL     1     -10.486   8.797  68.023  1.00  0.00    -0.239 F  
HETATM   18  F   UNL     1     -10.976   8.790  70.141  1.00  0.00    -0.231 F  
HETATM   19  F   UNL     1     -10.718  10.675  69.091  1.00  0.00    -0.181 F  
HETATM   20  C   UNL     1      -6.766   8.113  70.147  1.00  0.00    -0.036 A  
HETATM   21  C   UNL     1      -6.034   9.297  70.272  1.00  0.00    -0.037 A  
ENDBRANCH  10  12
ENDBRANCH   9  10
TORSDOF 2
ENDMDL
MODEL      267
REMARK 921   NORMALIZED FREE ENERGY PREDICTED BY IDOCK:   -2.57 KCAL/MOL
REMARK 922        TOTAL FREE ENERGY PREDICTED BY IDOCK:   -3.28 KCAL/MOL
REMARK 923 INTER-LIGAND FREE ENERGY PREDICTED BY IDOCK:   -3.01 KCAL/MOL
REMARK 924 INTRA-LIGAND FREE ENERGY PREDICTED BY IDOCK:   -0.26 KCAL/MOL
REMARK 927      BINDING AFFINITY PREDICTED BY RF-SCORE:    0.00 PKD
ROOT
HETATM    1  O   UNL     1      -6.380   4.009  69.844  1.00  0.00    -0.026 OA 
HETATM    2  C   UNL     1      -7.164   4.589  70.778  1.00  0.00    -0.041 C  
HETATM    3  C   UNL     1      -8.499   5.032  70.276  1.00  0.00    -0.104 A  
HETATM    4  O   UNL     1      -6.815   4.720  71.938  1.00  0.00    -0.047 OA 
HETATM    5  C   UNL     1      -9.488   5.227  71.260  1.00  0.00    -0.197 A  
HETATM    6  C   UNL     1     -10.757   5.689  70.918  1.00  0.00    -0.313 A  
HETATM    7  C   UNL     1     -11.043   5.998  69.597  1.00  0.00    -0.474 A  
HETATM    8  C   UNL     1     -10.072   5.809  68.611  1.00  0.00    -0.227 A  
HETATM    9  C   UNL     1      -8.804   5.280  68.918  1.00  0.00    -0.092 A  
ENDROOT
BRANCH   9  10
HETATM   10  N   UNL     1      -7.829   5.105  67.884  1.00  0.00    -0.091 NA 
HETATM   11  H   UNL     1      -6.944   5.604  67.982  1.00  0.00     0.000 HD 
BRANCH  10  12
HETATM   12  C   UNL     1      -8.001   4.287  66.729  1.00  0.00    -0.098 A  
HETATM   13  C   UNL     1      -9.167   4.347  65.947  1.00  0.00    -0.140 A  
HETATM   14  C   UNL     1      -9.306   3.578  64.779  1.00  0.00    -0.152 A  
HETATM   15  C   UNL     1     -10.555   3.653  63.933  1.00  0.00    -0.277 C  
HETATM   16  C   UNL     1      -8.260   2.725  64.403  1.00  0.00    -0.083 A  
HETATM   17  F   UNL     1     -10.308   4.121  62.679  1.00  0.00    -0.171 F  
HETATM   18  F   UNL     1     -11.141   2.435  63.769  1.00  0.00    -0.179 F  
HETATM   19  F   UNL     1     -11.519   4.464  64.451  1.00  0.00    -0.192 F  
HETATM   20  C   UNL     1      -7.132   2.599  65.211  1.00  0.00    -0.057 A  
HETATM   21  C   UNL     1      -7.015   3.357  66.379  1.00  0.00    -0.054 A  
ENDBRANCH  10  12
ENDBRANCH   9  10
TORSDOF 2
ENDMDL
MODEL      268
REMARK 921   NORMALIZED FREE ENERGY PREDICTED BY IDOCK:   -2.54 KCAL/MOL
REMARK 922        TOTAL FREE ENERGY PREDICTED BY IDOCK:   -3.24 KCAL/MOL
REMARK 923 INTER-LIGAND FREE ENERGY PREDICTED BY IDOCK:   -2.55 KCAL/MOL
REMARK 924 INTRA-LIGAND FREE ENERGY PREDICTED BY IDOCK:   -0.69 KCAL/MOL
REMARK 927      BINDING AFFINITY PREDICTED BY RF-SCORE:    0.00 PKD
ROOT
HETATM    1  O   UNL     1     -11.290   8.653  69.483  1.00  0.00     0.046 OA 
HETATM    2  C   UNL     1     -11.153   7.437  70.054  1.00  0.00    -0.220 C  
HETATM    3  C   UNL     1     -10.177   7.391  71.184  1.00  0.00    -0.199 A  
HETATM    4  O   UNL     1     -11.791   6.466  69.689  1.00  0.00    -0.323 OA 
HETATM    5  C   UNL     1     -10.319   6.305  72.069  1.00  0.00    -0.231 A  
HETATM    6  C   UNL     1      -9.434   6.127  73.131  1.00  0.00    -0.138 A  
HETATM    7  C   UNL     1      -8.376   7.007  73.299  1.00  0.00    -0.138 A  
HETATM    8  C   UNL     1      -8.224   8.088  72.428  1.00  0.00    -0.193 A  
HETATM    9  C   UNL     1      -9.142   8.331  71.389  1.00  0.00    -0.170 A  
ENDROOT
BRANCH   9  10
HETATM   10  N   UNL     1      -8.953   9.445  70.509  1.00  0.00    -0.252 NA 
HETATM   11  H   UNL     1      -9.632  10.204  70.556  1.00  0.00     0.000 HD 
BRANCH  10  12
HETATM   12  C   UNL     1      -7.885   9.574  69.572  1.00  0.00    -0.103 A  
HETATM   13  C   UNL     1      -7.790   8.745  68.441  1.00  0.00    -0.104 A  
HETATM   14  C   UNL     1      -6.766   8.915  67.493  1.00  0.00    -0.066 A  
HETATM   15  C   UNL     1      -6.673   8.032  66.272  1.00  0.00    -0.054 C  
HETATM   16  C   UNL     1      -5.816   9.924  67.698  1.00  0.00    -0.046 A  
HETATM   17  F   UNL     1      -6.816   8.729  65.111  1.00  0.00    -0.071 F  
HETATM   18  F   UNL     1      -5.469   7.400  66.182  1.00  0.00    -0.025 F  
HETATM   19  F   UNL     1      -7.614   7.047  66.235  1.00  0.00    -0.083 F  
HETATM   20  C   UNL     1      -5.854  10.700  68.853  1.00  0.00    -0.040 A  
HETATM   21  C   UNL     1      -6.868  10.510  69.796  1.00  0.00    -0.138 A  
ENDBRANCH  10  12
ENDBRANCH   9  10
TORSDOF 2
ENDMDL
MODEL      269
REMARK 921   NORMALIZED FREE ENERGY PREDICTED BY IDOCK:   -2.48 KCAL/MOL
REMARK 922        TOTAL FREE ENERGY PREDICTED BY IDOCK:   -3.18 KCAL/MOL
REMARK 923 INTER-LIGAND FREE ENERGY PREDICTED BY IDOCK:   -3.63 KCAL/MOL
REMARK 924 INTRA-LIGAND FREE ENERGY PREDICTED BY IDOCK:    0.45 KCAL/MOL
REMARK 927      BINDING AFFINITY PREDICTED BY RF-SCORE:    0.00 PKD
ROOT
HETATM    1  O   UNL     1     -10.862  14.825  68.328  1.00  0.00    -0.239 OA 
HETATM    2  C   UNL     1     -11.732  13.859  67.963  1.00  0.00    -0.352 C  
HETATM    3  C   UNL     1     -11.527  13.332  66.580  1.00  0.00    -0.372 A  
HETATM    4  O   UNL     1     -12.597  13.438  68.711  1.00  0.00     0.128 OA 
HETATM    5  C   UNL     1     -12.091  12.068  66.318  1.00  0.00     0.103 A  
HETATM    6  C   UNL     1     -12.010  11.498  65.050  1.00  0.00     0.303 A  
HETATM    7  C   UNL     1     -11.400  12.198  64.019  1.00  0.00    -0.468 A  
HETATM    8  C   UNL     1     -10.837  13.452  64.265  1.00  0.00    -0.383 A  
HETATM    9  C   UNL     1     -10.845  14.021  65.552  1.00  0.00    -0.309 A  
ENDROOT
BRANCH   9  10
HETATM   10  N   UNL     1     -10.265  15.313  65.769  1.00  0.00    -0.321 NA 
HETATM   11  H   UNL     1     -10.830  16.129  65.535  1.00  0.00     0.000 HD 
BRANCH  10  12
HETATM   12  C   UNL     1      -8.956  15.544  66.288  1.00  0.00    -0.327 A  
HETATM   13  C   UNL     1      -8.328  14.625  67.144  1.00  0.00    -0.236 A  
HETATM   14  C   UNL     1      -7.017  14.833  67.608  1.00  0.00    -0.204 A  
HETATM   15  C   UNL     1      -6.338  13.838  68.518  1.00  0.00    -0.092 C  
HETATM   16  C   UNL     1      -6.338  15.994  67.215  1.00  0.00    -0.181 A  
HETATM   17  F   UNL     1      -5.231  13.283  67.951  1.00  0.00    -0.084 F  
HETATM   18  F   UNL     1      -5.917  14.405  69.682  1.00  0.00    -0.092 F  
HETATM   19  F   UNL     1      -7.135  12.794  68.879  1.00  0.00    -0.093 F  
HETATM   20  C   UNL     1      -6.978  16.950  66.430  1.00  0.00    -0.219 A  
HETATM   21  C   UNL     1      -8.288  16.738  65.990  1.00  0.00    -0.187 A  
ENDBRANCH  10  12
ENDBRANCH   9  10
TORSDOF 2
ENDMDL
MODEL      270
REMARK 921   NORMALIZED FREE ENERGY PREDICTED BY IDOCK:   -2.41 KCAL/MOL
REMARK 922        TOTAL FREE ENERGY PREDICTED BY IDOCK:   -3.10 KCAL/MOL
REMARK 923 INTER-LIGAND FREE ENERGY PREDICTED BY IDOCK:   -3.03 KCAL/MOL
REMARK 924 INTRA-LIGAND FREE ENERGY PREDICTED BY IDOCK:   -0.07 KCAL/MOL
REMARK 927      BINDING AFFINITY PREDICTED BY RF-SCORE:    0.00 PKD
ROOT
HETATM    1  O   UNL     1      -9.450  14.806  65.606  1.00  0.00    -0.266 OA 
HETATM    2  C   UNL     1     -10.728  14.752  66.039  1.00  0.00    -0.312 C  
HETATM    3  C   UNL     1     -10.902  14.117  67.379  1.00  0.00    -0.291 A  
HETATM    4  O   UNL     1     -11.657  15.206  65.394  1.00  0.00    -0.288 OA 
HETATM    5  C   UNL     1     -12.102  14.425  68.050  1.00  0.00    -0.266 A  
HETATM    6  C   UNL     1     -12.399  13.851  69.284  1.00  0.00    -0.201 A  
HETATM    7  C   UNL     1     -11.522  12.935  69.845  1.00  0.00    -0.147 A  
HETATM    8  C   UNL     1     -10.329  12.621  69.191  1.00  0.00     0.156 A  
HETATM    9  C   UNL     1      -9.972  13.238  67.977  1.00  0.00    -0.233 A  
ENDROOT
BRANCH   9  10
HETATM   10  N   UNL     1      -8.744  12.888  67.329  1.00  0.00    -0.197 NA 
HETATM   11  H   UNL     1      -8.143  13.650  67.013  1.00  0.00     0.000 HD 
BRANCH  10  12
HETATM   12  C   UNL     1      -8.296  11.554  67.091  1.00  0.00    -0.160 A  
HETATM   13  C   UNL     1      -8.660  10.492  67.935  1.00  0.00    -0.123 A  
HETATM   14  C   UNL     1      -8.260   9.171  67.664  1.00  0.00    -0.108 A  
HETATM   15  C   UNL     1      -8.663   8.028  68.564  1.00  0.00    -0.131 C  
HETATM   16  C   UNL     1      -7.469   8.924  66.535  1.00  0.00    -0.088 A  
HETATM   17  F   UNL     1      -9.442   7.111  67.927  1.00  0.00    -0.131 F  
HETATM   18  F   UNL     1      -7.587   7.340  69.038  1.00  0.00    -0.089 F  
HETATM   19  F   UNL     1      -9.368   8.418  69.662  1.00  0.00    -0.155 F  
HETATM   20  C   UNL     1      -7.037   9.979  65.735  1.00  0.00    -0.117 A  
HETATM   21  C   UNL     1      -7.427  11.289  66.026  1.00  0.00     0.117 A  
ENDBRANCH  10  12
ENDBRANCH   9  10
TORSDOF 2
ENDMDL
MODEL      271
REMARK 921   NORMALIZED FREE ENERGY PREDICTED BY IDOCK:   -2.40 KCAL/MOL
REMARK 922        TOTAL FREE ENERGY PREDICTED BY IDOCK:   -3.09 KCAL/MOL
REMARK 923 INTER-LIGAND FREE ENERGY PREDICTED BY IDOCK:   -2.59 KCAL/MOL
REMARK 924 INTRA-LIGAND FREE ENERGY PREDICTED BY IDOCK:   -0.49 KCAL/MOL
REMARK 927      BINDING AFFINITY PREDICTED BY RF-SCORE:    0.00 PKD
ROOT
HETATM    1  O   UNL     1     -10.952   8.922  69.451  1.00  0.00    -0.173 OA 
HETATM    2  C   UNL     1     -10.567   8.359  70.616  1.00  0.00    -0.208 C  
HETATM    3  C   UNL     1      -9.312   7.554  70.530  1.00  0.00    -0.160 A  
HETATM    4  O   UNL     1     -11.184   8.515  71.655  1.00  0.00    -0.256 OA 
HETATM    5  C   UNL     1      -8.647   7.326  71.750  1.00  0.00    -0.121 A  
HETATM    6  C   UNL     1      -7.495   6.545  71.802  1.00  0.00    -0.093 A  
HETATM    7  C   UNL     1      -7.013   5.952  70.644  1.00  0.00    -0.062 A  
HETATM    8  C   UNL     1      -7.662   6.171  69.428  1.00  0.00    -0.099 A  
HETATM    9  C   UNL     1      -8.789   7.010  69.335  1.00  0.00    -0.136 A  
ENDROOT
BRANCH   9  10
HETATM   10  N   UNL     1      -9.435   7.207  68.073  1.00  0.00    -0.131 NA 
HETATM   11  H   UNL     1     -10.394   7.556  68.083  1.00  0.00     0.000 HD 
BRANCH  10  12
HETATM   12  C   UNL     1      -8.841   6.953  66.801  1.00  0.00    -0.125 A  
HETATM   13  C   UNL     1      -9.088   5.764  66.094  1.00  0.00    -0.161 A  
HETATM   14  C   UNL     1      -8.542   5.544  64.817  1.00  0.00    -0.091 A  
HETATM   15  C   UNL     1      -8.819   4.272  64.053  1.00  0.00    -0.138 C  
HETATM   16  C   UNL     1      -7.723   6.531  64.254  1.00  0.00    -0.105 A  
HETATM   17  F   UNL     1      -9.488   4.497  62.889  1.00  0.00    -0.144 F  
HETATM   18  F   UNL     1      -7.675   3.619  63.706  1.00  0.00    -0.072 F  
HETATM   19  F   UNL     1      -9.568   3.370  64.746  1.00  0.00    -0.141 F  
HETATM   20  C   UNL     1      -7.407   7.679  64.977  1.00  0.00    -0.073 A  
HETATM   21  C   UNL     1      -7.943   7.877  66.253  1.00  0.00    -0.103 A  
ENDBRANCH  10  12
ENDBRANCH   9  10
TORSDOF 2
ENDMDL
MODEL      272
REMARK 921   NORMALIZED FREE ENERGY PREDICTED BY IDOCK:   -2.28 KCAL/MOL
REMARK 922        TOTAL FREE ENERGY PREDICTED BY IDOCK:   -2.95 KCAL/MOL
REMARK 923 INTER-LIGAND FREE ENERGY PREDICTED BY IDOCK:   -2.70 KCAL/MOL
REMARK 924 INTRA-LIGAND FREE ENERGY PREDICTED BY IDOCK:   -0.25 KCAL/MOL
REMARK 927      BINDING AFFINITY PREDICTED BY RF-SCORE:    0.00 PKD
ROOT
HETATM    1  O   UNL     1     -10.951   8.922  69.447  1.00  0.00    -0.173 OA 
HETATM    2  C   UNL     1     -10.556   8.340  70.599  1.00  0.00    -0.215 C  
HETATM    3  C   UNL     1      -9.293   7.550  70.492  1.00  0.00    -0.160 A  
HETATM    4  O   UNL     1     -11.171   8.468  71.643  1.00  0.00    -0.256 OA 
HETATM    5  C   UNL     1      -8.622   7.304  71.706  1.00  0.00    -0.121 A  
HETATM    6  C   UNL     1      -7.461   6.534  71.739  1.00  0.00    -0.093 A  
HETATM    7  C   UNL     1      -6.978   5.970  70.568  1.00  0.00    -0.059 A  
HETATM    8  C   UNL     1      -7.633   6.206  69.358  1.00  0.00    -0.098 A  
HETATM    9  C   UNL     1      -8.768   7.035  69.285  1.00  0.00    -0.136 A  
ENDROOT
BRANCH   9  10
HETATM   10  N   UNL     1      -9.421   7.251  68.029  1.00  0.00    -0.136 NA 
HETATM   11  H   UNL     1     -10.385   7.584  68.049  1.00  0.00     0.000 HD 
BRANCH  10  12
HETATM   12  C   UNL     1      -8.825   7.035  66.751  1.00  0.00    -0.126 A  
HETATM   13  C   UNL     1      -8.558   8.098  65.872  1.00  0.00    -0.171 A  
HETATM   14  C   UNL     1      -7.920   7.884  64.637  1.00  0.00    -0.143 A  
HETATM   15  C   UNL     1      -7.623   9.029  63.698  1.00  0.00    -0.115 C  
HETATM   16  C   UNL     1      -7.562   6.578  64.279  1.00  0.00    -0.100 A  
HETATM   17  F   UNL     1      -6.288   9.199  63.490  1.00  0.00    -0.087 F  
HETATM   18  F   UNL     1      -8.172   8.843  62.466  1.00  0.00    -0.138 F  
HETATM   19  F   UNL     1      -8.089  10.231  64.136  1.00  0.00    -0.149 F  
HETATM   20  C   UNL     1      -7.891   5.508  65.107  1.00  0.00    -0.097 A  
HETATM   21  C   UNL     1      -8.541   5.733  66.324  1.00  0.00    -0.130 A  
ENDBRANCH  10  12
ENDBRANCH   9  10
TORSDOF 2
ENDMDL
MODEL      273
REMARK 921   NORMALIZED FREE ENERGY PREDICTED BY IDOCK:   -2.26 KCAL/MOL
REMARK 922        TOTAL FREE ENERGY PREDICTED BY IDOCK:   -2.93 KCAL/MOL
REMARK 923 INTER-LIGAND FREE ENERGY PREDICTED BY IDOCK:   -2.38 KCAL/MOL
REMARK 924 INTRA-LIGAND FREE ENERGY PREDICTED BY IDOCK:   -0.54 KCAL/MOL
REMARK 927      BINDING AFFINITY PREDICTED BY RF-SCORE:    0.00 PKD
ROOT
HETATM    1  O   UNL     1      -5.494  12.723  72.291  1.00  0.00    -0.374 OA 
HETATM    2  C   UNL     1      -5.497  13.966  71.765  1.00  0.00    -0.225 C  
HETATM    3  C   UNL     1      -5.997  14.043  70.360  1.00  0.00    -0.165 A  
HETATM    4  O   UNL     1      -5.142  14.946  72.397  1.00  0.00    -0.189 OA 
HETATM    5  C   UNL     1      -6.427  15.314  69.933  1.00  0.00    -0.162 A  
HETATM    6  C   UNL     1      -6.865  15.520  68.627  1.00  0.00    -0.115 A  
HETATM    7  C   UNL     1      -6.842  14.470  67.721  1.00  0.00    -0.193 A  
HETATM    8  C   UNL     1      -6.418  13.205  68.131  1.00  0.00    -0.105 A  
HETATM    9  C   UNL     1      -6.035  12.953  69.462  1.00  0.00    -0.111 A  
ENDROOT
BRANCH   9  10
HETATM   10  N   UNL     1      -5.598  11.645  69.847  1.00  0.00    -0.089 NA 
HETATM   11  H   UNL     1      -4.732  11.575  70.383  1.00  0.00     0.000 HD 
BRANCH  10  12
HETATM   12  C   UNL     1      -6.281  10.431  69.540  1.00  0.00    -0.054 A  
HETATM   13  C   UNL     1      -5.903   9.625  68.453  1.00  0.00    -0.040 A  
HETATM   14  C   UNL     1      -6.545   8.402  68.189  1.00  0.00    -0.061 A  
HETATM   15  C   UNL     1      -6.129   7.531  67.029  1.00  0.00    -0.047 C  
HETATM   16  C   UNL     1      -7.594   7.997  69.025  1.00  0.00    -0.098 A  
HETATM   17  F   UNL     1      -5.656   6.319  67.429  1.00  0.00    -0.007 F  
HETATM   18  F   UNL     1      -7.165   7.267  66.184  1.00  0.00    -0.067 F  
HETATM   19  F   UNL     1      -5.149   8.078  66.257  1.00  0.00    -0.023 F  
HETATM   20  C   UNL     1      -8.029   8.823  70.058  1.00  0.00    -0.108 A  
HETATM   21  C   UNL     1      -7.393  10.044  70.298  1.00  0.00    -0.152 A  
ENDBRANCH  10  12
ENDBRANCH   9  10
TORSDOF 2
ENDMDL
MODEL      274
REMARK 921   NORMALIZED FREE ENERGY PREDICTED BY IDOCK:   -2.24 KCAL/MOL
REMARK 922        TOTAL FREE ENERGY PREDICTED BY IDOCK:   -2.91 KCAL/MOL
REMARK 923 INTER-LIGAND FREE ENERGY PREDICTED BY IDOCK:   -2.55 KCAL/MOL
REMARK 924 INTRA-LIGAND FREE ENERGY PREDICTED BY IDOCK:   -0.36 KCAL/MOL
REMARK 927      BINDING AFFINITY PREDICTED BY RF-SCORE:    0.00 PKD
ROOT
HETATM    1  O   UNL     1     -10.998   6.190  70.565  1.00  0.00    -0.274 OA 
HETATM    2  C   UNL     1     -10.390   6.059  71.764  1.00  0.00    -0.215 C  
HETATM    3  C   UNL     1      -9.207   6.950  71.959  1.00  0.00    -0.146 A  
HETATM    4  O   UNL     1     -10.790   5.292  72.621  1.00  0.00    -0.228 OA 
HETATM    5  C   UNL     1      -8.822   7.171  73.295  1.00  0.00    -0.168 A  
HETATM    6  C   UNL     1      -7.703   7.942  73.599  1.00  0.00    -0.207 A  
HETATM    7  C   UNL     1      -6.932   8.469  72.574  1.00  0.00    -0.071 A  
HETATM    8  C   UNL     1      -7.302   8.257  71.244  1.00  0.00    -0.078 A  
HETATM    9  C   UNL     1      -8.466   7.540  70.910  1.00  0.00    -0.125 A  
ENDROOT
BRANCH   9  10
HETATM   10  N   UNL     1      -8.813   7.335  69.536  1.00  0.00    -0.137 NA 
HETATM   11  H   UNL     1      -9.646   7.807  69.184  1.00  0.00     0.000 HD 
BRANCH  10  12
HETATM   12  C   UNL     1      -8.082   6.520  68.621  1.00  0.00    -0.118 A  
HETATM   13  C   UNL     1      -8.691   5.465  67.921  1.00  0.00    -0.106 A  
HETATM   14  C   UNL     1      -7.979   4.702  66.980  1.00  0.00    -0.102 A  
HETATM   15  C   UNL     1      -8.638   3.577  66.219  1.00  0.00    -0.117 C  
HETATM   16  C   UNL     1      -6.628   4.997  66.755  1.00  0.00    -0.050 A  
HETATM   17  F   UNL     1      -8.667   3.801  64.877  1.00  0.00    -0.109 F  
HETATM   18  F   UNL     1      -7.990   2.391  66.386  1.00  0.00    -0.076 F  
HETATM   19  F   UNL     1      -9.930   3.351  66.587  1.00  0.00    -0.141 F  
HETATM   20  C   UNL     1      -5.992   5.989  67.499  1.00  0.00    -0.017 A  
HETATM   21  C   UNL     1      -6.709   6.729  68.443  1.00  0.00    -0.065 A  
ENDBRANCH  10  12
ENDBRANCH   9  10
TORSDOF 2
ENDMDL
MODEL      275
REMARK 921   NORMALIZED FREE ENERGY PREDICTED BY IDOCK:   -2.16 KCAL/MOL
REMARK 922        TOTAL FREE ENERGY PREDICTED BY IDOCK:   -2.81 KCAL/MOL
REMARK 923 INTER-LIGAND FREE ENERGY PREDICTED BY IDOCK:   -2.47 KCAL/MOL
REMARK 924 INTRA-LIGAND FREE ENERGY PREDICTED BY IDOCK:   -0.34 KCAL/MOL
REMARK 927      BINDING AFFINITY PREDICTED BY RF-SCORE:    0.00 PKD
ROOT
HETATM    1  O   UNL     1      -5.518  12.803  72.453  1.00  0.00    -0.355 OA 
HETATM    2  C   UNL     1      -5.567  14.046  71.929  1.00  0.00    -0.206 C  
HETATM    3  C   UNL     1      -6.187  14.123  70.573  1.00  0.00    -0.138 A  
HETATM    4  O   UNL     1      -5.157  15.026  72.527  1.00  0.00    -0.190 OA 
HETATM    5  C   UNL     1      -6.652  15.394  70.184  1.00  0.00    -0.035 A  
HETATM    6  C   UNL     1      -7.203  15.599  68.921  1.00  0.00    -0.146 A  
HETATM    7  C   UNL     1      -7.260  14.548  68.017  1.00  0.00    -0.148 A  
HETATM    8  C   UNL     1      -6.802  13.283  68.389  1.00  0.00    -0.098 A  
HETATM    9  C   UNL     1      -6.304  13.032  69.682  1.00  0.00    -0.089 A  
ENDROOT
BRANCH   9  10
HETATM   10  N   UNL     1      -5.836  11.724  70.029  1.00  0.00    -0.132 NA 
HETATM   11  H   UNL     1      -4.869  11.637  70.344  1.00  0.00     0.000 HD 
BRANCH  10  12
HETATM   12  C   UNL     1      -6.618  10.533  69.968  1.00  0.00    -0.144 A  
HETATM   13  C   UNL     1      -6.917   9.785  71.119  1.00  0.00     0.189 A  
HETATM   14  C   UNL     1      -7.735   8.643  71.060  1.00  0.00    -0.120 A  
HETATM   15  C   UNL     1      -8.065   7.848  72.300  1.00  0.00    -0.127 C  
HETATM   16  C   UNL     1      -8.244   8.241  69.818  1.00  0.00    -0.121 A  
HETATM   17  F   UNL     1      -9.397   7.848  72.581  1.00  0.00    -0.190 F  
HETATM   18  F   UNL     1      -7.708   6.538  72.185  1.00  0.00    -0.093 F  
HETATM   19  F   UNL     1      -7.447   8.305  73.424  1.00  0.00    -0.154 F  
HETATM   20  C   UNL     1      -7.892   8.928  68.659  1.00  0.00    -0.102 A  
HETATM   21  C   UNL     1      -7.064  10.052  68.731  1.00  0.00    -0.071 A  
ENDBRANCH  10  12
ENDBRANCH   9  10
TORSDOF 2
ENDMDL
MODEL      276
REMARK 921   NORMALIZED FREE ENERGY PREDICTED BY IDOCK:   -2.15 KCAL/MOL
REMARK 922        TOTAL FREE ENERGY PREDICTED BY IDOCK:   -2.81 KCAL/MOL
REMARK 923 INTER-LIGAND FREE ENERGY PREDICTED BY IDOCK:   -2.23 KCAL/MOL
REMARK 924 INTRA-LIGAND FREE ENERGY PREDICTED BY IDOCK:   -0.58 KCAL/MOL
REMARK 927      BINDING AFFINITY PREDICTED BY RF-SCORE:    0.00 PKD
ROOT
HETATM    1  O   UNL     1     -10.352   6.316  70.237  1.00  0.00    -0.188 OA 
HETATM    2  C   UNL     1      -9.622   5.642  71.150  1.00  0.00    -0.168 C  
HETATM    3  C   UNL     1      -8.168   5.984  71.155  1.00  0.00    -0.123 A  
HETATM    4  O   UNL     1     -10.116   4.837  71.919  1.00  0.00    -0.186 OA 
HETATM    5  C   UNL     1      -7.468   5.658  72.334  1.00  0.00    -0.097 A  
HETATM    6  C   UNL     1      -6.097   5.882  72.437  1.00  0.00    -0.041 A  
HETATM    7  C   UNL     1      -5.402   6.397  71.353  1.00  0.00    -0.026 A  
HETATM    8  C   UNL     1      -6.083   6.724  70.179  1.00  0.00    -0.024 A  
HETATM    9  C   UNL     1      -7.478   6.572  70.071  1.00  0.00    -0.094 A  
ENDROOT
BRANCH   9  10
HETATM   10  N   UNL     1      -8.145   6.910  68.850  1.00  0.00    -0.119 NA 
HETATM   11  H   UNL     1      -8.660   6.170  68.373  1.00  0.00     0.000 HD 
BRANCH  10  12
HETATM   12  C   UNL     1      -8.145   8.205  68.250  1.00  0.00    -0.128 A  
HETATM   13  C   UNL     1      -7.811   8.393  66.899  1.00  0.00    -0.095 A  
HETATM   14  C   UNL     1      -7.867   9.663  66.300  1.00  0.00    -0.101 A  
HETATM   15  C   UNL     1      -7.519   9.862  64.845  1.00  0.00    -0.135 C  
HETATM   16  C   UNL     1      -8.249  10.762  67.081  1.00  0.00    -0.123 A  
HETATM   17  F   UNL     1      -8.574  10.315  64.113  1.00  0.00    -0.158 F  
HETATM   18  F   UNL     1      -6.525  10.776  64.671  1.00  0.00    -0.069 F  
HETATM   19  F   UNL     1      -7.094   8.727  64.223  1.00  0.00    -0.085 F  
HETATM   20  C   UNL     1      -8.508  10.601  68.441  1.00  0.00    -0.132 A  
HETATM   21  C   UNL     1      -8.432   9.334  69.027  1.00  0.00    -0.132 A  
ENDBRANCH  10  12
ENDBRANCH   9  10
TORSDOF 2
ENDMDL
MODEL      277
REMARK 921   NORMALIZED FREE ENERGY PREDICTED BY IDOCK:   -1.96 KCAL/MOL
REMARK 922        TOTAL FREE ENERGY PREDICTED BY IDOCK:   -2.59 KCAL/MOL
REMARK 923 INTER-LIGAND FREE ENERGY PREDICTED BY IDOCK:   -2.28 KCAL/MOL
REMARK 924 INTRA-LIGAND FREE ENERGY PREDICTED BY IDOCK:   -0.31 KCAL/MOL
REMARK 927      BINDING AFFINITY PREDICTED BY RF-SCORE:    0.00 PKD
ROOT
HETATM    1  O   UNL     1      -9.710  10.229  67.999  1.00  0.00    -0.147 OA 
HETATM    2  C   UNL     1      -9.866   9.376  69.033  1.00  0.00    -0.169 C  
HETATM    3  C   UNL     1      -8.664   9.237  69.909  1.00  0.00    -0.189 A  
HETATM    4  O   UNL     1     -10.911   8.785  69.244  1.00  0.00    -0.187 OA 
HETATM    5  C   UNL     1      -8.904   8.730  71.201  1.00  0.00    -0.275 A  
HETATM    6  C   UNL     1      -7.855   8.508  72.089  1.00  0.00    -0.136 A  
HETATM    7  C   UNL     1      -6.550   8.753  71.686  1.00  0.00    -0.075 A  
HETATM    8  C   UNL     1      -6.298   9.257  70.409  1.00  0.00    -0.060 A  
HETATM    9  C   UNL     1      -7.344   9.554  69.515  1.00  0.00    -0.077 A  
ENDROOT
BRANCH   9  10
HETATM   10  N   UNL     1      -7.050  10.063  68.209  1.00  0.00    -0.072 NA 
HETATM   11  H   UNL     1      -7.009  11.076  68.096  1.00  0.00     0.000 HD 
BRANCH  10  12
HETATM   12  C   UNL     1      -6.811   9.260  67.055  1.00  0.00    -0.080 A  
HETATM   13  C   UNL     1      -7.287   9.630  65.786  1.00  0.00    -0.100 A  
HETATM   14  C   UNL     1      -7.000   8.864  64.643  1.00  0.00    -0.084 A  
HETATM   15  C   UNL     1      -7.502   9.270  63.278  1.00  0.00    -0.103 C  
HETATM   16  C   UNL     1      -6.237   7.698  64.787  1.00  0.00    -0.038 A  
HETATM   17  F   UNL     1      -6.489   9.543  62.410  1.00  0.00    -0.098 F  
HETATM   18  F   UNL     1      -8.245   8.292  62.689  1.00  0.00    -0.152 F  
HETATM   19  F   UNL     1      -8.291  10.380  63.293  1.00  0.00    -0.153 F  
HETATM   20  C   UNL     1      -5.825   7.279  66.049  1.00  0.00    -0.036 A  
HETATM   21  C   UNL     1      -6.132   8.042  67.179  1.00  0.00    -0.054 A  
ENDBRANCH  10  12
ENDBRANCH   9  10
TORSDOF 2
ENDMDL
MODEL      278
REMARK 921   NORMALIZED FREE ENERGY PREDICTED BY IDOCK:   -1.64 KCAL/MOL
REMARK 922        TOTAL FREE ENERGY PREDICTED BY IDOCK:   -2.23 KCAL/MOL
REMARK 923 INTER-LIGAND FREE ENERGY PREDICTED BY IDOCK:   -1.89 KCAL/MOL
REMARK 924 INTRA-LIGAND FREE ENERGY PREDICTED BY IDOCK:   -0.35 KCAL/MOL
REMARK 927      BINDING AFFINITY PREDICTED BY RF-SCORE:    0.00 PKD
ROOT
HETATM    1  O   UNL     1      -9.844   6.204  70.315  1.00  0.00    -0.165 OA 
HETATM    2  C   UNL     1      -9.568   5.475  71.418  1.00  0.00    -0.154 C  
HETATM    3  C   UNL     1      -8.183   5.654  71.947  1.00  0.00    -0.119 A  
HETATM    4  O   UNL     1     -10.391   4.749  71.947  1.00  0.00    -0.199 OA 
HETATM    5  C   UNL     1      -7.990   5.282  73.292  1.00  0.00    -0.108 A  
HETATM    6  C   UNL     1      -6.730   5.355  73.881  1.00  0.00    -0.076 A  
HETATM    7  C   UNL     1      -5.640   5.763  73.126  1.00  0.00    -0.035 A  
HETATM    8  C   UNL     1      -5.817   6.135  71.792  1.00  0.00    -0.032 A  
HETATM    9  C   UNL     1      -7.091   6.135  71.191  1.00  0.00    -0.074 A  
ENDROOT
BRANCH   9  10
HETATM   10  N   UNL     1      -7.236   6.515  69.818  1.00  0.00    -0.075 NA 
HETATM   11  H   UNL     1      -7.344   7.509  69.612  1.00  0.00     0.000 HD 
BRANCH  10  12
HETATM   12  C   UNL     1      -7.242   5.610  68.715  1.00  0.00    -0.081 A  
HETATM   13  C   UNL     1      -7.674   6.004  67.438  1.00  0.00    -0.097 A  
HETATM   14  C   UNL     1      -7.625   5.123  66.344  1.00  0.00    -0.088 A  
HETATM   15  C   UNL     1      -8.078   5.551  64.969  1.00  0.00    -0.119 C  
HETATM   16  C   UNL     1      -7.147   3.821  66.546  1.00  0.00    -0.063 A  
HETATM   17  F   UNL     1      -7.070   5.526  64.055  1.00  0.00    -0.044 F  
HETATM   18  F   UNL     1      -9.054   4.741  64.471  1.00  0.00    -0.152 F  
HETATM   19  F   UNL     1      -8.586   6.814  64.929  1.00  0.00    -0.109 F  
HETATM   20  C   UNL     1      -6.789   3.395  67.823  1.00  0.00    -0.050 A  
HETATM   21  C   UNL     1      -6.859   4.277  68.905  1.00  0.00    -0.047 A  
ENDBRANCH  10  12
ENDBRANCH   9  10
TORSDOF 2
ENDMDL
MODEL      279
REMARK 921   NORMALIZED FREE ENERGY PREDICTED BY IDOCK:   -0.61 KCAL/MOL
REMARK 922        TOTAL FREE ENERGY PREDICTED BY IDOCK:   -1.08 KCAL/MOL
REMARK 923 INTER-LIGAND FREE ENERGY PREDICTED BY IDOCK:   -0.79 KCAL/MOL
REMARK 924 INTRA-LIGAND FREE ENERGY PREDICTED BY IDOCK:   -0.30 KCAL/MOL
REMARK 927      BINDING AFFINITY PREDICTED BY RF-SCORE:    0.00 PKD
ROOT
HETATM    1  O   UNL     1     -12.260  15.665  72.409  1.00  0.00    -0.358 OA 
HETATM    2  C   UNL     1     -12.964  14.597  72.838  1.00  0.00    -0.497 C  
HETATM    3  C   UNL     1     -12.724  13.344  72.061  1.00  0.00    -0.238 A  
HETATM    4  O   UNL     1     -13.716  14.649  73.796  1.00  0.00     0.511 OA 
HETATM    5  C   UNL     1     -13.072  12.145  72.712  1.00  0.00     1.368 A  
HETATM    6  C   UNL     1     -12.942  10.917  72.068  1.00  0.00    -0.418 A  
HETATM    7  C   UNL     1     -12.500  10.873  70.754  1.00  0.00    -0.489 A  
HETATM    8  C   UNL     1     -12.152  12.055  70.096  1.00  0.00    -0.377 A  
HETATM    9  C   UNL     1     -12.209  13.302  70.746  1.00  0.00    -0.308 A  
ENDROOT
BRANCH   9  10
HETATM   10  N   UNL     1     -11.851  14.496  70.040  1.00  0.00    -0.294 NA 
HETATM   11  H   UNL     1     -12.548  15.240  69.988  1.00  0.00     0.000 HD 
BRANCH  10  12
HETATM   12  C   UNL     1     -10.595  14.725  69.405  1.00  0.00    -0.218 A  
HETATM   13  C   UNL     1     -10.098  13.859  68.417  1.00  0.00    -0.237 A  
HETATM   14  C   UNL     1      -8.885  14.120  67.756  1.00  0.00    -0.185 A  
HETATM   15  C   UNL     1      -8.359  13.195  66.685  1.00  0.00     0.209 C  
HETATM   16  C   UNL     1      -8.156  15.263  68.110  1.00  0.00    -0.136 A  
HETATM   17  F   UNL     1      -8.268  13.802  65.469  1.00  0.00     1.667 F  
HETATM   18  F   UNL     1      -7.108  12.736  66.967  1.00  0.00    -0.135 F  
HETATM   19  F   UNL     1      -9.127  12.088  66.492  1.00  0.00    -0.188 F  
HETATM   20  C   UNL     1      -8.598  16.087  69.142  1.00  0.00    -0.247 A  
HETATM   21  C   UNL     1      -9.798  15.805  69.802  1.00  0.00    -0.218 A  
ENDBRANCH  10  12
ENDBRANCH   9  10
TORSDOF 2
ENDMDL
MODEL      280
REMARK 921   NORMALIZED FREE ENERGY PREDICTED BY IDOCK:    1.13 KCAL/MOL
REMARK 922        TOTAL FREE ENERGY PREDICTED BY IDOCK:    0.86 KCAL/MOL
REMARK 923 INTER-LIGAND FREE ENERGY PREDICTED BY IDOCK:   -1.87 KCAL/MOL
REMARK 924 INTRA-LIGAND FREE ENERGY PREDICTED BY IDOCK:    2.73 KCAL/MOL
REMARK 927      BINDING AFFINITY PREDICTED BY RF-SCORE:    0.00 PKD
ROOT
HETATM    1  O   UNL     1      -9.776   6.108  70.252  1.00  0.00    -0.161 OA 
HETATM    2  C   UNL     1      -9.679   5.243  71.284  1.00  0.00    -0.166 C  
HETATM    3  C   UNL     1      -8.387   5.311  72.030  1.00  0.00    -0.122 A  
HETATM    4  O   UNL     1     -10.582   4.486  71.591  1.00  0.00    -0.071 OA 
HETATM    5  C   UNL     1      -8.403   4.773  73.331  1.00  0.00    -0.103 A  
HETATM    6  C   UNL     1      -7.245   4.733  74.104  1.00  0.00    -0.078 A  
HETATM    7  C   UNL     1      -6.049   5.193  73.574  1.00  0.00    -0.042 A  
HETATM    8  C   UNL     1      -6.018   5.729  72.285  1.00  0.00    -0.039 A  
HETATM    9  C   UNL     1      -7.186   5.844  71.508  1.00  0.00    -0.083 A  
ENDROOT
BRANCH   9  10
HETATM   10  N   UNL     1      -7.119   6.392  70.187  1.00  0.00    -0.072 NA 
HETATM   11  H   UNL     1      -6.569   7.241  70.056  1.00  0.00     0.000 HD 
BRANCH  10  12
HETATM   12  C   UNL     1      -7.761   5.840  69.039  1.00  0.00    -0.090 A  
HETATM   13  C   UNL     1      -7.590   4.495  68.672  1.00  0.00    -0.064 A  
HETATM   14  C   UNL     1      -8.269   3.943  67.572  1.00  0.00    -0.094 A  
HETATM   15  C   UNL     1      -8.094   2.494  67.186  1.00  0.00    -0.075 C  
HETATM   16  C   UNL     1      -9.121   4.765  66.823  1.00  0.00    -0.117 A  
HETATM   17  F   UNL     1      -9.251   1.784  67.283  1.00  0.00    -0.142 F  
HETATM   18  F   UNL     1      -7.674   2.349  65.898  1.00  0.00    -0.071 F  
HETATM   19  F   UNL     1      -7.184   1.830  67.952  1.00  0.00    -0.043 F  
HETATM   20  C   UNL     1      -9.240   6.119  67.130  1.00  0.00    -0.120 A  
HETATM   21  C   UNL     1      -8.544   6.658  68.216  1.00  0.00    -0.119 A  
ENDBRANCH  10  12
ENDBRANCH   9  10
TORSDOF 2
ENDMDL
MODEL      281
REMARK 921   NORMALIZED FREE ENERGY PREDICTED BY IDOCK:    1.72 KCAL/MOL
REMARK 922        TOTAL FREE ENERGY PREDICTED BY IDOCK:    1.52 KCAL/MOL
REMARK 923 INTER-LIGAND FREE ENERGY PREDICTED BY IDOCK:    1.94 KCAL/MOL
REMARK 924 INTRA-LIGAND FREE ENERGY PREDICTED BY IDOCK:   -0.42 KCAL/MOL
REMARK 927      BINDING AFFINITY PREDICTED BY RF-SCORE:    0.00 PKD
ROOT
HETATM    1  O   UNL     1      -5.188  13.178  68.677  1.00  0.00    -0.064 OA 
HETATM    2  C   UNL     1      -6.132  14.127  68.501  1.00  0.00    -0.091 C  
HETATM    3  C   UNL     1      -7.502  13.726  68.940  1.00  0.00    -0.056 A  
HETATM    4  O   UNL     1      -5.879  15.226  68.040  1.00  0.00    -0.122 OA 
HETATM    5  C   UNL     1      -8.399  14.783  69.187  1.00  0.00    -0.104 A  
HETATM    6  C   UNL     1      -9.719  14.532  69.552  1.00  0.00     0.193 A  
HETATM    7  C   UNL     1     -10.171  13.223  69.638  1.00  0.00     0.909 A  
HETATM    8  C   UNL     1      -9.293  12.165  69.396  1.00  0.00     1.025 A  
HETATM    9  C   UNL     1      -7.937  12.389  69.092  1.00  0.00     0.407 A  
ENDROOT
BRANCH   9  10
HETATM   10  N   UNL     1      -7.064  11.282  68.843  1.00  0.00    -0.096 NA 
HETATM   11  H   UNL     1      -6.392  11.038  69.570  1.00  0.00     0.000 HD 
BRANCH  10  12
HETATM   12  C   UNL     1      -7.065  10.492  67.655  1.00  0.00    -0.084 A  
HETATM   13  C   UNL     1      -8.235   9.883  67.173  1.00  0.00    -0.121 A  
HETATM   14  C   UNL     1      -8.240   9.153  65.972  1.00  0.00    -0.115 A  
HETATM   15  C   UNL     1      -9.502   8.509  65.449  1.00  0.00     0.237 C  
HETATM   16  C   UNL     1      -7.043   9.022  65.256  1.00  0.00    -0.084 A  
HETATM   17  F   UNL     1      -9.889   9.019  64.247  1.00  0.00     0.374 F  
HETATM   18  F   UNL     1      -9.356   7.169  65.255  1.00  0.00     0.143 F  
HETATM   19  F   UNL     1     -10.573   8.651  66.277  1.00  0.00    -0.303 F  
HETATM   20  C   UNL     1      -5.860   9.556  65.762  1.00  0.00    -0.054 A  
HETATM   21  C   UNL     1      -5.867  10.265  66.967  1.00  0.00    -0.050 A  
ENDBRANCH  10  12
ENDBRANCH   9  10
TORSDOF 2
ENDMDL
MODEL      282
REMARK 921   NORMALIZED FREE ENERGY PREDICTED BY IDOCK:    7.47 KCAL/MOL
REMARK 922        TOTAL FREE ENERGY PREDICTED BY IDOCK:    7.94 KCAL/MOL
REMARK 923 INTER-LIGAND FREE ENERGY PREDICTED BY IDOCK:    3.38 KCAL/MOL
REMARK 924 INTRA-LIGAND FREE ENERGY PREDICTED BY IDOCK:    4.56 KCAL/MOL
REMARK 927      BINDING AFFINITY PREDICTED BY RF-SCORE:    0.00 PKD
ROOT
HETATM    1  O   UNL     1      -8.169  15.139  67.171  1.00  0.00    -0.191 OA 
HETATM    2  C   UNL     1      -8.516  15.347  65.883  1.00  0.00     0.727 C  
HETATM    3  C   UNL     1      -9.837  14.766  65.496  1.00  0.00    -0.336 A  
HETATM    4  O   UNL     1      -7.816  15.976  65.109  1.00  0.00     2.747 OA 
HETATM    5  C   UNL     1     -10.430  15.313  64.341  1.00  0.00     0.511 A  
HETATM    6  C   UNL     1     -11.636  14.817  63.853  1.00  0.00     0.290 A  
HETATM    7  C   UNL     1     -12.246  13.745  64.489  1.00  0.00    -0.441 A  
HETATM    8  C   UNL     1     -11.669  13.194  65.635  1.00  0.00    -0.402 A  
HETATM    9  C   UNL     1     -10.487  13.720  66.188  1.00  0.00    -0.297 A  
ENDROOT
BRANCH   9  10
HETATM   10  N   UNL     1      -9.917  13.126  67.361  1.00  0.00    -0.226 NA 
HETATM   11  H   UNL     1      -9.916  12.108  67.421  1.00  0.00     0.000 HD 
BRANCH  10  12
HETATM   12  C   UNL     1      -9.351  13.851  68.451  1.00  0.00    -0.201 A  
HETATM   13  C   UNL     1      -7.978  13.793  68.744  1.00  0.00    -0.041 A  
HETATM   14  C   UNL     1      -7.418  14.553  69.785  1.00  0.00     0.103 A  
HETATM   15  C   UNL     1      -5.941  14.499  70.090  1.00  0.00    -0.150 C  
HETATM   16  C   UNL     1      -8.259  15.370  70.552  1.00  0.00     1.428 A  
HETATM   17  F   UNL     1      -5.327  15.701  69.913  1.00  0.00    -0.101 F  
HETATM   18  F   UNL     1      -5.692  14.140  71.381  1.00  0.00    -0.168 F  
HETATM   19  F   UNL     1      -5.254  13.611  69.318  1.00  0.00    -0.077 F  
HETATM   20  C   UNL     1      -9.633  15.377  70.322  1.00  0.00     0.360 A  
HETATM   21  C   UNL     1     -10.178  14.603  69.294  1.00  0.00    -0.156 A  
ENDBRANCH  10  12
ENDBRANCH   9  10
TORSDOF 2
ENDMDL
MODEL      283
REMARK 921   NORMALIZED FREE ENERGY PREDICTED BY IDOCK:    9.89 KCAL/MOL
REMARK 922        TOTAL FREE ENERGY PREDICTED BY IDOCK:   10.64 KCAL/MOL
REMARK 923 INTER-LIGAND FREE ENERGY PREDICTED BY IDOCK:    7.83 KCAL/MOL
REMARK 924 INTRA-LIGAND FREE ENERGY PREDICTED BY IDOCK:    2.82 KCAL/MOL
REMARK 927      BINDING AFFINITY PREDICTED BY RF-SCORE:    0.00 PKD
ROOT
HETATM    1  O   UNL     1      -5.687  13.259  68.969  1.00  0.00    -0.072 OA 
HETATM    2  C   UNL     1      -6.583  13.691  68.055  1.00  0.00    -0.136 C  
HETATM    3  C   UNL     1      -7.790  14.352  68.635  1.00  0.00    -0.140 A  
HETATM    4  O   UNL     1      -6.406  13.568  66.856  1.00  0.00     0.120 OA 
HETATM    5  C   UNL     1      -8.511  15.185  67.758  1.00  0.00    -0.156 A  
HETATM    6  C   UNL     1      -9.683  15.814  68.171  1.00  0.00    -0.211 A  
HETATM    7  C   UNL     1     -10.171  15.589  69.450  1.00  0.00    -0.262 A  
HETATM    8  C   UNL     1      -9.465  14.766  70.330  1.00  0.00     0.865 A  
HETATM    9  C   UNL     1      -8.243  14.172  69.962  1.00  0.00     1.312 A  
ENDROOT
BRANCH   9  10
HETATM   10  N   UNL     1      -7.548  13.327  70.886  1.00  0.00     2.851 NA 
HETATM   11  H   UNL     1      -7.391  13.687  71.827  1.00  0.00     0.000 HD 
BRANCH  10  12
HETATM   12  C   UNL     1      -7.061  12.019  70.590  1.00  0.00     2.592 A  
HETATM   13  C   UNL     1      -7.439  11.337  69.422  1.00  0.00     0.014 A  
HETATM   14  C   UNL     1      -6.912  10.071  69.110  1.00  0.00    -0.059 A  
HETATM   15  C   UNL     1      -7.310   9.344  67.848  1.00  0.00    -0.083 C  
HETATM   16  C   UNL     1      -6.002   9.481  69.997  1.00  0.00    -0.041 A  
HETATM   17  F   UNL     1      -6.258   9.143  67.007  1.00  0.00    -0.054 F  
HETATM   18  F   UNL     1      -7.825   8.109  68.104  1.00  0.00    -0.111 F  
HETATM   19  F   UNL     1      -8.254   9.997  67.114  1.00  0.00    -0.114 F  
HETATM   20  C   UNL     1      -5.679  10.113  71.195  1.00  0.00    -0.054 A  
HETATM   21  C   UNL     1      -6.224  11.363  71.501  1.00  0.00     1.568 A  
ENDBRANCH  10  12
ENDBRANCH   9  10
TORSDOF 2
ENDMDL
MODEL      284
REMARK 921   NORMALIZED FREE ENERGY PREDICTED BY IDOCK:   15.96 KCAL/MOL
REMARK 922        TOTAL FREE ENERGY PREDICTED BY IDOCK:   17.43 KCAL/MOL
REMARK 923 INTER-LIGAND FREE ENERGY PREDICTED BY IDOCK:   17.34 KCAL/MOL
REMARK 924 INTRA-LIGAND FREE ENERGY PREDICTED BY IDOCK:    0.08 KCAL/MOL
REMARK 927      BINDING AFFINITY PREDICTED BY RF-SCORE:    0.00 PKD
ROOT
HETATM    1  O   UNL     1      -9.152  13.788  70.681  1.00  0.00     3.718 OA 
HETATM    2  C   UNL     1      -8.076  13.485  69.925  1.00  0.00     1.787 C  
HETATM    3  C   UNL     1      -7.554  14.621  69.107  1.00  0.00    -0.126 A  
HETATM    4  O   UNL     1      -7.562  12.380  69.929  1.00  0.00     0.927 OA 
HETATM    5  C   UNL     1      -6.224  14.493  68.663  1.00  0.00    -0.083 A  
HETATM    6  C   UNL     1      -5.645  15.464  67.849  1.00  0.00    -0.148 A  
HETATM    7  C   UNL     1      -6.398  16.554  67.438  1.00  0.00    -0.199 A  
HETATM    8  C   UNL     1      -7.718  16.693  67.871  1.00  0.00    -0.170 A  
HETATM    9  C   UNL     1      -8.306  15.762  68.748  1.00  0.00    -0.195 A  
ENDROOT
BRANCH   9  10
HETATM   10  N   UNL     1      -9.665  15.930  69.167  1.00  0.00    -0.234 NA 
HETATM   11  H   UNL     1      -9.978  15.398  69.979  1.00  0.00     0.000 HD 
BRANCH  10  12
HETATM   12  C   UNL     1     -10.615  16.787  68.536  1.00  0.00    -0.354 A  
HETATM   13  C   UNL     1     -10.266  18.071  68.083  1.00  0.00    -0.392 A  
HETATM   14  C   UNL     1     -11.192  18.888  67.413  1.00  0.00     0.100 A  
HETATM   15  C   UNL     1     -10.812  20.262  66.915  1.00  0.00     0.253 C  
HETATM   16  C   UNL     1     -12.494  18.409  67.212  1.00  0.00     4.959 A  
HETATM   17  F   UNL     1     -10.896  20.368  65.560  1.00  0.00    -0.382 F  
HETATM   18  F   UNL     1     -11.623  21.235  67.416  1.00  0.00     3.133 F  
HETATM   19  F   UNL     1      -9.542  20.630  67.241  1.00  0.00    -0.531 F  
HETATM   20  C   UNL     1     -12.874  17.171  67.724  1.00  0.00     4.851 A  
HETATM   21  C   UNL     1     -11.946  16.376  68.404  1.00  0.00     0.428 A  
ENDBRANCH  10  12
ENDBRANCH   9  10
TORSDOF 2
ENDMDL
