MODEL        1
REMARK 921   NORMALIZED FREE ENERGY PREDICTED BY IDOCK:   -6.98 KCAL/MOL
REMARK 922        TOTAL FREE ENERGY PREDICTED BY IDOCK:   -7.73 KCAL/MOL
REMARK 923 INTER-LIGAND FREE ENERGY PREDICTED BY IDOCK:   -7.39 KCAL/MOL
REMARK 924 INTRA-LIGAND FREE ENERGY PREDICTED BY IDOCK:   -0.34 KCAL/MOL
REMARK 927      BINDING AFFINITY PREDICTED BY RF-SCORE:    0.00 PKD
ROOT
HETATM    1  F   UNL     1     -12.402  12.640  63.409  1.00  0.00    -0.530 F  
HETATM    2  C   UNL     1     -12.101  12.787  64.706  1.00  0.00    -0.432 A  
HETATM    3  C   UNL     1     -12.609  13.865  65.413  1.00  0.00    -0.538 A  
HETATM    4  C   UNL     1     -12.286  14.024  66.765  1.00  0.00    -0.439 A  
HETATM    5  C   UNL     1     -11.463  13.098  67.433  1.00  0.00    -0.375 A  
HETATM    6  C   UNL     1     -10.942  12.029  66.674  1.00  0.00    -0.330 A  
HETATM    7  C   UNL     1     -11.268  11.868  65.323  1.00  0.00    -0.351 A  
ENDROOT
BRANCH   5   8
HETATM    8  C   UNL     1     -11.049  13.290  68.889  1.00  0.00    -0.304 C  
HETATM    9  C   UNL     1     -11.233  14.703  69.448  1.00  0.00    -0.279 C  
HETATM   10  C   UNL     1     -12.145  14.654  70.589  1.00  0.00    -0.385 A  
HETATM   11  O   UNL     1     -10.706  15.737  69.073  1.00  0.00    -0.211 OA 
HETATM   12  C   UNL     1     -12.606  15.696  71.373  1.00  0.00    -0.519 A  
HETATM   13  C   UNL     1     -13.484  15.382  72.416  1.00  0.00    -0.591 A  
HETATM   14  C   UNL     1     -13.877  14.050  72.652  1.00  0.00    -0.516 A  
HETATM   15  C   UNL     1     -13.387  13.011  71.857  1.00  0.00    -0.539 A  
HETATM   16  C   UNL     1     -12.519  13.344  70.833  1.00  0.00    -0.439 A  
HETATM   17  C   UNL     1     -11.854  12.455  69.887  1.00  0.00    -0.305 C  
HETATM   18  O   UNL     1     -11.937  11.240  69.965  1.00  0.00    -0.307 OA 
ENDBRANCH   5   8
TORSDOF 1
ENDMDL
MODEL        2
REMARK 921   NORMALIZED FREE ENERGY PREDICTED BY IDOCK:   -6.79 KCAL/MOL
REMARK 922        TOTAL FREE ENERGY PREDICTED BY IDOCK:   -7.53 KCAL/MOL
REMARK 923 INTER-LIGAND FREE ENERGY PREDICTED BY IDOCK:   -7.32 KCAL/MOL
REMARK 924 INTRA-LIGAND FREE ENERGY PREDICTED BY IDOCK:   -0.21 KCAL/MOL
REMARK 927      BINDING AFFINITY PREDICTED BY RF-SCORE:    0.00 PKD
ROOT
HETATM    1  F   UNL     1     -10.503  20.567  69.318  1.00  0.00    -0.412 F  
HETATM    2  C   UNL     1     -10.266  19.574  68.450  1.00  0.00    -0.431 A  
HETATM    3  C   UNL     1     -10.296  19.830  67.088  1.00  0.00    -0.589 A  
HETATM    4  C   UNL     1     -10.060  18.792  66.181  1.00  0.00    -0.421 A  
HETATM    5  C   UNL     1      -9.774  17.487  66.624  1.00  0.00    -0.303 A  
HETATM    6  C   UNL     1      -9.779  17.259  68.015  1.00  0.00    -0.277 A  
HETATM    7  C   UNL     1     -10.012  18.297  68.922  1.00  0.00    -0.361 A  
ENDROOT
BRANCH   5   8
HETATM    8  C   UNL     1      -9.577  16.331  65.648  1.00  0.00    -0.152 C  
HETATM    9  C   UNL     1      -9.209  14.986  66.280  1.00  0.00    -0.289 C  
HETATM   10  C   UNL     1     -10.230  13.998  65.938  1.00  0.00    -0.332 A  
HETATM   11  O   UNL     1      -8.222  14.709  66.940  1.00  0.00    -0.190 OA 
HETATM   12  C   UNL     1     -10.309  12.669  66.316  1.00  0.00    -0.269 A  
HETATM   13  C   UNL     1     -11.401  11.928  65.852  1.00  0.00    -0.365 A  
HETATM   14  C   UNL     1     -12.377  12.521  65.029  1.00  0.00    -0.522 A  
HETATM   15  C   UNL     1     -12.270  13.861  64.647  1.00  0.00    -0.449 A  
HETATM   16  C   UNL     1     -11.182  14.574  65.116  1.00  0.00    -0.367 A  
HETATM   17  C   UNL     1     -10.828  15.963  64.847  1.00  0.00    -0.400 C  
HETATM   18  O   UNL     1     -11.454  16.655  64.060  1.00  0.00    -1.192 OA 
ENDBRANCH   5   8
TORSDOF 1
ENDMDL
MODEL        3
REMARK 921   NORMALIZED FREE ENERGY PREDICTED BY IDOCK:   -6.61 KCAL/MOL
REMARK 922        TOTAL FREE ENERGY PREDICTED BY IDOCK:   -7.34 KCAL/MOL
REMARK 923 INTER-LIGAND FREE ENERGY PREDICTED BY IDOCK:   -7.01 KCAL/MOL
REMARK 924 INTRA-LIGAND FREE ENERGY PREDICTED BY IDOCK:   -0.33 KCAL/MOL
REMARK 927      BINDING AFFINITY PREDICTED BY RF-SCORE:    0.00 PKD
ROOT
HETATM    1  F   UNL     1     -13.905  15.970  73.512  1.00  0.00    -0.564 F  
HETATM    2  C   UNL     1     -13.183  15.606  72.444  1.00  0.00    -0.474 A  
HETATM    3  C   UNL     1     -13.659  14.619  71.596  1.00  0.00    -0.475 A  
HETATM    4  C   UNL     1     -12.900  14.231  70.486  1.00  0.00    -0.336 A  
HETATM    5  C   UNL     1     -11.663  14.837  70.200  1.00  0.00    -0.352 A  
HETATM    6  C   UNL     1     -11.199  15.819  71.100  1.00  0.00    -0.380 A  
HETATM    7  C   UNL     1     -11.958  16.208  72.208  1.00  0.00    -0.637 A  
ENDROOT
BRANCH   5   8
HETATM    8  C   UNL     1     -10.794  14.383  69.031  1.00  0.00    -0.267 C  
HETATM    9  C   UNL     1     -11.152  13.021  68.430  1.00  0.00    -0.262 C  
HETATM   10  C   UNL     1     -11.493  13.192  67.020  1.00  0.00    -0.379 A  
HETATM   11  O   UNL     1     -11.138  11.930  68.975  1.00  0.00    -0.229 OA 
HETATM   12  C   UNL     1     -11.898  12.235  66.106  1.00  0.00    -0.398 A  
HETATM   13  C   UNL     1     -12.171  12.661  64.801  1.00  0.00    -0.528 A  
HETATM   14  C   UNL     1     -12.033  14.016  64.441  1.00  0.00    -0.480 A  
HETATM   15  C   UNL     1     -11.609  14.963  65.376  1.00  0.00    -0.280 A  
HETATM   16  C   UNL     1     -11.343  14.519  66.659  1.00  0.00    -0.359 A  
HETATM   17  C   UNL     1     -10.867  15.292  67.802  1.00  0.00    -0.295 C  
HETATM   18  O   UNL     1     -10.555  16.468  67.709  1.00  0.00    -0.315 OA 
ENDBRANCH   5   8
TORSDOF 1
ENDMDL
MODEL        4
REMARK 921   NORMALIZED FREE ENERGY PREDICTED BY IDOCK:   -6.39 KCAL/MOL
REMARK 922        TOTAL FREE ENERGY PREDICTED BY IDOCK:   -7.11 KCAL/MOL
REMARK 923 INTER-LIGAND FREE ENERGY PREDICTED BY IDOCK:   -6.80 KCAL/MOL
REMARK 924 INTRA-LIGAND FREE ENERGY PREDICTED BY IDOCK:   -0.30 KCAL/MOL
REMARK 927      BINDING AFFINITY PREDICTED BY RF-SCORE:    0.00 PKD
ROOT
HETATM    1  F   UNL     1     -12.478  13.937  62.871  1.00  0.00    -0.349 F  
HETATM    2  C   UNL     1     -12.076  13.826  64.144  1.00  0.00    -0.433 A  
HETATM    3  C   UNL     1     -12.533  12.774  64.921  1.00  0.00    -0.563 A  
HETATM    4  C   UNL     1     -12.122  12.664  66.253  1.00  0.00    -0.358 A  
HETATM    5  C   UNL     1     -11.234  13.596  66.822  1.00  0.00    -0.327 A  
HETATM    6  C   UNL     1     -10.811  14.668  66.009  1.00  0.00    -0.318 A  
HETATM    7  C   UNL     1     -11.220  14.776  64.677  1.00  0.00    -0.350 A  
ENDROOT
BRANCH   5   8
HETATM    8  C   UNL     1     -10.826  13.526  68.291  1.00  0.00    -0.277 C  
HETATM    9  C   UNL     1     -11.547  14.501  69.225  1.00  0.00    -0.302 C  
HETATM   10  C   UNL     1     -12.256  13.745  70.255  1.00  0.00    -0.429 A  
HETATM   11  O   UNL     1     -11.540  15.720  69.193  1.00  0.00    -0.351 OA 
HETATM   12  C   UNL     1     -13.052  14.219  71.283  1.00  0.00    -0.425 A  
HETATM   13  C   UNL     1     -13.627  13.278  72.144  1.00  0.00    -0.655 A  
HETATM   14  C   UNL     1     -13.397  11.901  71.963  1.00  0.00    -0.425 A  
HETATM   15  C   UNL     1     -12.578  11.444  70.927  1.00  0.00    -0.453 A  
HETATM   16  C   UNL     1     -12.019  12.392  70.090  1.00  0.00    -0.376 A  
HETATM   17  C   UNL     1     -11.117  12.182  68.962  1.00  0.00    -0.237 C  
HETATM   18  O   UNL     1     -10.670  11.082  68.680  1.00  0.00    -0.175 OA 
ENDBRANCH   5   8
TORSDOF 1
ENDMDL
MODEL        5
REMARK 921   NORMALIZED FREE ENERGY PREDICTED BY IDOCK:   -6.36 KCAL/MOL
REMARK 922        TOTAL FREE ENERGY PREDICTED BY IDOCK:   -7.07 KCAL/MOL
REMARK 923 INTER-LIGAND FREE ENERGY PREDICTED BY IDOCK:   -6.65 KCAL/MOL
REMARK 924 INTRA-LIGAND FREE ENERGY PREDICTED BY IDOCK:   -0.42 KCAL/MOL
REMARK 927      BINDING AFFINITY PREDICTED BY RF-SCORE:    0.00 PKD
ROOT
HETATM    1  F   UNL     1     -12.391  13.950  63.145  1.00  0.00    -0.485 F  
HETATM    2  C   UNL     1     -12.030  13.747  64.419  1.00  0.00    -0.445 A  
HETATM    3  C   UNL     1     -11.392  14.756  65.123  1.00  0.00    -0.379 A  
HETATM    4  C   UNL     1     -11.006  14.540  66.451  1.00  0.00    -0.324 A  
HETATM    5  C   UNL     1     -11.267  13.317  67.097  1.00  0.00    -0.327 A  
HETATM    6  C   UNL     1     -11.893  12.305  66.341  1.00  0.00    -0.382 A  
HETATM    7  C   UNL     1     -12.282  12.522  65.015  1.00  0.00    -0.519 A  
ENDROOT
BRANCH   5   8
HETATM    8  C   UNL     1     -10.796  13.043  68.522  1.00  0.00    -0.282 C  
HETATM    9  C   UNL     1     -11.864  13.180  69.610  1.00  0.00    -0.324 C  
HETATM   10  C   UNL     1     -12.008  11.903  70.306  1.00  0.00    -0.416 A  
HETATM   11  O   UNL     1     -12.500  14.172  69.921  1.00  0.00    -0.341 OA 
HETATM   12  C   UNL     1     -12.871  11.572  71.336  1.00  0.00    -0.489 A  
HETATM   13  C   UNL     1     -12.814  10.265  71.834  1.00  0.00    -0.528 A  
HETATM   14  C   UNL     1     -11.906   9.330  71.301  1.00  0.00    -0.415 A  
HETATM   15  C   UNL     1     -11.033   9.690  70.271  1.00  0.00    -0.337 A  
HETATM   16  C   UNL     1     -11.106  10.986  69.796  1.00  0.00    -0.303 A  
HETATM   17  C   UNL     1     -10.298  11.615  68.756  1.00  0.00    -0.195 C  
HETATM   18  O   UNL     1      -9.358  11.044  68.227  1.00  0.00    -0.159 OA 
ENDBRANCH   5   8
TORSDOF 1
ENDMDL
MODEL        6
REMARK 921   NORMALIZED FREE ENERGY PREDICTED BY IDOCK:   -6.35 KCAL/MOL
REMARK 922        TOTAL FREE ENERGY PREDICTED BY IDOCK:   -7.06 KCAL/MOL
REMARK 923 INTER-LIGAND FREE ENERGY PREDICTED BY IDOCK:   -6.58 KCAL/MOL
REMARK 924 INTRA-LIGAND FREE ENERGY PREDICTED BY IDOCK:   -0.48 KCAL/MOL
REMARK 927      BINDING AFFINITY PREDICTED BY RF-SCORE:    0.00 PKD
ROOT
HETATM    1  F   UNL     1     -12.001  11.171  67.871  1.00  0.00    -0.322 F  
HETATM    2  C   UNL     1     -11.456  12.252  67.298  1.00  0.00    -0.357 A  
HETATM    3  C   UNL     1     -10.759  12.122  66.107  1.00  0.00    -0.307 A  
HETATM    4  C   UNL     1     -10.181  13.249  65.513  1.00  0.00    -0.298 A  
HETATM    5  C   UNL     1     -10.305  14.525  66.095  1.00  0.00    -0.305 A  
HETATM    6  C   UNL     1     -10.997  14.614  67.321  1.00  0.00    -0.317 A  
HETATM    7  C   UNL     1     -11.578  13.488  67.912  1.00  0.00    -0.377 A  
ENDROOT
BRANCH   5   8
HETATM    8  C   UNL     1      -9.627  15.753  65.495  1.00  0.00    -0.202 C  
HETATM    9  C   UNL     1     -10.547  16.939  65.199  1.00  0.00    -0.069 C  
HETATM   10  C   UNL     1     -10.097  18.101  65.962  1.00  0.00    -0.272 A  
HETATM   11  O   UNL     1     -11.496  16.984  64.434  1.00  0.00    -1.048 OA 
HETATM   12  C   UNL     1     -10.648  19.369  66.014  1.00  0.00    -0.573 A  
HETATM   13  C   UNL     1     -10.022  20.314  66.834  1.00  0.00    -0.592 A  
HETATM   14  C   UNL     1      -8.871  19.978  67.572  1.00  0.00    -0.426 A  
HETATM   15  C   UNL     1      -8.322  18.696  67.494  1.00  0.00    -0.279 A  
HETATM   16  C   UNL     1      -8.957  17.778  66.677  1.00  0.00    -0.283 A  
HETATM   17  C   UNL     1      -8.575  16.397  66.402  1.00  0.00    -0.323 C  
HETATM   18  O   UNL     1      -7.542  15.909  66.830  1.00  0.00    -0.226 OA 
ENDBRANCH   5   8
TORSDOF 1
ENDMDL
MODEL        7
REMARK 921   NORMALIZED FREE ENERGY PREDICTED BY IDOCK:   -6.32 KCAL/MOL
REMARK 922        TOTAL FREE ENERGY PREDICTED BY IDOCK:   -7.03 KCAL/MOL
REMARK 923 INTER-LIGAND FREE ENERGY PREDICTED BY IDOCK:   -6.66 KCAL/MOL
REMARK 924 INTRA-LIGAND FREE ENERGY PREDICTED BY IDOCK:   -0.38 KCAL/MOL
REMARK 927      BINDING AFFINITY PREDICTED BY RF-SCORE:    0.00 PKD
ROOT
HETATM    1  F   UNL     1     -10.214  18.376  69.327  1.00  0.00    -0.383 F  
HETATM    2  C   UNL     1     -10.612  17.204  68.813  1.00  0.00    -0.336 A  
HETATM    3  C   UNL     1     -10.392  16.931  67.472  1.00  0.00    -0.318 A  
HETATM    4  C   UNL     1     -10.816  15.712  66.932  1.00  0.00    -0.282 A  
HETATM    5  C   UNL     1     -11.453  14.743  67.731  1.00  0.00    -0.363 A  
HETATM    6  C   UNL     1     -11.684  15.068  69.083  1.00  0.00    -0.345 A  
HETATM    7  C   UNL     1     -11.257  16.284  69.624  1.00  0.00    -0.311 A  
ENDROOT
BRANCH   5   8
HETATM    8  C   UNL     1     -11.979  13.436  67.144  1.00  0.00    -0.415 C  
HETATM    9  C   UNL     1     -12.257  13.450  65.640  1.00  0.00    -0.463 C  
HETATM   10  C   UNL     1     -11.432  12.435  64.988  1.00  0.00    -0.378 A  
HETATM   11  O   UNL     1     -13.051  14.143  65.027  1.00  0.00    -0.728 OA 
HETATM   12  C   UNL     1     -11.347  12.122  63.643  1.00  0.00    -0.545 A  
HETATM   13  C   UNL     1     -10.469  11.098  63.271  1.00  0.00    -0.323 A  
HETATM   14  C   UNL     1      -9.706  10.415  64.238  1.00  0.00    -0.389 A  
HETATM   15  C   UNL     1      -9.819  10.737  65.593  1.00  0.00    -0.299 A  
HETATM   16  C   UNL     1     -10.694  11.751  65.938  1.00  0.00    -0.328 A  
HETATM   17  C   UNL     1     -11.012  12.257  67.269  1.00  0.00    -0.256 C  
HETATM   18  O   UNL     1     -10.570  11.742  68.284  1.00  0.00    -0.195 OA 
ENDBRANCH   5   8
TORSDOF 1
ENDMDL
MODEL        8
REMARK 921   NORMALIZED FREE ENERGY PREDICTED BY IDOCK:   -6.32 KCAL/MOL
REMARK 922        TOTAL FREE ENERGY PREDICTED BY IDOCK:   -7.03 KCAL/MOL
REMARK 923 INTER-LIGAND FREE ENERGY PREDICTED BY IDOCK:   -6.99 KCAL/MOL
REMARK 924 INTRA-LIGAND FREE ENERGY PREDICTED BY IDOCK:   -0.04 KCAL/MOL
REMARK 927      BINDING AFFINITY PREDICTED BY RF-SCORE:    0.00 PKD
ROOT
HETATM    1  F   UNL     1     -13.649  15.967  71.837  1.00  0.00    -0.520 F  
HETATM    2  C   UNL     1     -13.311  14.708  71.527  1.00  0.00    -0.364 A  
HETATM    3  C   UNL     1     -12.590  14.453  70.371  1.00  0.00    -0.405 A  
HETATM    4  C   UNL     1     -12.247  13.138  70.042  1.00  0.00    -0.323 A  
HETATM    5  C   UNL     1     -12.606  12.060  70.873  1.00  0.00    -0.347 A  
HETATM    6  C   UNL     1     -13.363  12.355  72.026  1.00  0.00    -0.511 A  
HETATM    7  C   UNL     1     -13.703  13.670  72.357  1.00  0.00    -0.697 A  
ENDROOT
BRANCH   5   8
HETATM    8  C   UNL     1     -12.295  10.614  70.497  1.00  0.00    -0.448 C  
HETATM    9  C   UNL     1     -10.822  10.303  70.225  1.00  0.00    -0.286 C  
HETATM   10  C   UNL     1     -10.366   9.276  71.160  1.00  0.00    -0.392 A  
HETATM   11  O   UNL     1     -10.099  10.772  69.362  1.00  0.00    -0.212 OA 
HETATM   12  C   UNL     1      -9.107   8.718  71.285  1.00  0.00    -0.300 A  
HETATM   13  C   UNL     1      -8.926   7.742  72.272  1.00  0.00    -0.194 A  
HETATM   14  C   UNL     1      -9.994   7.349  73.101  1.00  0.00    -0.318 A  
HETATM   15  C   UNL     1     -11.262   7.915  72.948  1.00  0.00    -0.429 A  
HETATM   16  C   UNL     1     -11.418   8.876  71.965  1.00  0.00    -0.431 A  
HETATM   17  C   UNL     1     -12.631   9.594  71.588  1.00  0.00    -0.402 C  
HETATM   18  O   UNL     1     -13.719   9.340  72.078  1.00  0.00    -0.411 OA 
ENDBRANCH   5   8
TORSDOF 1
ENDMDL
MODEL        9
REMARK 921   NORMALIZED FREE ENERGY PREDICTED BY IDOCK:   -6.32 KCAL/MOL
REMARK 922        TOTAL FREE ENERGY PREDICTED BY IDOCK:   -7.03 KCAL/MOL
REMARK 923 INTER-LIGAND FREE ENERGY PREDICTED BY IDOCK:   -6.58 KCAL/MOL
REMARK 924 INTRA-LIGAND FREE ENERGY PREDICTED BY IDOCK:   -0.45 KCAL/MOL
REMARK 927      BINDING AFFINITY PREDICTED BY RF-SCORE:    0.00 PKD
ROOT
HETATM    1  F   UNL     1      -9.751  18.425  69.192  1.00  0.00    -0.317 F  
HETATM    2  C   UNL     1     -10.306  17.291  68.745  1.00  0.00    -0.358 A  
HETATM    3  C   UNL     1     -11.076  16.519  69.600  1.00  0.00    -0.235 A  
HETATM    4  C   UNL     1     -11.647  15.328  69.137  1.00  0.00    -0.349 A  
HETATM    5  C   UNL     1     -11.470  14.903  67.807  1.00  0.00    -0.353 A  
HETATM    6  C   UNL     1     -10.659  15.701  66.974  1.00  0.00    -0.311 A  
HETATM    7  C   UNL     1     -10.090  16.892  67.436  1.00  0.00    -0.279 A  
ENDROOT
BRANCH   5   8
HETATM    8  C   UNL     1     -12.032  13.577  67.304  1.00  0.00    -0.408 C  
HETATM    9  C   UNL     1     -12.405  13.537  65.820  1.00  0.00    -0.468 C  
HETATM   10  C   UNL     1     -11.624  12.496  65.155  1.00  0.00    -0.395 A  
HETATM   11  O   UNL     1     -13.236  14.209  65.233  1.00  0.00    -0.760 OA 
HETATM   12  C   UNL     1     -11.623  12.134  63.820  1.00  0.00    -0.557 A  
HETATM   13  C   UNL     1     -10.771  11.095  63.431  1.00  0.00    -0.286 A  
HETATM   14  C   UNL     1      -9.950  10.446  64.372  1.00  0.00    -0.388 A  
HETATM   15  C   UNL     1      -9.976  10.817  65.719  1.00  0.00    -0.306 A  
HETATM   16  C   UNL     1     -10.827  11.846  66.081  1.00  0.00    -0.334 A  
HETATM   17  C   UNL     1     -11.060  12.400  67.410  1.00  0.00    -0.272 C  
HETATM   18  O   UNL     1     -10.556  11.923  68.414  1.00  0.00    -0.203 OA 
ENDBRANCH   5   8
TORSDOF 1
ENDMDL
MODEL       10
REMARK 921   NORMALIZED FREE ENERGY PREDICTED BY IDOCK:   -6.28 KCAL/MOL
REMARK 922        TOTAL FREE ENERGY PREDICTED BY IDOCK:   -6.98 KCAL/MOL
REMARK 923 INTER-LIGAND FREE ENERGY PREDICTED BY IDOCK:   -6.64 KCAL/MOL
REMARK 924 INTRA-LIGAND FREE ENERGY PREDICTED BY IDOCK:   -0.34 KCAL/MOL
REMARK 927      BINDING AFFINITY PREDICTED BY RF-SCORE:    0.00 PKD
ROOT
HETATM    1  F   UNL     1      -9.232   7.031  72.963  1.00  0.00    -0.142 F  
HETATM    2  C   UNL     1     -10.022   7.913  72.337  1.00  0.00    -0.229 A  
HETATM    3  C   UNL     1      -9.482   8.774  71.394  1.00  0.00    -0.330 A  
HETATM    4  C   UNL     1     -10.305   9.702  70.748  1.00  0.00    -0.356 A  
HETATM    5  C   UNL     1     -11.683   9.772  71.024  1.00  0.00    -0.453 A  
HETATM    6  C   UNL     1     -12.192   8.900  72.008  1.00  0.00    -0.447 A  
HETATM    7  C   UNL     1     -11.370   7.969  72.652  1.00  0.00    -0.469 A  
ENDROOT
BRANCH   5   8
HETATM    8  C   UNL     1     -12.582  10.821  70.376  1.00  0.00    -0.395 C  
HETATM    9  C   UNL     1     -12.842  12.077  71.210  1.00  0.00    -0.265 C  
HETATM   10  C   UNL     1     -12.366  13.248  70.478  1.00  0.00    -0.389 A  
HETATM   11  O   UNL     1     -13.387  12.160  72.298  1.00  0.00    -0.500 OA 
HETATM   12  C   UNL     1     -12.379  14.576  70.867  1.00  0.00    -0.415 A  
HETATM   13  C   UNL     1     -11.856  15.518  69.974  1.00  0.00    -0.379 A  
HETATM   14  C   UNL     1     -11.338  15.118  68.727  1.00  0.00    -0.313 A  
HETATM   15  C   UNL     1     -11.348  13.774  68.348  1.00  0.00    -0.326 A  
HETATM   16  C   UNL     1     -11.872  12.861  69.245  1.00  0.00    -0.363 A  
HETATM   17  C   UNL     1     -12.021  11.418  69.084  1.00  0.00    -0.328 C  
HETATM   18  O   UNL     1     -11.758  10.849  68.037  1.00  0.00    -0.540 OA 
ENDBRANCH   5   8
TORSDOF 1
ENDMDL
MODEL       11
REMARK 921   NORMALIZED FREE ENERGY PREDICTED BY IDOCK:   -6.21 KCAL/MOL
REMARK 922        TOTAL FREE ENERGY PREDICTED BY IDOCK:   -6.91 KCAL/MOL
REMARK 923 INTER-LIGAND FREE ENERGY PREDICTED BY IDOCK:   -6.52 KCAL/MOL
REMARK 924 INTRA-LIGAND FREE ENERGY PREDICTED BY IDOCK:   -0.39 KCAL/MOL
REMARK 927      BINDING AFFINITY PREDICTED BY RF-SCORE:    0.00 PKD
ROOT
HETATM    1  F   UNL     1     -13.035   8.730  72.941  1.00  0.00    -0.449 F  
HETATM    2  C   UNL     1     -12.444   9.375  71.927  1.00  0.00    -0.390 A  
HETATM    3  C   UNL     1     -11.120   9.104  71.618  1.00  0.00    -0.445 A  
HETATM    4  C   UNL     1     -10.498   9.785  70.566  1.00  0.00    -0.366 A  
HETATM    5  C   UNL     1     -11.197  10.736  69.798  1.00  0.00    -0.365 A  
HETATM    6  C   UNL     1     -12.534  11.004  70.159  1.00  0.00    -0.344 A  
HETATM    7  C   UNL     1     -13.156  10.321  71.209  1.00  0.00    -0.492 A  
ENDROOT
BRANCH   5   8
HETATM    8  C   UNL     1     -10.517  11.533  68.689  1.00  0.00    -0.224 C  
HETATM    9  C   UNL     1     -10.669  10.964  67.276  1.00  0.00    -0.268 C  
HETATM   10  C   UNL     1     -11.333  11.952  66.429  1.00  0.00    -0.400 A  
HETATM   11  O   UNL     1     -10.286   9.887  66.853  1.00  0.00    -0.218 OA 
HETATM   12  C   UNL     1     -11.690  11.848  65.096  1.00  0.00    -0.244 A  
HETATM   13  C   UNL     1     -12.326  12.947  64.509  1.00  0.00    -0.483 A  
HETATM   14  C   UNL     1     -12.587  14.113  65.255  1.00  0.00    -0.460 A  
HETATM   15  C   UNL     1     -12.205  14.202  66.595  1.00  0.00    -0.450 A  
HETATM   16  C   UNL     1     -11.576  13.104  67.155  1.00  0.00    -0.410 A  
HETATM   17  C   UNL     1     -11.060  12.953  68.511  1.00  0.00    -0.267 C  
HETATM   18  O   UNL     1     -11.056  13.872  69.314  1.00  0.00    -0.249 OA 
ENDBRANCH   5   8
TORSDOF 1
ENDMDL
MODEL       12
REMARK 921   NORMALIZED FREE ENERGY PREDICTED BY IDOCK:   -6.17 KCAL/MOL
REMARK 922        TOTAL FREE ENERGY PREDICTED BY IDOCK:   -6.86 KCAL/MOL
REMARK 923 INTER-LIGAND FREE ENERGY PREDICTED BY IDOCK:   -6.67 KCAL/MOL
REMARK 924 INTRA-LIGAND FREE ENERGY PREDICTED BY IDOCK:   -0.20 KCAL/MOL
REMARK 927      BINDING AFFINITY PREDICTED BY RF-SCORE:    0.00 PKD
ROOT
HETATM    1  F   UNL     1     -13.570  10.705  72.528  1.00  0.00    -0.403 F  
HETATM    2  C   UNL     1     -12.901  11.215  71.485  1.00  0.00    -0.437 A  
HETATM    3  C   UNL     1     -12.808  12.589  71.333  1.00  0.00    -0.359 A  
HETATM    4  C   UNL     1     -12.118  13.122  70.238  1.00  0.00    -0.399 A  
HETATM    5  C   UNL     1     -11.498  12.287  69.290  1.00  0.00    -0.352 A  
HETATM    6  C   UNL     1     -11.637  10.894  69.464  1.00  0.00    -0.384 A  
HETATM    7  C   UNL     1     -12.324  10.362  70.559  1.00  0.00    -0.410 A  
ENDROOT
BRANCH   5   8
HETATM    8  C   UNL     1     -10.797  12.850  68.058  1.00  0.00    -0.261 C  
HETATM    9  C   UNL     1     -10.132  11.817  67.145  1.00  0.00    -0.203 C  
HETATM   10  C   UNL     1     -10.724  11.901  65.812  1.00  0.00    -0.327 A  
HETATM   11  O   UNL     1      -9.225  11.047  67.413  1.00  0.00    -0.151 OA 
HETATM   12  C   UNL     1     -10.442  11.141  64.690  1.00  0.00    -0.400 A  
HETATM   13  C   UNL     1     -11.159  11.420  63.522  1.00  0.00    -0.373 A  
HETATM   14  C   UNL     1     -12.129  12.441  63.497  1.00  0.00    -0.651 A  
HETATM   15  C   UNL     1     -12.388  13.206  64.637  1.00  0.00    -0.463 A  
HETATM   16  C   UNL     1     -11.666  12.914  65.780  1.00  0.00    -0.437 A  
HETATM   17  C   UNL     1     -11.726  13.573  67.080  1.00  0.00    -0.379 C  
HETATM   18  O   UNL     1     -12.404  14.569  67.276  1.00  0.00    -0.276 OA 
ENDBRANCH   5   8
TORSDOF 1
ENDMDL
MODEL       13
REMARK 921   NORMALIZED FREE ENERGY PREDICTED BY IDOCK:   -6.14 KCAL/MOL
REMARK 922        TOTAL FREE ENERGY PREDICTED BY IDOCK:   -6.84 KCAL/MOL
REMARK 923 INTER-LIGAND FREE ENERGY PREDICTED BY IDOCK:   -6.36 KCAL/MOL
REMARK 924 INTRA-LIGAND FREE ENERGY PREDICTED BY IDOCK:   -0.48 KCAL/MOL
REMARK 927      BINDING AFFINITY PREDICTED BY RF-SCORE:    0.00 PKD
ROOT
HETATM    1  F   UNL     1      -7.076  19.172  68.661  1.00  0.00    -0.287 F  
HETATM    2  C   UNL     1      -8.154  18.381  68.574  1.00  0.00    -0.319 A  
HETATM    3  C   UNL     1      -9.403  18.943  68.360  1.00  0.00    -0.396 A  
HETATM    4  C   UNL     1     -10.531  18.119  68.279  1.00  0.00    -0.333 A  
HETATM    5  C   UNL     1     -10.422  16.720  68.395  1.00  0.00    -0.339 A  
HETATM    6  C   UNL     1      -9.139  16.188  68.640  1.00  0.00    -0.218 A  
HETATM    7  C   UNL     1      -8.012  17.011  68.717  1.00  0.00    -0.248 A  
ENDROOT
BRANCH   5   8
HETATM    8  C   UNL     1     -11.648  15.812  68.373  1.00  0.00    -0.343 C  
HETATM    9  C   UNL     1     -11.514  14.539  67.535  1.00  0.00    -0.356 C  
HETATM   10  C   UNL     1     -11.707  13.374  68.396  1.00  0.00    -0.390 A  
HETATM   11  O   UNL     1     -11.317  14.443  66.336  1.00  0.00    -0.333 OA 
HETATM   12  C   UNL     1     -11.647  12.032  68.062  1.00  0.00    -0.407 A  
HETATM   13  C   UNL     1     -11.869  11.101  69.082  1.00  0.00    -0.419 A  
HETATM   14  C   UNL     1     -12.144  11.524  70.397  1.00  0.00    -0.471 A  
HETATM   15  C   UNL     1     -12.214  12.883  70.709  1.00  0.00    -0.348 A  
HETATM   16  C   UNL     1     -11.993  13.786  69.685  1.00  0.00    -0.399 A  
HETATM   17  C   UNL     1     -12.035  15.243  69.741  1.00  0.00    -0.347 C  
HETATM   18  O   UNL     1     -12.374  15.849  70.745  1.00  0.00    -0.406 OA 
ENDBRANCH   5   8
TORSDOF 1
ENDMDL
MODEL       14
REMARK 921   NORMALIZED FREE ENERGY PREDICTED BY IDOCK:   -6.07 KCAL/MOL
REMARK 922        TOTAL FREE ENERGY PREDICTED BY IDOCK:   -6.76 KCAL/MOL
REMARK 923 INTER-LIGAND FREE ENERGY PREDICTED BY IDOCK:   -6.33 KCAL/MOL
REMARK 924 INTRA-LIGAND FREE ENERGY PREDICTED BY IDOCK:   -0.43 KCAL/MOL
REMARK 927      BINDING AFFINITY PREDICTED BY RF-SCORE:    0.00 PKD
ROOT
HETATM    1  F   UNL     1      -6.119  19.864  66.325  1.00  0.00    -0.171 F  
HETATM    2  C   UNL     1      -7.191  19.060  66.298  1.00  0.00    -0.248 A  
HETATM    3  C   UNL     1      -8.463  19.608  66.348  1.00  0.00    -0.382 A  
HETATM    4  C   UNL     1      -9.582  18.769  66.330  1.00  0.00    -0.354 A  
HETATM    5  C   UNL     1      -9.445  17.371  66.246  1.00  0.00    -0.247 A  
HETATM    6  C   UNL     1      -8.135  16.849  66.225  1.00  0.00    -0.351 A  
HETATM    7  C   UNL     1      -7.016  17.687  66.239  1.00  0.00    -0.326 A  
ENDROOT
BRANCH   5   8
HETATM    8  C   UNL     1     -10.652  16.439  66.291  1.00  0.00    -0.243 C  
HETATM    9  C   UNL     1     -11.101  15.874  64.941  1.00  0.00    -0.389 C  
HETATM   10  C   UNL     1     -11.029  14.415  64.982  1.00  0.00    -0.398 A  
HETATM   11  O   UNL     1     -11.502  16.484  63.964  1.00  0.00    -1.137 OA 
HETATM   12  C   UNL     1     -11.318  13.506  63.980  1.00  0.00    -0.306 A  
HETATM   13  C   UNL     1     -11.165  12.146  64.274  1.00  0.00    -0.409 A  
HETATM   14  C   UNL     1     -10.734  11.729  65.549  1.00  0.00    -0.329 A  
HETATM   15  C   UNL     1     -10.462  12.663  66.551  1.00  0.00    -0.264 A  
HETATM   16  C   UNL     1     -10.621  14.001  66.238  1.00  0.00    -0.281 A  
HETATM   17  C   UNL     1     -10.430  15.161  67.103  1.00  0.00    -0.280 C  
HETATM   18  O   UNL     1     -10.175  15.053  68.291  1.00  0.00    -0.217 OA 
ENDBRANCH   5   8
TORSDOF 1
ENDMDL
MODEL       15
REMARK 921   NORMALIZED FREE ENERGY PREDICTED BY IDOCK:   -5.98 KCAL/MOL
REMARK 922        TOTAL FREE ENERGY PREDICTED BY IDOCK:   -6.67 KCAL/MOL
REMARK 923 INTER-LIGAND FREE ENERGY PREDICTED BY IDOCK:   -6.23 KCAL/MOL
REMARK 924 INTRA-LIGAND FREE ENERGY PREDICTED BY IDOCK:   -0.44 KCAL/MOL
REMARK 927      BINDING AFFINITY PREDICTED BY RF-SCORE:    0.00 PKD
ROOT
HETATM    1  F   UNL     1     -12.295  11.039  68.608  1.00  0.00    -0.356 F  
HETATM    2  C   UNL     1     -11.558  12.053  68.137  1.00  0.00    -0.340 A  
HETATM    3  C   UNL     1     -11.498  13.245  68.841  1.00  0.00    -0.342 A  
HETATM    4  C   UNL     1     -10.736  14.308  68.344  1.00  0.00    -0.257 A  
HETATM    5  C   UNL     1     -10.012  14.188  67.143  1.00  0.00    -0.255 A  
HETATM    6  C   UNL     1     -10.120  12.970  66.441  1.00  0.00    -0.279 A  
HETATM    7  C   UNL     1     -10.878  11.906  66.939  1.00  0.00    -0.305 A  
ENDROOT
BRANCH   5   8
HETATM    8  C   UNL     1      -9.228  15.358  66.555  1.00  0.00    -0.323 C  
HETATM    9  C   UNL     1     -10.052  16.371  65.757  1.00  0.00    -0.327 C  
HETATM   10  C   UNL     1      -9.926  17.689  66.376  1.00  0.00    -0.337 A  
HETATM   11  O   UNL     1     -10.699  16.183  64.740  1.00  0.00    -0.648 OA 
HETATM   12  C   UNL     1     -10.519  18.881  66.001  1.00  0.00    -0.507 A  
HETATM   13  C   UNL     1     -10.236  20.015  66.771  1.00  0.00    -0.592 A  
HETATM   14  C   UNL     1      -9.376  19.935  67.884  1.00  0.00    -0.448 A  
HETATM   15  C   UNL     1      -8.777  18.723  68.236  1.00  0.00    -0.363 A  
HETATM   16  C   UNL     1      -9.069  17.616  67.461  1.00  0.00    -0.239 A  
HETATM   17  C   UNL     1      -8.560  16.256  67.599  1.00  0.00    -0.173 C  
HETATM   18  O   UNL     1      -7.703  15.960  68.415  1.00  0.00    -0.133 OA 
ENDBRANCH   5   8
TORSDOF 1
ENDMDL
MODEL       16
REMARK 921   NORMALIZED FREE ENERGY PREDICTED BY IDOCK:   -5.98 KCAL/MOL
REMARK 922        TOTAL FREE ENERGY PREDICTED BY IDOCK:   -6.67 KCAL/MOL
REMARK 923 INTER-LIGAND FREE ENERGY PREDICTED BY IDOCK:   -6.22 KCAL/MOL
REMARK 924 INTRA-LIGAND FREE ENERGY PREDICTED BY IDOCK:   -0.45 KCAL/MOL
REMARK 927      BINDING AFFINITY PREDICTED BY RF-SCORE:    0.00 PKD
ROOT
HETATM    1  F   UNL     1     -12.109  13.315  64.651  1.00  0.00    -0.374 F  
HETATM    2  C   UNL     1     -11.635  14.204  65.534  1.00  0.00    -0.337 A  
HETATM    3  C   UNL     1     -12.000  14.110  66.868  1.00  0.00    -0.479 A  
HETATM    4  C   UNL     1     -11.514  15.044  67.789  1.00  0.00    -0.347 A  
HETATM    5  C   UNL     1     -10.643  16.076  67.391  1.00  0.00    -0.316 A  
HETATM    6  C   UNL     1     -10.316  16.156  66.022  1.00  0.00    -0.372 A  
HETATM    7  C   UNL     1     -10.799  15.220  65.102  1.00  0.00    -0.441 A  
ENDROOT
BRANCH   5   8
HETATM    8  C   UNL     1     -10.154  17.140  68.369  1.00  0.00    -0.314 C  
HETATM    9  C   UNL     1      -8.695  17.012  68.812  1.00  0.00    -0.244 C  
HETATM   10  C   UNL     1      -7.969  18.223  68.436  1.00  0.00    -0.320 A  
HETATM   11  O   UNL     1      -8.169  16.093  69.418  1.00  0.00    -0.226 OA 
HETATM   12  C   UNL     1      -6.631  18.522  68.620  1.00  0.00    -0.258 A  
HETATM   13  C   UNL     1      -6.176  19.763  68.162  1.00  0.00    -0.267 A  
HETATM   14  C   UNL     1      -7.057  20.669  67.539  1.00  0.00    -0.391 A  
HETATM   15  C   UNL     1      -8.407  20.353  67.377  1.00  0.00    -0.380 A  
HETATM   16  C   UNL     1      -8.836  19.121  67.839  1.00  0.00    -0.345 A  
HETATM   17  C   UNL     1     -10.185  18.566  67.815  1.00  0.00    -0.382 C  
HETATM   18  O   UNL     1     -11.149  19.211  67.436  1.00  0.00    -0.426 OA 
ENDBRANCH   5   8
TORSDOF 1
ENDMDL
MODEL       17
REMARK 921   NORMALIZED FREE ENERGY PREDICTED BY IDOCK:   -5.92 KCAL/MOL
REMARK 922        TOTAL FREE ENERGY PREDICTED BY IDOCK:   -6.61 KCAL/MOL
REMARK 923 INTER-LIGAND FREE ENERGY PREDICTED BY IDOCK:   -6.14 KCAL/MOL
REMARK 924 INTRA-LIGAND FREE ENERGY PREDICTED BY IDOCK:   -0.47 KCAL/MOL
REMARK 927      BINDING AFFINITY PREDICTED BY RF-SCORE:    0.00 PKD
ROOT
HETATM    1  F   UNL     1     -13.157  12.215  64.445  1.00  0.00    -0.538 F  
HETATM    2  C   UNL     1     -12.371  12.995  65.199  1.00  0.00    -0.484 A  
HETATM    3  C   UNL     1     -12.062  12.612  66.494  1.00  0.00    -0.296 A  
HETATM    4  C   UNL     1     -11.250  13.431  67.286  1.00  0.00    -0.319 A  
HETATM    5  C   UNL     1     -10.723  14.637  66.787  1.00  0.00    -0.301 A  
HETATM    6  C   UNL     1     -11.081  15.007  65.474  1.00  0.00    -0.358 A  
HETATM    7  C   UNL     1     -11.890  14.187  64.682  1.00  0.00    -0.443 A  
ENDROOT
BRANCH   5   8
HETATM    8  C   UNL     1      -9.889  15.573  67.657  1.00  0.00    -0.213 C  
HETATM    9  C   UNL     1      -8.751  16.304  66.941  1.00  0.00    -0.208 C  
HETATM   10  C   UNL     1      -8.959  17.746  67.055  1.00  0.00    -0.258 A  
HETATM   11  O   UNL     1      -7.781  15.823  66.380  1.00  0.00    -0.111 OA 
HETATM   12  C   UNL     1      -8.191  18.774  66.537  1.00  0.00    -0.303 A  
HETATM   13  C   UNL     1      -8.611  20.085  66.788  1.00  0.00    -0.396 A  
HETATM   14  C   UNL     1      -9.772  20.338  67.543  1.00  0.00    -0.575 A  
HETATM   15  C   UNL     1     -10.525  19.285  68.069  1.00  0.00    -0.488 A  
HETATM   16  C   UNL     1     -10.091  17.998  67.810  1.00  0.00    -0.359 A  
HETATM   17  C   UNL     1     -10.675  16.739  68.260  1.00  0.00    -0.364 C  
HETATM   18  O   UNL     1     -11.620  16.698  69.031  1.00  0.00    -0.129 OA 
ENDBRANCH   5   8
TORSDOF 1
ENDMDL
MODEL       18
REMARK 921   NORMALIZED FREE ENERGY PREDICTED BY IDOCK:   -5.91 KCAL/MOL
REMARK 922        TOTAL FREE ENERGY PREDICTED BY IDOCK:   -6.59 KCAL/MOL
REMARK 923 INTER-LIGAND FREE ENERGY PREDICTED BY IDOCK:   -6.50 KCAL/MOL
REMARK 924 INTRA-LIGAND FREE ENERGY PREDICTED BY IDOCK:   -0.09 KCAL/MOL
REMARK 927      BINDING AFFINITY PREDICTED BY RF-SCORE:    0.00 PKD
ROOT
HETATM    1  F   UNL     1     -12.027  17.189  73.761  1.00  0.00    -0.458 F  
HETATM    2  C   UNL     1     -12.215  16.070  73.049  1.00  0.00    -0.533 A  
HETATM    3  C   UNL     1     -11.426  15.821  71.938  1.00  0.00    -0.477 A  
HETATM    4  C   UNL     1     -11.629  14.657  71.188  1.00  0.00    -0.275 A  
HETATM    5  C   UNL     1     -12.615  13.719  71.550  1.00  0.00    -0.405 A  
HETATM    6  C   UNL     1     -13.416  14.020  72.670  1.00  0.00    -0.650 A  
HETATM    7  C   UNL     1     -13.210  15.182  73.421  1.00  0.00    -0.488 A  
ENDROOT
BRANCH   5   8
HETATM    8  C   UNL     1     -12.892  12.477  70.707  1.00  0.00    -0.099 C  
HETATM    9  C   UNL     1     -11.903  12.215  69.569  1.00  0.00    -0.321 C  
HETATM   10  C   UNL     1     -11.274  10.911  69.770  1.00  0.00    -0.351 A  
HETATM   11  O   UNL     1     -11.661  12.919  68.604  1.00  0.00    -0.286 OA 
HETATM   12  C   UNL     1     -10.307  10.290  68.999  1.00  0.00    -0.229 A  
HETATM   13  C   UNL     1      -9.862   9.029  69.412  1.00  0.00    -0.183 A  
HETATM   14  C   UNL     1     -10.387   8.422  70.569  1.00  0.00    -0.220 A  
HETATM   15  C   UNL     1     -11.374   9.061  71.324  1.00  0.00    -0.389 A  
HETATM   16  C   UNL     1     -11.800  10.306  70.897  1.00  0.00    -0.473 A  
HETATM   17  C   UNL     1     -12.824  11.161  71.486  1.00  0.00    -0.437 C  
HETATM   18  O   UNL     1     -13.512  10.802  72.427  1.00  0.00    -0.229 OA 
ENDBRANCH   5   8
TORSDOF 1
ENDMDL
MODEL       19
REMARK 921   NORMALIZED FREE ENERGY PREDICTED BY IDOCK:   -5.86 KCAL/MOL
REMARK 922        TOTAL FREE ENERGY PREDICTED BY IDOCK:   -6.54 KCAL/MOL
REMARK 923 INTER-LIGAND FREE ENERGY PREDICTED BY IDOCK:   -6.07 KCAL/MOL
REMARK 924 INTRA-LIGAND FREE ENERGY PREDICTED BY IDOCK:   -0.47 KCAL/MOL
REMARK 927      BINDING AFFINITY PREDICTED BY RF-SCORE:    0.00 PKD
ROOT
HETATM    1  F   UNL     1     -13.409  10.974  72.403  1.00  0.00    -0.546 F  
HETATM    2  C   UNL     1     -12.699  11.266  71.306  1.00  0.00    -0.405 A  
HETATM    3  C   UNL     1     -12.534  12.589  70.925  1.00  0.00    -0.361 A  
HETATM    4  C   UNL     1     -11.801  12.894  69.774  1.00  0.00    -0.380 A  
HETATM    5  C   UNL     1     -11.209  11.881  68.996  1.00  0.00    -0.316 A  
HETATM    6  C   UNL     1     -11.421  10.547  69.399  1.00  0.00    -0.329 A  
HETATM    7  C   UNL     1     -12.151  10.242  70.552  1.00  0.00    -0.401 A  
ENDROOT
BRANCH   5   8
HETATM    8  C   UNL     1     -10.460  12.192  67.703  1.00  0.00    -0.225 C  
HETATM    9  C   UNL     1     -11.327  12.672  66.536  1.00  0.00    -0.326 C  
HETATM   10  C   UNL     1     -10.886  14.003  66.125  1.00  0.00    -0.291 A  
HETATM   11  O   UNL     1     -12.227  12.075  65.971  1.00  0.00    -0.546 OA 
HETATM   12  C   UNL     1     -11.402  14.817  65.131  1.00  0.00    -0.379 A  
HETATM   13  C   UNL     1     -10.795  16.062  64.935  1.00  0.00    -0.391 A  
HETATM   14  C   UNL     1      -9.700  16.463  65.724  1.00  0.00    -0.271 A  
HETATM   15  C   UNL     1      -9.186  15.620  66.712  1.00  0.00    -0.275 A  
HETATM   16  C   UNL     1      -9.799  14.393  66.887  1.00  0.00    -0.263 A  
HETATM   17  C   UNL     1      -9.444  13.331  67.822  1.00  0.00    -0.208 C  
HETATM   18  O   UNL     1      -8.452  13.390  68.530  1.00  0.00    -0.153 OA 
ENDBRANCH   5   8
TORSDOF 1
ENDMDL
MODEL       20
REMARK 921   NORMALIZED FREE ENERGY PREDICTED BY IDOCK:   -5.85 KCAL/MOL
REMARK 922        TOTAL FREE ENERGY PREDICTED BY IDOCK:   -6.54 KCAL/MOL
REMARK 923 INTER-LIGAND FREE ENERGY PREDICTED BY IDOCK:   -6.26 KCAL/MOL
REMARK 924 INTRA-LIGAND FREE ENERGY PREDICTED BY IDOCK:   -0.27 KCAL/MOL
REMARK 927      BINDING AFFINITY PREDICTED BY RF-SCORE:    0.00 PKD
ROOT
HETATM    1  F   UNL     1     -12.327  14.390  65.304  1.00  0.00    -0.384 F  
HETATM    2  C   UNL     1     -12.113  13.741  66.456  1.00  0.00    -0.443 A  
HETATM    3  C   UNL     1     -12.128  14.441  67.652  1.00  0.00    -0.312 A  
HETATM    4  C   UNL     1     -11.895  13.766  68.855  1.00  0.00    -0.396 A  
HETATM    5  C   UNL     1     -11.659  12.378  68.879  1.00  0.00    -0.364 A  
HETATM    6  C   UNL     1     -11.625  11.705  67.641  1.00  0.00    -0.349 A  
HETATM    7  C   UNL     1     -11.861  12.380  66.439  1.00  0.00    -0.421 A  
ENDROOT
BRANCH   5   8
HETATM    8  C   UNL     1     -11.340  11.638  70.175  1.00  0.00    -0.091 C  
HETATM    9  C   UNL     1     -12.544  11.302  71.059  1.00  0.00    -0.394 C  
HETATM   10  C   UNL     1     -12.623   9.854  71.234  1.00  0.00    -0.480 A  
HETATM   11  O   UNL     1     -13.325  12.071  71.592  1.00  0.00    -0.337 OA 
HETATM   12  C   UNL     1     -13.562   9.117  71.934  1.00  0.00    -0.493 A  
HETATM   13  C   UNL     1     -13.414   7.725  71.947  1.00  0.00    -0.318 A  
HETATM   14  C   UNL     1     -12.344   7.107  71.272  1.00  0.00    -0.418 A  
HETATM   15  C   UNL     1     -11.398   7.871  70.585  1.00  0.00    -0.267 A  
HETATM   16  C   UNL     1     -11.563   9.245  70.586  1.00  0.00    -0.305 A  
HETATM   17  C   UNL     1     -10.711  10.258  69.972  1.00  0.00    -0.292 C  
HETATM   18  O   UNL     1      -9.652   9.980  69.432  1.00  0.00    -0.197 OA 
ENDBRANCH   5   8
TORSDOF 1
ENDMDL
MODEL       21
REMARK 921   NORMALIZED FREE ENERGY PREDICTED BY IDOCK:   -5.82 KCAL/MOL
REMARK 922        TOTAL FREE ENERGY PREDICTED BY IDOCK:   -6.50 KCAL/MOL
REMARK 923 INTER-LIGAND FREE ENERGY PREDICTED BY IDOCK:   -6.02 KCAL/MOL
REMARK 924 INTRA-LIGAND FREE ENERGY PREDICTED BY IDOCK:   -0.48 KCAL/MOL
REMARK 927      BINDING AFFINITY PREDICTED BY RF-SCORE:    0.00 PKD
ROOT
HETATM    1  F   UNL     1     -13.815  14.245  72.741  1.00  0.00    -0.532 F  
HETATM    2  C   UNL     1     -13.092  14.307  71.614  1.00  0.00    -0.346 A  
HETATM    3  C   UNL     1     -12.826  15.537  71.035  1.00  0.00    -0.543 A  
HETATM    4  C   UNL     1     -12.080  15.602  69.853  1.00  0.00    -0.360 A  
HETATM    5  C   UNL     1     -11.577  14.438  69.243  1.00  0.00    -0.345 A  
HETATM    6  C   UNL     1     -11.890  13.203  69.847  1.00  0.00    -0.378 A  
HETATM    7  C   UNL     1     -12.633  13.138  71.030  1.00  0.00    -0.397 A  
ENDROOT
BRANCH   5   8
HETATM    8  C   UNL     1     -10.816  14.485  67.921  1.00  0.00    -0.260 C  
HETATM    9  C   UNL     1      -9.527  13.663  67.869  1.00  0.00    -0.213 C  
HETATM   10  C   UNL     1      -9.634  12.665  66.808  1.00  0.00    -0.241 A  
HETATM   11  O   UNL     1      -8.522  13.794  68.549  1.00  0.00    -0.160 OA 
HETATM   12  C   UNL     1      -8.715  11.701  66.430  1.00  0.00    -0.170 A  
HETATM   13  C   UNL     1      -9.063  10.855  65.372  1.00  0.00    -0.218 A  
HETATM   14  C   UNL     1     -10.304  10.988  64.720  1.00  0.00    -0.389 A  
HETATM   15  C   UNL     1     -11.211  11.978  65.108  1.00  0.00    -0.368 A  
HETATM   16  C   UNL     1     -10.846  12.804  66.155  1.00  0.00    -0.303 A  
HETATM   17  C   UNL     1     -11.592  13.919  66.729  1.00  0.00    -0.378 C  
HETATM   18  O   UNL     1     -12.645  14.312  66.255  1.00  0.00    -0.416 OA 
ENDBRANCH   5   8
TORSDOF 1
ENDMDL
MODEL       22
REMARK 921   NORMALIZED FREE ENERGY PREDICTED BY IDOCK:   -5.82 KCAL/MOL
REMARK 922        TOTAL FREE ENERGY PREDICTED BY IDOCK:   -6.50 KCAL/MOL
REMARK 923 INTER-LIGAND FREE ENERGY PREDICTED BY IDOCK:   -6.03 KCAL/MOL
REMARK 924 INTRA-LIGAND FREE ENERGY PREDICTED BY IDOCK:   -0.47 KCAL/MOL
REMARK 927      BINDING AFFINITY PREDICTED BY RF-SCORE:    0.00 PKD
ROOT
HETATM    1  F   UNL     1      -5.643  19.301  69.084  1.00  0.00    -0.197 F  
HETATM    2  C   UNL     1      -6.826  18.766  68.756  1.00  0.00    -0.285 A  
HETATM    3  C   UNL     1      -6.989  17.390  68.780  1.00  0.00    -0.236 A  
HETATM    4  C   UNL     1      -8.222  16.831  68.428  1.00  0.00    -0.224 A  
HETATM    5  C   UNL     1      -9.313  17.641  68.061  1.00  0.00    -0.274 A  
HETATM    6  C   UNL     1      -9.101  19.034  68.022  1.00  0.00    -0.350 A  
HETATM    7  C   UNL     1      -7.870  19.594  68.378  1.00  0.00    -0.362 A  
ENDROOT
BRANCH   5   8
HETATM    8  C   UNL     1     -10.645  17.045  67.613  1.00  0.00    -0.333 C  
HETATM    9  C   UNL     1     -10.638  16.369  66.240  1.00  0.00    -0.242 C  
HETATM   10  C   UNL     1     -11.019  14.966  66.392  1.00  0.00    -0.336 A  
HETATM   11  O   UNL     1     -10.400  16.871  65.154  1.00  0.00    -0.631 OA 
HETATM   12  C   UNL     1     -11.118  13.987  65.420  1.00  0.00    -0.318 A  
HETATM   13  C   UNL     1     -11.505  12.706  65.829  1.00  0.00    -0.399 A  
HETATM   14  C   UNL     1     -11.782  12.434  67.182  1.00  0.00    -0.415 A  
HETATM   15  C   UNL     1     -11.690  13.442  68.145  1.00  0.00    -0.397 A  
HETATM   16  C   UNL     1     -11.308  14.701  67.719  1.00  0.00    -0.338 A  
HETATM   17  C   UNL     1     -11.163  15.918  68.510  1.00  0.00    -0.362 C  
HETATM   18  O   UNL     1     -11.467  15.968  69.690  1.00  0.00    -0.326 OA 
ENDBRANCH   5   8
TORSDOF 1
ENDMDL
MODEL       23
REMARK 921   NORMALIZED FREE ENERGY PREDICTED BY IDOCK:   -5.81 KCAL/MOL
REMARK 922        TOTAL FREE ENERGY PREDICTED BY IDOCK:   -6.49 KCAL/MOL
REMARK 923 INTER-LIGAND FREE ENERGY PREDICTED BY IDOCK:   -6.03 KCAL/MOL
REMARK 924 INTRA-LIGAND FREE ENERGY PREDICTED BY IDOCK:   -0.46 KCAL/MOL
REMARK 927      BINDING AFFINITY PREDICTED BY RF-SCORE:    0.00 PKD
ROOT
HETATM    1  F   UNL     1      -7.091  19.767  69.176  1.00  0.00    -0.359 F  
HETATM    2  C   UNL     1      -8.040  18.986  68.643  1.00  0.00    -0.361 A  
HETATM    3  C   UNL     1      -9.251  19.540  68.258  1.00  0.00    -0.412 A  
HETATM    4  C   UNL     1     -10.246  18.723  67.711  1.00  0.00    -0.446 A  
HETATM    5  C   UNL     1     -10.037  17.343  67.526  1.00  0.00    -0.322 A  
HETATM    6  C   UNL     1      -8.803  16.811  67.955  1.00  0.00    -0.218 A  
HETATM    7  C   UNL     1      -7.808  17.628  68.499  1.00  0.00    -0.282 A  
ENDROOT
BRANCH   5   8
HETATM    8  C   UNL     1     -11.134  16.427  66.990  1.00  0.00     0.067 C  
HETATM    9  C   UNL     1     -10.900  15.867  65.585  1.00  0.00    -0.284 C  
HETATM   10  C   UNL     1     -10.874  14.407  65.647  1.00  0.00    -0.320 A  
HETATM   11  O   UNL     1     -10.785  16.482  64.539  1.00  0.00    -0.721 OA 
HETATM   12  C   UNL     1     -10.667  13.501  64.622  1.00  0.00    -0.429 A  
HETATM   13  C   UNL     1     -10.688  12.141  64.946  1.00  0.00    -0.336 A  
HETATM   14  C   UNL     1     -10.914  11.719  66.271  1.00  0.00    -0.346 A  
HETATM   15  C   UNL     1     -11.135  12.650  67.288  1.00  0.00    -0.320 A  
HETATM   16  C   UNL     1     -11.112  13.989  66.945  1.00  0.00    -0.310 A  
HETATM   17  C   UNL     1     -11.337  15.147  67.804  1.00  0.00    -0.328 C  
HETATM   18  O   UNL     1     -11.674  15.036  68.971  1.00  0.00    -0.300 OA 
ENDBRANCH   5   8
TORSDOF 1
ENDMDL
MODEL       24
REMARK 921   NORMALIZED FREE ENERGY PREDICTED BY IDOCK:   -5.80 KCAL/MOL
REMARK 922        TOTAL FREE ENERGY PREDICTED BY IDOCK:   -6.48 KCAL/MOL
REMARK 923 INTER-LIGAND FREE ENERGY PREDICTED BY IDOCK:   -6.23 KCAL/MOL
REMARK 924 INTRA-LIGAND FREE ENERGY PREDICTED BY IDOCK:   -0.24 KCAL/MOL
REMARK 927      BINDING AFFINITY PREDICTED BY RF-SCORE:    0.00 PKD
ROOT
HETATM    1  F   UNL     1      -7.922   9.778  62.928  1.00  0.00    -0.119 F  
HETATM    2  C   UNL     1      -8.833  10.435  63.656  1.00  0.00    -0.214 A  
HETATM    3  C   UNL     1      -8.829  10.313  65.037  1.00  0.00    -0.209 A  
HETATM    4  C   UNL     1      -9.787  10.991  65.798  1.00  0.00    -0.282 A  
HETATM    5  C   UNL     1     -10.753  11.814  65.189  1.00  0.00    -0.343 A  
HETATM    6  C   UNL     1     -10.743  11.892  63.782  1.00  0.00    -0.476 A  
HETATM    7  C   UNL     1      -9.784  11.217  63.021  1.00  0.00    -0.389 A  
ENDROOT
BRANCH   5   8
HETATM    8  C   UNL     1     -11.844  12.510  65.999  1.00  0.00    -0.478 C  
HETATM    9  C   UNL     1     -11.906  12.139  67.482  1.00  0.00    -0.237 C  
HETATM   10  C   UNL     1     -11.710  13.342  68.288  1.00  0.00    -0.388 A  
HETATM   11  O   UNL     1     -12.118  11.045  67.977  1.00  0.00    -0.615 OA 
HETATM   12  C   UNL     1     -11.666  13.463  69.666  1.00  0.00    -0.375 A  
HETATM   13  C   UNL     1     -11.461  14.741  70.197  1.00  0.00    -0.313 A  
HETATM   14  C   UNL     1     -11.307  15.857  69.352  1.00  0.00    -0.349 A  
HETATM   15  C   UNL     1     -11.369  15.714  67.964  1.00  0.00    -0.324 A  
HETATM   16  C   UNL     1     -11.574  14.442  67.461  1.00  0.00    -0.398 A  
HETATM   17  C   UNL     1     -11.703  14.032  66.066  1.00  0.00    -0.369 C  
HETATM   18  O   UNL     1     -11.728  14.837  65.149  1.00  0.00    -0.358 OA 
ENDBRANCH   5   8
TORSDOF 1
ENDMDL
MODEL       25
REMARK 921   NORMALIZED FREE ENERGY PREDICTED BY IDOCK:   -5.77 KCAL/MOL
REMARK 922        TOTAL FREE ENERGY PREDICTED BY IDOCK:   -6.45 KCAL/MOL
REMARK 923 INTER-LIGAND FREE ENERGY PREDICTED BY IDOCK:   -6.51 KCAL/MOL
REMARK 924 INTRA-LIGAND FREE ENERGY PREDICTED BY IDOCK:    0.07 KCAL/MOL
REMARK 927      BINDING AFFINITY PREDICTED BY RF-SCORE:    0.00 PKD
ROOT
HETATM    1  F   UNL     1      -7.228   8.068  71.102  1.00  0.00    -0.050 F  
HETATM    2  C   UNL     1      -8.376   8.714  70.860  1.00  0.00    -0.157 A  
HETATM    3  C   UNL     1      -8.482   9.536  69.748  1.00  0.00    -0.185 A  
HETATM    4  C   UNL     1      -9.677  10.219  69.500  1.00  0.00    -0.235 A  
HETATM    5  C   UNL     1     -10.789  10.077  70.352  1.00  0.00    -0.380 A  
HETATM    6  C   UNL     1     -10.635   9.255  71.487  1.00  0.00    -0.405 A  
HETATM    7  C   UNL     1      -9.441   8.569  71.733  1.00  0.00    -0.328 A  
ENDROOT
BRANCH   5   8
HETATM    8  C   UNL     1     -12.078  10.864  70.131  1.00  0.00    -0.431 C  
HETATM    9  C   UNL     1     -12.867  11.209  71.396  1.00  0.00    -0.439 C  
HETATM   10  C   UNL     1     -12.989  12.661  71.506  1.00  0.00    -0.380 A  
HETATM   11  O   UNL     1     -13.371  10.445  72.202  1.00  0.00    -0.441 OA 
HETATM   12  C   UNL     1     -13.599  13.405  72.501  1.00  0.00    -0.659 A  
HETATM   13  C   UNL     1     -13.576  14.798  72.373  1.00  0.00    -0.550 A  
HETATM   14  C   UNL     1     -12.955  15.411  71.268  1.00  0.00    -0.541 A  
HETATM   15  C   UNL     1     -12.358  14.640  70.267  1.00  0.00    -0.406 A  
HETATM   16  C   UNL     1     -12.393  13.265  70.413  1.00  0.00    -0.365 A  
HETATM   17  C   UNL     1     -11.872  12.246  69.508  1.00  0.00    -0.315 C  
HETATM   18  O   UNL     1     -11.396  12.524  68.419  1.00  0.00    -0.247 OA 
ENDBRANCH   5   8
TORSDOF 1
ENDMDL
MODEL       26
REMARK 921   NORMALIZED FREE ENERGY PREDICTED BY IDOCK:   -5.75 KCAL/MOL
REMARK 922        TOTAL FREE ENERGY PREDICTED BY IDOCK:   -6.42 KCAL/MOL
REMARK 923 INTER-LIGAND FREE ENERGY PREDICTED BY IDOCK:   -5.94 KCAL/MOL
REMARK 924 INTRA-LIGAND FREE ENERGY PREDICTED BY IDOCK:   -0.48 KCAL/MOL
REMARK 927      BINDING AFFINITY PREDICTED BY RF-SCORE:    0.00 PKD
ROOT
HETATM    1  F   UNL     1      -7.997   6.026  72.528  1.00  0.00    -0.102 F  
HETATM    2  C   UNL     1      -9.019   6.788  72.113  1.00  0.00    -0.133 A  
HETATM    3  C   UNL     1     -10.004   6.238  71.308  1.00  0.00    -0.207 A  
HETATM    4  C   UNL     1     -11.065   7.035  70.866  1.00  0.00    -0.300 A  
HETATM    5  C   UNL     1     -11.164   8.389  71.237  1.00  0.00    -0.309 A  
HETATM    6  C   UNL     1     -10.129   8.920  72.034  1.00  0.00    -0.351 A  
HETATM    7  C   UNL     1      -9.070   8.123  72.478  1.00  0.00    -0.302 A  
ENDROOT
BRANCH   5   8
HETATM    8  C   UNL     1     -12.280   9.288  70.712  1.00  0.00    -0.192 C  
HETATM    9  C   UNL     1     -13.091  10.027  71.778  1.00  0.00    -0.457 C  
HETATM   10  C   UNL     1     -12.972  11.467  71.563  1.00  0.00    -0.485 A  
HETATM   11  O   UNL     1     -13.778   9.551  72.667  1.00  0.00    -0.382 OA 
HETATM   12  C   UNL     1     -13.519  12.501  72.302  1.00  0.00    -0.490 A  
HETATM   13  C   UNL     1     -13.250  13.809  71.884  1.00  0.00    -0.486 A  
HETATM   14  C   UNL     1     -12.451  14.053  70.750  1.00  0.00    -0.442 A  
HETATM   15  C   UNL     1     -11.921  12.994  70.009  1.00  0.00    -0.383 A  
HETATM   16  C   UNL     1     -12.201  11.710  70.439  1.00  0.00    -0.434 A  
HETATM   17  C   UNL     1     -11.795  10.446  69.836  1.00  0.00    -0.238 C  
HETATM   18  O   UNL     1     -11.198  10.393  68.772  1.00  0.00    -0.246 OA 
ENDBRANCH   5   8
TORSDOF 1
ENDMDL
MODEL       27
REMARK 921   NORMALIZED FREE ENERGY PREDICTED BY IDOCK:   -5.74 KCAL/MOL
REMARK 922        TOTAL FREE ENERGY PREDICTED BY IDOCK:   -6.41 KCAL/MOL
REMARK 923 INTER-LIGAND FREE ENERGY PREDICTED BY IDOCK:   -5.97 KCAL/MOL
REMARK 924 INTRA-LIGAND FREE ENERGY PREDICTED BY IDOCK:   -0.44 KCAL/MOL
REMARK 927      BINDING AFFINITY PREDICTED BY RF-SCORE:    0.00 PKD
ROOT
HETATM    1  F   UNL     1     -10.549   8.294  71.867  1.00  0.00    -0.264 F  
HETATM    2  C   UNL     1     -10.920   9.363  71.149  1.00  0.00    -0.360 A  
HETATM    3  C   UNL     1     -10.108   9.816  70.121  1.00  0.00    -0.317 A  
HETATM    4  C   UNL     1     -10.490  10.938  69.378  1.00  0.00    -0.205 A  
HETATM    5  C   UNL     1     -11.696  11.613  69.643  1.00  0.00    -0.418 A  
HETATM    6  C   UNL     1     -12.482  11.140  70.714  1.00  0.00    -0.479 A  
HETATM    7  C   UNL     1     -12.102  10.016  71.455  1.00  0.00    -0.498 A  
ENDROOT
BRANCH   5   8
HETATM    8  C   UNL     1     -12.096  12.876  68.885  1.00  0.00    -0.182 C  
HETATM    9  C   UNL     1     -11.460  14.176  69.383  1.00  0.00    -0.288 C  
HETATM   10  C   UNL     1     -10.688  14.780  68.300  1.00  0.00    -0.242 A  
HETATM   11  O   UNL     1     -11.571  14.697  70.480  1.00  0.00    -0.277 OA 
HETATM   12  C   UNL     1      -9.935  15.941  68.316  1.00  0.00    -0.222 A  
HETATM   13  C   UNL     1      -9.281  16.306  67.134  1.00  0.00    -0.226 A  
HETATM   14  C   UNL     1      -9.393  15.514  65.975  1.00  0.00    -0.379 A  
HETATM   15  C   UNL     1     -10.171  14.354  65.976  1.00  0.00    -0.328 A  
HETATM   16  C   UNL     1     -10.809  14.013  67.154  1.00  0.00    -0.288 A  
HETATM   17  C   UNL     1     -11.690  12.879  67.410  1.00  0.00    -0.372 C  
HETATM   18  O   UNL     1     -12.042  12.114  66.526  1.00  0.00    -0.627 OA 
ENDBRANCH   5   8
TORSDOF 1
ENDMDL
MODEL       28
REMARK 921   NORMALIZED FREE ENERGY PREDICTED BY IDOCK:   -5.66 KCAL/MOL
REMARK 922        TOTAL FREE ENERGY PREDICTED BY IDOCK:   -6.33 KCAL/MOL
REMARK 923 INTER-LIGAND FREE ENERGY PREDICTED BY IDOCK:   -5.94 KCAL/MOL
REMARK 924 INTRA-LIGAND FREE ENERGY PREDICTED BY IDOCK:   -0.40 KCAL/MOL
REMARK 927      BINDING AFFINITY PREDICTED BY RF-SCORE:    0.00 PKD
ROOT
HETATM    1  F   UNL     1      -8.921   9.876  63.705  1.00  0.00    -0.186 F  
HETATM    2  C   UNL     1      -9.610  10.921  64.180  1.00  0.00    -0.277 A  
HETATM    3  C   UNL     1     -10.617  11.487  63.413  1.00  0.00    -0.460 A  
HETATM    4  C   UNL     1     -11.331  12.586  63.904  1.00  0.00    -0.504 A  
HETATM    5  C   UNL     1     -11.057  13.124  65.176  1.00  0.00    -0.308 A  
HETATM    6  C   UNL     1     -10.008  12.539  65.915  1.00  0.00    -0.269 A  
HETATM    7  C   UNL     1      -9.297  11.439  65.426  1.00  0.00    -0.206 A  
ENDROOT
BRANCH   5   8
HETATM    8  C   UNL     1     -11.781  14.360  65.700  1.00  0.00    -0.356 C  
HETATM    9  C   UNL     1     -11.770  14.539  67.220  1.00  0.00    -0.406 C  
HETATM   10  C   UNL     1     -11.125  15.808  67.551  1.00  0.00    -0.258 A  
HETATM   11  O   UNL     1     -12.239  13.800  68.069  1.00  0.00    -0.323 OA 
HETATM   12  C   UNL     1     -10.880  16.355  68.798  1.00  0.00    -0.338 A  
HETATM   13  C   UNL     1     -10.237  17.596  68.846  1.00  0.00    -0.354 A  
HETATM   14  C   UNL     1      -9.859  18.258  67.661  1.00  0.00    -0.328 A  
HETATM   15  C   UNL     1     -10.130  17.695  66.412  1.00  0.00    -0.356 A  
HETATM   16  C   UNL     1     -10.768  16.468  66.389  1.00  0.00    -0.146 A  
HETATM   17  C   UNL     1     -11.183  15.687  65.228  1.00  0.00    -0.234 C  
HETATM   18  O   UNL     1     -11.076  16.108  64.088  1.00  0.00    -0.627 OA 
ENDBRANCH   5   8
TORSDOF 1
ENDMDL
MODEL       29
REMARK 921   NORMALIZED FREE ENERGY PREDICTED BY IDOCK:   -5.65 KCAL/MOL
REMARK 922        TOTAL FREE ENERGY PREDICTED BY IDOCK:   -6.32 KCAL/MOL
REMARK 923 INTER-LIGAND FREE ENERGY PREDICTED BY IDOCK:   -6.38 KCAL/MOL
REMARK 924 INTRA-LIGAND FREE ENERGY PREDICTED BY IDOCK:    0.06 KCAL/MOL
REMARK 927      BINDING AFFINITY PREDICTED BY RF-SCORE:    0.00 PKD
ROOT
HETATM    1  F   UNL     1     -11.375  11.518  63.138  1.00  0.00    -0.420 F  
HETATM    2  C   UNL     1     -11.124  11.544  64.453  1.00  0.00    -0.291 A  
HETATM    3  C   UNL     1     -10.198  10.666  64.994  1.00  0.00    -0.380 A  
HETATM    4  C   UNL     1      -9.942  10.685  66.369  1.00  0.00    -0.273 A  
HETATM    5  C   UNL     1     -10.598  11.596  67.220  1.00  0.00    -0.265 A  
HETATM    6  C   UNL     1     -11.552  12.455  66.638  1.00  0.00    -0.447 A  
HETATM    7  C   UNL     1     -11.805  12.437  65.263  1.00  0.00    -0.451 A  
ENDROOT
BRANCH   5   8
HETATM    8  C   UNL     1     -10.378  11.588  68.730  1.00  0.00    -0.213 C  
HETATM    9  C   UNL     1     -11.546  12.106  69.572  1.00  0.00    -0.315 C  
HETATM   10  C   UNL     1     -11.995  11.050  70.476  1.00  0.00    -0.474 A  
HETATM   11  O   UNL     1     -12.044  13.219  69.565  1.00  0.00    -0.303 OA 
HETATM   12  C   UNL     1     -13.033  11.076  71.390  1.00  0.00    -0.517 A  
HETATM   13  C   UNL     1     -13.263   9.919  72.142  1.00  0.00    -0.511 A  
HETATM   14  C   UNL     1     -12.460   8.775  71.970  1.00  0.00    -0.452 A  
HETATM   15  C   UNL     1     -11.407   8.775  71.052  1.00  0.00    -0.332 A  
HETATM   16  C   UNL     1     -11.197   9.930  70.320  1.00  0.00    -0.364 A  
HETATM   17  C   UNL     1     -10.161  10.195  69.327  1.00  0.00    -0.223 C  
HETATM   18  O   UNL     1      -9.266   9.400  69.090  1.00  0.00    -0.147 OA 
ENDBRANCH   5   8
TORSDOF 1
ENDMDL
MODEL       30
REMARK 921   NORMALIZED FREE ENERGY PREDICTED BY IDOCK:   -5.63 KCAL/MOL
REMARK 922        TOTAL FREE ENERGY PREDICTED BY IDOCK:   -6.30 KCAL/MOL
REMARK 923 INTER-LIGAND FREE ENERGY PREDICTED BY IDOCK:   -5.92 KCAL/MOL
REMARK 924 INTRA-LIGAND FREE ENERGY PREDICTED BY IDOCK:   -0.37 KCAL/MOL
REMARK 927      BINDING AFFINITY PREDICTED BY RF-SCORE:    0.00 PKD
ROOT
HETATM    1  F   UNL     1     -11.116   5.270  69.432  1.00  0.00    -0.290 F  
HETATM    2  C   UNL     1     -10.894   6.513  68.984  1.00  0.00    -0.306 A  
HETATM    3  C   UNL     1     -10.833   6.752  67.620  1.00  0.00    -0.361 A  
HETATM    4  C   UNL     1     -10.591   8.048  67.152  1.00  0.00    -0.367 A  
HETATM    5  C   UNL     1     -10.424   9.126  68.042  1.00  0.00    -0.276 A  
HETATM    6  C   UNL     1     -10.466   8.839  69.422  1.00  0.00    -0.228 A  
HETATM    7  C   UNL     1     -10.711   7.544  69.890  1.00  0.00    -0.254 A  
ENDROOT
BRANCH   5   8
HETATM    8  C   UNL     1     -10.096  10.533  67.550  1.00  0.00    -0.225 C  
HETATM    9  C   UNL     1      -9.469  10.618  66.157  1.00  0.00    -0.179 C  
HETATM   10  C   UNL     1     -10.329  11.421  65.290  1.00  0.00    -0.336 A  
HETATM   11  O   UNL     1      -8.410  10.147  65.777  1.00  0.00    -0.134 OA 
HETATM   12  C   UNL     1     -10.160  11.733  63.953  1.00  0.00    -0.399 A  
HETATM   13  C   UNL     1     -11.139  12.527  63.345  1.00  0.00    -0.419 A  
HETATM   14  C   UNL     1     -12.250  12.988  64.076  1.00  0.00    -0.489 A  
HETATM   15  C   UNL     1     -12.394  12.673  65.430  1.00  0.00    -0.499 A  
HETATM   16  C   UNL     1     -11.414  11.889  66.011  1.00  0.00    -0.344 A  
HETATM   17  C   UNL     1     -11.315  11.445  67.397  1.00  0.00    -0.288 C  
HETATM   18  O   UNL     1     -12.096  11.817  68.258  1.00  0.00    -0.525 OA 
ENDBRANCH   5   8
TORSDOF 1
ENDMDL
MODEL       31
REMARK 921   NORMALIZED FREE ENERGY PREDICTED BY IDOCK:   -5.60 KCAL/MOL
REMARK 922        TOTAL FREE ENERGY PREDICTED BY IDOCK:   -6.27 KCAL/MOL
REMARK 923 INTER-LIGAND FREE ENERGY PREDICTED BY IDOCK:   -5.84 KCAL/MOL
REMARK 924 INTRA-LIGAND FREE ENERGY PREDICTED BY IDOCK:   -0.44 KCAL/MOL
REMARK 927      BINDING AFFINITY PREDICTED BY RF-SCORE:    0.00 PKD
ROOT
HETATM    1  F   UNL     1     -13.518  14.091  72.845  1.00  0.00    -0.551 F  
HETATM    2  C   UNL     1     -12.680  14.379  71.840  1.00  0.00    -0.349 A  
HETATM    3  C   UNL     1     -12.101  15.636  71.766  1.00  0.00    -0.507 A  
HETATM    4  C   UNL     1     -11.233  15.940  70.712  1.00  0.00    -0.398 A  
HETATM    5  C   UNL     1     -10.920  14.986  69.726  1.00  0.00    -0.291 A  
HETATM    6  C   UNL     1     -11.549  13.728  69.819  1.00  0.00    -0.324 A  
HETATM    7  C   UNL     1     -12.414  13.422  70.875  1.00  0.00    -0.439 A  
ENDROOT
BRANCH   5   8
HETATM    8  C   UNL     1     -10.027  15.322  68.535  1.00  0.00    -0.222 C  
HETATM    9  C   UNL     1     -10.723  16.006  67.357  1.00  0.00    -0.306 C  
HETATM   10  C   UNL     1     -10.101  17.307  67.120  1.00  0.00    -0.297 A  
HETATM   11  O   UNL     1     -11.630  15.576  66.664  1.00  0.00    -0.055 OA 
HETATM   12  C   UNL     1     -10.429  18.264  66.176  1.00  0.00    -0.403 A  
HETATM   13  C   UNL     1      -9.672  19.440  66.156  1.00  0.00    -0.423 A  
HETATM   14  C   UNL     1      -8.615  19.633  67.066  1.00  0.00    -0.358 A  
HETATM   15  C   UNL     1      -8.291  18.647  68.002  1.00  0.00    -0.299 A  
HETATM   16  C   UNL     1      -9.052  17.492  68.003  1.00  0.00    -0.269 A  
HETATM   17  C   UNL     1      -8.905  16.314  68.850  1.00  0.00    -0.253 C  
HETATM   18  O   UNL     1      -7.981  16.188  69.638  1.00  0.00    -0.091 OA 
ENDBRANCH   5   8
TORSDOF 1
ENDMDL
MODEL       32
REMARK 921   NORMALIZED FREE ENERGY PREDICTED BY IDOCK:   -5.59 KCAL/MOL
REMARK 922        TOTAL FREE ENERGY PREDICTED BY IDOCK:   -6.25 KCAL/MOL
REMARK 923 INTER-LIGAND FREE ENERGY PREDICTED BY IDOCK:   -5.77 KCAL/MOL
REMARK 924 INTRA-LIGAND FREE ENERGY PREDICTED BY IDOCK:   -0.48 KCAL/MOL
REMARK 927      BINDING AFFINITY PREDICTED BY RF-SCORE:    0.00 PKD
ROOT
HETATM    1  F   UNL     1     -12.518  16.166  71.594  1.00  0.00    -0.469 F  
HETATM    2  C   UNL     1     -11.856  15.810  70.485  1.00  0.00    -0.375 A  
HETATM    3  C   UNL     1     -10.790  16.578  70.044  1.00  0.00    -0.258 A  
HETATM    4  C   UNL     1     -10.105  16.213  68.880  1.00  0.00    -0.238 A  
HETATM    5  C   UNL     1     -10.467  15.066  68.150  1.00  0.00    -0.245 A  
HETATM    6  C   UNL     1     -11.574  14.325  68.614  1.00  0.00    -0.352 A  
HETATM    7  C   UNL     1     -12.256  14.688  69.779  1.00  0.00    -0.347 A  
ENDROOT
BRANCH   5   8
HETATM    8  C   UNL     1      -9.772  14.689  66.845  1.00  0.00    -0.249 C  
HETATM    9  C   UNL     1      -9.268  13.247  66.755  1.00  0.00    -0.233 C  
HETATM   10  C   UNL     1      -9.914  12.580  65.627  1.00  0.00    -0.259 A  
HETATM   11  O   UNL     1      -8.437  12.694  67.456  1.00  0.00    -0.155 OA 
HETATM   12  C   UNL     1      -9.772  11.272  65.198  1.00  0.00    -0.285 A  
HETATM   13  C   UNL     1     -10.512  10.873  64.080  1.00  0.00    -0.397 A  
HETATM   14  C   UNL     1     -11.368  11.778  63.422  1.00  0.00    -0.437 A  
HETATM   15  C   UNL     1     -11.486  13.098  63.863  1.00  0.00    -0.451 A  
HETATM   16  C   UNL     1     -10.743  13.471  64.969  1.00  0.00    -0.366 A  
HETATM   17  C   UNL     1     -10.667  14.781  65.606  1.00  0.00    -0.336 C  
HETATM   18  O   UNL     1     -11.224  15.764  65.145  1.00  0.00    -0.320 OA 
ENDBRANCH   5   8
TORSDOF 1
ENDMDL
MODEL       33
REMARK 921   NORMALIZED FREE ENERGY PREDICTED BY IDOCK:   -5.58 KCAL/MOL
REMARK 922        TOTAL FREE ENERGY PREDICTED BY IDOCK:   -6.24 KCAL/MOL
REMARK 923 INTER-LIGAND FREE ENERGY PREDICTED BY IDOCK:   -5.84 KCAL/MOL
REMARK 924 INTRA-LIGAND FREE ENERGY PREDICTED BY IDOCK:   -0.40 KCAL/MOL
REMARK 927      BINDING AFFINITY PREDICTED BY RF-SCORE:    0.00 PKD
ROOT
HETATM    1  F   UNL     1     -10.097  17.747  67.583  1.00  0.00    -0.290 F  
HETATM    2  C   UNL     1     -10.392  16.520  67.135  1.00  0.00    -0.298 A  
HETATM    3  C   UNL     1      -9.728  16.014  66.029  1.00  0.00    -0.376 A  
HETATM    4  C   UNL     1     -10.043  14.737  65.553  1.00  0.00    -0.409 A  
HETATM    5  C   UNL     1     -11.015  13.941  66.187  1.00  0.00    -0.293 A  
HETATM    6  C   UNL     1     -11.689  14.500  67.293  1.00  0.00    -0.429 A  
HETATM    7  C   UNL     1     -11.372  15.776  67.770  1.00  0.00    -0.240 A  
ENDROOT
BRANCH   5   8
HETATM    8  C   UNL     1     -11.416  12.573  65.644  1.00  0.00    -0.400 C  
HETATM    9  C   UNL     1     -11.206  12.369  64.142  1.00  0.00    -0.376 C  
HETATM   10  C   UNL     1     -10.288  11.252  63.931  1.00  0.00    -0.439 A  
HETATM   11  O   UNL     1     -11.719  12.980  63.220  1.00  0.00    -0.497 OA 
HETATM   12  C   UNL     1      -9.804  10.742  62.739  1.00  0.00    -0.239 A  
HETATM   13  C   UNL     1      -8.924   9.657  62.809  1.00  0.00    -0.264 A  
HETATM   14  C   UNL     1      -8.551   9.110  64.052  1.00  0.00    -0.186 A  
HETATM   15  C   UNL     1      -9.062   9.631  65.243  1.00  0.00    -0.269 A  
HETATM   16  C   UNL     1      -9.932  10.702  65.150  1.00  0.00    -0.366 A  
HETATM   17  C   UNL     1     -10.618  11.405  66.229  1.00  0.00    -0.263 C  
HETATM   18  O   UNL     1     -10.553  11.039  67.391  1.00  0.00    -0.209 OA 
ENDBRANCH   5   8
TORSDOF 1
ENDMDL
MODEL       34
REMARK 921   NORMALIZED FREE ENERGY PREDICTED BY IDOCK:   -5.54 KCAL/MOL
REMARK 922        TOTAL FREE ENERGY PREDICTED BY IDOCK:   -6.20 KCAL/MOL
REMARK 923 INTER-LIGAND FREE ENERGY PREDICTED BY IDOCK:   -5.75 KCAL/MOL
REMARK 924 INTRA-LIGAND FREE ENERGY PREDICTED BY IDOCK:   -0.45 KCAL/MOL
REMARK 927      BINDING AFFINITY PREDICTED BY RF-SCORE:    0.00 PKD
ROOT
HETATM    1  F   UNL     1     -12.714  11.606  63.106  1.00  0.00    -0.696 F  
HETATM    2  C   UNL     1     -12.169  12.501  63.941  1.00  0.00    -0.503 A  
HETATM    3  C   UNL     1     -10.806  12.750  63.889  1.00  0.00    -0.447 A  
HETATM    4  C   UNL     1     -10.235  13.677  64.767  1.00  0.00    -0.363 A  
HETATM    5  C   UNL     1     -11.022  14.380  65.699  1.00  0.00    -0.314 A  
HETATM    6  C   UNL     1     -12.399  14.081  65.740  1.00  0.00    -0.506 A  
HETATM    7  C   UNL     1     -12.971  13.157  64.860  1.00  0.00    -0.213 A  
ENDROOT
BRANCH   5   8
HETATM    8  C   UNL     1     -10.406  15.347  66.706  1.00  0.00    -0.279 C  
HETATM    9  C   UNL     1      -9.045  14.935  67.271  1.00  0.00    -0.201 C  
HETATM   10  C   UNL     1      -8.058  15.963  66.948  1.00  0.00    -0.285 A  
HETATM   11  O   UNL     1      -8.769  13.944  67.926  1.00  0.00    -0.164 OA 
HETATM   12  C   UNL     1      -6.706  15.987  67.241  1.00  0.00    -0.232 A  
HETATM   13  C   UNL     1      -5.970  17.098  66.813  1.00  0.00    -0.235 A  
HETATM   14  C   UNL     1      -6.593  18.148  66.111  1.00  0.00    -0.281 A  
HETATM   15  C   UNL     1      -7.963  18.110  65.838  1.00  0.00    -0.049 A  
HETATM   16  C   UNL     1      -8.670  17.004  66.272  1.00  0.00    -0.285 A  
HETATM   17  C   UNL     1     -10.098  16.735  66.139  1.00  0.00    -0.345 C  
HETATM   18  O   UNL     1     -10.875  17.553  65.675  1.00  0.00    -0.356 OA 
ENDBRANCH   5   8
TORSDOF 1
ENDMDL
MODEL       35
REMARK 921   NORMALIZED FREE ENERGY PREDICTED BY IDOCK:   -5.54 KCAL/MOL
REMARK 922        TOTAL FREE ENERGY PREDICTED BY IDOCK:   -6.20 KCAL/MOL
REMARK 923 INTER-LIGAND FREE ENERGY PREDICTED BY IDOCK:   -5.77 KCAL/MOL
REMARK 924 INTRA-LIGAND FREE ENERGY PREDICTED BY IDOCK:   -0.43 KCAL/MOL
REMARK 927      BINDING AFFINITY PREDICTED BY RF-SCORE:    0.00 PKD
ROOT
HETATM    1  F   UNL     1     -13.571  14.076  72.828  1.00  0.00    -0.536 F  
HETATM    2  C   UNL     1     -12.741  14.495  71.864  1.00  0.00    -0.338 A  
HETATM    3  C   UNL     1     -12.147  15.743  71.961  1.00  0.00    -0.562 A  
HETATM    4  C   UNL     1     -11.289  16.185  70.949  1.00  0.00    -0.394 A  
HETATM    5  C   UNL     1     -11.000  15.377  69.833  1.00  0.00    -0.305 A  
HETATM    6  C   UNL     1     -11.643  14.125  69.755  1.00  0.00    -0.351 A  
HETATM    7  C   UNL     1     -12.499  13.682  70.769  1.00  0.00    -0.432 A  
ENDROOT
BRANCH   5   8
HETATM    8  C   UNL     1     -10.116  15.869  68.690  1.00  0.00    -0.216 C  
HETATM    9  C   UNL     1     -10.173  17.372  68.409  1.00  0.00    -0.362 C  
HETATM   10  C   UNL     1      -8.838  17.943  68.571  1.00  0.00    -0.293 A  
HETATM   11  O   UNL     1     -11.135  18.038  68.065  1.00  0.00    -0.161 OA 
HETATM   12  C   UNL     1      -8.439  19.261  68.438  1.00  0.00    -0.386 A  
HETATM   13  C   UNL     1      -7.087  19.553  68.650  1.00  0.00    -0.373 A  
HETATM   14  C   UNL     1      -6.174  18.534  68.984  1.00  0.00    -0.248 A  
HETATM   15  C   UNL     1      -6.595  17.207  69.098  1.00  0.00    -0.231 A  
HETATM   16  C   UNL     1      -7.935  16.942  68.883  1.00  0.00    -0.224 A  
HETATM   17  C   UNL     1      -8.618  15.653  68.915  1.00  0.00    -0.211 C  
HETATM   18  O   UNL     1      -8.018  14.601  69.062  1.00  0.00    -0.143 OA 
ENDBRANCH   5   8
TORSDOF 1
ENDMDL
MODEL       36
REMARK 921   NORMALIZED FREE ENERGY PREDICTED BY IDOCK:   -5.49 KCAL/MOL
REMARK 922        TOTAL FREE ENERGY PREDICTED BY IDOCK:   -6.15 KCAL/MOL
REMARK 923 INTER-LIGAND FREE ENERGY PREDICTED BY IDOCK:   -5.88 KCAL/MOL
REMARK 924 INTRA-LIGAND FREE ENERGY PREDICTED BY IDOCK:   -0.27 KCAL/MOL
REMARK 927      BINDING AFFINITY PREDICTED BY RF-SCORE:    0.00 PKD
ROOT
HETATM    1  F   UNL     1     -12.818  15.862  74.390  1.00  0.00    -0.586 F  
HETATM    2  C   UNL     1     -12.623  15.317  73.182  1.00  0.00    -0.463 A  
HETATM    3  C   UNL     1     -13.370  14.215  72.796  1.00  0.00    -0.618 A  
HETATM    4  C   UNL     1     -13.160  13.640  71.538  1.00  0.00    -0.431 A  
HETATM    5  C   UNL     1     -12.211  14.168  70.643  1.00  0.00    -0.432 A  
HETATM    6  C   UNL     1     -11.452  15.273  71.082  1.00  0.00    -0.414 A  
HETATM    7  C   UNL     1     -11.664  15.850  72.337  1.00  0.00    -0.582 A  
ENDROOT
BRANCH   5   8
HETATM    8  C   UNL     1     -11.924  13.515  69.294  1.00  0.00    -0.378 C  
HETATM    9  C   UNL     1     -11.015  14.310  68.354  1.00  0.00    -0.253 C  
HETATM   10  C   UNL     1      -9.828  13.515  68.046  1.00  0.00    -0.238 A  
HETATM   11  O   UNL     1     -11.209  15.414  67.873  1.00  0.00    -0.313 OA 
HETATM   12  C   UNL     1      -8.741  13.853  67.259  1.00  0.00    -0.225 A  
HETATM   13  C   UNL     1      -7.721  12.905  67.123  1.00  0.00    -0.058 A  
HETATM   14  C   UNL     1      -7.808  11.655  67.766  1.00  0.00    -0.129 A  
HETATM   15  C   UNL     1      -8.922  11.329  68.544  1.00  0.00    -0.166 A  
HETATM   16  C   UNL     1      -9.919  12.280  68.663  1.00  0.00    -0.127 A  
HETATM   17  C   UNL     1     -11.181  12.180  69.387  1.00  0.00    -0.182 C  
HETATM   18  O   UNL     1     -11.544  11.147  69.925  1.00  0.00    -0.282 OA 
ENDBRANCH   5   8
TORSDOF 1
ENDMDL
MODEL       37
REMARK 921   NORMALIZED FREE ENERGY PREDICTED BY IDOCK:   -5.48 KCAL/MOL
REMARK 922        TOTAL FREE ENERGY PREDICTED BY IDOCK:   -6.14 KCAL/MOL
REMARK 923 INTER-LIGAND FREE ENERGY PREDICTED BY IDOCK:   -5.80 KCAL/MOL
REMARK 924 INTRA-LIGAND FREE ENERGY PREDICTED BY IDOCK:   -0.35 KCAL/MOL
REMARK 927      BINDING AFFINITY PREDICTED BY RF-SCORE:    0.00 PKD
ROOT
HETATM    1  F   UNL     1      -8.388  10.928  65.722  1.00  0.00    -0.159 F  
HETATM    2  C   UNL     1      -9.056  12.071  65.924  1.00  0.00    -0.042 A  
HETATM    3  C   UNL     1      -8.589  12.986  66.854  1.00  0.00    -0.126 A  
HETATM    4  C   UNL     1      -9.293  14.176  67.072  1.00  0.00    -0.253 A  
HETATM    5  C   UNL     1     -10.464  14.473  66.352  1.00  0.00    -0.295 A  
HETATM    6  C   UNL     1     -10.924  13.506  65.434  1.00  0.00    -0.300 A  
HETATM    7  C   UNL     1     -10.219  12.319  65.213  1.00  0.00    -0.305 A  
ENDROOT
BRANCH   5   8
HETATM    8  C   UNL     1     -11.278  15.735  66.623  1.00  0.00    -0.000 C  
HETATM    9  C   UNL     1     -11.005  16.424  67.961  1.00  0.00    -0.327 C  
HETATM   10  C   UNL     1     -10.539  17.788  67.715  1.00  0.00    -0.392 A  
HETATM   11  O   UNL     1     -11.164  15.978  69.085  1.00  0.00    -0.298 OA 
HETATM   12  C   UNL     1     -10.157  18.750  68.632  1.00  0.00    -0.432 A  
HETATM   13  C   UNL     1      -9.744  19.991  68.135  1.00  0.00    -0.463 A  
HETATM   14  C   UNL     1      -9.724  20.241  66.749  1.00  0.00    -0.571 A  
HETATM   15  C   UNL     1     -10.129  19.260  65.841  1.00  0.00    -0.358 A  
HETATM   16  C   UNL     1     -10.534  18.042  66.355  1.00  0.00    -0.345 A  
HETATM   17  C   UNL     1     -11.023  16.873  65.631  1.00  0.00     0.026 C  
HETATM   18  O   UNL     1     -11.215  16.886  64.426  1.00  0.00    -1.159 OA 
ENDBRANCH   5   8
TORSDOF 1
ENDMDL
MODEL       38
REMARK 921   NORMALIZED FREE ENERGY PREDICTED BY IDOCK:   -5.48 KCAL/MOL
REMARK 922        TOTAL FREE ENERGY PREDICTED BY IDOCK:   -6.14 KCAL/MOL
REMARK 923 INTER-LIGAND FREE ENERGY PREDICTED BY IDOCK:   -5.66 KCAL/MOL
REMARK 924 INTRA-LIGAND FREE ENERGY PREDICTED BY IDOCK:   -0.48 KCAL/MOL
REMARK 927      BINDING AFFINITY PREDICTED BY RF-SCORE:    0.00 PKD
ROOT
HETATM    1  F   UNL     1      -8.599  17.823  66.546  1.00  0.00    -0.243 F  
HETATM    2  C   UNL     1      -9.181  16.643  66.292  1.00  0.00    -0.294 A  
HETATM    3  C   UNL     1     -10.388  16.604  65.612  1.00  0.00    -0.310 A  
HETATM    4  C   UNL     1     -11.001  15.373  65.355  1.00  0.00    -0.376 A  
HETATM    5  C   UNL     1     -10.406  14.163  65.760  1.00  0.00    -0.338 A  
HETATM    6  C   UNL     1      -9.192  14.244  66.471  1.00  0.00    -0.259 A  
HETATM    7  C   UNL     1      -8.577  15.474  66.726  1.00  0.00    -0.307 A  
ENDROOT
BRANCH   5   8
HETATM    8  C   UNL     1     -11.091  12.817  65.544  1.00  0.00    -0.318 C  
HETATM    9  C   UNL     1     -10.319  11.811  64.688  1.00  0.00    -0.290 C  
HETATM   10  C   UNL     1     -10.062  10.606  65.474  1.00  0.00    -0.343 A  
HETATM   11  O   UNL     1      -9.976  11.919  63.522  1.00  0.00    -0.380 OA 
HETATM   12  C   UNL     1      -9.377   9.462  65.106  1.00  0.00    -0.288 A  
HETATM   13  C   UNL     1      -9.266   8.440  66.055  1.00  0.00    -0.247 A  
HETATM   14  C   UNL     1      -9.836   8.580  67.335  1.00  0.00    -0.244 A  
HETATM   15  C   UNL     1     -10.535   9.738  67.682  1.00  0.00    -0.305 A  
HETATM   16  C   UNL     1     -10.634  10.735  66.728  1.00  0.00    -0.307 A  
HETATM   17  C   UNL     1     -11.324  12.016  66.827  1.00  0.00    -0.339 C  
HETATM   18  O   UNL     1     -11.999  12.319  67.797  1.00  0.00    -0.474 OA 
ENDBRANCH   5   8
TORSDOF 1
ENDMDL
MODEL       39
REMARK 921   NORMALIZED FREE ENERGY PREDICTED BY IDOCK:   -5.48 KCAL/MOL
REMARK 922        TOTAL FREE ENERGY PREDICTED BY IDOCK:   -6.14 KCAL/MOL
REMARK 923 INTER-LIGAND FREE ENERGY PREDICTED BY IDOCK:   -5.80 KCAL/MOL
REMARK 924 INTRA-LIGAND FREE ENERGY PREDICTED BY IDOCK:   -0.34 KCAL/MOL
REMARK 927      BINDING AFFINITY PREDICTED BY RF-SCORE:    0.00 PKD
ROOT
HETATM    1  F   UNL     1     -10.204   4.318  67.080  1.00  0.00    -0.229 F  
HETATM    2  C   UNL     1      -9.974   5.612  66.822  1.00  0.00    -0.178 A  
HETATM    3  C   UNL     1     -10.883   6.570  67.243  1.00  0.00    -0.463 A  
HETATM    4  C   UNL     1     -10.649   7.921  66.965  1.00  0.00    -0.381 A  
HETATM    5  C   UNL     1      -9.493   8.334  66.275  1.00  0.00    -0.271 A  
HETATM    6  C   UNL     1      -8.606   7.329  65.838  1.00  0.00    -0.159 A  
HETATM    7  C   UNL     1      -8.838   5.979  66.119  1.00  0.00    -0.152 A  
ENDROOT
BRANCH   5   8
HETATM    8  C   UNL     1      -9.254   9.795  65.908  1.00  0.00    -0.236 C  
HETATM    9  C   UNL     1      -9.644  10.192  64.483  1.00  0.00    -0.311 C  
HETATM   10  C   UNL     1     -10.657  11.244  64.536  1.00  0.00    -0.401 A  
HETATM   11  O   UNL     1      -9.195   9.766  63.432  1.00  0.00    -0.258 OA 
HETATM   12  C   UNL     1     -11.305  11.875  63.489  1.00  0.00    -0.516 A  
HETATM   13  C   UNL     1     -12.247  12.859  63.809  1.00  0.00    -0.555 A  
HETATM   14  C   UNL     1     -12.517  13.189  65.152  1.00  0.00    -0.539 A  
HETATM   15  C   UNL     1     -11.840  12.550  66.193  1.00  0.00    -0.459 A  
HETATM   16  C   UNL     1     -10.913  11.581  65.853  1.00  0.00    -0.301 A  
HETATM   17  C   UNL     1     -10.063  10.794  66.739  1.00  0.00    -0.222 C  
HETATM   18  O   UNL     1     -10.023  10.984  67.944  1.00  0.00    -0.169 OA 
ENDBRANCH   5   8
TORSDOF 1
ENDMDL
MODEL       40
REMARK 921   NORMALIZED FREE ENERGY PREDICTED BY IDOCK:   -5.45 KCAL/MOL
REMARK 922        TOTAL FREE ENERGY PREDICTED BY IDOCK:   -6.11 KCAL/MOL
REMARK 923 INTER-LIGAND FREE ENERGY PREDICTED BY IDOCK:   -5.96 KCAL/MOL
REMARK 924 INTRA-LIGAND FREE ENERGY PREDICTED BY IDOCK:   -0.15 KCAL/MOL
REMARK 927      BINDING AFFINITY PREDICTED BY RF-SCORE:    0.00 PKD
ROOT
HETATM    1  F   UNL     1      -9.368  18.476  68.112  1.00  0.00    -0.284 F  
HETATM    2  C   UNL     1      -9.980  17.347  67.732  1.00  0.00    -0.301 A  
HETATM    3  C   UNL     1     -10.918  16.758  68.566  1.00  0.00    -0.312 A  
HETATM    4  C   UNL     1     -11.550  15.573  68.174  1.00  0.00    -0.313 A  
HETATM    5  C   UNL     1     -11.265  14.969  66.935  1.00  0.00    -0.323 A  
HETATM    6  C   UNL     1     -10.286  15.582  66.125  1.00  0.00    -0.327 A  
HETATM    7  C   UNL     1      -9.656  16.768  66.516  1.00  0.00    -0.285 A  
ENDROOT
BRANCH   5   8
HETATM    8  C   UNL     1     -11.897  13.644  66.520  1.00  0.00    -0.441 C  
HETATM    9  C   UNL     1     -11.449  13.093  65.164  1.00  0.00    -0.300 C  
HETATM   10  C   UNL     1     -10.839  11.779  65.357  1.00  0.00    -0.347 A  
HETATM   11  O   UNL     1     -11.584  13.599  64.063  1.00  0.00    -0.378 OA 
HETATM   12  C   UNL     1     -10.279  10.938  64.411  1.00  0.00    -0.423 A  
HETATM   13  C   UNL     1      -9.752   9.721  64.858  1.00  0.00    -0.262 A  
HETATM   14  C   UNL     1      -9.798   9.373  66.222  1.00  0.00    -0.351 A  
HETATM   15  C   UNL     1     -10.382  10.230  67.157  1.00  0.00    -0.292 A  
HETATM   16  C   UNL     1     -10.897  11.427  66.694  1.00  0.00    -0.339 A  
HETATM   17  C   UNL     1     -11.574  12.474  67.452  1.00  0.00    -0.370 C  
HETATM   18  O   UNL     1     -11.846  12.350  68.635  1.00  0.00    -0.309 OA 
ENDBRANCH   5   8
TORSDOF 1
ENDMDL
MODEL       41
REMARK 921   NORMALIZED FREE ENERGY PREDICTED BY IDOCK:   -5.39 KCAL/MOL
REMARK 922        TOTAL FREE ENERGY PREDICTED BY IDOCK:   -6.05 KCAL/MOL
REMARK 923 INTER-LIGAND FREE ENERGY PREDICTED BY IDOCK:   -5.72 KCAL/MOL
REMARK 924 INTRA-LIGAND FREE ENERGY PREDICTED BY IDOCK:   -0.32 KCAL/MOL
REMARK 927      BINDING AFFINITY PREDICTED BY RF-SCORE:    0.00 PKD
ROOT
HETATM    1  F   UNL     1     -13.072   8.983  72.766  1.00  0.00    -0.477 F  
HETATM    2  C   UNL     1     -12.465   9.632  71.764  1.00  0.00    -0.402 A  
HETATM    3  C   UNL     1     -11.433   9.018  71.071  1.00  0.00    -0.358 A  
HETATM    4  C   UNL     1     -10.791   9.700  70.032  1.00  0.00    -0.302 A  
HETATM    5  C   UNL     1     -11.183  11.000  69.660  1.00  0.00    -0.345 A  
HETATM    6  C   UNL     1     -12.218  11.602  70.405  1.00  0.00    -0.434 A  
HETATM    7  C   UNL     1     -12.862  10.920  71.442  1.00  0.00    -0.554 A  
ENDROOT
BRANCH   5   8
HETATM    8  C   UNL     1     -10.453  11.782  68.573  1.00  0.00    -0.233 C  
HETATM    9  C   UNL     1      -9.083  11.233  68.170  1.00  0.00    -0.166 C  
HETATM   10  C   UNL     1      -9.097  10.898  66.748  1.00  0.00    -0.164 A  
HETATM   11  O   UNL     1      -8.088  11.105  68.864  1.00  0.00    -0.144 OA 
HETATM   12  C   UNL     1      -8.086  10.353  65.976  1.00  0.00    -0.143 A  
HETATM   13  C   UNL     1      -8.356  10.122  64.623  1.00  0.00    -0.167 A  
HETATM   14  C   UNL     1      -9.614  10.439  64.075  1.00  0.00    -0.376 A  
HETATM   15  C   UNL     1     -10.616  11.002  64.868  1.00  0.00    -0.328 A  
HETATM   16  C   UNL     1     -10.327  11.223  66.203  1.00  0.00    -0.300 A  
HETATM   17  C   UNL     1     -11.180  11.816  67.226  1.00  0.00    -0.305 C  
HETATM   18  O   UNL     1     -12.277  12.285  66.969  1.00  0.00    -0.522 OA 
ENDBRANCH   5   8
TORSDOF 1
ENDMDL
MODEL       42
REMARK 921   NORMALIZED FREE ENERGY PREDICTED BY IDOCK:   -5.32 KCAL/MOL
REMARK 922        TOTAL FREE ENERGY PREDICTED BY IDOCK:   -5.98 KCAL/MOL
REMARK 923 INTER-LIGAND FREE ENERGY PREDICTED BY IDOCK:   -5.54 KCAL/MOL
REMARK 924 INTRA-LIGAND FREE ENERGY PREDICTED BY IDOCK:   -0.44 KCAL/MOL
REMARK 927      BINDING AFFINITY PREDICTED BY RF-SCORE:    0.00 PKD
ROOT
HETATM    1  F   UNL     1      -8.150   7.437  64.867  1.00  0.00    -0.115 F  
HETATM    2  C   UNL     1      -8.906   8.477  65.241  1.00  0.00    -0.100 A  
HETATM    3  C   UNL     1      -9.031   9.574  64.402  1.00  0.00    -0.255 A  
HETATM    4  C   UNL     1      -9.813  10.665  64.796  1.00  0.00    -0.372 A  
HETATM    5  C   UNL     1     -10.494  10.668  66.029  1.00  0.00    -0.250 A  
HETATM    6  C   UNL     1     -10.321   9.547  66.867  1.00  0.00    -0.307 A  
HETATM    7  C   UNL     1      -9.542   8.455  66.471  1.00  0.00    -0.304 A  
ENDROOT
BRANCH   5   8
HETATM    8  C   UNL     1     -11.298  11.875  66.502  1.00  0.00    -0.403 C  
HETATM    9  C   UNL     1     -10.488  12.992  67.163  1.00  0.00    -0.243 C  
HETATM   10  C   UNL     1     -10.664  14.228  66.404  1.00  0.00    -0.297 A  
HETATM   11  O   UNL     1      -9.815  12.936  68.178  1.00  0.00    -0.217 OA 
HETATM   12  C   UNL     1     -10.098  15.471  66.630  1.00  0.00    -0.275 A  
HETATM   13  C   UNL     1     -10.430  16.504  65.746  1.00  0.00    -0.343 A  
HETATM   14  C   UNL     1     -11.309  16.277  64.670  1.00  0.00    -0.237 A  
HETATM   15  C   UNL     1     -11.881  15.018  64.468  1.00  0.00    -0.377 A  
HETATM   16  C   UNL     1     -11.540  14.013  65.355  1.00  0.00    -0.329 A  
HETATM   17  C   UNL     1     -12.013  12.633  65.381  1.00  0.00    -0.446 C  
HETATM   18  O   UNL     1     -12.878  12.225  64.623  1.00  0.00    -0.665 OA 
ENDBRANCH   5   8
TORSDOF 1
ENDMDL
MODEL       43
REMARK 921   NORMALIZED FREE ENERGY PREDICTED BY IDOCK:   -5.31 KCAL/MOL
REMARK 922        TOTAL FREE ENERGY PREDICTED BY IDOCK:   -5.96 KCAL/MOL
REMARK 923 INTER-LIGAND FREE ENERGY PREDICTED BY IDOCK:   -5.65 KCAL/MOL
REMARK 924 INTRA-LIGAND FREE ENERGY PREDICTED BY IDOCK:   -0.31 KCAL/MOL
REMARK 927      BINDING AFFINITY PREDICTED BY RF-SCORE:    0.00 PKD
ROOT
HETATM    1  F   UNL     1     -12.434  11.814  63.253  1.00  0.00    -0.631 F  
HETATM    2  C   UNL     1     -11.862  12.427  64.298  1.00  0.00    -0.398 A  
HETATM    3  C   UNL     1     -10.909  11.759  65.050  1.00  0.00    -0.350 A  
HETATM    4  C   UNL     1     -10.319  12.394  66.148  1.00  0.00    -0.271 A  
HETATM    5  C   UNL     1     -10.662  13.714  66.499  1.00  0.00    -0.284 A  
HETATM    6  C   UNL     1     -11.655  14.351  65.727  1.00  0.00    -0.353 A  
HETATM    7  C   UNL     1     -12.242  13.717  64.628  1.00  0.00    -0.440 A  
ENDROOT
BRANCH   5   8
HETATM    8  C   UNL     1     -10.076  14.398  67.730  1.00  0.00    -0.226 C  
HETATM    9  C   UNL     1      -8.715  15.069  67.529  1.00  0.00    -0.184 C  
HETATM   10  C   UNL     1      -8.832  16.495  67.827  1.00  0.00    -0.197 A  
HETATM   11  O   UNL     1      -7.659  14.550  67.210  1.00  0.00    -0.189 OA 
HETATM   12  C   UNL     1      -7.860  17.477  67.753  1.00  0.00    -0.209 A  
HETATM   13  C   UNL     1      -8.232  18.782  68.093  1.00  0.00    -0.332 A  
HETATM   14  C   UNL     1      -9.549  19.075  68.496  1.00  0.00    -0.442 A  
HETATM   15  C   UNL     1     -10.511  18.066  68.578  1.00  0.00    -0.291 A  
HETATM   16  C   UNL     1     -10.121  16.783  68.239  1.00  0.00    -0.274 A  
HETATM   17  C   UNL     1     -10.917  15.560  68.264  1.00  0.00    -0.305 C  
HETATM   18  O   UNL     1     -12.058  15.533  68.696  1.00  0.00    -0.271 OA 
ENDBRANCH   5   8
TORSDOF 1
ENDMDL
MODEL       44
REMARK 921   NORMALIZED FREE ENERGY PREDICTED BY IDOCK:   -5.27 KCAL/MOL
REMARK 922        TOTAL FREE ENERGY PREDICTED BY IDOCK:   -5.91 KCAL/MOL
REMARK 923 INTER-LIGAND FREE ENERGY PREDICTED BY IDOCK:   -5.61 KCAL/MOL
REMARK 924 INTRA-LIGAND FREE ENERGY PREDICTED BY IDOCK:   -0.30 KCAL/MOL
REMARK 927      BINDING AFFINITY PREDICTED BY RF-SCORE:    0.00 PKD
ROOT
HETATM    1  F   UNL     1      -5.943  12.709  67.261  1.00  0.00    -0.135 F  
HETATM    2  C   UNL     1      -7.245  12.817  67.556  1.00  0.00    -0.154 A  
HETATM    3  C   UNL     1      -8.139  11.872  67.075  1.00  0.00    -0.167 A  
HETATM    4  C   UNL     1      -9.501  11.990  67.374  1.00  0.00    -0.177 A  
HETATM    5  C   UNL     1      -9.985  13.044  68.170  1.00  0.00    -0.231 A  
HETATM    6  C   UNL     1      -9.050  14.000  68.618  1.00  0.00    -0.107 A  
HETATM    7  C   UNL     1      -7.688  13.881  68.322  1.00  0.00    -0.136 A  
ENDROOT
BRANCH   5   8
HETATM    8  C   UNL     1     -11.474  13.223  68.452  1.00  0.00    -0.349 C  
HETATM    9  C   UNL     1     -12.034  12.387  69.605  1.00  0.00    -0.274 C  
HETATM   10  C   UNL     1     -12.592  13.279  70.620  1.00  0.00    -0.305 A  
HETATM   11  O   UNL     1     -12.074  11.173  69.705  1.00  0.00    -0.315 OA 
HETATM   12  C   UNL     1     -13.175  12.954  71.831  1.00  0.00    -0.521 A  
HETATM   13  C   UNL     1     -13.633  14.006  72.633  1.00  0.00    -0.623 A  
HETATM   14  C   UNL     1     -13.501  15.343  72.211  1.00  0.00    -0.573 A  
HETATM   15  C   UNL     1     -12.923  15.648  70.977  1.00  0.00    -0.518 A  
HETATM   16  C   UNL     1     -12.479  14.593  70.201  1.00  0.00    -0.369 A  
HETATM   17  C   UNL     1     -11.869  14.639  68.876  1.00  0.00    -0.309 C  
HETATM   18  O   UNL     1     -11.759  15.678  68.245  1.00  0.00    -0.349 OA 
ENDBRANCH   5   8
TORSDOF 1
ENDMDL
MODEL       45
REMARK 921   NORMALIZED FREE ENERGY PREDICTED BY IDOCK:   -5.26 KCAL/MOL
REMARK 922        TOTAL FREE ENERGY PREDICTED BY IDOCK:   -5.91 KCAL/MOL
REMARK 923 INTER-LIGAND FREE ENERGY PREDICTED BY IDOCK:   -5.64 KCAL/MOL
REMARK 924 INTRA-LIGAND FREE ENERGY PREDICTED BY IDOCK:   -0.26 KCAL/MOL
REMARK 927      BINDING AFFINITY PREDICTED BY RF-SCORE:    0.00 PKD
ROOT
HETATM    1  F   UNL     1     -12.452   5.732  72.565  1.00  0.00    -0.316 F  
HETATM    2  C   UNL     1     -11.939   6.783  71.913  1.00  0.00    -0.333 A  
HETATM    3  C   UNL     1     -11.555   6.650  70.587  1.00  0.00    -0.439 A  
HETATM    4  C   UNL     1     -11.010   7.745  69.909  1.00  0.00    -0.194 A  
HETATM    5  C   UNL     1     -10.855   8.993  70.542  1.00  0.00    -0.296 A  
HETATM    6  C   UNL     1     -11.232   9.082  71.898  1.00  0.00    -0.438 A  
HETATM    7  C   UNL     1     -11.780   7.989  72.575  1.00  0.00    -0.446 A  
ENDROOT
BRANCH   5   8
HETATM    8  C   UNL     1     -10.204  10.179  69.836  1.00  0.00    -0.284 C  
HETATM    9  C   UNL     1      -9.549   9.868  68.489  1.00  0.00    -0.153 C  
HETATM   10  C   UNL     1     -10.184  10.673  67.447  1.00  0.00    -0.243 A  
HETATM   11  O   UNL     1      -8.619   9.113  68.259  1.00  0.00    -0.127 OA 
HETATM   12  C   UNL     1      -9.923  10.693  66.089  1.00  0.00    -0.283 A  
HETATM   13  C   UNL     1     -10.681  11.561  65.296  1.00  0.00    -0.337 A  
HETATM   14  C   UNL     1     -11.671  12.382  65.870  1.00  0.00    -0.476 A  
HETATM   15  C   UNL     1     -11.908  12.357  67.246  1.00  0.00    -0.357 A  
HETATM   16  C   UNL     1     -11.146  11.493  68.011  1.00  0.00    -0.313 A  
HETATM   17  C   UNL     1     -11.178  11.297  69.456  1.00  0.00    -0.272 C  
HETATM   18  O   UNL     1     -11.868  11.983  70.192  1.00  0.00    -0.335 OA 
ENDBRANCH   5   8
TORSDOF 1
ENDMDL
MODEL       46
REMARK 921   NORMALIZED FREE ENERGY PREDICTED BY IDOCK:   -5.26 KCAL/MOL
REMARK 922        TOTAL FREE ENERGY PREDICTED BY IDOCK:   -5.91 KCAL/MOL
REMARK 923 INTER-LIGAND FREE ENERGY PREDICTED BY IDOCK:   -5.46 KCAL/MOL
REMARK 924 INTRA-LIGAND FREE ENERGY PREDICTED BY IDOCK:   -0.45 KCAL/MOL
REMARK 927      BINDING AFFINITY PREDICTED BY RF-SCORE:    0.00 PKD
ROOT
HETATM    1  F   UNL     1     -11.488  12.244  65.543  1.00  0.00    -0.345 F  
HETATM    2  C   UNL     1     -11.372  11.752  66.784  1.00  0.00    -0.320 A  
HETATM    3  C   UNL     1     -10.868  10.475  66.973  1.00  0.00    -0.288 A  
HETATM    4  C   UNL     1     -10.756   9.956  68.267  1.00  0.00    -0.276 A  
HETATM    5  C   UNL     1     -11.132  10.715  69.392  1.00  0.00    -0.315 A  
HETATM    6  C   UNL     1     -11.665  11.999  69.159  1.00  0.00    -0.389 A  
HETATM    7  C   UNL     1     -11.774  12.519  67.865  1.00  0.00    -0.416 A  
ENDROOT
BRANCH   5   8
HETATM    8  C   UNL     1     -11.076  10.142  70.805  1.00  0.00    -0.372 C  
HETATM    9  C   UNL     1     -12.246   9.237  71.199  1.00  0.00    -0.301 C  
HETATM   10  C   UNL     1     -11.735   7.912  71.544  1.00  0.00    -0.317 A  
HETATM   11  O   UNL     1     -13.429   9.523  71.270  1.00  0.00    -0.370 OA 
HETATM   12  C   UNL     1     -12.441   6.786  71.930  1.00  0.00    -0.355 A  
HETATM   13  C   UNL     1     -11.709   5.626  72.206  1.00  0.00    -0.202 A  
HETATM   14  C   UNL     1     -10.305   5.616  72.093  1.00  0.00    -0.256 A  
HETATM   15  C   UNL     1      -9.611   6.768  71.716  1.00  0.00    -0.157 A  
HETATM   16  C   UNL     1     -10.355   7.903  71.450  1.00  0.00    -0.234 A  
HETATM   17  C   UNL     1      -9.877   9.228  71.067  1.00  0.00    -0.285 C  
HETATM   18  O   UNL     1      -8.689   9.505  71.023  1.00  0.00    -0.260 OA 
ENDBRANCH   5   8
TORSDOF 1
ENDMDL
MODEL       47
REMARK 921   NORMALIZED FREE ENERGY PREDICTED BY IDOCK:   -5.22 KCAL/MOL
REMARK 922        TOTAL FREE ENERGY PREDICTED BY IDOCK:   -5.87 KCAL/MOL
REMARK 923 INTER-LIGAND FREE ENERGY PREDICTED BY IDOCK:   -5.70 KCAL/MOL
REMARK 924 INTRA-LIGAND FREE ENERGY PREDICTED BY IDOCK:   -0.17 KCAL/MOL
REMARK 927      BINDING AFFINITY PREDICTED BY RF-SCORE:    0.00 PKD
ROOT
HETATM    1  F   UNL     1     -12.491  13.470  63.125  1.00  0.00    -0.563 F  
HETATM    2  C   UNL     1     -11.837  12.726  64.027  1.00  0.00    -0.435 A  
HETATM    3  C   UNL     1     -12.201  12.787  65.363  1.00  0.00    -0.532 A  
HETATM    4  C   UNL     1     -11.511  12.019  66.307  1.00  0.00    -0.408 A  
HETATM    5  C   UNL     1     -10.458  11.167  65.925  1.00  0.00    -0.310 A  
HETATM    6  C   UNL     1     -10.098  11.152  64.562  1.00  0.00    -0.364 A  
HETATM    7  C   UNL     1     -10.790  11.918  63.618  1.00  0.00    -0.510 A  
ENDROOT
BRANCH   5   8
HETATM    8  C   UNL     1      -9.654  10.371  66.949  1.00  0.00    -0.207 C  
HETATM    9  C   UNL     1     -10.074  10.557  68.409  1.00  0.00    -0.164 C  
HETATM   10  C   UNL     1     -10.472   9.265  68.963  1.00  0.00    -0.233 A  
HETATM   11  O   UNL     1     -10.064  11.580  69.071  1.00  0.00    -0.163 OA 
HETATM   12  C   UNL     1     -10.942   8.975  70.232  1.00  0.00    -0.274 A  
HETATM   13  C   UNL     1     -11.261   7.643  70.517  1.00  0.00    -0.275 A  
HETATM   14  C   UNL     1     -11.104   6.640  69.540  1.00  0.00    -0.378 A  
HETATM   15  C   UNL     1     -10.615   6.952  68.270  1.00  0.00    -0.258 A  
HETATM   16  C   UNL     1     -10.304   8.275  68.011  1.00  0.00    -0.268 A  
HETATM   17  C   UNL     1      -9.758   8.853  66.788  1.00  0.00    -0.219 C  
HETATM   18  O   UNL     1      -9.419   8.166  65.837  1.00  0.00    -0.135 OA 
ENDBRANCH   5   8
TORSDOF 1
ENDMDL
MODEL       48
REMARK 921   NORMALIZED FREE ENERGY PREDICTED BY IDOCK:   -5.22 KCAL/MOL
REMARK 922        TOTAL FREE ENERGY PREDICTED BY IDOCK:   -5.87 KCAL/MOL
REMARK 923 INTER-LIGAND FREE ENERGY PREDICTED BY IDOCK:   -5.57 KCAL/MOL
REMARK 924 INTRA-LIGAND FREE ENERGY PREDICTED BY IDOCK:   -0.29 KCAL/MOL
REMARK 927      BINDING AFFINITY PREDICTED BY RF-SCORE:    0.00 PKD
ROOT
HETATM    1  F   UNL     1      -8.875  17.827  67.118  1.00  0.00    -0.230 F  
HETATM    2  C   UNL     1      -9.600  16.710  67.263  1.00  0.00    -0.243 A  
HETATM    3  C   UNL     1     -10.744  16.729  68.045  1.00  0.00    -0.355 A  
HETATM    4  C   UNL     1     -11.496  15.560  68.205  1.00  0.00    -0.359 A  
HETATM    5  C   UNL     1     -11.123  14.360  67.571  1.00  0.00    -0.312 A  
HETATM    6  C   UNL     1      -9.939  14.373  66.805  1.00  0.00    -0.265 A  
HETATM    7  C   UNL     1      -9.189  15.542  66.643  1.00  0.00    -0.299 A  
ENDROOT
BRANCH   5   8
HETATM    8  C   UNL     1     -11.895  13.062  67.786  1.00  0.00    -0.395 C  
HETATM    9  C   UNL     1     -11.524  11.908  66.852  1.00  0.00    -0.322 C  
HETATM   10  C   UNL     1     -11.052  10.777  67.647  1.00  0.00    -0.384 A  
HETATM   11  O   UNL     1     -11.618  11.862  65.637  1.00  0.00    -0.317 OA 
HETATM   12  C   UNL     1     -10.593   9.546  67.214  1.00  0.00    -0.317 A  
HETATM   13  C   UNL     1     -10.192   8.625  68.187  1.00  0.00    -0.250 A  
HETATM   14  C   UNL     1     -10.258   8.948  69.556  1.00  0.00    -0.204 A  
HETATM   15  C   UNL     1     -10.737  10.192  69.973  1.00  0.00    -0.356 A  
HETATM   16  C   UNL     1     -11.130  11.086  68.994  1.00  0.00    -0.301 A  
HETATM   17  C   UNL     1     -11.685  12.425  69.162  1.00  0.00    -0.322 C  
HETATM   18  O   UNL     1     -11.954  12.886  70.259  1.00  0.00    -0.341 OA 
ENDBRANCH   5   8
TORSDOF 1
ENDMDL
MODEL       49
REMARK 921   NORMALIZED FREE ENERGY PREDICTED BY IDOCK:   -5.20 KCAL/MOL
REMARK 922        TOTAL FREE ENERGY PREDICTED BY IDOCK:   -5.84 KCAL/MOL
REMARK 923 INTER-LIGAND FREE ENERGY PREDICTED BY IDOCK:   -5.41 KCAL/MOL
REMARK 924 INTRA-LIGAND FREE ENERGY PREDICTED BY IDOCK:   -0.43 KCAL/MOL
REMARK 927      BINDING AFFINITY PREDICTED BY RF-SCORE:    0.00 PKD
ROOT
HETATM    1  F   UNL     1     -12.358  13.257  63.026  1.00  0.00    -0.610 F  
HETATM    2  C   UNL     1     -12.033  13.002  64.301  1.00  0.00    -0.402 A  
HETATM    3  C   UNL     1     -12.501  13.831  65.309  1.00  0.00    -0.512 A  
HETATM    4  C   UNL     1     -12.153  13.572  66.639  1.00  0.00    -0.447 A  
HETATM    5  C   UNL     1     -11.345  12.471  66.981  1.00  0.00    -0.386 A  
HETATM    6  C   UNL     1     -10.866  11.667  65.926  1.00  0.00    -0.339 A  
HETATM    7  C   UNL     1     -11.216  11.923  64.597  1.00  0.00    -0.364 A  
ENDROOT
BRANCH   5   8
HETATM    8  C   UNL     1     -10.904  12.211  68.418  1.00  0.00    -0.255 C  
HETATM    9  C   UNL     1     -11.673  11.114  69.158  1.00  0.00    -0.338 C  
HETATM   10  C   UNL     1     -10.742  10.066  69.570  1.00  0.00    -0.269 A  
HETATM   11  O   UNL     1     -12.862  11.077  69.426  1.00  0.00    -0.190 OA 
HETATM   12  C   UNL     1     -11.008   8.885  70.239  1.00  0.00    -0.266 A  
HETATM   13  C   UNL     1      -9.928   8.040  70.517  1.00  0.00    -0.193 A  
HETATM   14  C   UNL     1      -8.621   8.389  70.126  1.00  0.00    -0.131 A  
HETATM   15  C   UNL     1      -8.372   9.594  69.464  1.00  0.00    -0.154 A  
HETATM   16  C   UNL     1      -9.454  10.414  69.202  1.00  0.00    -0.220 A  
HETATM   17  C   UNL     1      -9.461  11.722  68.555  1.00  0.00    -0.163 C  
HETATM   18  O   UNL     1      -8.433  12.297  68.235  1.00  0.00    -0.171 OA 
ENDBRANCH   5   8
TORSDOF 1
ENDMDL
MODEL       50
REMARK 921   NORMALIZED FREE ENERGY PREDICTED BY IDOCK:   -5.19 KCAL/MOL
REMARK 922        TOTAL FREE ENERGY PREDICTED BY IDOCK:   -5.84 KCAL/MOL
REMARK 923 INTER-LIGAND FREE ENERGY PREDICTED BY IDOCK:   -5.35 KCAL/MOL
REMARK 924 INTRA-LIGAND FREE ENERGY PREDICTED BY IDOCK:   -0.48 KCAL/MOL
REMARK 927      BINDING AFFINITY PREDICTED BY RF-SCORE:    0.00 PKD
ROOT
HETATM    1  F   UNL     1      -9.018   9.898  67.856  1.00  0.00    -0.127 F  
HETATM    2  C   UNL     1      -9.607  11.096  67.753  1.00  0.00    -0.172 A  
HETATM    3  C   UNL     1     -10.948  11.177  67.412  1.00  0.00    -0.347 A  
HETATM    4  C   UNL     1     -11.561  12.429  67.294  1.00  0.00    -0.435 A  
HETATM    5  C   UNL     1     -10.845  13.617  67.532  1.00  0.00    -0.275 A  
HETATM    6  C   UNL     1      -9.477  13.497  67.850  1.00  0.00    -0.215 A  
HETATM    7  C   UNL     1      -8.865  12.245  67.971  1.00  0.00    -0.182 A  
ENDROOT
BRANCH   5   8
HETATM    8  C   UNL     1     -11.481  14.992  67.346  1.00  0.00    -0.326 C  
HETATM    9  C   UNL     1     -11.309  15.965  68.515  1.00  0.00    -0.374 C  
HETATM   10  C   UNL     1     -10.602  17.156  68.050  1.00  0.00    -0.374 A  
HETATM   11  O   UNL     1     -11.706  15.843  69.661  1.00  0.00    -0.333 OA 
HETATM   12  C   UNL     1     -10.216  18.271  68.773  1.00  0.00    -0.342 A  
HETATM   13  C   UNL     1      -9.542  19.286  68.086  1.00  0.00    -0.423 A  
HETATM   14  C   UNL     1      -9.272  19.169  66.709  1.00  0.00    -0.356 A  
HETATM   15  C   UNL     1      -9.684  18.042  65.995  1.00  0.00    -0.130 A  
HETATM   16  C   UNL     1     -10.350  17.051  66.693  1.00  0.00    -0.299 A  
HETATM   17  C   UNL     1     -10.902  15.801  66.183  1.00  0.00    -0.240 C  
HETATM   18  O   UNL     1     -10.904  15.526  64.994  1.00  0.00    -0.407 OA 
ENDBRANCH   5   8
TORSDOF 1
ENDMDL
MODEL       51
REMARK 921   NORMALIZED FREE ENERGY PREDICTED BY IDOCK:   -5.19 KCAL/MOL
REMARK 922        TOTAL FREE ENERGY PREDICTED BY IDOCK:   -5.83 KCAL/MOL
REMARK 923 INTER-LIGAND FREE ENERGY PREDICTED BY IDOCK:   -5.40 KCAL/MOL
REMARK 924 INTRA-LIGAND FREE ENERGY PREDICTED BY IDOCK:   -0.44 KCAL/MOL
REMARK 927      BINDING AFFINITY PREDICTED BY RF-SCORE:    0.00 PKD
ROOT
HETATM    1  F   UNL     1     -11.998   8.907  72.466  1.00  0.00    -0.420 F  
HETATM    2  C   UNL     1     -11.289   9.405  71.444  1.00  0.00    -0.381 A  
HETATM    3  C   UNL     1     -11.846  10.380  70.631  1.00  0.00    -0.445 A  
HETATM    4  C   UNL     1     -11.110  10.893  69.558  1.00  0.00    -0.326 A  
HETATM    5  C   UNL     1      -9.801  10.450  69.292  1.00  0.00    -0.243 A  
HETATM    6  C   UNL     1      -9.278   9.438  70.124  1.00  0.00    -0.268 A  
HETATM    7  C   UNL     1     -10.012   8.927  71.199  1.00  0.00    -0.342 A  
ENDROOT
BRANCH   5   8
HETATM    8  C   UNL     1      -9.009  10.952  68.089  1.00  0.00    -0.144 C  
HETATM    9  C   UNL     1      -9.294  10.241  66.765  1.00  0.00    -0.160 C  
HETATM   10  C   UNL     1      -9.783  11.214  65.790  1.00  0.00    -0.266 A  
HETATM   11  O   UNL     1      -9.127   9.064  66.490  1.00  0.00    -0.146 OA 
HETATM   12  C   UNL     1     -10.182  11.003  64.482  1.00  0.00    -0.406 A  
HETATM   13  C   UNL     1     -10.616  12.114  63.751  1.00  0.00    -0.482 A  
HETATM   14  C   UNL     1     -10.640  13.396  64.333  1.00  0.00    -0.423 A  
HETATM   15  C   UNL     1     -10.218  13.589  65.651  1.00  0.00    -0.306 A  
HETATM   16  C   UNL     1      -9.792  12.477  66.355  1.00  0.00    -0.260 A  
HETATM   17  C   UNL     1      -9.283  12.412  67.720  1.00  0.00    -0.193 C  
HETATM   18  O   UNL     1      -9.091  13.412  68.393  1.00  0.00    -0.189 OA 
ENDBRANCH   5   8
TORSDOF 1
ENDMDL
MODEL       52
REMARK 921   NORMALIZED FREE ENERGY PREDICTED BY IDOCK:   -5.14 KCAL/MOL
REMARK 922        TOTAL FREE ENERGY PREDICTED BY IDOCK:   -5.78 KCAL/MOL
REMARK 923 INTER-LIGAND FREE ENERGY PREDICTED BY IDOCK:   -5.55 KCAL/MOL
REMARK 924 INTRA-LIGAND FREE ENERGY PREDICTED BY IDOCK:   -0.23 KCAL/MOL
REMARK 927      BINDING AFFINITY PREDICTED BY RF-SCORE:    0.00 PKD
ROOT
HETATM    1  F   UNL     1      -9.152   7.994  68.509  1.00  0.00    -0.136 F  
HETATM    2  C   UNL     1      -9.862   9.105  68.272  1.00  0.00    -0.160 A  
HETATM    3  C   UNL     1      -9.921   9.623  66.988  1.00  0.00    -0.263 A  
HETATM    4  C   UNL     1     -10.654  10.790  66.742  1.00  0.00    -0.307 A  
HETATM    5  C   UNL     1     -11.350  11.445  67.775  1.00  0.00    -0.354 A  
HETATM    6  C   UNL     1     -11.245  10.904  69.073  1.00  0.00    -0.327 A  
HETATM    7  C   UNL     1     -10.515   9.736  69.318  1.00  0.00    -0.236 A  
ENDROOT
BRANCH   5   8
HETATM    8  C   UNL     1     -12.101  12.752  67.537  1.00  0.00    -0.213 C  
HETATM    9  C   UNL     1     -11.455  14.004  68.133  1.00  0.00    -0.309 C  
HETATM   10  C   UNL     1     -11.162  14.953  67.061  1.00  0.00    -0.344 A  
HETATM   11  O   UNL     1     -11.228  14.250  69.306  1.00  0.00    -0.255 OA 
HETATM   12  C   UNL     1     -10.559  16.195  67.145  1.00  0.00    -0.294 A  
HETATM   13  C   UNL     1     -10.389  16.914  65.956  1.00  0.00    -0.335 A  
HETATM   14  C   UNL     1     -10.821  16.384  64.725  1.00  0.00    -0.197 A  
HETATM   15  C   UNL     1     -11.441  15.134  64.665  1.00  0.00    -0.363 A  
HETATM   16  C   UNL     1     -11.600  14.442  65.852  1.00  0.00    -0.361 A  
HETATM   17  C   UNL     1     -12.231  13.143  66.063  1.00  0.00    -0.414 C  
HETATM   18  O   UNL     1     -12.794  12.538  65.165  1.00  0.00    -0.685 OA 
ENDBRANCH   5   8
TORSDOF 1
ENDMDL
MODEL       53
REMARK 921   NORMALIZED FREE ENERGY PREDICTED BY IDOCK:   -5.14 KCAL/MOL
REMARK 922        TOTAL FREE ENERGY PREDICTED BY IDOCK:   -5.78 KCAL/MOL
REMARK 923 INTER-LIGAND FREE ENERGY PREDICTED BY IDOCK:   -5.36 KCAL/MOL
REMARK 924 INTRA-LIGAND FREE ENERGY PREDICTED BY IDOCK:   -0.42 KCAL/MOL
REMARK 927      BINDING AFFINITY PREDICTED BY RF-SCORE:    0.00 PKD
ROOT
HETATM    1  F   UNL     1     -10.110   3.825  65.656  1.00  0.00    -0.171 F  
HETATM    2  C   UNL     1     -10.125   4.593  66.754  1.00  0.00    -0.213 A  
HETATM    3  C   UNL     1     -10.760   5.825  66.722  1.00  0.00    -0.369 A  
HETATM    4  C   UNL     1     -10.766   6.632  67.865  1.00  0.00    -0.341 A  
HETATM    5  C   UNL     1     -10.151   6.212  69.059  1.00  0.00    -0.213 A  
HETATM    6  C   UNL     1      -9.492   4.965  69.045  1.00  0.00    -0.205 A  
HETATM    7  C   UNL     1      -9.488   4.157  67.904  1.00  0.00    -0.219 A  
ENDROOT
BRANCH   5   8
HETATM    8  C   UNL     1     -10.094   7.106  70.294  1.00  0.00    -0.195 C  
HETATM    9  C   UNL     1     -10.077   8.612  70.020  1.00  0.00    -0.189 C  
HETATM   10  C   UNL     1     -11.237   9.231  70.658  1.00  0.00    -0.333 A  
HETATM   11  O   UNL     1      -9.242   9.257  69.409  1.00  0.00    -0.149 OA 
HETATM   12  C   UNL     1     -11.625  10.559  70.647  1.00  0.00    -0.445 A  
HETATM   13  C   UNL     1     -12.791  10.899  71.341  1.00  0.00    -0.554 A  
HETATM   14  C   UNL     1     -13.534   9.918  72.025  1.00  0.00    -0.478 A  
HETATM   15  C   UNL     1     -13.117   8.585  72.036  1.00  0.00    -0.403 A  
HETATM   16  C   UNL     1     -11.960   8.272  71.345  1.00  0.00    -0.333 A  
HETATM   17  C   UNL     1     -11.303   6.975  71.223  1.00  0.00    -0.274 C  
HETATM   18  O   UNL     1     -11.689   5.989  71.829  1.00  0.00    -0.277 OA 
ENDBRANCH   5   8
TORSDOF 1
ENDMDL
MODEL       54
REMARK 921   NORMALIZED FREE ENERGY PREDICTED BY IDOCK:   -5.10 KCAL/MOL
REMARK 922        TOTAL FREE ENERGY PREDICTED BY IDOCK:   -5.74 KCAL/MOL
REMARK 923 INTER-LIGAND FREE ENERGY PREDICTED BY IDOCK:   -5.30 KCAL/MOL
REMARK 924 INTRA-LIGAND FREE ENERGY PREDICTED BY IDOCK:   -0.45 KCAL/MOL
REMARK 927      BINDING AFFINITY PREDICTED BY RF-SCORE:    0.00 PKD
ROOT
HETATM    1  F   UNL     1     -12.407  12.820  68.161  1.00  0.00    -0.299 F  
HETATM    2  C   UNL     1     -11.811  11.708  68.612  1.00  0.00    -0.308 A  
HETATM    3  C   UNL     1     -11.879  11.389  69.959  1.00  0.00    -0.440 A  
HETATM    4  C   UNL     1     -11.247  10.234  70.432  1.00  0.00    -0.407 A  
HETATM    5  C   UNL     1     -10.552   9.373  69.561  1.00  0.00    -0.237 A  
HETATM    6  C   UNL     1     -10.482   9.745  68.203  1.00  0.00    -0.258 A  
HETATM    7  C   UNL     1     -11.115  10.898  67.729  1.00  0.00    -0.371 A  
ENDROOT
BRANCH   5   8
HETATM    8  C   UNL     1      -9.805   8.144  70.070  1.00  0.00    -0.182 C  
HETATM    9  C   UNL     1      -9.130   8.298  71.435  1.00  0.00    -0.170 C  
HETATM   10  C   UNL     1      -9.680   7.309  72.359  1.00  0.00    -0.186 A  
HETATM   11  O   UNL     1      -8.245   9.074  71.755  1.00  0.00    -0.351 OA 
HETATM   12  C   UNL     1      -9.377   7.109  73.694  1.00  0.00    -0.252 A  
HETATM   13  C   UNL     1     -10.053   6.084  74.365  1.00  0.00    -0.316 A  
HETATM   14  C   UNL     1     -11.005   5.290  73.696  1.00  0.00    -0.314 A  
HETATM   15  C   UNL     1     -11.285   5.499  72.344  1.00  0.00    -0.305 A  
HETATM   16  C   UNL     1     -10.603   6.516  71.700  1.00  0.00    -0.250 A  
HETATM   17  C   UNL     1     -10.692   6.919  70.301  1.00  0.00    -0.242 C  
HETATM   18  O   UNL     1     -11.359   6.302  69.486  1.00  0.00    -0.409 OA 
ENDBRANCH   5   8
TORSDOF 1
ENDMDL
MODEL       55
REMARK 921   NORMALIZED FREE ENERGY PREDICTED BY IDOCK:   -5.09 KCAL/MOL
REMARK 922        TOTAL FREE ENERGY PREDICTED BY IDOCK:   -5.73 KCAL/MOL
REMARK 923 INTER-LIGAND FREE ENERGY PREDICTED BY IDOCK:   -5.25 KCAL/MOL
REMARK 924 INTRA-LIGAND FREE ENERGY PREDICTED BY IDOCK:   -0.48 KCAL/MOL
REMARK 927      BINDING AFFINITY PREDICTED BY RF-SCORE:    0.00 PKD
ROOT
HETATM    1  F   UNL     1      -7.260  17.059  65.944  1.00  0.00    -0.288 F  
HETATM    2  C   UNL     1      -8.357  16.395  66.330  1.00  0.00    -0.328 A  
HETATM    3  C   UNL     1      -9.552  16.589  65.656  1.00  0.00    -0.063 A  
HETATM    4  C   UNL     1     -10.701  15.904  66.065  1.00  0.00    -0.289 A  
HETATM    5  C   UNL     1     -10.667  15.002  67.145  1.00  0.00    -0.303 A  
HETATM    6  C   UNL     1      -9.440  14.851  67.824  1.00  0.00    -0.203 A  
HETATM    7  C   UNL     1      -8.291  15.533  67.413  1.00  0.00    -0.202 A  
ENDROOT
BRANCH   5   8
HETATM    8  C   UNL     1     -11.923  14.295  67.644  1.00  0.00    -0.400 C  
HETATM    9  C   UNL     1     -11.874  12.766  67.625  1.00  0.00    -0.339 C  
HETATM   10  C   UNL     1     -12.065  12.261  68.983  1.00  0.00    -0.197 A  
HETATM   11  O   UNL     1     -11.739  12.028  66.663  1.00  0.00    -0.522 OA 
HETATM   12  C   UNL     1     -12.068  10.950  69.426  1.00  0.00    -0.362 A  
HETATM   13  C   UNL     1     -12.272  10.729  70.792  1.00  0.00    -0.480 A  
HETATM   14  C   UNL     1     -12.468  11.808  71.676  1.00  0.00    -0.122 A  
HETATM   15  C   UNL     1     -12.476  13.123  71.205  1.00  0.00    -0.378 A  
HETATM   16  C   UNL     1     -12.274  13.318  69.851  1.00  0.00    -0.313 A  
HETATM   17  C   UNL     1     -12.262  14.575  69.110  1.00  0.00    -0.199 C  
HETATM   18  O   UNL     1     -12.531  15.644  69.635  1.00  0.00    -0.264 OA 
ENDBRANCH   5   8
TORSDOF 1
ENDMDL
MODEL       56
REMARK 921   NORMALIZED FREE ENERGY PREDICTED BY IDOCK:   -5.09 KCAL/MOL
REMARK 922        TOTAL FREE ENERGY PREDICTED BY IDOCK:   -5.73 KCAL/MOL
REMARK 923 INTER-LIGAND FREE ENERGY PREDICTED BY IDOCK:   -5.29 KCAL/MOL
REMARK 924 INTRA-LIGAND FREE ENERGY PREDICTED BY IDOCK:   -0.43 KCAL/MOL
REMARK 927      BINDING AFFINITY PREDICTED BY RF-SCORE:    0.00 PKD
ROOT
HETATM    1  F   UNL     1     -13.404  11.641  71.948  1.00  0.00    -0.532 F  
HETATM    2  C   UNL     1     -13.020  10.371  71.760  1.00  0.00    -0.475 A  
HETATM    3  C   UNL     1     -11.785  10.104  71.191  1.00  0.00    -0.453 A  
HETATM    4  C   UNL     1     -11.388   8.778  70.983  1.00  0.00    -0.332 A  
HETATM    5  C   UNL     1     -12.214   7.702  71.357  1.00  0.00    -0.351 A  
HETATM    6  C   UNL     1     -13.474   8.014  71.908  1.00  0.00    -0.342 A  
HETATM    7  C   UNL     1     -13.870   9.338  72.118  1.00  0.00    -0.478 A  
ENDROOT
BRANCH   5   8
HETATM    8  C   UNL     1     -11.824   6.253  71.080  1.00  0.00    -0.234 C  
HETATM    9  C   UNL     1     -11.006   6.019  69.809  1.00  0.00    -0.401 C  
HETATM   10  C   UNL     1      -9.723   5.416  70.165  1.00  0.00    -0.252 A  
HETATM   11  O   UNL     1     -11.327   6.242  68.654  1.00  0.00    -0.337 OA 
HETATM   12  C   UNL     1      -8.673   5.062  69.337  1.00  0.00    -0.108 A  
HETATM   13  C   UNL     1      -7.540   4.498  69.933  1.00  0.00    -0.054 A  
HETATM   14  C   UNL     1      -7.481   4.299  71.326  1.00  0.00    -0.059 A  
HETATM   15  C   UNL     1      -8.559   4.650  72.142  1.00  0.00    -0.123 A  
HETATM   16  C   UNL     1      -9.669   5.205  71.532  1.00  0.00    -0.221 A  
HETATM   17  C   UNL     1     -10.922   5.629  72.148  1.00  0.00    -0.250 C  
HETATM   18  O   UNL     1     -11.162   5.446  73.330  1.00  0.00    -0.294 OA 
ENDBRANCH   5   8
TORSDOF 1
ENDMDL
MODEL       57
REMARK 921   NORMALIZED FREE ENERGY PREDICTED BY IDOCK:   -5.09 KCAL/MOL
REMARK 922        TOTAL FREE ENERGY PREDICTED BY IDOCK:   -5.72 KCAL/MOL
REMARK 923 INTER-LIGAND FREE ENERGY PREDICTED BY IDOCK:   -5.27 KCAL/MOL
REMARK 924 INTRA-LIGAND FREE ENERGY PREDICTED BY IDOCK:   -0.45 KCAL/MOL
REMARK 927      BINDING AFFINITY PREDICTED BY RF-SCORE:    0.00 PKD
ROOT
HETATM    1  F   UNL     1     -12.427  14.160  66.881  1.00  0.00    -0.460 F  
HETATM    2  C   UNL     1     -12.088  13.224  67.778  1.00  0.00    -0.237 A  
HETATM    3  C   UNL     1     -12.240  13.482  69.131  1.00  0.00    -0.236 A  
HETATM    4  C   UNL     1     -11.876  12.509  70.068  1.00  0.00    -0.363 A  
HETATM    5  C   UNL     1     -11.372  11.259  69.664  1.00  0.00    -0.359 A  
HETATM    6  C   UNL     1     -11.207  11.043  68.281  1.00  0.00    -0.340 A  
HETATM    7  C   UNL     1     -11.573  12.014  67.343  1.00  0.00    -0.388 A  
ENDROOT
BRANCH   5   8
HETATM    8  C   UNL     1     -10.912  10.211  70.674  1.00  0.00    -0.357 C  
HETATM    9  C   UNL     1     -11.832   8.999  70.836  1.00  0.00    -0.253 C  
HETATM   10  C   UNL     1     -11.091   7.784  70.501  1.00  0.00    -0.265 A  
HETATM   11  O   UNL     1     -12.991   8.978  71.215  1.00  0.00    -0.306 OA 
HETATM   12  C   UNL     1     -11.538   6.475  70.487  1.00  0.00    -0.455 A  
HETATM   13  C   UNL     1     -10.621   5.482  70.124  1.00  0.00    -0.367 A  
HETATM   14  C   UNL     1      -9.294   5.814  69.788  1.00  0.00    -0.175 A  
HETATM   15  C   UNL     1      -8.860   7.141  69.823  1.00  0.00    -0.142 A  
HETATM   16  C   UNL     1      -9.783   8.106  70.187  1.00  0.00    -0.175 A  
HETATM   17  C   UNL     1      -9.579   9.544  70.325  1.00  0.00    -0.265 C  
HETATM   18  O   UNL     1      -8.481  10.061  70.207  1.00  0.00    -0.128 OA 
ENDBRANCH   5   8
TORSDOF 1
ENDMDL
MODEL       58
REMARK 921   NORMALIZED FREE ENERGY PREDICTED BY IDOCK:   -5.07 KCAL/MOL
REMARK 922        TOTAL FREE ENERGY PREDICTED BY IDOCK:   -5.71 KCAL/MOL
REMARK 923 INTER-LIGAND FREE ENERGY PREDICTED BY IDOCK:   -5.27 KCAL/MOL
REMARK 924 INTRA-LIGAND FREE ENERGY PREDICTED BY IDOCK:   -0.43 KCAL/MOL
REMARK 927      BINDING AFFINITY PREDICTED BY RF-SCORE:    0.00 PKD
ROOT
HETATM    1  F   UNL     1     -12.180  13.067  69.045  1.00  0.00    -0.326 F  
HETATM    2  C   UNL     1     -11.968  11.957  69.764  1.00  0.00    -0.307 A  
HETATM    3  C   UNL     1     -12.765  11.689  70.866  1.00  0.00    -0.351 A  
HETATM    4  C   UNL     1     -12.538  10.536  71.625  1.00  0.00    -0.498 A  
HETATM    5  C   UNL     1     -11.519   9.627  71.282  1.00  0.00    -0.463 A  
HETATM    6  C   UNL     1     -10.712   9.947  70.171  1.00  0.00    -0.361 A  
HETATM    7  C   UNL     1     -10.941  11.098  69.411  1.00  0.00    -0.298 A  
ENDROOT
BRANCH   5   8
HETATM    8  C   UNL     1     -11.217   8.398  72.134  1.00  0.00    -0.431 C  
HETATM    9  C   UNL     1     -11.735   7.067  71.585  1.00  0.00    -0.297 C  
HETATM   10  C   UNL     1     -10.607   6.161  71.375  1.00  0.00    -0.294 A  
HETATM   11  O   UNL     1     -12.889   6.738  71.370  1.00  0.00    -0.335 OA 
HETATM   12  C   UNL     1     -10.614   4.873  70.871  1.00  0.00    -0.077 A  
HETATM   13  C   UNL     1      -9.386   4.211  70.766  1.00  0.00    -0.223 A  
HETATM   14  C   UNL     1      -8.191   4.843  71.163  1.00  0.00    -0.109 A  
HETATM   15  C   UNL     1      -8.208   6.139  71.683  1.00  0.00    -0.118 A  
HETATM   16  C   UNL     1      -9.434   6.773  71.779  1.00  0.00    -0.150 A  
HETATM   17  C   UNL     1      -9.725   8.102  72.305  1.00  0.00    -0.254 C  
HETATM   18  O   UNL     1      -8.869   8.800  72.824  1.00  0.00    -0.382 OA 
ENDBRANCH   5   8
TORSDOF 1
ENDMDL
MODEL       59
REMARK 921   NORMALIZED FREE ENERGY PREDICTED BY IDOCK:   -5.07 KCAL/MOL
REMARK 922        TOTAL FREE ENERGY PREDICTED BY IDOCK:   -5.70 KCAL/MOL
REMARK 923 INTER-LIGAND FREE ENERGY PREDICTED BY IDOCK:   -5.27 KCAL/MOL
REMARK 924 INTRA-LIGAND FREE ENERGY PREDICTED BY IDOCK:   -0.43 KCAL/MOL
REMARK 927      BINDING AFFINITY PREDICTED BY RF-SCORE:    0.00 PKD
ROOT
HETATM    1  F   UNL     1      -8.495  17.784  68.658  1.00  0.00    -0.280 F  
HETATM    2  C   UNL     1      -9.273  16.694  68.702  1.00  0.00    -0.248 A  
HETATM    3  C   UNL     1      -8.693  15.435  68.721  1.00  0.00    -0.195 A  
HETATM    4  C   UNL     1      -9.505  14.296  68.756  1.00  0.00    -0.131 A  
HETATM    5  C   UNL     1     -10.908  14.401  68.789  1.00  0.00    -0.261 A  
HETATM    6  C   UNL     1     -11.462  15.697  68.741  1.00  0.00    -0.382 A  
HETATM    7  C   UNL     1     -10.650  16.836  68.709  1.00  0.00    -0.348 A  
ENDROOT
BRANCH   5   8
HETATM    8  C   UNL     1     -11.809  13.170  68.764  1.00  0.00    -0.361 C  
HETATM    9  C   UNL     1     -11.265  11.968  67.987  1.00  0.00    -0.258 C  
HETATM   10  C   UNL     1     -11.144  10.826  68.891  1.00  0.00    -0.307 A  
HETATM   11  O   UNL     1     -10.993  11.898  66.801  1.00  0.00    -0.263 OA 
HETATM   12  C   UNL     1     -10.675   9.553  68.618  1.00  0.00    -0.218 A  
HETATM   13  C   UNL     1     -10.659   8.630  69.670  1.00  0.00    -0.219 A  
HETATM   14  C   UNL     1     -11.108   8.993  70.954  1.00  0.00    -0.343 A  
HETATM   15  C   UNL     1     -11.591  10.279  71.204  1.00  0.00    -0.385 A  
HETATM   16  C   UNL     1     -11.600  11.175  70.150  1.00  0.00    -0.410 A  
HETATM   17  C   UNL     1     -12.073  12.555  70.140  1.00  0.00    -0.292 C  
HETATM   18  O   UNL     1     -12.622  13.063  71.104  1.00  0.00    -0.371 OA 
ENDBRANCH   5   8
TORSDOF 1
ENDMDL
MODEL       60
REMARK 921   NORMALIZED FREE ENERGY PREDICTED BY IDOCK:   -5.06 KCAL/MOL
REMARK 922        TOTAL FREE ENERGY PREDICTED BY IDOCK:   -5.69 KCAL/MOL
REMARK 923 INTER-LIGAND FREE ENERGY PREDICTED BY IDOCK:   -5.24 KCAL/MOL
REMARK 924 INTRA-LIGAND FREE ENERGY PREDICTED BY IDOCK:   -0.46 KCAL/MOL
REMARK 927      BINDING AFFINITY PREDICTED BY RF-SCORE:    0.00 PKD
ROOT
HETATM    1  F   UNL     1      -7.242   9.316  65.640  1.00  0.00    -0.085 F  
HETATM    2  C   UNL     1      -8.286  10.043  66.059  1.00  0.00    -0.126 A  
HETATM    3  C   UNL     1      -8.280  10.584  67.335  1.00  0.00    -0.118 A  
HETATM    4  C   UNL     1      -9.374  11.335  67.776  1.00  0.00    -0.163 A  
HETATM    5  C   UNL     1     -10.483  11.569  66.941  1.00  0.00    -0.270 A  
HETATM    6  C   UNL     1     -10.466  10.980  65.660  1.00  0.00    -0.293 A  
HETATM    7  C   UNL     1      -9.370  10.232  65.218  1.00  0.00    -0.267 A  
ENDROOT
BRANCH   5   8
HETATM    8  C   UNL     1     -11.712  12.331  67.429  1.00  0.00    -0.405 C  
HETATM    9  C   UNL     1     -12.145  12.038  68.867  1.00  0.00    -0.145 C  
HETATM   10  C   UNL     1     -12.107  13.275  69.643  1.00  0.00    -0.331 A  
HETATM   11  O   UNL     1     -12.511  10.976  69.342  1.00  0.00    -0.355 OA 
HETATM   12  C   UNL     1     -12.395  13.465  70.983  1.00  0.00    -0.401 A  
HETATM   13  C   UNL     1     -12.279  14.763  71.493  1.00  0.00    -0.407 A  
HETATM   14  C   UNL     1     -11.884  15.831  70.663  1.00  0.00    -0.415 A  
HETATM   15  C   UNL     1     -11.613  15.619  69.310  1.00  0.00    -0.375 A  
HETATM   16  C   UNL     1     -11.735  14.329  68.827  1.00  0.00    -0.378 A  
HETATM   17  C   UNL     1     -11.537  13.851  67.463  1.00  0.00    -0.360 C  
HETATM   18  O   UNL     1     -11.309  14.608  66.533  1.00  0.00    -0.341 OA 
ENDBRANCH   5   8
TORSDOF 1
ENDMDL
MODEL       61
REMARK 921   NORMALIZED FREE ENERGY PREDICTED BY IDOCK:   -5.01 KCAL/MOL
REMARK 922        TOTAL FREE ENERGY PREDICTED BY IDOCK:   -5.64 KCAL/MOL
REMARK 923 INTER-LIGAND FREE ENERGY PREDICTED BY IDOCK:   -5.21 KCAL/MOL
REMARK 924 INTRA-LIGAND FREE ENERGY PREDICTED BY IDOCK:   -0.43 KCAL/MOL
REMARK 927      BINDING AFFINITY PREDICTED BY RF-SCORE:    0.00 PKD
ROOT
HETATM    1  F   UNL     1     -11.351  11.811  66.909  1.00  0.00    -0.320 F  
HETATM    2  C   UNL     1     -11.239  11.196  68.094  1.00  0.00    -0.292 A  
HETATM    3  C   UNL     1     -10.389  10.109  68.228  1.00  0.00    -0.215 A  
HETATM    4  C   UNL     1     -10.280   9.461  69.463  1.00  0.00    -0.219 A  
HETATM    5  C   UNL     1     -11.007   9.901  70.585  1.00  0.00    -0.405 A  
HETATM    6  C   UNL     1     -11.881  10.992  70.404  1.00  0.00    -0.460 A  
HETATM    7  C   UNL     1     -11.988  11.643  69.170  1.00  0.00    -0.378 A  
ENDROOT
BRANCH   5   8
HETATM    8  C   UNL     1     -10.948   9.167  71.921  1.00  0.00    -0.372 C  
HETATM    9  C   UNL     1     -11.912   7.988  72.072  1.00  0.00    -0.327 C  
HETATM   10  C   UNL     1     -11.146   6.769  72.322  1.00  0.00    -0.286 A  
HETATM   11  O   UNL     1     -13.131   8.002  72.037  1.00  0.00    -0.313 OA 
HETATM   12  C   UNL     1     -11.609   5.476  72.495  1.00  0.00    -0.272 A  
HETATM   13  C   UNL     1     -10.660   4.473  72.721  1.00  0.00    -0.263 A  
HETATM   14  C   UNL     1      -9.286   4.779  72.772  1.00  0.00    -0.146 A  
HETATM   15  C   UNL     1      -8.842   6.093  72.610  1.00  0.00    -0.123 A  
HETATM   16  C   UNL     1      -9.797   7.068  72.389  1.00  0.00    -0.172 A  
HETATM   17  C   UNL     1      -9.600   8.504  72.216  1.00  0.00    -0.307 C  
HETATM   18  O   UNL     1      -8.507   9.032  72.342  1.00  0.00    -0.344 OA 
ENDBRANCH   5   8
TORSDOF 1
ENDMDL
MODEL       62
REMARK 921   NORMALIZED FREE ENERGY PREDICTED BY IDOCK:   -4.99 KCAL/MOL
REMARK 922        TOTAL FREE ENERGY PREDICTED BY IDOCK:   -5.62 KCAL/MOL
REMARK 923 INTER-LIGAND FREE ENERGY PREDICTED BY IDOCK:   -5.20 KCAL/MOL
REMARK 924 INTRA-LIGAND FREE ENERGY PREDICTED BY IDOCK:   -0.43 KCAL/MOL
REMARK 927      BINDING AFFINITY PREDICTED BY RF-SCORE:    0.00 PKD
ROOT
HETATM    1  F   UNL     1     -12.585  13.656  65.968  1.00  0.00    -0.456 F  
HETATM    2  C   UNL     1     -11.872  12.617  66.421  1.00  0.00    -0.402 A  
HETATM    3  C   UNL     1     -11.128  11.854  65.534  1.00  0.00    -0.356 A  
HETATM    4  C   UNL     1     -10.391  10.763  66.005  1.00  0.00    -0.300 A  
HETATM    5  C   UNL     1     -10.374  10.429  67.372  1.00  0.00    -0.275 A  
HETATM    6  C   UNL     1     -11.164  11.211  68.240  1.00  0.00    -0.343 A  
HETATM    7  C   UNL     1     -11.899  12.304  67.770  1.00  0.00    -0.341 A  
ENDROOT
BRANCH   5   8
HETATM    8  C   UNL     1      -9.628   9.204  67.893  1.00  0.00    -0.168 C  
HETATM    9  C   UNL     1      -9.179   9.275  69.355  1.00  0.00    -0.159 C  
HETATM   10  C   UNL     1      -9.791   8.178  70.100  1.00  0.00    -0.184 A  
HETATM   11  O   UNL     1      -8.408  10.069  69.868  1.00  0.00    -0.181 OA 
HETATM   12  C   UNL     1      -9.679   7.878  71.447  1.00  0.00    -0.199 A  
HETATM   13  C   UNL     1     -10.375   6.761  71.921  1.00  0.00    -0.217 A  
HETATM   14  C   UNL     1     -11.157   5.976  71.052  1.00  0.00    -0.348 A  
HETATM   15  C   UNL     1     -11.244   6.288  69.693  1.00  0.00    -0.506 A  
HETATM   16  C   UNL     1     -10.547   7.395  69.246  1.00  0.00    -0.220 A  
HETATM   17  C   UNL     1     -10.452   7.914  67.886  1.00  0.00    -0.198 C  
HETATM   18  O   UNL     1     -10.943   7.335  66.931  1.00  0.00    -0.343 OA 
ENDBRANCH   5   8
TORSDOF 1
ENDMDL
MODEL       63
REMARK 921   NORMALIZED FREE ENERGY PREDICTED BY IDOCK:   -4.99 KCAL/MOL
REMARK 922        TOTAL FREE ENERGY PREDICTED BY IDOCK:   -5.62 KCAL/MOL
REMARK 923 INTER-LIGAND FREE ENERGY PREDICTED BY IDOCK:   -5.26 KCAL/MOL
REMARK 924 INTRA-LIGAND FREE ENERGY PREDICTED BY IDOCK:   -0.35 KCAL/MOL
REMARK 927      BINDING AFFINITY PREDICTED BY RF-SCORE:    0.00 PKD
ROOT
HETATM    1  F   UNL     1     -14.156  13.512  72.170  1.00  0.00    -0.510 F  
HETATM    2  C   UNL     1     -13.251  12.726  71.573  1.00  0.00    -0.239 A  
HETATM    3  C   UNL     1     -13.170  11.386  71.917  1.00  0.00    -0.485 A  
HETATM    4  C   UNL     1     -12.218  10.566  71.301  1.00  0.00    -0.472 A  
HETATM    5  C   UNL     1     -11.345  11.072  70.320  1.00  0.00    -0.291 A  
HETATM    6  C   UNL     1     -11.439  12.446  70.015  1.00  0.00    -0.110 A  
HETATM    7  C   UNL     1     -12.393  13.265  70.629  1.00  0.00    -0.416 A  
ENDROOT
BRANCH   5   8
HETATM    8  C   UNL     1     -10.260  10.208  69.685  1.00  0.00    -0.272 C  
HETATM    9  C   UNL     1      -9.884   8.943  70.458  1.00  0.00    -0.200 C  
HETATM   10  C   UNL     1     -10.132   7.773  69.618  1.00  0.00    -0.196 A  
HETATM   11  O   UNL     1      -9.414   8.857  71.580  1.00  0.00    -0.273 OA 
HETATM   12  C   UNL     1      -9.957   6.435  69.924  1.00  0.00    -0.198 A  
HETATM   13  C   UNL     1     -10.274   5.498  68.935  1.00  0.00    -0.284 A  
HETATM   14  C   UNL     1     -10.751   5.912  67.676  1.00  0.00    -0.352 A  
HETATM   15  C   UNL     1     -10.906   7.269  67.383  1.00  0.00    -0.317 A  
HETATM   16  C   UNL     1     -10.586   8.177  68.375  1.00  0.00    -0.148 A  
HETATM   17  C   UNL     1     -10.634   9.634  68.316  1.00  0.00    -0.225 C  
HETATM   18  O   UNL     1     -10.898  10.237  67.288  1.00  0.00    -0.277 OA 
ENDBRANCH   5   8
TORSDOF 1
ENDMDL
MODEL       64
REMARK 921   NORMALIZED FREE ENERGY PREDICTED BY IDOCK:   -4.99 KCAL/MOL
REMARK 922        TOTAL FREE ENERGY PREDICTED BY IDOCK:   -5.62 KCAL/MOL
REMARK 923 INTER-LIGAND FREE ENERGY PREDICTED BY IDOCK:   -5.14 KCAL/MOL
REMARK 924 INTRA-LIGAND FREE ENERGY PREDICTED BY IDOCK:   -0.47 KCAL/MOL
REMARK 927      BINDING AFFINITY PREDICTED BY RF-SCORE:    0.00 PKD
ROOT
HETATM    1  F   UNL     1     -10.793  17.053  70.342  1.00  0.00    -0.230 F  
HETATM    2  C   UNL     1     -10.964  15.819  69.850  1.00  0.00    -0.333 A  
HETATM    3  C   UNL     1      -9.918  15.189  69.194  1.00  0.00    -0.238 A  
HETATM    4  C   UNL     1     -10.099  13.904  68.671  1.00  0.00    -0.203 A  
HETATM    5  C   UNL     1     -11.325  13.226  68.810  1.00  0.00    -0.331 A  
HETATM    6  C   UNL     1     -12.374  13.909  69.459  1.00  0.00    -0.275 A  
HETATM    7  C   UNL     1     -12.192  15.192  69.986  1.00  0.00    -0.379 A  
ENDROOT
BRANCH   5   8
HETATM    8  C   UNL     1     -11.560  11.851  68.190  1.00  0.00    -0.400 C  
HETATM    9  C   UNL     1     -11.514  11.799  66.662  1.00  0.00    -0.267 C  
HETATM   10  C   UNL     1     -10.458  10.879  66.243  1.00  0.00    -0.304 A  
HETATM   11  O   UNL     1     -12.237  12.374  65.866  1.00  0.00    -0.629 OA 
HETATM   12  C   UNL     1     -10.055  10.551  64.961  1.00  0.00    -0.390 A  
HETATM   13  C   UNL     1      -9.006   9.635  64.826  1.00  0.00    -0.268 A  
HETATM   14  C   UNL     1      -8.390   9.073  65.961  1.00  0.00    -0.126 A  
HETATM   15  C   UNL     1      -8.822   9.408  67.246  1.00  0.00    -0.136 A  
HETATM   16  C   UNL     1      -9.862  10.313  67.356  1.00  0.00    -0.214 A  
HETATM   17  C   UNL     1     -10.510  10.804  68.567  1.00  0.00    -0.187 C  
HETATM   18  O   UNL     1     -10.235  10.370  69.675  1.00  0.00    -0.232 OA 
ENDBRANCH   5   8
TORSDOF 1
ENDMDL
MODEL       65
REMARK 921   NORMALIZED FREE ENERGY PREDICTED BY IDOCK:   -4.97 KCAL/MOL
REMARK 922        TOTAL FREE ENERGY PREDICTED BY IDOCK:   -5.60 KCAL/MOL
REMARK 923 INTER-LIGAND FREE ENERGY PREDICTED BY IDOCK:   -5.14 KCAL/MOL
REMARK 924 INTRA-LIGAND FREE ENERGY PREDICTED BY IDOCK:   -0.47 KCAL/MOL
REMARK 927      BINDING AFFINITY PREDICTED BY RF-SCORE:    0.00 PKD
ROOT
HETATM    1  F   UNL     1      -8.583  16.097  66.064  1.00  0.00    -0.338 F  
HETATM    2  C   UNL     1      -9.269  15.048  66.535  1.00  0.00    -0.290 A  
HETATM    3  C   UNL     1      -8.601  14.030  67.199  1.00  0.00    -0.220 A  
HETATM    4  C   UNL     1      -9.315  12.929  67.682  1.00  0.00    -0.195 A  
HETATM    5  C   UNL     1     -10.711  12.838  67.522  1.00  0.00    -0.247 A  
HETATM    6  C   UNL     1     -11.352  13.878  66.818  1.00  0.00    -0.347 A  
HETATM    7  C   UNL     1     -10.638  14.980  66.338  1.00  0.00    -0.310 A  
ENDROOT
BRANCH   5   8
HETATM    8  C   UNL     1     -11.496  11.614  67.985  1.00  0.00    -0.385 C  
HETATM    9  C   UNL     1     -10.868  10.259  67.653  1.00  0.00    -0.307 C  
HETATM   10  C   UNL     1     -10.619   9.527  68.893  1.00  0.00    -0.239 A  
HETATM   11  O   UNL     1     -10.624   9.791  66.554  1.00  0.00    -0.175 OA 
HETATM   12  C   UNL     1     -10.044   8.280  69.061  1.00  0.00    -0.208 A  
HETATM   13  C   UNL     1      -9.914   7.797  70.368  1.00  0.00    -0.188 A  
HETATM   14  C   UNL     1     -10.358   8.560  71.466  1.00  0.00    -0.321 A  
HETATM   15  C   UNL     1     -10.949   9.811  71.273  1.00  0.00    -0.331 A  
HETATM   16  C   UNL     1     -11.068  10.267  69.973  1.00  0.00    -0.373 A  
HETATM   17  C   UNL     1     -11.665  11.513  69.503  1.00  0.00    -0.346 C  
HETATM   18  O   UNL     1     -12.231  12.289  70.256  1.00  0.00    -0.319 OA 
ENDBRANCH   5   8
TORSDOF 1
ENDMDL
MODEL       66
REMARK 921   NORMALIZED FREE ENERGY PREDICTED BY IDOCK:   -4.97 KCAL/MOL
REMARK 922        TOTAL FREE ENERGY PREDICTED BY IDOCK:   -5.60 KCAL/MOL
REMARK 923 INTER-LIGAND FREE ENERGY PREDICTED BY IDOCK:   -5.13 KCAL/MOL
REMARK 924 INTRA-LIGAND FREE ENERGY PREDICTED BY IDOCK:   -0.47 KCAL/MOL
REMARK 927      BINDING AFFINITY PREDICTED BY RF-SCORE:    0.00 PKD
ROOT
HETATM    1  F   UNL     1      -9.964  20.883  67.985  1.00  0.00    -0.448 F  
HETATM    2  C   UNL     1     -10.010  19.546  67.911  1.00  0.00    -0.395 A  
HETATM    3  C   UNL     1     -10.385  18.936  66.724  1.00  0.00    -0.477 A  
HETATM    4  C   UNL     1     -10.443  17.540  66.649  1.00  0.00    -0.270 A  
HETATM    5  C   UNL     1     -10.112  16.735  67.755  1.00  0.00    -0.281 A  
HETATM    6  C   UNL     1      -9.762  17.392  68.953  1.00  0.00    -0.251 A  
HETATM    7  C   UNL     1      -9.701  18.787  69.027  1.00  0.00    -0.328 A  
ENDROOT
BRANCH   5   8
HETATM    8  C   UNL     1     -10.232  15.215  67.710  1.00  0.00    -0.236 C  
HETATM    9  C   UNL     1     -11.646  14.668  67.503  1.00  0.00    -0.375 C  
HETATM   10  C   UNL     1     -11.680  13.869  66.281  1.00  0.00    -0.402 A  
HETATM   11  O   UNL     1     -12.621  14.808  68.223  1.00  0.00     0.159 OA 
HETATM   12  C   UNL     1     -12.754  13.213  65.705  1.00  0.00    -0.299 A  
HETATM   13  C   UNL     1     -12.522  12.510  64.517  1.00  0.00    -0.539 A  
HETATM   14  C   UNL     1     -11.239  12.476  63.938  1.00  0.00    -0.496 A  
HETATM   15  C   UNL     1     -10.165  13.133  64.544  1.00  0.00    -0.333 A  
HETATM   16  C   UNL     1     -10.417  13.820  65.718  1.00  0.00    -0.303 A  
HETATM   17  C   UNL     1      -9.475  14.559  66.553  1.00  0.00    -0.289 C  
HETATM   18  O   UNL     1      -8.276  14.573  66.327  1.00  0.00     0.437 OA 
ENDBRANCH   5   8
TORSDOF 1
ENDMDL
MODEL       67
REMARK 921   NORMALIZED FREE ENERGY PREDICTED BY IDOCK:   -4.97 KCAL/MOL
REMARK 922        TOTAL FREE ENERGY PREDICTED BY IDOCK:   -5.60 KCAL/MOL
REMARK 923 INTER-LIGAND FREE ENERGY PREDICTED BY IDOCK:   -5.12 KCAL/MOL
REMARK 924 INTRA-LIGAND FREE ENERGY PREDICTED BY IDOCK:   -0.48 KCAL/MOL
REMARK 927      BINDING AFFINITY PREDICTED BY RF-SCORE:    0.00 PKD
ROOT
HETATM    1  F   UNL     1      -9.929  20.354  68.380  1.00  0.00    -0.459 F  
HETATM    2  C   UNL     1      -9.838  19.093  67.937  1.00  0.00    -0.341 A  
HETATM    3  C   UNL     1      -9.343  18.844  66.667  1.00  0.00    -0.348 A  
HETATM    4  C   UNL     1      -9.257  17.529  66.200  1.00  0.00    -0.162 A  
HETATM    5  C   UNL     1      -9.650  16.442  67.004  1.00  0.00    -0.244 A  
HETATM    6  C   UNL     1     -10.174  16.736  68.279  1.00  0.00    -0.295 A  
HETATM    7  C   UNL     1     -10.256  18.051  68.748  1.00  0.00    -0.362 A  
ENDROOT
BRANCH   5   8
HETATM    8  C   UNL     1      -9.623  15.007  66.487  1.00  0.00    -0.299 C  
HETATM    9  C   UNL     1      -8.685  14.053  67.230  1.00  0.00    -0.218 C  
HETATM   10  C   UNL     1      -9.464  12.949  67.788  1.00  0.00    -0.202 A  
HETATM   11  O   UNL     1      -7.473  14.124  67.344  1.00  0.00    -0.175 OA 
HETATM   12  C   UNL     1      -9.026  11.880  68.551  1.00  0.00    -0.115 A  
HETATM   13  C   UNL     1      -9.983  10.949  68.969  1.00  0.00    -0.206 A  
HETATM   14  C   UNL     1     -11.339  11.102  68.619  1.00  0.00    -0.342 A  
HETATM   15  C   UNL     1     -11.757  12.181  67.836  1.00  0.00    -0.403 A  
HETATM   16  C   UNL     1     -10.794  13.088  67.433  1.00  0.00    -0.269 A  
HETATM   17  C   UNL     1     -10.962  14.273  66.598  1.00  0.00    -0.310 C  
HETATM   18  O   UNL     1     -12.025  14.551  66.068  1.00  0.00    -0.370 OA 
ENDBRANCH   5   8
TORSDOF 1
ENDMDL
MODEL       68
REMARK 921   NORMALIZED FREE ENERGY PREDICTED BY IDOCK:   -4.96 KCAL/MOL
REMARK 922        TOTAL FREE ENERGY PREDICTED BY IDOCK:   -5.58 KCAL/MOL
REMARK 923 INTER-LIGAND FREE ENERGY PREDICTED BY IDOCK:   -5.28 KCAL/MOL
REMARK 924 INTRA-LIGAND FREE ENERGY PREDICTED BY IDOCK:   -0.30 KCAL/MOL
REMARK 927      BINDING AFFINITY PREDICTED BY RF-SCORE:    0.00 PKD
ROOT
HETATM    1  F   UNL     1     -13.283  14.854  73.297  1.00  0.00    -0.503 F  
HETATM    2  C   UNL     1     -12.628  14.933  72.132  1.00  0.00    -0.327 A  
HETATM    3  C   UNL     1     -11.995  16.114  71.777  1.00  0.00    -0.560 A  
HETATM    4  C   UNL     1     -11.319  16.201  70.555  1.00  0.00    -0.392 A  
HETATM    5  C   UNL     1     -11.254  15.102  69.678  1.00  0.00    -0.288 A  
HETATM    6  C   UNL     1     -11.933  13.926  70.060  1.00  0.00    -0.404 A  
HETATM    7  C   UNL     1     -12.606  13.839  71.283  1.00  0.00    -0.444 A  
ENDROOT
BRANCH   5   8
HETATM    8  C   UNL     1     -10.577  15.199  68.314  1.00  0.00    -0.243 C  
HETATM    9  C   UNL     1     -10.246  16.616  67.839  1.00  0.00    -0.284 C  
HETATM   10  C   UNL     1      -8.805  16.728  67.628  1.00  0.00    -0.207 A  
HETATM   11  O   UNL     1     -11.016  17.535  67.617  1.00  0.00    -0.294 OA 
HETATM   12  C   UNL     1      -8.073  17.832  67.226  1.00  0.00    -0.223 A  
HETATM   13  C   UNL     1      -6.687  17.679  67.100  1.00  0.00    -0.192 A  
HETATM   14  C   UNL     1      -6.071  16.443  67.374  1.00  0.00    -0.199 A  
HETATM   15  C   UNL     1      -6.830  15.337  67.765  1.00  0.00    -0.189 A  
HETATM   16  C   UNL     1      -8.198  15.511  67.881  1.00  0.00    -0.149 A  
HETATM   17  C   UNL     1      -9.207  14.521  68.243  1.00  0.00    -0.201 C  
HETATM   18  O   UNL     1      -8.935  13.343  68.408  1.00  0.00    -0.184 OA 
ENDBRANCH   5   8
TORSDOF 1
ENDMDL
MODEL       69
REMARK 921   NORMALIZED FREE ENERGY PREDICTED BY IDOCK:   -4.92 KCAL/MOL
REMARK 922        TOTAL FREE ENERGY PREDICTED BY IDOCK:   -5.55 KCAL/MOL
REMARK 923 INTER-LIGAND FREE ENERGY PREDICTED BY IDOCK:   -5.09 KCAL/MOL
REMARK 924 INTRA-LIGAND FREE ENERGY PREDICTED BY IDOCK:   -0.46 KCAL/MOL
REMARK 927      BINDING AFFINITY PREDICTED BY RF-SCORE:    0.00 PKD
ROOT
HETATM    1  F   UNL     1     -13.430  11.753  72.230  1.00  0.00    -0.604 F  
HETATM    2  C   UNL     1     -12.772  12.067  71.106  1.00  0.00    -0.266 A  
HETATM    3  C   UNL     1     -12.241  11.059  70.316  1.00  0.00    -0.447 A  
HETATM    4  C   UNL     1     -11.545  11.386  69.147  1.00  0.00    -0.381 A  
HETATM    5  C   UNL     1     -11.385  12.726  68.744  1.00  0.00    -0.332 A  
HETATM    6  C   UNL     1     -11.916  13.724  69.587  1.00  0.00    -0.399 A  
HETATM    7  C   UNL     1     -12.614  13.397  70.754  1.00  0.00    -0.369 A  
ENDROOT
BRANCH   5   8
HETATM    8  C   UNL     1     -10.575  13.103  67.507  1.00  0.00    -0.240 C  
HETATM    9  C   UNL     1     -11.388  13.601  66.311  1.00  0.00    -0.312 C  
HETATM   10  C   UNL     1     -10.964  14.958  65.972  1.00  0.00    -0.334 A  
HETATM   11  O   UNL     1     -12.238  13.002  65.675  1.00  0.00    -0.429 OA 
HETATM   12  C   UNL     1     -11.446  15.793  64.979  1.00  0.00    -0.122 A  
HETATM   13  C   UNL     1     -10.866  17.061  64.861  1.00  0.00     0.085 A  
HETATM   14  C   UNL     1      -9.828  17.462  65.724  1.00  0.00    -0.028 A  
HETATM   15  C   UNL     1      -9.346  16.597  66.710  1.00  0.00    -0.262 A  
HETATM   16  C   UNL     1      -9.933  15.349  66.808  1.00  0.00    -0.256 A  
HETATM   17  C   UNL     1      -9.600  14.263  67.724  1.00  0.00    -0.221 C  
HETATM   18  O   UNL     1      -8.652  14.323  68.489  1.00  0.00    -0.173 OA 
ENDBRANCH   5   8
TORSDOF 1
ENDMDL
MODEL       70
REMARK 921   NORMALIZED FREE ENERGY PREDICTED BY IDOCK:   -4.91 KCAL/MOL
REMARK 922        TOTAL FREE ENERGY PREDICTED BY IDOCK:   -5.54 KCAL/MOL
REMARK 923 INTER-LIGAND FREE ENERGY PREDICTED BY IDOCK:   -5.07 KCAL/MOL
REMARK 924 INTRA-LIGAND FREE ENERGY PREDICTED BY IDOCK:   -0.47 KCAL/MOL
REMARK 927      BINDING AFFINITY PREDICTED BY RF-SCORE:    0.00 PKD
ROOT
HETATM    1  F   UNL     1     -12.625  14.867  63.852  1.00  0.00    -0.459 F  
HETATM    2  C   UNL     1     -11.889  13.976  64.529  1.00  0.00    -0.434 A  
HETATM    3  C   UNL     1     -11.740  12.690  64.035  1.00  0.00    -0.496 A  
HETATM    4  C   UNL     1     -10.980  11.755  64.746  1.00  0.00    -0.360 A  
HETATM    5  C   UNL     1     -10.345  12.100  65.954  1.00  0.00    -0.286 A  
HETATM    6  C   UNL     1     -10.541  13.409  66.439  1.00  0.00    -0.285 A  
HETATM    7  C   UNL     1     -11.298  14.344  65.727  1.00  0.00    -0.330 A  
ENDROOT
BRANCH   5   8
HETATM    8  C   UNL     1      -9.566  11.076  66.775  1.00  0.00    -0.216 C  
HETATM    9  C   UNL     1     -10.412  10.034  67.510  1.00  0.00    -0.254 C  
HETATM   10  C   UNL     1     -10.042   8.699  67.046  1.00  0.00    -0.342 A  
HETATM   11  O   UNL     1     -11.249  10.219  68.378  1.00  0.00    -0.265 OA 
HETATM   12  C   UNL     1     -10.568   7.475  67.422  1.00  0.00    -0.364 A  
HETATM   13  C   UNL     1     -10.036   6.329  66.822  1.00  0.00    -0.220 A  
HETATM   14  C   UNL     1      -9.001   6.428  65.871  1.00  0.00    -0.111 A  
HETATM   15  C   UNL     1      -8.475   7.672  65.516  1.00  0.00    -0.132 A  
HETATM   16  C   UNL     1      -9.015   8.792  66.123  1.00  0.00    -0.225 A  
HETATM   17  C   UNL     1      -8.631  10.188  65.949  1.00  0.00    -0.147 C  
HETATM   18  O   UNL     1      -7.675  10.522  65.268  1.00  0.00    -0.145 OA 
ENDBRANCH   5   8
TORSDOF 1
ENDMDL
MODEL       71
REMARK 921   NORMALIZED FREE ENERGY PREDICTED BY IDOCK:   -4.91 KCAL/MOL
REMARK 922        TOTAL FREE ENERGY PREDICTED BY IDOCK:   -5.53 KCAL/MOL
REMARK 923 INTER-LIGAND FREE ENERGY PREDICTED BY IDOCK:   -5.42 KCAL/MOL
REMARK 924 INTRA-LIGAND FREE ENERGY PREDICTED BY IDOCK:   -0.11 KCAL/MOL
REMARK 927      BINDING AFFINITY PREDICTED BY RF-SCORE:    0.00 PKD
ROOT
HETATM    1  F   UNL     1      -6.644  20.291  70.131  1.00  0.00    -0.383 F  
HETATM    2  C   UNL     1      -7.023  19.317  69.293  1.00  0.00    -0.314 A  
HETATM    3  C   UNL     1      -6.132  18.308  68.962  1.00  0.00    -0.228 A  
HETATM    4  C   UNL     1      -6.525  17.297  68.078  1.00  0.00    -0.157 A  
HETATM    5  C   UNL     1      -7.819  17.272  67.526  1.00  0.00    -0.194 A  
HETATM    6  C   UNL     1      -8.689  18.330  67.865  1.00  0.00    -0.274 A  
HETATM    7  C   UNL     1      -8.298  19.339  68.750  1.00  0.00    -0.386 A  
ENDROOT
BRANCH   5   8
HETATM    8  C   UNL     1      -8.243  16.213  66.513  1.00  0.00    -0.343 C  
HETATM    9  C   UNL     1      -8.249  14.771  67.026  1.00  0.00    -0.179 C  
HETATM   10  C   UNL     1      -9.598  14.223  66.904  1.00  0.00    -0.268 A  
HETATM   11  O   UNL     1      -7.310  14.116  67.445  1.00  0.00    -0.180 OA 
HETATM   12  C   UNL     1     -10.059  12.970  67.269  1.00  0.00    -0.235 A  
HETATM   13  C   UNL     1     -11.412  12.688  67.048  1.00  0.00    -0.406 A  
HETATM   14  C   UNL     1     -12.264  13.651  66.473  1.00  0.00    -0.454 A  
HETATM   15  C   UNL     1     -11.774  14.904  66.098  1.00  0.00    -0.178 A  
HETATM   16  C   UNL     1     -10.434  15.161  66.324  1.00  0.00    -0.312 A  
HETATM   17  C   UNL     1      -9.678  16.367  66.005  1.00  0.00    -0.326 C  
HETATM   18  O   UNL     1     -10.168  17.299  65.388  1.00  0.00    -0.604 OA 
ENDBRANCH   5   8
TORSDOF 1
ENDMDL
MODEL       72
REMARK 921   NORMALIZED FREE ENERGY PREDICTED BY IDOCK:   -4.89 KCAL/MOL
REMARK 922        TOTAL FREE ENERGY PREDICTED BY IDOCK:   -5.52 KCAL/MOL
REMARK 923 INTER-LIGAND FREE ENERGY PREDICTED BY IDOCK:   -5.04 KCAL/MOL
REMARK 924 INTRA-LIGAND FREE ENERGY PREDICTED BY IDOCK:   -0.47 KCAL/MOL
REMARK 927      BINDING AFFINITY PREDICTED BY RF-SCORE:    0.00 PKD
ROOT
HETATM    1  F   UNL     1      -5.631  11.200  70.307  1.00  0.00    -0.067 F  
HETATM    2  C   UNL     1      -6.765  11.088  69.603  1.00  0.00    -0.137 A  
HETATM    3  C   UNL     1      -7.067  12.029  68.631  1.00  0.00    -0.103 A  
HETATM    4  C   UNL     1      -8.257  11.919  67.903  1.00  0.00    -0.150 A  
HETATM    5  C   UNL     1      -9.153  10.857  68.126  1.00  0.00    -0.155 A  
HETATM    6  C   UNL     1      -8.825   9.935  69.142  1.00  0.00    -0.165 A  
HETATM    7  C   UNL     1      -7.635  10.043  69.867  1.00  0.00    -0.177 A  
ENDROOT
BRANCH   5   8
HETATM    8  C   UNL     1     -10.484  10.758  67.386  1.00  0.00    -0.268 C  
HETATM    9  C   UNL     1     -11.378  11.997  67.462  1.00  0.00    -0.319 C  
HETATM   10  C   UNL     1     -11.622  12.498  66.112  1.00  0.00    -0.448 A  
HETATM   11  O   UNL     1     -11.870  12.512  68.452  1.00  0.00    -0.316 OA 
HETATM   12  C   UNL     1     -12.352  13.606  65.718  1.00  0.00    -0.524 A  
HETATM   13  C   UNL     1     -12.433  13.875  64.348  1.00  0.00    -0.321 A  
HETATM   14  C   UNL     1     -11.793  13.042  63.411  1.00  0.00    -0.543 A  
HETATM   15  C   UNL     1     -11.073  11.920  63.828  1.00  0.00    -0.510 A  
HETATM   16  C   UNL     1     -11.008  11.672  65.187  1.00  0.00    -0.326 A  
HETATM   17  C   UNL     1     -10.350  10.565  65.874  1.00  0.00    -0.206 C  
HETATM   18  O   UNL     1      -9.829   9.641  65.271  1.00  0.00    -0.310 OA 
ENDBRANCH   5   8
TORSDOF 1
ENDMDL
MODEL       73
REMARK 921   NORMALIZED FREE ENERGY PREDICTED BY IDOCK:   -4.82 KCAL/MOL
REMARK 922        TOTAL FREE ENERGY PREDICTED BY IDOCK:   -5.44 KCAL/MOL
REMARK 923 INTER-LIGAND FREE ENERGY PREDICTED BY IDOCK:   -5.00 KCAL/MOL
REMARK 924 INTRA-LIGAND FREE ENERGY PREDICTED BY IDOCK:   -0.45 KCAL/MOL
REMARK 927      BINDING AFFINITY PREDICTED BY RF-SCORE:    0.00 PKD
ROOT
HETATM    1  F   UNL     1     -10.080  17.719  65.892  1.00  0.00    -0.310 F  
HETATM    2  C   UNL     1     -10.014  16.385  65.996  1.00  0.00    -0.345 A  
HETATM    3  C   UNL     1     -10.692  15.590  65.085  1.00  0.00    -0.460 A  
HETATM    4  C   UNL     1     -10.632  14.197  65.199  1.00  0.00    -0.414 A  
HETATM    5  C   UNL     1      -9.880  13.580  66.216  1.00  0.00    -0.306 A  
HETATM    6  C   UNL     1      -9.227  14.421  67.140  1.00  0.00    -0.230 A  
HETATM    7  C   UNL     1      -9.284  15.814  67.024  1.00  0.00    -0.233 A  
ENDROOT
BRANCH   5   8
HETATM    8  C   UNL     1      -9.856  12.065  66.393  1.00  0.00    -0.238 C  
HETATM    9  C   UNL     1      -8.570  11.488  66.988  1.00  0.00    -0.161 C  
HETATM   10  C   UNL     1      -8.886  10.787  68.230  1.00  0.00    -0.139 A  
HETATM   11  O   UNL     1      -7.440  11.538  66.532  1.00  0.00    -0.115 OA 
HETATM   12  C   UNL     1      -8.027  10.142  69.103  1.00  0.00    -0.124 A  
HETATM   13  C   UNL     1      -8.585   9.543  70.237  1.00  0.00    -0.258 A  
HETATM   14  C   UNL     1      -9.973   9.599  70.472  1.00  0.00    -0.318 A  
HETATM   15  C   UNL     1     -10.824  10.242  69.571  1.00  0.00    -0.292 A  
HETATM   16  C   UNL     1     -10.250  10.826  68.456  1.00  0.00    -0.192 A  
HETATM   17  C   UNL     1     -10.912  11.528  67.362  1.00  0.00    -0.265 C  
HETATM   18  O   UNL     1     -12.128  11.600  67.274  1.00  0.00    -0.595 OA 
ENDBRANCH   5   8
TORSDOF 1
ENDMDL
MODEL       74
REMARK 921   NORMALIZED FREE ENERGY PREDICTED BY IDOCK:   -4.77 KCAL/MOL
REMARK 922        TOTAL FREE ENERGY PREDICTED BY IDOCK:   -5.38 KCAL/MOL
REMARK 923 INTER-LIGAND FREE ENERGY PREDICTED BY IDOCK:   -5.22 KCAL/MOL
REMARK 924 INTRA-LIGAND FREE ENERGY PREDICTED BY IDOCK:   -0.16 KCAL/MOL
REMARK 927      BINDING AFFINITY PREDICTED BY RF-SCORE:    0.00 PKD
ROOT
HETATM    1  F   UNL     1      -7.326  19.928  68.978  1.00  0.00    -0.360 F  
HETATM    2  C   UNL     1      -7.902  18.733  68.791  1.00  0.00    -0.310 A  
HETATM    3  C   UNL     1      -9.240  18.663  68.435  1.00  0.00    -0.355 A  
HETATM    4  C   UNL     1      -9.845  17.415  68.250  1.00  0.00    -0.310 A  
HETATM    5  C   UNL     1      -9.116  16.221  68.402  1.00  0.00    -0.203 A  
HETATM    6  C   UNL     1      -7.765  16.331  68.791  1.00  0.00    -0.202 A  
HETATM    7  C   UNL     1      -7.159  17.578  68.973  1.00  0.00    -0.234 A  
ENDROOT
BRANCH   5   8
HETATM    8  C   UNL     1      -9.776  14.852  68.266  1.00  0.00    -0.215 C  
HETATM    9  C   UNL     1     -11.268  14.867  67.927  1.00  0.00    -0.315 C  
HETATM   10  C   UNL     1     -11.482  14.164  66.664  1.00  0.00    -0.378 A  
HETATM   11  O   UNL     1     -12.185  15.338  68.579  1.00  0.00    -0.163 OA 
HETATM   12  C   UNL     1     -12.665  13.961  65.976  1.00  0.00    -0.410 A  
HETATM   13  C   UNL     1     -12.601  13.250  64.773  1.00  0.00    -0.398 A  
HETATM   14  C   UNL     1     -11.372  12.761  64.289  1.00  0.00    -0.416 A  
HETATM   15  C   UNL     1     -10.191  12.964  65.007  1.00  0.00    -0.289 A  
HETATM   16  C   UNL     1     -10.278  13.668  66.194  1.00  0.00    -0.306 A  
HETATM   17  C   UNL     1      -9.210  13.990  67.135  1.00  0.00    -0.235 C  
HETATM   18  O   UNL     1      -8.073  13.569  66.999  1.00  0.00    -0.123 OA 
ENDBRANCH   5   8
TORSDOF 1
ENDMDL
MODEL       75
REMARK 921   NORMALIZED FREE ENERGY PREDICTED BY IDOCK:   -4.77 KCAL/MOL
REMARK 922        TOTAL FREE ENERGY PREDICTED BY IDOCK:   -5.38 KCAL/MOL
REMARK 923 INTER-LIGAND FREE ENERGY PREDICTED BY IDOCK:   -4.96 KCAL/MOL
REMARK 924 INTRA-LIGAND FREE ENERGY PREDICTED BY IDOCK:   -0.43 KCAL/MOL
REMARK 927      BINDING AFFINITY PREDICTED BY RF-SCORE:    0.00 PKD
ROOT
HETATM    1  F   UNL     1     -13.864  12.183  72.002  1.00  0.00    -0.381 F  
HETATM    2  C   UNL     1     -12.988  11.274  71.555  1.00  0.00    -0.415 A  
HETATM    3  C   UNL     1     -12.148  11.590  70.498  1.00  0.00    -0.472 A  
HETATM    4  C   UNL     1     -11.240  10.638  70.023  1.00  0.00    -0.382 A  
HETATM    5  C   UNL     1     -11.148   9.361  70.610  1.00  0.00    -0.351 A  
HETATM    6  C   UNL     1     -12.037   9.067  71.664  1.00  0.00    -0.422 A  
HETATM    7  C   UNL     1     -12.942  10.020  72.141  1.00  0.00    -0.460 A  
ENDROOT
BRANCH   5   8
HETATM    8  C   UNL     1     -10.208   8.290  70.064  1.00  0.00    -0.202 C  
HETATM    9  C   UNL     1      -8.904   8.096  70.841  1.00  0.00    -0.142 C  
HETATM   10  C   UNL     1      -8.834   6.720  71.327  1.00  0.00    -0.136 A  
HETATM   11  O   UNL     1      -8.011   8.905  71.027  1.00  0.00    -0.127 OA 
HETATM   12  C   UNL     1      -7.847   6.121  72.090  1.00  0.00    -0.101 A  
HETATM   13  C   UNL     1      -8.019   4.775  72.431  1.00  0.00    -0.099 A  
HETATM   14  C   UNL     1      -9.157   4.064  72.005  1.00  0.00    -0.162 A  
HETATM   15  C   UNL     1     -10.134   4.683  71.223  1.00  0.00    -0.245 A  
HETATM   16  C   UNL     1      -9.943   6.014  70.897  1.00  0.00    -0.232 A  
HETATM   17  C   UNL     1     -10.791   6.875  70.080  1.00  0.00    -0.262 C  
HETATM   18  O   UNL     1     -11.776   6.455  69.494  1.00  0.00    -0.366 OA 
ENDBRANCH   5   8
TORSDOF 1
ENDMDL
MODEL       76
REMARK 921   NORMALIZED FREE ENERGY PREDICTED BY IDOCK:   -4.76 KCAL/MOL
REMARK 922        TOTAL FREE ENERGY PREDICTED BY IDOCK:   -5.37 KCAL/MOL
REMARK 923 INTER-LIGAND FREE ENERGY PREDICTED BY IDOCK:   -4.89 KCAL/MOL
REMARK 924 INTRA-LIGAND FREE ENERGY PREDICTED BY IDOCK:   -0.48 KCAL/MOL
REMARK 927      BINDING AFFINITY PREDICTED BY RF-SCORE:    0.00 PKD
ROOT
HETATM    1  F   UNL     1     -10.893  15.621  64.352  1.00  0.00    -0.380 F  
HETATM    2  C   UNL     1     -10.851  14.384  64.862  1.00  0.00    -0.416 A  
HETATM    3  C   UNL     1     -11.740  13.422  64.409  1.00  0.00    -0.435 A  
HETATM    4  C   UNL     1     -11.703  12.132  64.949  1.00  0.00    -0.373 A  
HETATM    5  C   UNL     1     -10.766  11.782  65.939  1.00  0.00    -0.328 A  
HETATM    6  C   UNL     1      -9.896  12.794  66.395  1.00  0.00    -0.269 A  
HETATM    7  C   UNL     1      -9.930  14.082  65.853  1.00  0.00    -0.325 A  
ENDROOT
BRANCH   5   8
HETATM    8  C   UNL     1     -10.754  10.399  66.584  1.00  0.00    -0.198 C  
HETATM    9  C   UNL     1      -9.405   9.678  66.579  1.00  0.00    -0.165 C  
HETATM   10  C   UNL     1      -9.001   9.401  67.956  1.00  0.00    -0.128 A  
HETATM   11  O   UNL     1      -8.742   9.328  65.617  1.00  0.00    -0.146 OA 
HETATM   12  C   UNL     1      -7.846   8.791  68.413  1.00  0.00    -0.104 A  
HETATM   13  C   UNL     1      -7.694   8.646  69.796  1.00  0.00    -0.088 A  
HETATM   14  C   UNL     1      -8.687   9.106  70.682  1.00  0.00    -0.272 A  
HETATM   15  C   UNL     1      -9.853   9.706  70.199  1.00  0.00    -0.310 A  
HETATM   16  C   UNL     1      -9.982   9.837  68.828  1.00  0.00    -0.179 A  
HETATM   17  C   UNL     1     -11.099  10.398  68.076  1.00  0.00    -0.298 C  
HETATM   18  O   UNL     1     -12.136  10.752  68.614  1.00  0.00    -0.480 OA 
ENDBRANCH   5   8
TORSDOF 1
ENDMDL
MODEL       77
REMARK 921   NORMALIZED FREE ENERGY PREDICTED BY IDOCK:   -4.74 KCAL/MOL
REMARK 922        TOTAL FREE ENERGY PREDICTED BY IDOCK:   -5.36 KCAL/MOL
REMARK 923 INTER-LIGAND FREE ENERGY PREDICTED BY IDOCK:   -4.88 KCAL/MOL
REMARK 924 INTRA-LIGAND FREE ENERGY PREDICTED BY IDOCK:   -0.48 KCAL/MOL
REMARK 927      BINDING AFFINITY PREDICTED BY RF-SCORE:    0.00 PKD
ROOT
HETATM    1  F   UNL     1      -9.204   5.775  68.245  1.00  0.00    -0.117 F  
HETATM    2  C   UNL     1      -9.132   6.924  67.560  1.00  0.00    -0.118 A  
HETATM    3  C   UNL     1      -7.898   7.405  67.151  1.00  0.00    -0.117 A  
HETATM    4  C   UNL     1      -7.821   8.610  66.445  1.00  0.00    -0.099 A  
HETATM    5  C   UNL     1      -8.979   9.343  66.125  1.00  0.00    -0.197 A  
HETATM    6  C   UNL     1     -10.214   8.837  66.581  1.00  0.00    -0.340 A  
HETATM    7  C   UNL     1     -10.291   7.630  67.284  1.00  0.00    -0.367 A  
ENDROOT
BRANCH   5   8
HETATM    8  C   UNL     1      -8.908  10.690  65.412  1.00  0.00    -0.204 C  
HETATM    9  C   UNL     1      -9.718  10.798  64.118  1.00  0.00    -0.309 C  
HETATM   10  C   UNL     1     -10.703  11.868  64.254  1.00  0.00    -0.388 A  
HETATM   11  O   UNL     1      -9.588  10.152  63.091  1.00  0.00    -0.300 OA 
HETATM   12  C   UNL     1     -11.654  12.291  63.341  1.00  0.00    -0.530 A  
HETATM   13  C   UNL     1     -12.490  13.347  63.719  1.00  0.00    -0.318 A  
HETATM   14  C   UNL     1     -12.359  13.953  64.983  1.00  0.00    -0.452 A  
HETATM   15  C   UNL     1     -11.383  13.521  65.884  1.00  0.00    -0.321 A  
HETATM   16  C   UNL     1     -10.567  12.476  65.489  1.00  0.00    -0.304 A  
HETATM   17  C   UNL     1      -9.466  11.862  66.224  1.00  0.00    -0.227 C  
HETATM   18  O   UNL     1      -9.076  12.294  67.296  1.00  0.00    -0.172 OA 
ENDBRANCH   5   8
TORSDOF 1
ENDMDL
MODEL       78
REMARK 921   NORMALIZED FREE ENERGY PREDICTED BY IDOCK:   -4.74 KCAL/MOL
REMARK 922        TOTAL FREE ENERGY PREDICTED BY IDOCK:   -5.36 KCAL/MOL
REMARK 923 INTER-LIGAND FREE ENERGY PREDICTED BY IDOCK:   -4.93 KCAL/MOL
REMARK 924 INTRA-LIGAND FREE ENERGY PREDICTED BY IDOCK:   -0.43 KCAL/MOL
REMARK 927      BINDING AFFINITY PREDICTED BY RF-SCORE:    0.00 PKD
ROOT
HETATM    1  F   UNL     1      -7.645   8.550  72.168  1.00  0.00    -0.126 F  
HETATM    2  C   UNL     1      -8.527   9.089  71.316  1.00  0.00    -0.133 A  
HETATM    3  C   UNL     1      -9.880   8.824  71.467  1.00  0.00    -0.371 A  
HETATM    4  C   UNL     1     -10.801   9.378  70.572  1.00  0.00    -0.336 A  
HETATM    5  C   UNL     1     -10.383  10.218  69.522  1.00  0.00    -0.267 A  
HETATM    6  C   UNL     1      -8.998  10.442  69.383  1.00  0.00    -0.168 A  
HETATM    7  C   UNL     1      -8.077   9.891  70.280  1.00  0.00    -0.115 A  
ENDROOT
BRANCH   5   8
HETATM    8  C   UNL     1     -11.367  10.778  68.499  1.00  0.00    -0.360 C  
HETATM    9  C   UNL     1     -11.774  12.239  68.704  1.00  0.00    -0.328 C  
HETATM   10  C   UNL     1     -11.400  13.013  67.522  1.00  0.00    -0.346 A  
HETATM   11  O   UNL     1     -12.352  12.735  69.657  1.00  0.00    -0.154 OA 
HETATM   12  C   UNL     1     -11.557  14.368  67.290  1.00  0.00    -0.401 A  
HETATM   13  C   UNL     1     -11.109  14.871  66.063  1.00  0.00    -0.334 A  
HETATM   14  C   UNL     1     -10.522  14.021  65.107  1.00  0.00    -0.415 A  
HETATM   15  C   UNL     1     -10.386  12.653  65.356  1.00  0.00    -0.311 A  
HETATM   16  C   UNL     1     -10.838  12.177  66.573  1.00  0.00    -0.307 A  
HETATM   17  C   UNL     1     -10.836  10.803  67.064  1.00  0.00    -0.252 C  
HETATM   18  O   UNL     1     -10.490   9.863  66.367  1.00  0.00    -0.205 OA 
ENDBRANCH   5   8
TORSDOF 1
ENDMDL
MODEL       79
REMARK 921   NORMALIZED FREE ENERGY PREDICTED BY IDOCK:   -4.69 KCAL/MOL
REMARK 922        TOTAL FREE ENERGY PREDICTED BY IDOCK:   -5.30 KCAL/MOL
REMARK 923 INTER-LIGAND FREE ENERGY PREDICTED BY IDOCK:   -4.82 KCAL/MOL
REMARK 924 INTRA-LIGAND FREE ENERGY PREDICTED BY IDOCK:   -0.48 KCAL/MOL
REMARK 927      BINDING AFFINITY PREDICTED BY RF-SCORE:    0.00 PKD
ROOT
HETATM    1  F   UNL     1     -10.771   6.588  68.899  1.00  0.00    -0.200 F  
HETATM    2  C   UNL     1     -10.594   7.757  68.269  1.00  0.00    -0.117 A  
HETATM    3  C   UNL     1     -10.219   7.770  66.935  1.00  0.00    -0.373 A  
HETATM    4  C   UNL     1     -10.024   8.990  66.279  1.00  0.00    -0.352 A  
HETATM    5  C   UNL     1     -10.217  10.215  66.945  1.00  0.00    -0.295 A  
HETATM    6  C   UNL     1     -10.572  10.162  68.309  1.00  0.00    -0.262 A  
HETATM    7  C   UNL     1     -10.770   8.943  68.963  1.00  0.00    -0.148 A  
ENDROOT
BRANCH   5   8
HETATM    8  C   UNL     1      -9.947  11.554  66.264  1.00  0.00    -0.252 C  
HETATM    9  C   UNL     1     -11.116  12.542  66.260  1.00  0.00    -0.295 C  
HETATM   10  C   UNL     1     -10.714  13.765  66.951  1.00  0.00    -0.280 A  
HETATM   11  O   UNL     1     -12.215  12.407  65.749  1.00  0.00    -0.620 OA 
HETATM   12  C   UNL     1     -11.461  14.903  67.200  1.00  0.00    -0.344 A  
HETATM   13  C   UNL     1     -10.838  15.948  67.891  1.00  0.00    -0.327 A  
HETATM   14  C   UNL     1      -9.499  15.836  68.313  1.00  0.00    -0.200 A  
HETATM   15  C   UNL     1      -8.758  14.683  68.038  1.00  0.00    -0.167 A  
HETATM   16  C   UNL     1      -9.394  13.664  67.352  1.00  0.00    -0.227 A  
HETATM   17  C   UNL     1      -8.843  12.383  66.922  1.00  0.00    -0.205 C  
HETATM   18  O   UNL     1      -7.664  12.101  67.062  1.00  0.00    -0.160 OA 
ENDBRANCH   5   8
TORSDOF 1
ENDMDL
MODEL       80
REMARK 921   NORMALIZED FREE ENERGY PREDICTED BY IDOCK:   -4.68 KCAL/MOL
REMARK 922        TOTAL FREE ENERGY PREDICTED BY IDOCK:   -5.29 KCAL/MOL
REMARK 923 INTER-LIGAND FREE ENERGY PREDICTED BY IDOCK:   -5.00 KCAL/MOL
REMARK 924 INTRA-LIGAND FREE ENERGY PREDICTED BY IDOCK:   -0.28 KCAL/MOL
REMARK 927      BINDING AFFINITY PREDICTED BY RF-SCORE:    0.00 PKD
ROOT
HETATM    1  F   UNL     1     -13.269  11.100  70.799  1.00  0.00    -0.312 F  
HETATM    2  C   UNL     1     -12.421  10.115  71.124  1.00  0.00    -0.387 A  
HETATM    3  C   UNL     1     -12.839   9.098  71.967  1.00  0.00    -0.483 A  
HETATM    4  C   UNL     1     -11.950   8.074  72.315  1.00  0.00    -0.412 A  
HETATM    5  C   UNL     1     -10.636   8.046  71.810  1.00  0.00    -0.296 A  
HETATM    6  C   UNL     1     -10.239   9.112  70.977  1.00  0.00    -0.372 A  
HETATM    7  C   UNL     1     -11.128  10.133  70.627  1.00  0.00    -0.397 A  
ENDROOT
BRANCH   5   8
HETATM    8  C   UNL     1      -9.636   6.973  72.229  1.00  0.00    -0.165 C  
HETATM    9  C   UNL     1     -10.061   6.096  73.409  1.00  0.00    -0.198 C  
HETATM   10  C   UNL     1     -10.104   4.700  72.981  1.00  0.00    -0.207 A  
HETATM   11  O   UNL     1     -10.302   6.439  74.555  1.00  0.00    -0.329 OA 
HETATM   12  C   UNL     1     -10.460   3.580  73.712  1.00  0.00    -0.260 A  
HETATM   13  C   UNL     1     -10.421   2.342  73.062  1.00  0.00    -0.244 A  
HETATM   14  C   UNL     1     -10.031   2.249  71.712  1.00  0.00    -0.201 A  
HETATM   15  C   UNL     1      -9.661   3.390  70.996  1.00  0.00    -0.216 A  
HETATM   16  C   UNL     1      -9.706   4.603  71.659  1.00  0.00    -0.235 A  
HETATM   17  C   UNL     1      -9.350   5.924  71.152  1.00  0.00    -0.153 C  
HETATM   18  O   UNL     1      -8.865   6.089  70.044  1.00  0.00    -0.136 OA 
ENDBRANCH   5   8
TORSDOF 1
ENDMDL
MODEL       81
REMARK 921   NORMALIZED FREE ENERGY PREDICTED BY IDOCK:   -4.66 KCAL/MOL
REMARK 922        TOTAL FREE ENERGY PREDICTED BY IDOCK:   -5.27 KCAL/MOL
REMARK 923 INTER-LIGAND FREE ENERGY PREDICTED BY IDOCK:   -4.80 KCAL/MOL
REMARK 924 INTRA-LIGAND FREE ENERGY PREDICTED BY IDOCK:   -0.47 KCAL/MOL
REMARK 927      BINDING AFFINITY PREDICTED BY RF-SCORE:    0.00 PKD
ROOT
HETATM    1  F   UNL     1      -8.776   5.389  65.298  1.00  0.00    -0.138 F  
HETATM    2  C   UNL     1      -8.934   6.062  66.446  1.00  0.00    -0.145 A  
HETATM    3  C   UNL     1     -10.187   6.536  66.798  1.00  0.00    -0.257 A  
HETATM    4  C   UNL     1     -10.351   7.248  67.991  1.00  0.00    -0.243 A  
HETATM    5  C   UNL     1      -9.266   7.481  68.856  1.00  0.00    -0.142 A  
HETATM    6  C   UNL     1      -8.001   7.007  68.452  1.00  0.00    -0.123 A  
HETATM    7  C   UNL     1      -7.838   6.293  67.261  1.00  0.00    -0.108 A  
ENDROOT
BRANCH   5   8
HETATM    8  C   UNL     1      -9.414   8.310  70.129  1.00  0.00    -0.167 C  
HETATM    9  C   UNL     1      -9.996   9.712  69.942  1.00  0.00    -0.241 C  
HETATM   10  C   UNL     1     -11.225   9.832  70.723  1.00  0.00    -0.419 A  
HETATM   11  O   UNL     1      -9.539  10.637  69.292  1.00  0.00    -0.202 OA 
HETATM   12  C   UNL     1     -12.084  10.912  70.825  1.00  0.00    -0.469 A  
HETATM   13  C   UNL     1     -13.208  10.771  71.646  1.00  0.00    -0.487 A  
HETATM   14  C   UNL     1     -13.446   9.569  72.341  1.00  0.00    -0.475 A  
HETATM   15  C   UNL     1     -12.558   8.496  72.236  1.00  0.00    -0.438 A  
HETATM   16  C   UNL     1     -11.453   8.658  71.419  1.00  0.00    -0.352 A  
HETATM   17  C   UNL     1     -10.374   7.712  71.161  1.00  0.00    -0.200 C  
HETATM   18  O   UNL     1     -10.289   6.643  71.744  1.00  0.00    -0.196 OA 
ENDBRANCH   5   8
TORSDOF 1
ENDMDL
MODEL       82
REMARK 921   NORMALIZED FREE ENERGY PREDICTED BY IDOCK:   -4.63 KCAL/MOL
REMARK 922        TOTAL FREE ENERGY PREDICTED BY IDOCK:   -5.24 KCAL/MOL
REMARK 923 INTER-LIGAND FREE ENERGY PREDICTED BY IDOCK:   -4.78 KCAL/MOL
REMARK 924 INTRA-LIGAND FREE ENERGY PREDICTED BY IDOCK:   -0.46 KCAL/MOL
REMARK 927      BINDING AFFINITY PREDICTED BY RF-SCORE:    0.00 PKD
ROOT
HETATM    1  F   UNL     1     -10.972   5.330  69.739  1.00  0.00    -0.370 F  
HETATM    2  C   UNL     1     -10.828   6.443  69.007  1.00  0.00    -0.327 A  
HETATM    3  C   UNL     1     -10.793   6.357  67.624  1.00  0.00    -0.425 A  
HETATM    4  C   UNL     1     -10.632   7.518  66.860  1.00  0.00    -0.367 A  
HETATM    5  C   UNL     1     -10.519   8.782  67.468  1.00  0.00    -0.340 A  
HETATM    6  C   UNL     1     -10.531   8.827  68.878  1.00  0.00    -0.217 A  
HETATM    7  C   UNL     1     -10.696   7.667  69.642  1.00  0.00    -0.230 A  
ENDROOT
BRANCH   5   8
HETATM    8  C   UNL     1     -10.279  10.050  66.653  1.00  0.00    -0.288 C  
HETATM    9  C   UNL     1     -10.919  11.324  67.208  1.00  0.00    -0.286 C  
HETATM   10  C   UNL     1      -9.874  12.308  67.481  1.00  0.00    -0.193 A  
HETATM   11  O   UNL     1     -12.103  11.559  67.382  1.00  0.00    -0.593 OA 
HETATM   12  C   UNL     1     -10.000  13.581  68.010  1.00  0.00    -0.248 A  
HETATM   13  C   UNL     1      -8.831  14.331  68.177  1.00  0.00    -0.183 A  
HETATM   14  C   UNL     1      -7.577  13.802  67.816  1.00  0.00    -0.173 A  
HETATM   15  C   UNL     1      -7.474  12.520  67.271  1.00  0.00    -0.125 A  
HETATM   16  C   UNL     1      -8.642  11.797  67.112  1.00  0.00    -0.168 A  
HETATM   17  C   UNL     1      -8.809  10.462  66.549  1.00  0.00    -0.138 C  
HETATM   18  O   UNL     1      -7.882   9.843  66.051  1.00  0.00    -0.106 OA 
ENDBRANCH   5   8
TORSDOF 1
ENDMDL
MODEL       83
REMARK 921   NORMALIZED FREE ENERGY PREDICTED BY IDOCK:   -4.62 KCAL/MOL
REMARK 922        TOTAL FREE ENERGY PREDICTED BY IDOCK:   -5.23 KCAL/MOL
REMARK 923 INTER-LIGAND FREE ENERGY PREDICTED BY IDOCK:   -4.77 KCAL/MOL
REMARK 924 INTRA-LIGAND FREE ENERGY PREDICTED BY IDOCK:   -0.46 KCAL/MOL
REMARK 927      BINDING AFFINITY PREDICTED BY RF-SCORE:    0.00 PKD
ROOT
HETATM    1  F   UNL     1      -9.249   6.567  70.533  1.00  0.00    -0.151 F  
HETATM    2  C   UNL     1      -9.190   7.615  69.701  1.00  0.00    -0.146 A  
HETATM    3  C   UNL     1      -7.972   8.228  69.453  1.00  0.00    -0.113 A  
HETATM    4  C   UNL     1      -7.911   9.329  68.592  1.00  0.00    -0.089 A  
HETATM    5  C   UNL     1      -9.065   9.823  67.955  1.00  0.00    -0.127 A  
HETATM    6  C   UNL     1     -10.290   9.191  68.254  1.00  0.00    -0.256 A  
HETATM    7  C   UNL     1     -10.350   8.088  69.112  1.00  0.00    -0.226 A  
ENDROOT
BRANCH   5   8
HETATM    8  C   UNL     1      -9.027  11.061  67.064  1.00  0.00    -0.151 C  
HETATM    9  C   UNL     1      -9.219  10.805  65.568  1.00  0.00    -0.202 C  
HETATM   10  C   UNL     1     -10.395  11.536  65.101  1.00  0.00    -0.329 A  
HETATM   11  O   UNL     1      -8.519  10.142  64.821  1.00  0.00    -0.158 OA 
HETATM   12  C   UNL     1     -10.946  11.570  63.832  1.00  0.00    -0.474 A  
HETATM   13  C   UNL     1     -12.089  12.354  63.643  1.00  0.00    -0.648 A  
HETATM   14  C   UNL     1     -12.651  13.079  64.712  1.00  0.00    -0.460 A  
HETATM   15  C   UNL     1     -12.070  13.042  65.982  1.00  0.00    -0.493 A  
HETATM   16  C   UNL     1     -10.940  12.262  66.146  1.00  0.00    -0.328 A  
HETATM   17  C   UNL     1     -10.137  12.075  67.349  1.00  0.00    -0.194 C  
HETATM   18  O   UNL     1     -10.350  12.697  68.378  1.00  0.00    -0.228 OA 
ENDBRANCH   5   8
TORSDOF 1
ENDMDL
MODEL       84
REMARK 921   NORMALIZED FREE ENERGY PREDICTED BY IDOCK:   -4.62 KCAL/MOL
REMARK 922        TOTAL FREE ENERGY PREDICTED BY IDOCK:   -5.23 KCAL/MOL
REMARK 923 INTER-LIGAND FREE ENERGY PREDICTED BY IDOCK:   -4.76 KCAL/MOL
REMARK 924 INTRA-LIGAND FREE ENERGY PREDICTED BY IDOCK:   -0.48 KCAL/MOL
REMARK 927      BINDING AFFINITY PREDICTED BY RF-SCORE:    0.00 PKD
ROOT
HETATM    1  F   UNL     1      -8.655   2.650  69.319  1.00  0.00    -0.075 F  
HETATM    2  C   UNL     1      -8.781   3.869  69.861  1.00  0.00    -0.075 A  
HETATM    3  C   UNL     1      -7.976   4.234  70.929  1.00  0.00    -0.067 A  
HETATM    4  C   UNL     1      -8.115   5.503  71.501  1.00  0.00    -0.118 A  
HETATM    5  C   UNL     1      -9.049   6.430  71.003  1.00  0.00    -0.154 A  
HETATM    6  C   UNL     1      -9.868   6.014  69.934  1.00  0.00    -0.213 A  
HETATM    7  C   UNL     1      -9.728   4.747  69.359  1.00  0.00    -0.266 A  
ENDROOT
BRANCH   5   8
HETATM    8  C   UNL     1      -9.257   7.794  71.656  1.00  0.00    -0.168 C  
HETATM    9  C   UNL     1      -9.454   8.966  70.692  1.00  0.00    -0.214 C  
HETATM   10  C   UNL     1     -10.755   9.582  70.943  1.00  0.00    -0.403 A  
HETATM   11  O   UNL     1      -8.677   9.391  69.853  1.00  0.00    -0.160 OA 
HETATM   12  C   UNL     1     -11.348  10.649  70.290  1.00  0.00    -0.401 A  
HETATM   13  C   UNL     1     -12.616  11.050  70.725  1.00  0.00    -0.463 A  
HETATM   14  C   UNL     1     -13.256  10.388  71.790  1.00  0.00    -0.529 A  
HETATM   15  C   UNL     1     -12.633   9.322  72.444  1.00  0.00    -0.348 A  
HETATM   16  C   UNL     1     -11.380   8.943  71.999  1.00  0.00    -0.427 A  
HETATM   17  C   UNL     1     -10.515   7.891  72.522  1.00  0.00    -0.300 C  
HETATM   18  O   UNL     1     -10.796   7.254  73.525  1.00  0.00    -0.375 OA 
ENDBRANCH   5   8
TORSDOF 1
ENDMDL
MODEL       85
REMARK 921   NORMALIZED FREE ENERGY PREDICTED BY IDOCK:   -4.59 KCAL/MOL
REMARK 922        TOTAL FREE ENERGY PREDICTED BY IDOCK:   -5.19 KCAL/MOL
REMARK 923 INTER-LIGAND FREE ENERGY PREDICTED BY IDOCK:   -4.72 KCAL/MOL
REMARK 924 INTRA-LIGAND FREE ENERGY PREDICTED BY IDOCK:   -0.47 KCAL/MOL
REMARK 927      BINDING AFFINITY PREDICTED BY RF-SCORE:    0.00 PKD
ROOT
HETATM    1  F   UNL     1      -8.657   9.205  64.169  1.00  0.00    -0.171 F  
HETATM    2  C   UNL     1      -9.124  10.401  64.549  1.00  0.00    -0.229 A  
HETATM    3  C   UNL     1      -8.864  10.867  65.828  1.00  0.00    -0.202 A  
HETATM    4  C   UNL     1      -9.360  12.112  66.229  1.00  0.00    -0.221 A  
HETATM    5  C   UNL     1     -10.109  12.916  65.350  1.00  0.00    -0.265 A  
HETATM    6  C   UNL     1     -10.377  12.398  64.067  1.00  0.00    -0.435 A  
HETATM    7  C   UNL     1      -9.878  11.154  63.665  1.00  0.00    -0.387 A  
ENDROOT
BRANCH   5   8
HETATM    8  C   UNL     1     -10.711  14.247  65.791  1.00  0.00    -0.308 C  
HETATM    9  C   UNL     1     -11.912  14.150  66.735  1.00  0.00    -0.447 C  
HETATM   10  C   UNL     1     -11.597  14.835  67.987  1.00  0.00    -0.367 A  
HETATM   11  O   UNL     1     -12.996  13.633  66.525  1.00  0.00     0.026 OA 
HETATM   12  C   UNL     1     -12.380  14.971  69.120  1.00  0.00    -0.094 A  
HETATM   13  C   UNL     1     -11.840  15.680  70.199  1.00  0.00    -0.381 A  
HETATM   14  C   UNL     1     -10.547  16.233  70.123  1.00  0.00    -0.183 A  
HETATM   15  C   UNL     1      -9.779  16.097  68.964  1.00  0.00    -0.248 A  
HETATM   16  C   UNL     1     -10.333  15.394  67.910  1.00  0.00    -0.247 A  
HETATM   17  C   UNL     1      -9.757  15.133  66.595  1.00  0.00    -0.258 C  
HETATM   18  O   UNL     1      -8.692  15.615  66.243  1.00  0.00    -0.307 OA 
ENDBRANCH   5   8
TORSDOF 1
ENDMDL
MODEL       86
REMARK 921   NORMALIZED FREE ENERGY PREDICTED BY IDOCK:   -4.58 KCAL/MOL
REMARK 922        TOTAL FREE ENERGY PREDICTED BY IDOCK:   -5.19 KCAL/MOL
REMARK 923 INTER-LIGAND FREE ENERGY PREDICTED BY IDOCK:   -4.84 KCAL/MOL
REMARK 924 INTRA-LIGAND FREE ENERGY PREDICTED BY IDOCK:   -0.35 KCAL/MOL
REMARK 927      BINDING AFFINITY PREDICTED BY RF-SCORE:    0.00 PKD
ROOT
HETATM    1  F   UNL     1     -13.640  11.453  72.277  1.00  0.00    -0.521 F  
HETATM    2  C   UNL     1     -12.693  10.883  71.521  1.00  0.00    -0.428 A  
HETATM    3  C   UNL     1     -12.054  11.627  70.542  1.00  0.00    -0.458 A  
HETATM    4  C   UNL     1     -11.072  11.028  69.744  1.00  0.00    -0.303 A  
HETATM    5  C   UNL     1     -10.705   9.682  69.927  1.00  0.00    -0.283 A  
HETATM    6  C   UNL     1     -11.396   8.950  70.914  1.00  0.00    -0.336 A  
HETATM    7  C   UNL     1     -12.375   9.548  71.713  1.00  0.00    -0.474 A  
ENDROOT
BRANCH   5   8
HETATM    8  C   UNL     1      -9.682   8.997  69.025  1.00  0.00    -0.167 C  
HETATM    9  C   UNL     1      -9.111   7.679  69.554  1.00  0.00    -0.146 C  
HETATM   10  C   UNL     1      -9.416   6.608  68.608  1.00  0.00    -0.128 A  
HETATM   11  O   UNL     1      -8.464   7.493  70.571  1.00  0.00    -0.129 OA 
HETATM   12  C   UNL     1      -9.112   5.261  68.699  1.00  0.00    -0.129 A  
HETATM   13  C   UNL     1      -9.522   4.432  67.649  1.00  0.00    -0.204 A  
HETATM   14  C   UNL     1     -10.217   4.960  66.543  1.00  0.00    -0.305 A  
HETATM   15  C   UNL     1     -10.501   6.326  66.465  1.00  0.00    -0.174 A  
HETATM   16  C   UNL     1     -10.085   7.126  67.513  1.00  0.00    -0.241 A  
HETATM   17  C   UNL     1     -10.232   8.570  67.662  1.00  0.00    -0.236 C  
HETATM   18  O   UNL     1     -10.693   9.273  66.777  1.00  0.00    -0.176 OA 
ENDBRANCH   5   8
TORSDOF 1
ENDMDL
MODEL       87
REMARK 921   NORMALIZED FREE ENERGY PREDICTED BY IDOCK:   -4.57 KCAL/MOL
REMARK 922        TOTAL FREE ENERGY PREDICTED BY IDOCK:   -5.17 KCAL/MOL
REMARK 923 INTER-LIGAND FREE ENERGY PREDICTED BY IDOCK:   -4.69 KCAL/MOL
REMARK 924 INTRA-LIGAND FREE ENERGY PREDICTED BY IDOCK:   -0.48 KCAL/MOL
REMARK 927      BINDING AFFINITY PREDICTED BY RF-SCORE:    0.00 PKD
ROOT
HETATM    1  F   UNL     1     -12.034   7.620  72.392  1.00  0.00    -0.304 F  
HETATM    2  C   UNL     1     -11.590   8.338  71.352  1.00  0.00    -0.280 A  
HETATM    3  C   UNL     1     -10.935   7.704  70.308  1.00  0.00    -0.261 A  
HETATM    4  C   UNL     1     -10.461   8.455  69.227  1.00  0.00    -0.223 A  
HETATM    5  C   UNL     1     -10.650   9.849  69.168  1.00  0.00    -0.240 A  
HETATM    6  C   UNL     1     -11.297  10.462  70.261  1.00  0.00    -0.406 A  
HETATM    7  C   UNL     1     -11.773   9.711  71.340  1.00  0.00    -0.478 A  
ENDROOT
BRANCH   5   8
HETATM    8  C   UNL     1     -10.084  10.691  68.028  1.00  0.00    -0.181 C  
HETATM    9  C   UNL     1     -11.010  11.785  67.491  1.00  0.00    -0.256 C  
HETATM   10  C   UNL     1     -10.363  13.085  67.653  1.00  0.00    -0.222 A  
HETATM   11  O   UNL     1     -12.103  11.656  66.966  1.00  0.00    -0.547 OA 
HETATM   12  C   UNL     1     -10.849  14.339  67.329  1.00  0.00    -0.285 A  
HETATM   13  C   UNL     1     -10.025  15.440  67.590  1.00  0.00    -0.225 A  
HETATM   14  C   UNL     1      -8.749  15.266  68.161  1.00  0.00    -0.162 A  
HETATM   15  C   UNL     1      -8.273  13.990  68.468  1.00  0.00    -0.136 A  
HETATM   16  C   UNL     1      -9.103  12.916  68.200  1.00  0.00    -0.207 A  
HETATM   17  C   UNL     1      -8.837  11.496  68.400  1.00  0.00    -0.163 C  
HETATM   18  O   UNL     1      -7.750  11.082  68.769  1.00  0.00    -0.118 OA 
ENDBRANCH   5   8
TORSDOF 1
ENDMDL
MODEL       88
REMARK 921   NORMALIZED FREE ENERGY PREDICTED BY IDOCK:   -4.56 KCAL/MOL
REMARK 922        TOTAL FREE ENERGY PREDICTED BY IDOCK:   -5.17 KCAL/MOL
REMARK 923 INTER-LIGAND FREE ENERGY PREDICTED BY IDOCK:   -4.69 KCAL/MOL
REMARK 924 INTRA-LIGAND FREE ENERGY PREDICTED BY IDOCK:   -0.48 KCAL/MOL
REMARK 927      BINDING AFFINITY PREDICTED BY RF-SCORE:    0.00 PKD
ROOT
HETATM    1  F   UNL     1      -6.287   4.427  72.367  1.00  0.00    -0.018 F  
HETATM    2  C   UNL     1      -7.418   4.989  71.921  1.00  0.00    -0.090 A  
HETATM    3  C   UNL     1      -8.200   4.319  70.993  1.00  0.00    -0.078 A  
HETATM    4  C   UNL     1      -9.376   4.910  70.518  1.00  0.00    -0.216 A  
HETATM    5  C   UNL     1      -9.794   6.174  70.977  1.00  0.00    -0.213 A  
HETATM    6  C   UNL     1      -8.959   6.837  71.900  1.00  0.00    -0.135 A  
HETATM    7  C   UNL     1      -7.785   6.245  72.377  1.00  0.00    -0.102 A  
ENDROOT
BRANCH   5   8
HETATM    8  C   UNL     1     -11.038   6.861  70.423  1.00  0.00    -0.341 C  
HETATM    9  C   UNL     1     -12.107   7.227  71.455  1.00  0.00    -0.335 C  
HETATM   10  C   UNL     1     -12.323   8.672  71.431  1.00  0.00    -0.344 A  
HETATM   11  O   UNL     1     -12.740   6.481  72.182  1.00  0.00    -0.245 OA 
HETATM   12  C   UNL     1     -13.177   9.432  72.211  1.00  0.00    -0.528 A  
HETATM   13  C   UNL     1     -13.197  10.814  71.992  1.00  0.00    -0.466 A  
HETATM   14  C   UNL     1     -12.375  11.400  71.010  1.00  0.00    -0.448 A  
HETATM   15  C   UNL     1     -11.531  10.612  70.223  1.00  0.00    -0.422 A  
HETATM   16  C   UNL     1     -11.529   9.249  70.456  1.00  0.00    -0.296 A  
HETATM   17  C   UNL     1     -10.768   8.215  69.763  1.00  0.00    -0.229 C  
HETATM   18  O   UNL     1     -10.075   8.458  68.788  1.00  0.00    -0.186 OA 
ENDBRANCH   5   8
TORSDOF 1
ENDMDL
MODEL       89
REMARK 921   NORMALIZED FREE ENERGY PREDICTED BY IDOCK:   -4.56 KCAL/MOL
REMARK 922        TOTAL FREE ENERGY PREDICTED BY IDOCK:   -5.17 KCAL/MOL
REMARK 923 INTER-LIGAND FREE ENERGY PREDICTED BY IDOCK:   -4.74 KCAL/MOL
REMARK 924 INTRA-LIGAND FREE ENERGY PREDICTED BY IDOCK:   -0.43 KCAL/MOL
REMARK 927      BINDING AFFINITY PREDICTED BY RF-SCORE:    0.00 PKD
ROOT
HETATM    1  F   UNL     1     -10.133  10.110  62.769  1.00  0.00    -0.214 F  
HETATM    2  C   UNL     1      -9.992  11.009  63.752  1.00  0.00    -0.350 A  
HETATM    3  C   UNL     1      -9.610  10.591  65.017  1.00  0.00    -0.331 A  
HETATM    4  C   UNL     1      -9.473  11.528  66.046  1.00  0.00    -0.249 A  
HETATM    5  C   UNL     1      -9.699  12.899  65.820  1.00  0.00    -0.155 A  
HETATM    6  C   UNL     1     -10.111  13.283  64.527  1.00  0.00    -0.241 A  
HETATM    7  C   UNL     1     -10.246  12.347  63.498  1.00  0.00    -0.339 A  
ENDROOT
BRANCH   5   8
HETATM    8  C   UNL     1      -9.615  13.926  66.946  1.00  0.00    -0.271 C  
HETATM    9  C   UNL     1      -8.329  14.754  66.992  1.00  0.00    -0.198 C  
HETATM   10  C   UNL     1      -8.663  16.170  66.857  1.00  0.00    -0.253 A  
HETATM   11  O   UNL     1      -7.185  14.362  67.150  1.00  0.00    -0.113 OA 
HETATM   12  C   UNL     1      -7.812  17.261  66.823  1.00  0.00    -0.278 A  
HETATM   13  C   UNL     1      -8.389  18.528  66.683  1.00  0.00    -0.285 A  
HETATM   14  C   UNL     1      -9.786  18.677  66.583  1.00  0.00    -0.360 A  
HETATM   15  C   UNL     1     -10.628  17.564  66.635  1.00  0.00    -0.198 A  
HETATM   16  C   UNL     1     -10.036  16.321  66.776  1.00  0.00    -0.281 A  
HETATM   17  C   UNL     1     -10.684  15.019  66.881  1.00  0.00    -0.308 C  
HETATM   18  O   UNL     1     -11.897  14.897  66.945  1.00  0.00    -0.315 OA 
ENDBRANCH   5   8
TORSDOF 1
ENDMDL
MODEL       90
REMARK 921   NORMALIZED FREE ENERGY PREDICTED BY IDOCK:   -4.54 KCAL/MOL
REMARK 922        TOTAL FREE ENERGY PREDICTED BY IDOCK:   -5.14 KCAL/MOL
REMARK 923 INTER-LIGAND FREE ENERGY PREDICTED BY IDOCK:   -4.67 KCAL/MOL
REMARK 924 INTRA-LIGAND FREE ENERGY PREDICTED BY IDOCK:   -0.47 KCAL/MOL
REMARK 927      BINDING AFFINITY PREDICTED BY RF-SCORE:    0.00 PKD
ROOT
HETATM    1  F   UNL     1      -8.242   7.973  64.222  1.00  0.00    -0.147 F  
HETATM    2  C   UNL     1      -8.484   8.481  65.437  1.00  0.00    -0.173 A  
HETATM    3  C   UNL     1      -9.566   8.021  66.172  1.00  0.00    -0.159 A  
HETATM    4  C   UNL     1      -9.825   8.559  67.437  1.00  0.00    -0.244 A  
HETATM    5  C   UNL     1      -8.997   9.552  67.992  1.00  0.00    -0.123 A  
HETATM    6  C   UNL     1      -7.923  10.014  67.204  1.00  0.00    -0.109 A  
HETATM    7  C   UNL     1      -7.661   9.474  65.941  1.00  0.00    -0.100 A  
ENDROOT
BRANCH   5   8
HETATM    8  C   UNL     1      -9.303  10.194  69.342  1.00  0.00    -0.235 C  
HETATM    9  C   UNL     1     -10.687  10.832  69.473  1.00  0.00    -0.226 C  
HETATM   10  C   UNL     1     -11.415  10.183  70.561  1.00  0.00    -0.417 A  
HETATM   11  O   UNL     1     -11.154  11.758  68.832  1.00  0.00    -0.215 OA 
HETATM   12  C   UNL     1     -12.702  10.426  71.008  1.00  0.00    -0.490 A  
HETATM   13  C   UNL     1     -13.173   9.657  72.078  1.00  0.00    -0.546 A  
HETATM   14  C   UNL     1     -12.357   8.676  72.673  1.00  0.00    -0.282 A  
HETATM   15  C   UNL     1     -11.056   8.456  72.217  1.00  0.00    -0.438 A  
HETATM   16  C   UNL     1     -10.611   9.229  71.159  1.00  0.00    -0.402 A  
HETATM   17  C   UNL     1      -9.300   9.216  70.519  1.00  0.00    -0.240 C  
HETATM   18  O   UNL     1      -8.377   8.535  70.936  1.00  0.00    -0.120 OA 
ENDBRANCH   5   8
TORSDOF 1
ENDMDL
MODEL       91
REMARK 921   NORMALIZED FREE ENERGY PREDICTED BY IDOCK:   -4.52 KCAL/MOL
REMARK 922        TOTAL FREE ENERGY PREDICTED BY IDOCK:   -5.13 KCAL/MOL
REMARK 923 INTER-LIGAND FREE ENERGY PREDICTED BY IDOCK:   -4.66 KCAL/MOL
REMARK 924 INTRA-LIGAND FREE ENERGY PREDICTED BY IDOCK:   -0.47 KCAL/MOL
REMARK 927      BINDING AFFINITY PREDICTED BY RF-SCORE:    0.00 PKD
ROOT
HETATM    1  F   UNL     1      -8.683  19.539  67.011  1.00  0.00    -0.290 F  
HETATM    2  C   UNL     1      -8.966  18.248  67.228  1.00  0.00    -0.259 A  
HETATM    3  C   UNL     1      -8.466  17.281  66.371  1.00  0.00    -0.304 A  
HETATM    4  C   UNL     1      -8.770  15.933  66.590  1.00  0.00    -0.324 A  
HETATM    5  C   UNL     1      -9.566  15.533  67.680  1.00  0.00    -0.210 A  
HETATM    6  C   UNL     1     -10.080  16.547  68.514  1.00  0.00    -0.255 A  
HETATM    7  C   UNL     1      -9.773  17.894  68.297  1.00  0.00    -0.327 A  
ENDROOT
BRANCH   5   8
HETATM    8  C   UNL     1      -9.960  14.075  67.897  1.00  0.00    -0.237 C  
HETATM    9  C   UNL     1     -11.034  13.531  66.951  1.00  0.00    -0.288 C  
HETATM   10  C   UNL     1     -10.489  12.399  66.206  1.00  0.00    -0.271 A  
HETATM   11  O   UNL     1     -12.185  13.911  66.820  1.00  0.00    -0.429 OA 
HETATM   12  C   UNL     1     -11.101  11.629  65.232  1.00  0.00    -0.298 A  
HETATM   13  C   UNL     1     -10.355  10.591  64.663  1.00  0.00    -0.290 A  
HETATM   14  C   UNL     1      -9.030  10.347  65.074  1.00  0.00    -0.221 A  
HETATM   15  C   UNL     1      -8.437  11.126  66.069  1.00  0.00    -0.138 A  
HETATM   16  C   UNL     1      -9.193  12.145  66.619  1.00  0.00    -0.206 A  
HETATM   17  C   UNL     1      -8.821  13.076  67.679  1.00  0.00    -0.191 C  
HETATM   18  O   UNL     1      -7.765  12.987  68.284  1.00  0.00    -0.125 OA 
ENDBRANCH   5   8
TORSDOF 1
ENDMDL
MODEL       92
REMARK 921   NORMALIZED FREE ENERGY PREDICTED BY IDOCK:   -4.52 KCAL/MOL
REMARK 922        TOTAL FREE ENERGY PREDICTED BY IDOCK:   -5.12 KCAL/MOL
REMARK 923 INTER-LIGAND FREE ENERGY PREDICTED BY IDOCK:   -4.82 KCAL/MOL
REMARK 924 INTRA-LIGAND FREE ENERGY PREDICTED BY IDOCK:   -0.30 KCAL/MOL
REMARK 927      BINDING AFFINITY PREDICTED BY RF-SCORE:    0.00 PKD
ROOT
HETATM    1  F   UNL     1      -7.348  16.671  67.126  1.00  0.00    -0.152 F  
HETATM    2  C   UNL     1      -7.935  15.469  67.194  1.00  0.00    -0.221 A  
HETATM    3  C   UNL     1      -8.930  15.138  66.288  1.00  0.00    -0.274 A  
HETATM    4  C   UNL     1      -9.551  13.887  66.364  1.00  0.00    -0.292 A  
HETATM    5  C   UNL     1      -9.174  12.943  67.338  1.00  0.00    -0.197 A  
HETATM    6  C   UNL     1      -8.177  13.326  68.259  1.00  0.00    -0.156 A  
HETATM    7  C   UNL     1      -7.554  14.575  68.181  1.00  0.00    -0.125 A  
ENDROOT
BRANCH   5   8
HETATM    8  C   UNL     1      -9.884  11.600  67.475  1.00  0.00    -0.199 C  
HETATM    9  C   UNL     1      -9.206  10.584  68.398  1.00  0.00    -0.154 C  
HETATM   10  C   UNL     1     -10.122  10.230  69.480  1.00  0.00    -0.260 A  
HETATM   11  O   UNL     1      -8.100  10.083  68.284  1.00  0.00    -0.102 OA 
HETATM   12  C   UNL     1      -9.912   9.371  70.544  1.00  0.00    -0.328 A  
HETATM   13  C   UNL     1     -10.960   9.203  71.457  1.00  0.00    -0.434 A  
HETATM   14  C   UNL     1     -12.180   9.886  71.287  1.00  0.00    -0.480 A  
HETATM   15  C   UNL     1     -12.375  10.738  70.197  1.00  0.00    -0.401 A  
HETATM   16  C   UNL     1     -11.327  10.888  69.308  1.00  0.00    -0.345 A  
HETATM   17  C   UNL     1     -11.283  11.688  68.088  1.00  0.00    -0.263 C  
HETATM   18  O   UNL     1     -12.263  12.277  67.660  1.00  0.00    -0.442 OA 
ENDBRANCH   5   8
TORSDOF 1
ENDMDL
MODEL       93
REMARK 921   NORMALIZED FREE ENERGY PREDICTED BY IDOCK:   -4.44 KCAL/MOL
REMARK 922        TOTAL FREE ENERGY PREDICTED BY IDOCK:   -5.04 KCAL/MOL
REMARK 923 INTER-LIGAND FREE ENERGY PREDICTED BY IDOCK:   -4.65 KCAL/MOL
REMARK 924 INTRA-LIGAND FREE ENERGY PREDICTED BY IDOCK:   -0.39 KCAL/MOL
REMARK 927      BINDING AFFINITY PREDICTED BY RF-SCORE:    0.00 PKD
ROOT
HETATM    1  F   UNL     1     -11.010  20.299  65.318  1.00  0.00    -0.470 F  
HETATM    2  C   UNL     1     -10.591  19.347  66.162  1.00  0.00    -0.477 A  
HETATM    3  C   UNL     1     -10.459  18.041  65.715  1.00  0.00    -0.202 A  
HETATM    4  C   UNL     1     -10.031  17.045  66.599  1.00  0.00    -0.307 A  
HETATM    5  C   UNL     1      -9.713  17.343  67.937  1.00  0.00    -0.272 A  
HETATM    6  C   UNL     1      -9.885  18.677  68.362  1.00  0.00    -0.424 A  
HETATM    7  C   UNL     1     -10.310  19.674  67.478  1.00  0.00    -0.578 A  
ENDROOT
BRANCH   5   8
HETATM    8  C   UNL     1      -9.306  16.258  68.930  1.00  0.00    -0.248 C  
HETATM    9  C   UNL     1      -9.786  14.844  68.598  1.00  0.00    -0.225 C  
HETATM   10  C   UNL     1      -8.629  13.965  68.447  1.00  0.00    -0.169 A  
HETATM   11  O   UNL     1     -10.933  14.442  68.499  1.00  0.00    -0.235 OA 
HETATM   12  C   UNL     1      -8.600  12.620  68.125  1.00  0.00    -0.188 A  
HETATM   13  C   UNL     1      -7.348  12.001  68.039  1.00  0.00    -0.102 A  
HETATM   14  C   UNL     1      -6.166  12.730  68.275  1.00  0.00    -0.078 A  
HETATM   15  C   UNL     1      -6.219  14.084  68.613  1.00  0.00    -0.088 A  
HETATM   16  C   UNL     1      -7.467  14.675  68.694  1.00  0.00    -0.125 A  
HETATM   17  C   UNL     1      -7.794  16.051  69.050  1.00  0.00    -0.222 C  
HETATM   18  O   UNL     1      -6.947  16.849  69.418  1.00  0.00    -0.236 OA 
ENDBRANCH   5   8
TORSDOF 1
ENDMDL
MODEL       94
REMARK 921   NORMALIZED FREE ENERGY PREDICTED BY IDOCK:   -4.44 KCAL/MOL
REMARK 922        TOTAL FREE ENERGY PREDICTED BY IDOCK:   -5.03 KCAL/MOL
REMARK 923 INTER-LIGAND FREE ENERGY PREDICTED BY IDOCK:   -4.55 KCAL/MOL
REMARK 924 INTRA-LIGAND FREE ENERGY PREDICTED BY IDOCK:   -0.48 KCAL/MOL
REMARK 927      BINDING AFFINITY PREDICTED BY RF-SCORE:    0.00 PKD
ROOT
HETATM    1  F   UNL     1     -12.180  13.247  62.918  1.00  0.00    -0.592 F  
HETATM    2  C   UNL     1     -11.657  12.543  63.930  1.00  0.00    -0.442 A  
HETATM    3  C   UNL     1     -12.122  12.745  65.220  1.00  0.00    -0.505 A  
HETATM    4  C   UNL     1     -11.570  12.018  66.280  1.00  0.00    -0.378 A  
HETATM    5  C   UNL     1     -10.555  11.067  66.062  1.00  0.00    -0.275 A  
HETATM    6  C   UNL     1     -10.089  10.909  64.740  1.00  0.00    -0.383 A  
HETATM    7  C   UNL     1     -10.643  11.634  63.681  1.00  0.00    -0.493 A  
ENDROOT
BRANCH   5   8
HETATM    8  C   UNL     1      -9.897  10.312  67.213  1.00  0.00    -0.222 C  
HETATM    9  C   UNL     1      -9.848   8.790  67.064  1.00  0.00    -0.216 C  
HETATM   10  C   UNL     1      -8.455   8.349  67.086  1.00  0.00    -0.123 A  
HETATM   11  O   UNL     1     -10.781   8.011  66.974  1.00  0.00    -0.328 OA 
HETATM   12  C   UNL     1      -7.951   7.067  66.958  1.00  0.00    -0.116 A  
HETATM   13  C   UNL     1      -6.561   6.909  67.012  1.00  0.00    -0.047 A  
HETATM   14  C   UNL     1      -5.716   8.020  67.192  1.00  0.00    -0.038 A  
HETATM   15  C   UNL     1      -6.246   9.305  67.334  1.00  0.00    -0.058 A  
HETATM   16  C   UNL     1      -7.622   9.437  67.280  1.00  0.00    -0.091 A  
HETATM   17  C   UNL     1      -8.420  10.650  67.425  1.00  0.00    -0.122 C  
HETATM   18  O   UNL     1      -7.922  11.727  67.712  1.00  0.00    -0.125 OA 
ENDBRANCH   5   8
TORSDOF 1
ENDMDL
MODEL       95
REMARK 921   NORMALIZED FREE ENERGY PREDICTED BY IDOCK:   -4.43 KCAL/MOL
REMARK 922        TOTAL FREE ENERGY PREDICTED BY IDOCK:   -5.03 KCAL/MOL
REMARK 923 INTER-LIGAND FREE ENERGY PREDICTED BY IDOCK:   -4.68 KCAL/MOL
REMARK 924 INTRA-LIGAND FREE ENERGY PREDICTED BY IDOCK:   -0.35 KCAL/MOL
REMARK 927      BINDING AFFINITY PREDICTED BY RF-SCORE:    0.00 PKD
ROOT
HETATM    1  F   UNL     1      -8.597   8.530  73.205  1.00  0.00    -0.273 F  
HETATM    2  C   UNL     1      -9.198   8.702  72.020  1.00  0.00    -0.268 A  
HETATM    3  C   UNL     1     -10.582   8.746  71.951  1.00  0.00    -0.425 A  
HETATM    4  C   UNL     1     -11.210   8.916  70.712  1.00  0.00    -0.321 A  
HETATM    5  C   UNL     1     -10.463   9.060  69.528  1.00  0.00    -0.223 A  
HETATM    6  C   UNL     1      -9.059   8.983  69.635  1.00  0.00    -0.155 A  
HETATM    7  C   UNL     1      -8.430   8.817  70.873  1.00  0.00    -0.209 A  
ENDROOT
BRANCH   5   8
HETATM    8  C   UNL     1     -11.133   9.182  68.163  1.00  0.00     0.106 C  
HETATM    9  C   UNL     1     -11.458  10.607  67.710  1.00  0.00    -0.137 C  
HETATM   10  C   UNL     1     -10.758  10.886  66.458  1.00  0.00    -0.270 A  
HETATM   11  O   UNL     1     -12.201  11.415  68.241  1.00  0.00    -0.588 OA 
HETATM   12  C   UNL     1     -10.748  12.052  65.713  1.00  0.00    -0.319 A  
HETATM   13  C   UNL     1      -9.987  12.065  64.539  1.00  0.00    -0.239 A  
HETATM   14  C   UNL     1      -9.263  10.925  64.138  1.00  0.00    -0.216 A  
HETATM   15  C   UNL     1      -9.299   9.753  64.897  1.00  0.00    -0.327 A  
HETATM   16  C   UNL     1     -10.059   9.763  66.052  1.00  0.00    -0.322 A  
HETATM   17  C   UNL     1     -10.281   8.674  66.997  1.00  0.00    -0.290 C  
HETATM   18  O   UNL     1      -9.859   7.546  66.803  1.00  0.00    -0.201 OA 
ENDBRANCH   5   8
TORSDOF 1
ENDMDL
MODEL       96
REMARK 921   NORMALIZED FREE ENERGY PREDICTED BY IDOCK:   -4.42 KCAL/MOL
REMARK 922        TOTAL FREE ENERGY PREDICTED BY IDOCK:   -5.02 KCAL/MOL
REMARK 923 INTER-LIGAND FREE ENERGY PREDICTED BY IDOCK:   -4.80 KCAL/MOL
REMARK 924 INTRA-LIGAND FREE ENERGY PREDICTED BY IDOCK:   -0.22 KCAL/MOL
REMARK 927      BINDING AFFINITY PREDICTED BY RF-SCORE:    0.00 PKD
ROOT
HETATM    1  F   UNL     1     -13.080  14.644  65.873  1.00  0.00    -0.273 F  
HETATM    2  C   UNL     1     -12.313  13.620  65.475  1.00  0.00    -0.482 A  
HETATM    3  C   UNL     1     -12.278  13.267  64.135  1.00  0.00    -0.465 A  
HETATM    4  C   UNL     1     -11.485  12.192  63.721  1.00  0.00    -0.548 A  
HETATM    5  C   UNL     1     -10.704  11.464  64.638  1.00  0.00    -0.378 A  
HETATM    6  C   UNL     1     -10.786  11.835  65.996  1.00  0.00    -0.343 A  
HETATM    7  C   UNL     1     -11.576  12.912  66.411  1.00  0.00    -0.425 A  
ENDROOT
BRANCH   5   8
HETATM    8  C   UNL     1      -9.884  10.250  64.213  1.00  0.00    -0.357 C  
HETATM    9  C   UNL     1      -8.606  10.556  63.429  1.00  0.00    -0.172 C  
HETATM   10  C   UNL     1      -7.455  10.027  64.158  1.00  0.00    -0.132 A  
HETATM   11  O   UNL     1      -8.499  11.112  62.349  1.00  0.00    -0.272 OA 
HETATM   12  C   UNL     1      -6.113  10.100  63.828  1.00  0.00    -0.138 A  
HETATM   13  C   UNL     1      -5.197   9.510  64.706  1.00  0.00    -0.050 A  
HETATM   14  C   UNL     1      -5.636   8.866  65.879  1.00  0.00    -0.045 A  
HETATM   15  C   UNL     1      -6.996   8.791  66.186  1.00  0.00    -0.081 A  
HETATM   16  C   UNL     1      -7.884   9.380  65.304  1.00  0.00    -0.109 A  
HETATM   17  C   UNL     1      -9.340   9.419  65.378  1.00  0.00    -0.247 C  
HETATM   18  O   UNL     1      -9.965   8.823  66.240  1.00  0.00    -0.283 OA 
ENDBRANCH   5   8
TORSDOF 1
ENDMDL
MODEL       97
REMARK 921   NORMALIZED FREE ENERGY PREDICTED BY IDOCK:   -4.41 KCAL/MOL
REMARK 922        TOTAL FREE ENERGY PREDICTED BY IDOCK:   -5.00 KCAL/MOL
REMARK 923 INTER-LIGAND FREE ENERGY PREDICTED BY IDOCK:   -4.67 KCAL/MOL
REMARK 924 INTRA-LIGAND FREE ENERGY PREDICTED BY IDOCK:   -0.34 KCAL/MOL
REMARK 927      BINDING AFFINITY PREDICTED BY RF-SCORE:    0.00 PKD
ROOT
HETATM    1  F   UNL     1     -10.814  11.596  64.955  1.00  0.00    -0.323 F  
HETATM    2  C   UNL     1     -10.289  12.654  65.586  1.00  0.00    -0.273 A  
HETATM    3  C   UNL     1      -9.727  12.496  66.843  1.00  0.00    -0.232 A  
HETATM    4  C   UNL     1      -9.188  13.603  67.508  1.00  0.00    -0.218 A  
HETATM    5  C   UNL     1      -9.190  14.881  66.917  1.00  0.00    -0.265 A  
HETATM    6  C   UNL     1      -9.795  15.008  65.650  1.00  0.00    -0.380 A  
HETATM    7  C   UNL     1     -10.331  13.901  64.984  1.00  0.00    -0.418 A  
ENDROOT
BRANCH   5   8
HETATM    8  C   UNL     1      -8.664  16.110  67.654  1.00  0.00    -0.184 C  
HETATM    9  C   UNL     1      -7.166  16.382  67.501  1.00  0.00    -0.145 C  
HETATM   10  C   UNL     1      -6.976  17.700  66.899  1.00  0.00    -0.219 A  
HETATM   11  O   UNL     1      -6.233  15.675  67.841  1.00  0.00    -0.121 OA 
HETATM   12  C   UNL     1      -5.793  18.334  66.561  1.00  0.00    -0.188 A  
HETATM   13  C   UNL     1      -5.882  19.607  65.988  1.00  0.00    -0.182 A  
HETATM   14  C   UNL     1      -7.134  20.213  65.768  1.00  0.00    -0.311 A  
HETATM   15  C   UNL     1      -8.315  19.561  66.129  1.00  0.00    -0.333 A  
HETATM   16  C   UNL     1      -8.204  18.304  66.696  1.00  0.00    -0.282 A  
HETATM   17  C   UNL     1      -9.269  17.433  67.180  1.00  0.00    -0.237 C  
HETATM   18  O   UNL     1     -10.437  17.787  67.212  1.00  0.00    -0.356 OA 
ENDBRANCH   5   8
TORSDOF 1
ENDMDL
MODEL       98
REMARK 921   NORMALIZED FREE ENERGY PREDICTED BY IDOCK:   -4.41 KCAL/MOL
REMARK 922        TOTAL FREE ENERGY PREDICTED BY IDOCK:   -5.00 KCAL/MOL
REMARK 923 INTER-LIGAND FREE ENERGY PREDICTED BY IDOCK:   -4.55 KCAL/MOL
REMARK 924 INTRA-LIGAND FREE ENERGY PREDICTED BY IDOCK:   -0.45 KCAL/MOL
REMARK 927      BINDING AFFINITY PREDICTED BY RF-SCORE:    0.00 PKD
ROOT
HETATM    1  F   UNL     1      -7.083   6.730  66.958  1.00  0.00    -0.064 F  
HETATM    2  C   UNL     1      -7.711   7.894  67.170  1.00  0.00    -0.101 A  
HETATM    3  C   UNL     1      -7.873   8.789  66.123  1.00  0.00    -0.102 A  
HETATM    4  C   UNL     1      -8.518  10.010  66.346  1.00  0.00    -0.132 A  
HETATM    5  C   UNL     1      -9.025  10.346  67.616  1.00  0.00    -0.139 A  
HETATM    6  C   UNL     1      -8.818   9.423  68.661  1.00  0.00    -0.132 A  
HETATM    7  C   UNL     1      -8.175   8.201  68.438  1.00  0.00    -0.129 A  
ENDROOT
BRANCH   5   8
HETATM    8  C   UNL     1      -9.675  11.698  67.891  1.00  0.00    -0.181 C  
HETATM    9  C   UNL     1      -9.040  12.895  67.179  1.00  0.00    -0.220 C  
HETATM   10  C   UNL     1     -10.039  13.532  66.324  1.00  0.00    -0.298 A  
HETATM   11  O   UNL     1      -7.904  13.323  67.292  1.00  0.00    -0.165 OA 
HETATM   12  C   UNL     1      -9.892  14.624  65.487  1.00  0.00    -0.327 A  
HETATM   13  C   UNL     1     -11.015  15.041  64.764  1.00  0.00    -0.389 A  
HETATM   14  C   UNL     1     -12.245  14.369  64.891  1.00  0.00    -0.440 A  
HETATM   15  C   UNL     1     -12.376  13.277  65.753  1.00  0.00    -0.505 A  
HETATM   16  C   UNL     1     -11.254  12.883  66.459  1.00  0.00    -0.340 A  
HETATM   17  C   UNL     1     -11.131  11.802  67.432  1.00  0.00    -0.282 C  
HETATM   18  O   UNL     1     -12.092  11.150  67.806  1.00  0.00    -0.606 OA 
ENDBRANCH   5   8
TORSDOF 1
ENDMDL
MODEL       99
REMARK 921   NORMALIZED FREE ENERGY PREDICTED BY IDOCK:   -4.38 KCAL/MOL
REMARK 922        TOTAL FREE ENERGY PREDICTED BY IDOCK:   -4.98 KCAL/MOL
REMARK 923 INTER-LIGAND FREE ENERGY PREDICTED BY IDOCK:   -4.52 KCAL/MOL
REMARK 924 INTRA-LIGAND FREE ENERGY PREDICTED BY IDOCK:   -0.46 KCAL/MOL
REMARK 927      BINDING AFFINITY PREDICTED BY RF-SCORE:    0.00 PKD
ROOT
HETATM    1  F   UNL     1      -7.616   7.107  69.229  1.00  0.00    -0.091 F  
HETATM    2  C   UNL     1      -8.438   8.013  68.683  1.00  0.00    -0.128 A  
HETATM    3  C   UNL     1      -7.919   9.193  68.172  1.00  0.00    -0.100 A  
HETATM    4  C   UNL     1      -8.778  10.144  67.611  1.00  0.00    -0.121 A  
HETATM    5  C   UNL     1     -10.166   9.922  67.540  1.00  0.00    -0.265 A  
HETATM    6  C   UNL     1     -10.660   8.723  68.095  1.00  0.00    -0.203 A  
HETATM    7  C   UNL     1      -9.801   7.771  68.652  1.00  0.00    -0.174 A  
ENDROOT
BRANCH   5   8
HETATM    8  C   UNL     1     -11.123  10.975  66.990  1.00  0.00    -0.311 C  
HETATM    9  C   UNL     1     -11.439  12.139  67.932  1.00  0.00    -0.328 C  
HETATM   10  C   UNL     1     -11.030  13.393  67.304  1.00  0.00    -0.286 A  
HETATM   11  O   UNL     1     -11.978  12.098  69.025  1.00  0.00    -0.297 OA 
HETATM   12  C   UNL     1     -11.107  14.679  67.808  1.00  0.00    -0.306 A  
HETATM   13  C   UNL     1     -10.640  15.721  66.999  1.00  0.00    -0.316 A  
HETATM   14  C   UNL     1     -10.113  15.459  65.719  1.00  0.00    -0.391 A  
HETATM   15  C   UNL     1     -10.058  14.154  65.224  1.00  0.00    -0.364 A  
HETATM   16  C   UNL     1     -10.527  13.140  66.039  1.00  0.00    -0.291 A  
HETATM   17  C   UNL     1     -10.604  11.712  65.753  1.00  0.00    -0.271 C  
HETATM   18  O   UNL     1     -10.322  11.250  64.659  1.00  0.00    -0.274 OA 
ENDBRANCH   5   8
TORSDOF 1
ENDMDL
MODEL      100
REMARK 921   NORMALIZED FREE ENERGY PREDICTED BY IDOCK:   -4.37 KCAL/MOL
REMARK 922        TOTAL FREE ENERGY PREDICTED BY IDOCK:   -4.97 KCAL/MOL
REMARK 923 INTER-LIGAND FREE ENERGY PREDICTED BY IDOCK:   -4.52 KCAL/MOL
REMARK 924 INTRA-LIGAND FREE ENERGY PREDICTED BY IDOCK:   -0.45 KCAL/MOL
REMARK 927      BINDING AFFINITY PREDICTED BY RF-SCORE:    0.00 PKD
ROOT
HETATM    1  F   UNL     1     -13.892  11.232  72.329  1.00  0.00    -0.328 F  
HETATM    2  C   UNL     1     -12.957  10.397  71.858  1.00  0.00    -0.450 A  
HETATM    3  C   UNL     1     -12.155  10.790  70.798  1.00  0.00    -0.473 A  
HETATM    4  C   UNL     1     -11.184   9.915  70.298  1.00  0.00    -0.364 A  
HETATM    5  C   UNL     1     -10.992   8.640  70.863  1.00  0.00    -0.301 A  
HETATM    6  C   UNL     1     -11.845   8.265  71.922  1.00  0.00    -0.380 A  
HETATM    7  C   UNL     1     -12.812   9.141  72.423  1.00  0.00    -0.438 A  
ENDROOT
BRANCH   5   8
HETATM    8  C   UNL     1      -9.983   7.649  70.290  1.00  0.00    -0.189 C  
HETATM    9  C   UNL     1     -10.432   6.898  69.035  1.00  0.00    -0.208 C  
HETATM   10  C   UNL     1      -9.505   7.186  67.943  1.00  0.00    -0.135 A  
HETATM   11  O   UNL     1     -11.377   6.137  68.910  1.00  0.00    -0.367 OA 
HETATM   12  C   UNL     1      -9.544   6.741  66.634  1.00  0.00    -0.211 A  
HETATM   13  C   UNL     1      -8.527   7.169  65.773  1.00  0.00    -0.151 A  
HETATM   14  C   UNL     1      -7.505   8.021  66.234  1.00  0.00    -0.082 A  
HETATM   15  C   UNL     1      -7.476   8.447  67.563  1.00  0.00    -0.094 A  
HETATM   16  C   UNL     1      -8.490   8.010  68.397  1.00  0.00    -0.127 A  
HETATM   17  C   UNL     1      -8.674   8.286  69.817  1.00  0.00    -0.134 C  
HETATM   18  O   UNL     1      -7.851   8.902  70.474  1.00  0.00    -0.084 OA 
ENDBRANCH   5   8
TORSDOF 1
ENDMDL
MODEL      101
REMARK 921   NORMALIZED FREE ENERGY PREDICTED BY IDOCK:   -4.36 KCAL/MOL
REMARK 922        TOTAL FREE ENERGY PREDICTED BY IDOCK:   -4.95 KCAL/MOL
REMARK 923 INTER-LIGAND FREE ENERGY PREDICTED BY IDOCK:   -4.50 KCAL/MOL
REMARK 924 INTRA-LIGAND FREE ENERGY PREDICTED BY IDOCK:   -0.45 KCAL/MOL
REMARK 927      BINDING AFFINITY PREDICTED BY RF-SCORE:    0.00 PKD
ROOT
HETATM    1  F   UNL     1     -13.354  14.294  65.363  1.00  0.00    -0.478 F  
HETATM    2  C   UNL     1     -12.522  13.318  65.748  1.00  0.00    -0.417 A  
HETATM    3  C   UNL     1     -12.269  13.122  67.096  1.00  0.00    -0.250 A  
HETATM    4  C   UNL     1     -11.392  12.108  67.499  1.00  0.00    -0.392 A  
HETATM    5  C   UNL     1     -10.769  11.267  66.558  1.00  0.00    -0.323 A  
HETATM    6  C   UNL     1     -11.030  11.514  65.194  1.00  0.00    -0.298 A  
HETATM    7  C   UNL     1     -11.909  12.524  64.792  1.00  0.00    -0.440 A  
ENDROOT
BRANCH   5   8
HETATM    8  C   UNL     1      -9.761  10.199  66.975  1.00  0.00    -0.224 C  
HETATM    9  C   UNL     1      -8.812  10.592  68.109  1.00  0.00    -0.134 C  
HETATM   10  C   UNL     1      -8.989   9.667  69.227  1.00  0.00    -0.173 A  
HETATM   11  O   UNL     1      -7.992  11.494  68.127  1.00  0.00    -0.121 OA 
HETATM   12  C   UNL     1      -8.357   9.666  70.457  1.00  0.00    -0.134 A  
HETATM   13  C   UNL     1      -8.710   8.662  71.366  1.00  0.00    -0.262 A  
HETATM   14  C   UNL     1      -9.673   7.692  71.030  1.00  0.00    -0.169 A  
HETATM   15  C   UNL     1     -10.289   7.703  69.776  1.00  0.00    -0.223 A  
HETATM   16  C   UNL     1      -9.924   8.703  68.893  1.00  0.00    -0.197 A  
HETATM   17  C   UNL     1     -10.393   8.920  67.529  1.00  0.00    -0.263 C  
HETATM   18  O   UNL     1     -11.142   8.139  66.965  1.00  0.00     0.002 OA 
ENDBRANCH   5   8
TORSDOF 1
ENDMDL
MODEL      102
REMARK 921   NORMALIZED FREE ENERGY PREDICTED BY IDOCK:   -4.35 KCAL/MOL
REMARK 922        TOTAL FREE ENERGY PREDICTED BY IDOCK:   -4.95 KCAL/MOL
REMARK 923 INTER-LIGAND FREE ENERGY PREDICTED BY IDOCK:   -4.47 KCAL/MOL
REMARK 924 INTRA-LIGAND FREE ENERGY PREDICTED BY IDOCK:   -0.48 KCAL/MOL
REMARK 927      BINDING AFFINITY PREDICTED BY RF-SCORE:    0.00 PKD
ROOT
HETATM    1  F   UNL     1     -13.893  12.140  72.107  1.00  0.00    -0.432 F  
HETATM    2  C   UNL     1     -12.995  11.286  71.600  1.00  0.00    -0.432 A  
HETATM    3  C   UNL     1     -12.934   9.987  72.078  1.00  0.00    -0.514 A  
HETATM    4  C   UNL     1     -11.989   9.097  71.556  1.00  0.00    -0.422 A  
HETATM    5  C   UNL     1     -11.102   9.491  70.537  1.00  0.00    -0.342 A  
HETATM    6  C   UNL     1     -11.175  10.828  70.095  1.00  0.00    -0.345 A  
HETATM    7  C   UNL     1     -12.121  11.716  70.614  1.00  0.00    -0.432 A  
ENDROOT
BRANCH   5   8
HETATM    8  C   UNL     1     -10.023   8.554  70.001  1.00  0.00    -0.191 C  
HETATM    9  C   UNL     1     -10.000   8.371  68.482  1.00  0.00    -0.187 C  
HETATM   10  C   UNL     1      -8.702   8.799  67.965  1.00  0.00    -0.141 A  
HETATM   11  O   UNL     1     -10.874   7.913  67.764  1.00  0.00    -0.152 OA 
HETATM   12  C   UNL     1      -8.259   8.828  66.654  1.00  0.00    -0.107 A  
HETATM   13  C   UNL     1      -6.959   9.290  66.420  1.00  0.00    -0.084 A  
HETATM   14  C   UNL     1      -6.139   9.705  67.487  1.00  0.00    -0.052 A  
HETATM   15  C   UNL     1      -6.600   9.653  68.804  1.00  0.00    -0.047 A  
HETATM   16  C   UNL     1      -7.888   9.192  69.012  1.00  0.00    -0.090 A  
HETATM   17  C   UNL     1      -8.592   9.018  70.278  1.00  0.00    -0.178 C  
HETATM   18  O   UNL     1      -8.048   9.193  71.357  1.00  0.00    -0.318 OA 
ENDBRANCH   5   8
TORSDOF 1
ENDMDL
MODEL      103
REMARK 921   NORMALIZED FREE ENERGY PREDICTED BY IDOCK:   -4.34 KCAL/MOL
REMARK 922        TOTAL FREE ENERGY PREDICTED BY IDOCK:   -4.93 KCAL/MOL
REMARK 923 INTER-LIGAND FREE ENERGY PREDICTED BY IDOCK:   -4.55 KCAL/MOL
REMARK 924 INTRA-LIGAND FREE ENERGY PREDICTED BY IDOCK:   -0.38 KCAL/MOL
REMARK 927      BINDING AFFINITY PREDICTED BY RF-SCORE:    0.00 PKD
ROOT
HETATM    1  F   UNL     1     -13.883  11.303  71.773  1.00  0.00    -0.174 F  
HETATM    2  C   UNL     1     -12.819  10.519  71.553  1.00  0.00    -0.463 A  
HETATM    3  C   UNL     1     -11.865  10.900  70.623  1.00  0.00    -0.453 A  
HETATM    4  C   UNL     1     -10.759  10.076  70.385  1.00  0.00    -0.369 A  
HETATM    5  C   UNL     1     -10.585   8.868  71.086  1.00  0.00    -0.335 A  
HETATM    6  C   UNL     1     -11.590   8.501  72.004  1.00  0.00    -0.432 A  
HETATM    7  C   UNL     1     -12.693   9.325  72.245  1.00  0.00    -0.435 A  
ENDROOT
BRANCH   5   8
HETATM    8  C   UNL     1      -9.419   7.928  70.793  1.00  0.00    -0.163 C  
HETATM    9  C   UNL     1      -9.095   6.914  71.893  1.00  0.00    -0.141 C  
HETATM   10  C   UNL     1      -9.226   5.562  71.354  1.00  0.00    -0.167 A  
HETATM   11  O   UNL     1      -8.741   7.132  73.039  1.00  0.00    -0.122 OA 
HETATM   12  C   UNL     1      -9.052   4.351  72.002  1.00  0.00    -0.159 A  
HETATM   13  C   UNL     1      -9.242   3.184  71.255  1.00  0.00    -0.193 A  
HETATM   14  C   UNL     1      -9.596   3.249  69.894  1.00  0.00    -0.172 A  
HETATM   15  C   UNL     1      -9.753   4.481  69.255  1.00  0.00    -0.260 A  
HETATM   16  C   UNL     1      -9.559   5.622  70.012  1.00  0.00    -0.214 A  
HETATM   17  C   UNL     1      -9.635   7.015  69.584  1.00  0.00    -0.150 C  
HETATM   18  O   UNL     1      -9.807   7.330  68.418  1.00  0.00    -0.149 OA 
ENDBRANCH   5   8
TORSDOF 1
ENDMDL
MODEL      104
REMARK 921   NORMALIZED FREE ENERGY PREDICTED BY IDOCK:   -4.32 KCAL/MOL
REMARK 922        TOTAL FREE ENERGY PREDICTED BY IDOCK:   -4.91 KCAL/MOL
REMARK 923 INTER-LIGAND FREE ENERGY PREDICTED BY IDOCK:   -4.43 KCAL/MOL
REMARK 924 INTRA-LIGAND FREE ENERGY PREDICTED BY IDOCK:   -0.48 KCAL/MOL
REMARK 927      BINDING AFFINITY PREDICTED BY RF-SCORE:    0.00 PKD
ROOT
HETATM    1  F   UNL     1     -13.539  12.652  71.275  1.00  0.00    -0.214 F  
HETATM    2  C   UNL     1     -12.860  11.498  71.266  1.00  0.00    -0.360 A  
HETATM    3  C   UNL     1     -13.212  10.485  72.144  1.00  0.00    -0.398 A  
HETATM    4  C   UNL     1     -12.496   9.283  72.143  1.00  0.00    -0.421 A  
HETATM    5  C   UNL     1     -11.428   9.072  71.251  1.00  0.00    -0.390 A  
HETATM    6  C   UNL     1     -11.081  10.134  70.392  1.00  0.00    -0.393 A  
HETATM    7  C   UNL     1     -11.799  11.335  70.391  1.00  0.00    -0.443 A  
ENDROOT
BRANCH   5   8
HETATM    8  C   UNL     1     -10.596   7.793  71.279  1.00  0.00    -0.241 C  
HETATM    9  C   UNL     1     -10.505   7.034  69.954  1.00  0.00    -0.217 C  
HETATM   10  C   UNL     1      -9.104   6.938  69.549  1.00  0.00    -0.142 A  
HETATM   11  O   UNL     1     -11.409   6.532  69.308  1.00  0.00    -0.335 OA 
HETATM   12  C   UNL     1      -8.569   6.360  68.411  1.00  0.00    -0.115 A  
HETATM   13  C   UNL     1      -7.179   6.404  68.255  1.00  0.00    -0.085 A  
HETATM   14  C   UNL     1      -6.363   7.015  69.227  1.00  0.00    -0.035 A  
HETATM   15  C   UNL     1      -6.923   7.580  70.375  1.00  0.00    -0.052 A  
HETATM   16  C   UNL     1      -8.298   7.524  70.510  1.00  0.00    -0.131 A  
HETATM   17  C   UNL     1      -9.119   8.010  71.614  1.00  0.00    -0.150 C  
HETATM   18  O   UNL     1      -8.633   8.470  72.634  1.00  0.00    -0.306 OA 
ENDBRANCH   5   8
TORSDOF 1
ENDMDL
MODEL      105
REMARK 921   NORMALIZED FREE ENERGY PREDICTED BY IDOCK:   -4.31 KCAL/MOL
REMARK 922        TOTAL FREE ENERGY PREDICTED BY IDOCK:   -4.90 KCAL/MOL
REMARK 923 INTER-LIGAND FREE ENERGY PREDICTED BY IDOCK:   -4.59 KCAL/MOL
REMARK 924 INTRA-LIGAND FREE ENERGY PREDICTED BY IDOCK:   -0.31 KCAL/MOL
REMARK 927      BINDING AFFINITY PREDICTED BY RF-SCORE:    0.00 PKD
ROOT
HETATM    1  F   UNL     1     -10.687   5.121  68.534  1.00  0.00    -0.204 F  
HETATM    2  C   UNL     1     -10.385   6.344  68.078  1.00  0.00    -0.193 A  
HETATM    3  C   UNL     1      -9.666   6.481  66.902  1.00  0.00    -0.199 A  
HETATM    4  C   UNL     1      -9.341   7.758  66.430  1.00  0.00    -0.237 A  
HETATM    5  C   UNL     1      -9.746   8.915  67.121  1.00  0.00    -0.241 A  
HETATM    6  C   UNL     1     -10.452   8.736  68.328  1.00  0.00    -0.236 A  
HETATM    7  C   UNL     1     -10.779   7.460  68.798  1.00  0.00    -0.145 A  
ENDROOT
BRANCH   5   8
HETATM    8  C   UNL     1      -9.346  10.312  66.656  1.00  0.00    -0.192 C  
HETATM    9  C   UNL     1     -10.243  10.934  65.583  1.00  0.00    -0.263 C  
HETATM   10  C   UNL     1     -10.812  12.180  66.093  1.00  0.00    -0.317 A  
HETATM   11  O   UNL     1     -10.459  10.528  64.453  1.00  0.00    -0.304 OA 
HETATM   12  C   UNL     1     -11.691  13.048  65.471  1.00  0.00    -0.408 A  
HETATM   13  C   UNL     1     -12.092  14.184  66.183  1.00  0.00    -0.454 A  
HETATM   14  C   UNL     1     -11.611  14.426  67.484  1.00  0.00    -0.398 A  
HETATM   15  C   UNL     1     -10.712  13.543  68.088  1.00  0.00    -0.265 A  
HETATM   16  C   UNL     1     -10.328  12.428  67.365  1.00  0.00    -0.217 A  
HETATM   17  C   UNL     1      -9.393  11.378  67.753  1.00  0.00    -0.162 C  
HETATM   18  O   UNL     1      -8.749  11.428  68.789  1.00  0.00    -0.151 OA 
ENDBRANCH   5   8
TORSDOF 1
ENDMDL
MODEL      106
REMARK 921   NORMALIZED FREE ENERGY PREDICTED BY IDOCK:   -4.28 KCAL/MOL
REMARK 922        TOTAL FREE ENERGY PREDICTED BY IDOCK:   -4.87 KCAL/MOL
REMARK 923 INTER-LIGAND FREE ENERGY PREDICTED BY IDOCK:   -4.50 KCAL/MOL
REMARK 924 INTRA-LIGAND FREE ENERGY PREDICTED BY IDOCK:   -0.37 KCAL/MOL
REMARK 927      BINDING AFFINITY PREDICTED BY RF-SCORE:    0.00 PKD
ROOT
HETATM    1  F   UNL     1     -12.850  13.578  62.603  1.00  0.00     0.029 F  
HETATM    2  C   UNL     1     -12.395  13.705  63.856  1.00  0.00    -0.316 A  
HETATM    3  C   UNL     1     -11.671  14.832  64.214  1.00  0.00    -0.272 A  
HETATM    4  C   UNL     1     -11.186  14.960  65.520  1.00  0.00    -0.348 A  
HETATM    5  C   UNL     1     -11.433  13.970  66.491  1.00  0.00    -0.368 A  
HETATM    6  C   UNL     1     -12.149  12.827  66.082  1.00  0.00    -0.429 A  
HETATM    7  C   UNL     1     -12.636  12.700  64.777  1.00  0.00    -0.530 A  
ENDROOT
BRANCH   5   8
HETATM    8  C   UNL     1     -10.858  14.064  67.901  1.00  0.00    -0.255 C  
HETATM    9  C   UNL     1      -9.518  13.357  68.118  1.00  0.00    -0.218 C  
HETATM   10  C   UNL     1      -8.522  14.334  68.551  1.00  0.00    -0.164 A  
HETATM   11  O   UNL     1      -9.266  12.169  68.003  1.00  0.00    -0.181 OA 
HETATM   12  C   UNL     1      -7.182  14.137  68.834  1.00  0.00    -0.118 A  
HETATM   13  C   UNL     1      -6.433  15.250  69.231  1.00  0.00    -0.131 A  
HETATM   14  C   UNL     1      -7.032  16.521  69.337  1.00  0.00    -0.202 A  
HETATM   15  C   UNL     1      -8.389  16.695  69.060  1.00  0.00    -0.182 A  
HETATM   16  C   UNL     1      -9.111  15.581  68.671  1.00  0.00    -0.202 A  
HETATM   17  C   UNL     1     -10.532  15.490  68.353  1.00  0.00    -0.240 C  
HETATM   18  O   UNL     1     -11.292  16.434  68.491  1.00  0.00    -0.371 OA 
ENDBRANCH   5   8
TORSDOF 1
ENDMDL
MODEL      107
REMARK 921   NORMALIZED FREE ENERGY PREDICTED BY IDOCK:   -4.27 KCAL/MOL
REMARK 922        TOTAL FREE ENERGY PREDICTED BY IDOCK:   -4.86 KCAL/MOL
REMARK 923 INTER-LIGAND FREE ENERGY PREDICTED BY IDOCK:   -4.38 KCAL/MOL
REMARK 924 INTRA-LIGAND FREE ENERGY PREDICTED BY IDOCK:   -0.48 KCAL/MOL
REMARK 927      BINDING AFFINITY PREDICTED BY RF-SCORE:    0.00 PKD
ROOT
HETATM    1  F   UNL     1     -10.149   3.979  65.801  1.00  0.00    -0.191 F  
HETATM    2  C   UNL     1      -9.903   5.073  66.533  1.00  0.00    -0.199 A  
HETATM    3  C   UNL     1      -8.646   5.265  67.084  1.00  0.00    -0.105 A  
HETATM    4  C   UNL     1      -8.392   6.402  67.858  1.00  0.00    -0.118 A  
HETATM    5  C   UNL     1      -9.388   7.372  68.078  1.00  0.00    -0.136 A  
HETATM    6  C   UNL     1     -10.662   7.130  67.525  1.00  0.00    -0.344 A  
HETATM    7  C   UNL     1     -10.915   5.994  66.749  1.00  0.00    -0.305 A  
ENDROOT
BRANCH   5   8
HETATM    8  C   UNL     1      -9.147   8.585  68.971  1.00  0.00    -0.146 C  
HETATM    9  C   UNL     1      -9.419   9.946  68.326  1.00  0.00    -0.139 C  
HETATM   10  C   UNL     1     -10.454  10.642  69.087  1.00  0.00    -0.245 A  
HETATM   11  O   UNL     1      -8.870  10.444  67.357  1.00  0.00    -0.132 OA 
HETATM   12  C   UNL     1     -11.020  11.882  68.846  1.00  0.00    -0.285 A  
HETATM   13  C   UNL     1     -12.006  12.327  69.733  1.00  0.00    -0.365 A  
HETATM   14  C   UNL     1     -12.400  11.535  70.830  1.00  0.00    -0.472 A  
HETATM   15  C   UNL     1     -11.804  10.294  71.063  1.00  0.00    -0.472 A  
HETATM   16  C   UNL     1     -10.831   9.874  70.175  1.00  0.00    -0.356 A  
HETATM   17  C   UNL     1     -10.046   8.645  70.208  1.00  0.00    -0.187 C  
HETATM   18  O   UNL     1     -10.117   7.851  71.132  1.00  0.00    -0.184 OA 
ENDBRANCH   5   8
TORSDOF 1
ENDMDL
MODEL      108
REMARK 921   NORMALIZED FREE ENERGY PREDICTED BY IDOCK:   -4.26 KCAL/MOL
REMARK 922        TOTAL FREE ENERGY PREDICTED BY IDOCK:   -4.85 KCAL/MOL
REMARK 923 INTER-LIGAND FREE ENERGY PREDICTED BY IDOCK:   -4.37 KCAL/MOL
REMARK 924 INTRA-LIGAND FREE ENERGY PREDICTED BY IDOCK:   -0.48 KCAL/MOL
REMARK 927      BINDING AFFINITY PREDICTED BY RF-SCORE:    0.00 PKD
ROOT
HETATM    1  F   UNL     1      -5.310  14.302  69.572  1.00  0.00    -0.089 F  
HETATM    2  C   UNL     1      -6.522  14.526  69.048  1.00  0.00    -0.099 A  
HETATM    3  C   UNL     1      -7.325  15.525  69.574  1.00  0.00    -0.203 A  
HETATM    4  C   UNL     1      -8.595  15.753  69.033  1.00  0.00    -0.236 A  
HETATM    5  C   UNL     1      -9.073  14.995  67.948  1.00  0.00    -0.180 A  
HETATM    6  C   UNL     1      -8.239  13.969  67.457  1.00  0.00    -0.195 A  
HETATM    7  C   UNL     1      -6.968  13.744  67.995  1.00  0.00    -0.137 A  
ENDROOT
BRANCH   5   8
HETATM    8  C   UNL     1     -10.479  15.187  67.388  1.00  0.00    -0.264 C  
HETATM    9  C   UNL     1     -10.556  15.573  65.909  1.00  0.00    -0.339 C  
HETATM   10  C   UNL     1     -11.313  14.555  65.184  1.00  0.00    -0.366 A  
HETATM   11  O   UNL     1     -10.112  16.571  65.367  1.00  0.00    -0.570 OA 
HETATM   12  C   UNL     1     -11.603  14.490  63.833  1.00  0.00     0.173 A  
HETATM   13  C   UNL     1     -12.351  13.397  63.382  1.00  0.00    -0.343 A  
HETATM   14  C   UNL     1     -12.790  12.405  64.280  1.00  0.00    -0.356 A  
HETATM   15  C   UNL     1     -12.499  12.497  65.643  1.00  0.00    -0.141 A  
HETATM   16  C   UNL     1     -11.760  13.587  66.067  1.00  0.00    -0.389 A  
HETATM   17  C   UNL     1     -11.348  13.927  67.424  1.00  0.00    -0.326 C  
HETATM   18  O   UNL     1     -11.713  13.286  68.396  1.00  0.00    -0.313 OA 
ENDBRANCH   5   8
TORSDOF 1
ENDMDL
MODEL      109
REMARK 921   NORMALIZED FREE ENERGY PREDICTED BY IDOCK:   -4.25 KCAL/MOL
REMARK 922        TOTAL FREE ENERGY PREDICTED BY IDOCK:   -4.83 KCAL/MOL
REMARK 923 INTER-LIGAND FREE ENERGY PREDICTED BY IDOCK:   -4.38 KCAL/MOL
REMARK 924 INTRA-LIGAND FREE ENERGY PREDICTED BY IDOCK:   -0.45 KCAL/MOL
REMARK 927      BINDING AFFINITY PREDICTED BY RF-SCORE:    0.00 PKD
ROOT
HETATM    1  F   UNL     1      -8.230   7.819  68.518  1.00  0.00    -0.120 F  
HETATM    2  C   UNL     1      -9.145   8.794  68.600  1.00  0.00    -0.141 A  
HETATM    3  C   UNL     1      -8.738  10.118  68.647  1.00  0.00    -0.128 A  
HETATM    4  C   UNL     1      -9.693  11.136  68.743  1.00  0.00    -0.194 A  
HETATM    5  C   UNL     1     -11.070  10.844  68.777  1.00  0.00    -0.310 A  
HETATM    6  C   UNL     1     -11.444   9.485  68.754  1.00  0.00     0.301 A  
HETATM    7  C   UNL     1     -10.490   8.467  68.655  1.00  0.00    -0.200 A  
ENDROOT
BRANCH   5   8
HETATM    8  C   UNL     1     -12.121  11.937  68.946  1.00  0.00    -0.213 C  
HETATM    9  C   UNL     1     -12.319  12.450  70.374  1.00  0.00    -0.227 C  
HETATM   10  C   UNL     1     -12.035  13.883  70.415  1.00  0.00    -0.393 A  
HETATM   11  O   UNL     1     -12.688  11.826  71.354  1.00  0.00    -0.372 OA 
HETATM   12  C   UNL     1     -12.065  14.740  71.501  1.00  0.00    -0.411 A  
HETATM   13  C   UNL     1     -11.746  16.083  71.274  1.00  0.00    -0.516 A  
HETATM   14  C   UNL     1     -11.410  16.537  69.984  1.00  0.00    -0.063 A  
HETATM   15  C   UNL     1     -11.400  15.657  68.899  1.00  0.00    -0.341 A  
HETATM   16  C   UNL     1     -11.720  14.334  69.145  1.00  0.00    -0.360 A  
HETATM   17  C   UNL     1     -11.808  13.232  68.193  1.00  0.00    -0.353 C  
HETATM   18  O   UNL     1     -11.680  13.398  66.991  1.00  0.00    -0.339 OA 
ENDBRANCH   5   8
TORSDOF 1
ENDMDL
MODEL      110
REMARK 921   NORMALIZED FREE ENERGY PREDICTED BY IDOCK:   -4.22 KCAL/MOL
REMARK 922        TOTAL FREE ENERGY PREDICTED BY IDOCK:   -4.81 KCAL/MOL
REMARK 923 INTER-LIGAND FREE ENERGY PREDICTED BY IDOCK:   -4.35 KCAL/MOL
REMARK 924 INTRA-LIGAND FREE ENERGY PREDICTED BY IDOCK:   -0.46 KCAL/MOL
REMARK 927      BINDING AFFINITY PREDICTED BY RF-SCORE:    0.00 PKD
ROOT
HETATM    1  F   UNL     1      -9.597   4.113  64.727  1.00  0.00    -0.142 F  
HETATM    2  C   UNL     1      -9.511   4.899  65.808  1.00  0.00    -0.164 A  
HETATM    3  C   UNL     1      -8.267   5.303  66.266  1.00  0.00    -0.109 A  
HETATM    4  C   UNL     1      -8.175   6.116  67.401  1.00  0.00    -0.109 A  
HETATM    5  C   UNL     1      -9.328   6.548  68.084  1.00  0.00    -0.109 A  
HETATM    6  C   UNL     1     -10.573   6.094  67.605  1.00  0.00    -0.340 A  
HETATM    7  C   UNL     1     -10.665   5.285  66.468  1.00  0.00    -0.290 A  
ENDROOT
BRANCH   5   8
HETATM    8  C   UNL     1      -9.243   7.381  69.360  1.00  0.00    -0.145 C  
HETATM    9  C   UNL     1      -9.673   8.844  69.225  1.00  0.00    -0.165 C  
HETATM   10  C   UNL     1     -10.791   9.102  70.130  1.00  0.00    -0.269 A  
HETATM   11  O   UNL     1      -9.182   9.712  68.525  1.00  0.00    -0.136 OA 
HETATM   12  C   UNL     1     -11.502  10.274  70.315  1.00  0.00    -0.395 A  
HETATM   13  C   UNL     1     -12.542  10.261  71.251  1.00  0.00    -0.522 A  
HETATM   14  C   UNL     1     -12.844   9.091  71.976  1.00  0.00    -0.468 A  
HETATM   15  C   UNL     1     -12.104   7.922  71.784  1.00  0.00    -0.340 A  
HETATM   16  C   UNL     1     -11.080   7.959  70.855  1.00  0.00    -0.268 A  
HETATM   17  C   UNL     1     -10.152   6.894  70.491  1.00  0.00    -0.187 C  
HETATM   18  O   UNL     1     -10.132   5.820  71.069  1.00  0.00    -0.189 OA 
ENDBRANCH   5   8
TORSDOF 1
ENDMDL
MODEL      111
REMARK 921   NORMALIZED FREE ENERGY PREDICTED BY IDOCK:   -4.19 KCAL/MOL
REMARK 922        TOTAL FREE ENERGY PREDICTED BY IDOCK:   -4.78 KCAL/MOL
REMARK 923 INTER-LIGAND FREE ENERGY PREDICTED BY IDOCK:   -4.31 KCAL/MOL
REMARK 924 INTRA-LIGAND FREE ENERGY PREDICTED BY IDOCK:   -0.47 KCAL/MOL
REMARK 927      BINDING AFFINITY PREDICTED BY RF-SCORE:    0.00 PKD
ROOT
HETATM    1  F   UNL     1     -10.553   5.653  66.792  1.00  0.00    -0.236 F  
HETATM    2  C   UNL     1     -10.432   6.858  67.362  1.00  0.00    -0.269 A  
HETATM    3  C   UNL     1     -10.508   8.000  66.580  1.00  0.00    -0.199 A  
HETATM    4  C   UNL     1     -10.371   9.260  67.174  1.00  0.00    -0.330 A  
HETATM    5  C   UNL     1     -10.171   9.395  68.560  1.00  0.00    -0.223 A  
HETATM    6  C   UNL     1     -10.072   8.211  69.319  1.00  0.00    -0.202 A  
HETATM    7  C   UNL     1     -10.212   6.952  68.727  1.00  0.00    -0.179 A  
ENDROOT
BRANCH   5   8
HETATM    8  C   UNL     1      -9.956  10.757  69.214  1.00  0.00    -0.182 C  
HETATM    9  C   UNL     1      -8.918  11.657  68.541  1.00  0.00    -0.138 C  
HETATM   10  C   UNL     1      -9.560  12.899  68.116  1.00  0.00    -0.223 A  
HETATM   11  O   UNL     1      -7.726  11.449  68.387  1.00  0.00    -0.112 OA 
HETATM   12  C   UNL     1      -9.005  13.977  67.450  1.00  0.00    -0.208 A  
HETATM   13  C   UNL     1      -9.844  15.056  67.152  1.00  0.00    -0.233 A  
HETATM   14  C   UNL     1     -11.202  15.037  67.523  1.00  0.00    -0.333 A  
HETATM   15  C   UNL     1     -11.739  13.945  68.208  1.00  0.00    -0.396 A  
HETATM   16  C   UNL     1     -10.892  12.890  68.494  1.00  0.00    -0.283 A  
HETATM   17  C   UNL     1     -11.193  11.657  69.213  1.00  0.00    -0.265 C  
HETATM   18  O   UNL     1     -12.275  11.460  69.743  1.00  0.00    -0.298 OA 
ENDBRANCH   5   8
TORSDOF 1
ENDMDL
MODEL      112
REMARK 921   NORMALIZED FREE ENERGY PREDICTED BY IDOCK:   -4.19 KCAL/MOL
REMARK 922        TOTAL FREE ENERGY PREDICTED BY IDOCK:   -4.77 KCAL/MOL
REMARK 923 INTER-LIGAND FREE ENERGY PREDICTED BY IDOCK:   -4.32 KCAL/MOL
REMARK 924 INTRA-LIGAND FREE ENERGY PREDICTED BY IDOCK:   -0.46 KCAL/MOL
REMARK 927      BINDING AFFINITY PREDICTED BY RF-SCORE:    0.00 PKD
ROOT
HETATM    1  F   UNL     1      -7.411  15.790  67.504  1.00  0.00    -0.134 F  
HETATM    2  C   UNL     1      -8.148  14.706  67.230  1.00  0.00    -0.206 A  
HETATM    3  C   UNL     1      -9.161  14.784  66.287  1.00  0.00    -0.278 A  
HETATM    4  C   UNL     1      -9.939  13.655  66.008  1.00  0.00    -0.313 A  
HETATM    5  C   UNL     1      -9.703  12.428  66.656  1.00  0.00    -0.229 A  
HETATM    6  C   UNL     1      -8.682  12.394  67.628  1.00  0.00    -0.178 A  
HETATM    7  C   UNL     1      -7.903  13.522  67.905  1.00  0.00    -0.159 A  
ENDROOT
BRANCH   5   8
HETATM    8  C   UNL     1     -10.582  11.205  66.410  1.00  0.00    -0.315 C  
HETATM    9  C   UNL     1      -9.934  10.076  65.605  1.00  0.00    -0.285 C  
HETATM   10  C   UNL     1      -9.916   8.858  66.412  1.00  0.00    -0.354 A  
HETATM   11  O   UNL     1      -9.516  10.111  64.460  1.00  0.00    -0.261 OA 
HETATM   12  C   UNL     1      -9.405   7.613  66.089  1.00  0.00    -0.141 A  
HETATM   13  C   UNL     1      -9.511   6.601  67.049  1.00  0.00    -0.170 A  
HETATM   14  C   UNL     1     -10.120   6.849  68.294  1.00  0.00    -0.182 A  
HETATM   15  C   UNL     1     -10.643   8.110  68.594  1.00  0.00    -0.144 A  
HETATM   16  C   UNL     1     -10.528   9.095  67.630  1.00  0.00    -0.323 A  
HETATM   17  C   UNL     1     -11.009  10.471  67.683  1.00  0.00    -0.314 C  
HETATM   18  O   UNL     1     -11.679  10.893  68.612  1.00  0.00    -0.331 OA 
ENDBRANCH   5   8
TORSDOF 1
ENDMDL
MODEL      113
REMARK 921   NORMALIZED FREE ENERGY PREDICTED BY IDOCK:   -4.19 KCAL/MOL
REMARK 922        TOTAL FREE ENERGY PREDICTED BY IDOCK:   -4.77 KCAL/MOL
REMARK 923 INTER-LIGAND FREE ENERGY PREDICTED BY IDOCK:   -4.30 KCAL/MOL
REMARK 924 INTRA-LIGAND FREE ENERGY PREDICTED BY IDOCK:   -0.47 KCAL/MOL
REMARK 927      BINDING AFFINITY PREDICTED BY RF-SCORE:    0.00 PKD
ROOT
HETATM    1  F   UNL     1     -10.438  17.313  65.504  1.00  0.00    -0.335 F  
HETATM    2  C   UNL     1     -10.048  16.164  66.072  1.00  0.00    -0.351 A  
HETATM    3  C   UNL     1     -10.328  14.959  65.447  1.00  0.00    -0.413 A  
HETATM    4  C   UNL     1      -9.931  13.758  66.045  1.00  0.00    -0.319 A  
HETATM    5  C   UNL     1      -9.233  13.747  67.267  1.00  0.00    -0.239 A  
HETATM    6  C   UNL     1      -8.991  14.991  67.886  1.00  0.00    -0.175 A  
HETATM    7  C   UNL     1      -9.385  16.192  67.287  1.00  0.00    -0.220 A  
ENDROOT
BRANCH   5   8
HETATM    8  C   UNL     1      -8.849  12.445  67.964  1.00  0.00    -0.187 C  
HETATM    9  C   UNL     1     -10.015  11.535  68.356  1.00  0.00    -0.206 C  
HETATM   10  C   UNL     1      -9.863  10.244  67.689  1.00  0.00    -0.199 A  
HETATM   11  O   UNL     1     -10.932  11.774  69.124  1.00  0.00    -0.232 OA 
HETATM   12  C   UNL     1     -10.697   9.140  67.740  1.00  0.00    -0.243 A  
HETATM   13  C   UNL     1     -10.325   8.013  66.999  1.00  0.00    -0.414 A  
HETATM   14  C   UNL     1      -9.143   8.011  66.234  1.00  0.00    -0.232 A  
HETATM   15  C   UNL     1      -8.308   9.131  66.208  1.00  0.00    -0.121 A  
HETATM   16  C   UNL     1      -8.694  10.233  66.949  1.00  0.00    -0.131 A  
HETATM   17  C   UNL     1      -7.995  11.504  67.110  1.00  0.00    -0.160 C  
HETATM   18  O   UNL     1      -6.885  11.701  66.643  1.00  0.00    -0.120 OA 
ENDBRANCH   5   8
TORSDOF 1
ENDMDL
MODEL      114
REMARK 921   NORMALIZED FREE ENERGY PREDICTED BY IDOCK:   -4.17 KCAL/MOL
REMARK 922        TOTAL FREE ENERGY PREDICTED BY IDOCK:   -4.76 KCAL/MOL
REMARK 923 INTER-LIGAND FREE ENERGY PREDICTED BY IDOCK:   -4.75 KCAL/MOL
REMARK 924 INTRA-LIGAND FREE ENERGY PREDICTED BY IDOCK:   -0.01 KCAL/MOL
REMARK 927      BINDING AFFINITY PREDICTED BY RF-SCORE:    0.00 PKD
ROOT
HETATM    1  F   UNL     1     -13.853  13.661  72.891  1.00  0.00    -0.567 F  
HETATM    2  C   UNL     1     -13.082  13.647  71.796  1.00  0.00    -0.382 A  
HETATM    3  C   UNL     1     -12.675  14.842  71.224  1.00  0.00    -0.412 A  
HETATM    4  C   UNL     1     -11.879  14.827  70.074  1.00  0.00    -0.362 A  
HETATM    5  C   UNL     1     -11.464  13.616  69.489  1.00  0.00    -0.324 A  
HETATM    6  C   UNL     1     -11.919  12.421  70.083  1.00  0.00    -0.376 A  
HETATM    7  C   UNL     1     -12.713  12.435  71.234  1.00  0.00    -0.347 A  
ENDROOT
BRANCH   5   8
HETATM    8  C   UNL     1     -10.649  13.582  68.200  1.00  0.00    -0.253 C  
HETATM    9  C   UNL     1      -9.955  14.892  67.820  1.00  0.00    -0.222 C  
HETATM   10  C   UNL     1      -8.513  14.671  67.750  1.00  0.00    -0.178 A  
HETATM   11  O   UNL     1     -10.467  15.970  67.568  1.00  0.00    -0.284 OA 
HETATM   12  C   UNL     1      -7.510  15.581  67.466  1.00  0.00    -0.209 A  
HETATM   13  C   UNL     1      -6.192  15.113  67.463  1.00  0.00    -0.079 A  
HETATM   14  C   UNL     1      -5.906  13.762  67.738  1.00  0.00    -0.103 A  
HETATM   15  C   UNL     1      -6.935  12.856  68.007  1.00  0.00    -0.108 A  
HETATM   16  C   UNL     1      -8.230  13.340  68.004  1.00  0.00    -0.162 A  
HETATM   17  C   UNL     1      -9.471  12.605  68.226  1.00  0.00    -0.203 C  
HETATM   18  O   UNL     1      -9.495  11.393  68.364  1.00  0.00    -0.183 OA 
ENDBRANCH   5   8
TORSDOF 1
ENDMDL
MODEL      115
REMARK 921   NORMALIZED FREE ENERGY PREDICTED BY IDOCK:   -4.14 KCAL/MOL
REMARK 922        TOTAL FREE ENERGY PREDICTED BY IDOCK:   -4.72 KCAL/MOL
REMARK 923 INTER-LIGAND FREE ENERGY PREDICTED BY IDOCK:   -4.24 KCAL/MOL
REMARK 924 INTRA-LIGAND FREE ENERGY PREDICTED BY IDOCK:   -0.48 KCAL/MOL
REMARK 927      BINDING AFFINITY PREDICTED BY RF-SCORE:    0.00 PKD
ROOT
HETATM    1  F   UNL     1     -12.126   5.291  72.957  1.00  0.00    -0.348 F  
HETATM    2  C   UNL     1     -11.494   5.974  71.994  1.00  0.00    -0.287 A  
HETATM    3  C   UNL     1     -10.380   5.424  71.378  1.00  0.00    -0.294 A  
HETATM    4  C   UNL     1      -9.713   6.140  70.379  1.00  0.00    -0.199 A  
HETATM    5  C   UNL     1     -10.160   7.411  69.971  1.00  0.00    -0.191 A  
HETATM    6  C   UNL     1     -11.279   7.950  70.638  1.00  0.00    -0.269 A  
HETATM    7  C   UNL     1     -11.948   7.232  71.635  1.00  0.00    -0.341 A  
ENDROOT
BRANCH   5   8
HETATM    8  C   UNL     1      -9.407   8.233  68.929  1.00  0.00    -0.147 C  
HETATM    9  C   UNL     1     -10.200   8.592  67.670  1.00  0.00    -0.239 C  
HETATM   10  C   UNL     1     -10.269  10.047  67.543  1.00  0.00    -0.260 A  
HETATM   11  O   UNL     1     -10.688   7.838  66.846  1.00  0.00    -0.345 OA 
HETATM   12  C   UNL     1     -10.905  10.802  66.574  1.00  0.00    -0.196 A  
HETATM   13  C   UNL     1     -10.824  12.194  66.680  1.00  0.00    -0.307 A  
HETATM   14  C   UNL     1     -10.116  12.796  67.739  1.00  0.00    -0.224 A  
HETATM   15  C   UNL     1      -9.468  12.015  68.699  1.00  0.00    -0.069 A  
HETATM   16  C   UNL     1      -9.561  10.641  68.573  1.00  0.00    -0.175 A  
HETATM   17  C   UNL     1      -8.961   9.613  69.418  1.00  0.00    -0.181 C  
HETATM   18  O   UNL     1      -8.198   9.883  70.331  1.00  0.00    -0.172 OA 
ENDBRANCH   5   8
TORSDOF 1
ENDMDL
MODEL      116
REMARK 921   NORMALIZED FREE ENERGY PREDICTED BY IDOCK:   -4.11 KCAL/MOL
REMARK 922        TOTAL FREE ENERGY PREDICTED BY IDOCK:   -4.69 KCAL/MOL
REMARK 923 INTER-LIGAND FREE ENERGY PREDICTED BY IDOCK:   -4.29 KCAL/MOL
REMARK 924 INTRA-LIGAND FREE ENERGY PREDICTED BY IDOCK:   -0.40 KCAL/MOL
REMARK 927      BINDING AFFINITY PREDICTED BY RF-SCORE:    0.00 PKD
ROOT
HETATM    1  F   UNL     1      -8.603   9.393  62.578  1.00  0.00    -0.155 F  
HETATM    2  C   UNL     1      -8.833   9.982  63.759  1.00  0.00    -0.231 A  
HETATM    3  C   UNL     1      -9.806  10.963  63.859  1.00  0.00    -0.385 A  
HETATM    4  C   UNL     1     -10.041  11.586  65.090  1.00  0.00    -0.313 A  
HETATM    5  C   UNL     1      -9.315  11.224  66.241  1.00  0.00    -0.226 A  
HETATM    6  C   UNL     1      -8.316  10.241  66.094  1.00  0.00    -0.140 A  
HETATM    7  C   UNL     1      -8.084   9.616  64.864  1.00  0.00    -0.133 A  
ENDROOT
BRANCH   5   8
HETATM    8  C   UNL     1      -9.514  11.937  67.575  1.00  0.00    -0.176 C  
HETATM    9  C   UNL     1      -8.615  13.152  67.816  1.00  0.00    -0.188 C  
HETATM   10  C   UNL     1      -9.449  14.336  68.015  1.00  0.00    -0.204 A  
HETATM   11  O   UNL     1      -7.398  13.189  67.881  1.00  0.00    -0.101 OA 
HETATM   12  C   UNL     1      -9.056  15.644  68.238  1.00  0.00    -0.187 A  
HETATM   13  C   UNL     1     -10.061  16.604  68.396  1.00  0.00    -0.268 A  
HETATM   14  C   UNL     1     -11.421  16.242  68.331  1.00  0.00    -0.243 A  
HETATM   15  C   UNL     1     -11.796  14.913  68.120  1.00  0.00    -0.307 A  
HETATM   16  C   UNL     1     -10.785  13.980  67.968  1.00  0.00    -0.253 A  
HETATM   17  C   UNL     1     -10.907  12.541  67.765  1.00  0.00    -0.225 C  
HETATM   18  O   UNL     1     -11.984  11.967  67.796  1.00  0.00    -0.559 OA 
ENDBRANCH   5   8
TORSDOF 1
ENDMDL
MODEL      117
REMARK 921   NORMALIZED FREE ENERGY PREDICTED BY IDOCK:   -4.10 KCAL/MOL
REMARK 922        TOTAL FREE ENERGY PREDICTED BY IDOCK:   -4.68 KCAL/MOL
REMARK 923 INTER-LIGAND FREE ENERGY PREDICTED BY IDOCK:   -4.20 KCAL/MOL
REMARK 924 INTRA-LIGAND FREE ENERGY PREDICTED BY IDOCK:   -0.48 KCAL/MOL
REMARK 927      BINDING AFFINITY PREDICTED BY RF-SCORE:    0.00 PKD
ROOT
HETATM    1  F   UNL     1      -6.306  10.312  63.722  1.00  0.00    -0.125 F  
HETATM    2  C   UNL     1      -7.328   9.944  64.505  1.00  0.00    -0.140 A  
HETATM    3  C   UNL     1      -8.619  10.327  64.176  1.00  0.00    -0.198 A  
HETATM    4  C   UNL     1      -9.686   9.952  65.000  1.00  0.00    -0.359 A  
HETATM    5  C   UNL     1      -9.479   9.175  66.155  1.00  0.00    -0.309 A  
HETATM    6  C   UNL     1      -8.149   8.828  66.472  1.00  0.00    -0.103 A  
HETATM    7  C   UNL     1      -7.083   9.200  65.647  1.00  0.00    -0.082 A  
ENDROOT
BRANCH   5   8
HETATM    8  C   UNL     1     -10.622   8.812  67.098  1.00  0.00    -0.303 C  
HETATM    9  C   UNL     1     -10.780   7.321  67.403  1.00  0.00    -0.288 C  
HETATM   10  C   UNL     1     -10.641   7.107  68.842  1.00  0.00    -0.218 A  
HETATM   11  O   UNL     1     -11.021   6.414  66.625  1.00  0.00    -0.304 OA 
HETATM   12  C   UNL     1     -10.688   5.918  69.548  1.00  0.00    -0.414 A  
HETATM   13  C   UNL     1     -10.522   5.982  70.936  1.00  0.00    -0.293 A  
HETATM   14  C   UNL     1     -10.317   7.217  71.581  1.00  0.00    -0.214 A  
HETATM   15  C   UNL     1     -10.287   8.407  70.850  1.00  0.00    -0.234 A  
HETATM   16  C   UNL     1     -10.455   8.320  69.480  1.00  0.00    -0.228 A  
HETATM   17  C   UNL     1     -10.491   9.403  68.503  1.00  0.00    -0.208 C  
HETATM   18  O   UNL     1     -10.458  10.578  68.831  1.00  0.00    -0.182 OA 
ENDBRANCH   5   8
TORSDOF 1
ENDMDL
MODEL      118
REMARK 921   NORMALIZED FREE ENERGY PREDICTED BY IDOCK:   -4.10 KCAL/MOL
REMARK 922        TOTAL FREE ENERGY PREDICTED BY IDOCK:   -4.68 KCAL/MOL
REMARK 923 INTER-LIGAND FREE ENERGY PREDICTED BY IDOCK:   -4.44 KCAL/MOL
REMARK 924 INTRA-LIGAND FREE ENERGY PREDICTED BY IDOCK:   -0.24 KCAL/MOL
REMARK 927      BINDING AFFINITY PREDICTED BY RF-SCORE:    0.00 PKD
ROOT
HETATM    1  F   UNL     1     -12.325  16.417  71.723  1.00  0.00    -0.475 F  
HETATM    2  C   UNL     1     -11.835  15.484  70.896  1.00  0.00    -0.371 A  
HETATM    3  C   UNL     1     -12.391  14.214  70.884  1.00  0.00    -0.438 A  
HETATM    4  C   UNL     1     -11.873  13.237  70.028  1.00  0.00    -0.365 A  
HETATM    5  C   UNL     1     -10.802  13.521  69.160  1.00  0.00    -0.173 A  
HETATM    6  C   UNL     1     -10.245  14.815  69.220  1.00  0.00    -0.193 A  
HETATM    7  C   UNL     1     -10.765  15.793  70.073  1.00  0.00    -0.347 A  
ENDROOT
BRANCH   5   8
HETATM    8  C   UNL     1     -10.184  12.450  68.266  1.00  0.00    -0.230 C  
HETATM    9  C   UNL     1      -8.805  11.943  68.697  1.00  0.00    -0.038 C  
HETATM   10  C   UNL     1      -8.876  10.505  68.945  1.00  0.00    -0.166 A  
HETATM   11  O   UNL     1      -7.768  12.577  68.799  1.00  0.00    -0.092 OA 
HETATM   12  C   UNL     1      -7.876   9.650  69.373  1.00  0.00    -0.104 A  
HETATM   13  C   UNL     1      -8.204   8.301  69.538  1.00  0.00    -0.119 A  
HETATM   14  C   UNL     1      -9.508   7.838  69.275  1.00  0.00    -0.155 A  
HETATM   15  C   UNL     1     -10.500   8.716  68.830  1.00  0.00    -0.209 A  
HETATM   16  C   UNL     1     -10.152  10.045  68.671  1.00  0.00    -0.187 A  
HETATM   17  C   UNL     1     -10.985  11.147  68.200  1.00  0.00    -0.238 C  
HETATM   18  O   UNL     1     -12.122  10.976  67.791  1.00  0.00    -0.534 OA 
ENDBRANCH   5   8
TORSDOF 1
ENDMDL
MODEL      119
REMARK 921   NORMALIZED FREE ENERGY PREDICTED BY IDOCK:   -4.07 KCAL/MOL
REMARK 922        TOTAL FREE ENERGY PREDICTED BY IDOCK:   -4.65 KCAL/MOL
REMARK 923 INTER-LIGAND FREE ENERGY PREDICTED BY IDOCK:   -4.41 KCAL/MOL
REMARK 924 INTRA-LIGAND FREE ENERGY PREDICTED BY IDOCK:   -0.24 KCAL/MOL
REMARK 927      BINDING AFFINITY PREDICTED BY RF-SCORE:    0.00 PKD
ROOT
HETATM    1  F   UNL     1     -10.463   8.650  69.130  1.00  0.00    -0.209 F  
HETATM    2  C   UNL     1     -10.586   9.956  68.863  1.00  0.00    -0.218 A  
HETATM    3  C   UNL     1      -9.985  10.486  67.732  1.00  0.00    -0.198 A  
HETATM    4  C   UNL     1     -10.104  11.853  67.457  1.00  0.00    -0.206 A  
HETATM    5  C   UNL     1     -10.841  12.705  68.302  1.00  0.00    -0.261 A  
HETATM    6  C   UNL     1     -11.415  12.135  69.456  1.00  0.00    -0.334 A  
HETATM    7  C   UNL     1     -11.299  10.768  69.729  1.00  0.00    -0.372 A  
ENDROOT
BRANCH   5   8
HETATM    8  C   UNL     1     -10.928  14.208  68.052  1.00  0.00    -0.269 C  
HETATM    9  C   UNL     1     -10.129  15.087  69.017  1.00  0.00    -0.241 C  
HETATM   10  C   UNL     1      -9.151  15.866  68.261  1.00  0.00    -0.185 A  
HETATM   11  O   UNL     1     -10.262  15.194  70.224  1.00  0.00    -0.167 OA 
HETATM   12  C   UNL     1      -8.211  16.766  68.732  1.00  0.00    -0.250 A  
HETATM   13  C   UNL     1      -7.380  17.386  67.792  1.00  0.00    -0.184 A  
HETATM   14  C   UNL     1      -7.506  17.100  66.419  1.00  0.00    -0.341 A  
HETATM   15  C   UNL     1      -8.472  16.200  65.963  1.00  0.00    -0.155 A  
HETATM   16  C   UNL     1      -9.283  15.599  66.910  1.00  0.00    -0.257 A  
HETATM   17  C   UNL     1     -10.373  14.653  66.697  1.00  0.00    -0.273 C  
HETATM   18  O   UNL     1     -10.758  14.342  65.581  1.00  0.00    -0.295 OA 
ENDBRANCH   5   8
TORSDOF 1
ENDMDL
MODEL      120
REMARK 921   NORMALIZED FREE ENERGY PREDICTED BY IDOCK:   -4.07 KCAL/MOL
REMARK 922        TOTAL FREE ENERGY PREDICTED BY IDOCK:   -4.65 KCAL/MOL
REMARK 923 INTER-LIGAND FREE ENERGY PREDICTED BY IDOCK:   -4.17 KCAL/MOL
REMARK 924 INTRA-LIGAND FREE ENERGY PREDICTED BY IDOCK:   -0.48 KCAL/MOL
REMARK 927      BINDING AFFINITY PREDICTED BY RF-SCORE:    0.00 PKD
ROOT
HETATM    1  F   UNL     1      -7.764  11.653  69.008  1.00  0.00    -0.125 F  
HETATM    2  C   UNL     1      -8.509  10.566  69.248  1.00  0.00    -0.129 A  
HETATM    3  C   UNL     1      -9.699  10.381  68.562  1.00  0.00    -0.174 A  
HETATM    4  C   UNL     1     -10.482   9.252  68.821  1.00  0.00    -0.233 A  
HETATM    5  C   UNL     1     -10.078   8.282  69.758  1.00  0.00    -0.197 A  
HETATM    6  C   UNL     1      -8.875   8.517  70.456  1.00  0.00    -0.168 A  
HETATM    7  C   UNL     1      -8.091   9.645  70.195  1.00  0.00    -0.205 A  
ENDROOT
BRANCH   5   8
HETATM    8  C   UNL     1     -10.950   7.078  70.098  1.00  0.00    -0.306 C  
HETATM    9  C   UNL     1     -10.311   5.708  69.859  1.00  0.00    -0.277 C  
HETATM   10  C   UNL     1     -10.263   4.972  71.120  1.00  0.00    -0.281 A  
HETATM   11  O   UNL     1      -9.918   5.233  68.806  1.00  0.00    -0.153 OA 
HETATM   12  C   UNL     1      -9.747   3.712  71.367  1.00  0.00    -0.241 A  
HETATM   13  C   UNL     1      -9.822   3.227  72.678  1.00  0.00    -0.207 A  
HETATM   14  C   UNL     1     -10.405   4.001  73.700  1.00  0.00    -0.237 A  
HETATM   15  C   UNL     1     -10.933   5.264  73.425  1.00  0.00    -0.372 A  
HETATM   16  C   UNL     1     -10.850   5.723  72.123  1.00  0.00    -0.296 A  
HETATM   17  C   UNL     1     -11.342   6.982  71.575  1.00  0.00    -0.258 C  
HETATM   18  O   UNL     1     -11.995   7.771  72.238  1.00  0.00    -0.310 OA 
ENDBRANCH   5   8
TORSDOF 1
ENDMDL
MODEL      121
REMARK 921   NORMALIZED FREE ENERGY PREDICTED BY IDOCK:   -4.06 KCAL/MOL
REMARK 922        TOTAL FREE ENERGY PREDICTED BY IDOCK:   -4.64 KCAL/MOL
REMARK 923 INTER-LIGAND FREE ENERGY PREDICTED BY IDOCK:   -4.70 KCAL/MOL
REMARK 924 INTRA-LIGAND FREE ENERGY PREDICTED BY IDOCK:    0.06 KCAL/MOL
REMARK 927      BINDING AFFINITY PREDICTED BY RF-SCORE:    0.00 PKD
ROOT
HETATM    1  F   UNL     1     -14.191  13.116  72.664  1.00  0.00    -0.605 F  
HETATM    2  C   UNL     1     -13.405  12.421  71.832  1.00  0.00    -0.349 A  
HETATM    3  C   UNL     1     -13.362  11.038  71.921  1.00  0.00    -0.423 A  
HETATM    4  C   UNL     1     -12.533  10.312  71.059  1.00  0.00    -0.484 A  
HETATM    5  C   UNL     1     -11.748  10.958  70.085  1.00  0.00    -0.433 A  
HETATM    6  C   UNL     1     -11.798  12.366  70.043  1.00  0.00    -0.363 A  
HETATM    7  C   UNL     1     -12.629  13.092  70.902  1.00  0.00    -0.377 A  
ENDROOT
BRANCH   5   8
HETATM    8  C   UNL     1     -10.791  10.187  69.181  1.00  0.00    -0.260 C  
HETATM    9  C   UNL     1      -9.439  10.855  68.925  1.00  0.00    -0.172 C  
HETATM   10  C   UNL     1      -8.371   9.976  69.395  1.00  0.00    -0.169 A  
HETATM   11  O   UNL     1      -9.218  11.927  68.387  1.00  0.00    -0.191 OA 
HETATM   12  C   UNL     1      -7.004  10.192  69.383  1.00  0.00    -0.076 A  
HETATM   13  C   UNL     1      -6.184   9.182  69.900  1.00  0.00    -0.038 A  
HETATM   14  C   UNL     1      -6.740   7.993  70.410  1.00  0.00    -0.037 A  
HETATM   15  C   UNL     1      -8.122   7.789  70.399  1.00  0.00    -0.115 A  
HETATM   16  C   UNL     1      -8.913   8.799  69.882  1.00  0.00    -0.152 A  
HETATM   17  C   UNL     1     -10.364   8.825  69.733  1.00  0.00    -0.211 C  
HETATM   18  O   UNL     1     -11.063   7.858  69.989  1.00  0.00    -0.241 OA 
ENDBRANCH   5   8
TORSDOF 1
ENDMDL
MODEL      122
REMARK 921   NORMALIZED FREE ENERGY PREDICTED BY IDOCK:   -4.05 KCAL/MOL
REMARK 922        TOTAL FREE ENERGY PREDICTED BY IDOCK:   -4.63 KCAL/MOL
REMARK 923 INTER-LIGAND FREE ENERGY PREDICTED BY IDOCK:   -4.15 KCAL/MOL
REMARK 924 INTRA-LIGAND FREE ENERGY PREDICTED BY IDOCK:   -0.48 KCAL/MOL
REMARK 927      BINDING AFFINITY PREDICTED BY RF-SCORE:    0.00 PKD
ROOT
HETATM    1  F   UNL     1      -8.674   6.411  65.082  1.00  0.00    -0.139 F  
HETATM    2  C   UNL     1      -9.059   6.890  66.273  1.00  0.00    -0.141 A  
HETATM    3  C   UNL     1      -9.903   7.987  66.332  1.00  0.00    -0.237 A  
HETATM    4  C   UNL     1     -10.298   8.494  67.575  1.00  0.00    -0.334 A  
HETATM    5  C   UNL     1      -9.866   7.899  68.776  1.00  0.00    -0.171 A  
HETATM    6  C   UNL     1      -8.987   6.802  68.676  1.00  0.00    -0.125 A  
HETATM    7  C   UNL     1      -8.595   6.293  67.433  1.00  0.00    -0.107 A  
ENDROOT
BRANCH   5   8
HETATM    8  C   UNL     1     -10.235   8.477  70.139  1.00  0.00    -0.202 C  
HETATM    9  C   UNL     1     -11.051   7.556  71.049  1.00  0.00    -0.257 C  
HETATM   10  C   UNL     1     -10.309   7.320  72.286  1.00  0.00    -0.239 A  
HETATM   11  O   UNL     1     -12.161   7.092  70.851  1.00  0.00    -0.344 OA 
HETATM   12  C   UNL     1     -10.660   6.534  73.369  1.00  0.00    -0.309 A  
HETATM   13  C   UNL     1      -9.763   6.472  74.441  1.00  0.00    -0.328 A  
HETATM   14  C   UNL     1      -8.551   7.188  74.410  1.00  0.00    -0.234 A  
HETATM   15  C   UNL     1      -8.223   7.988  73.313  1.00  0.00    -0.254 A  
HETATM   16  C   UNL     1      -9.125   8.036  72.265  1.00  0.00    -0.237 A  
HETATM   17  C   UNL     1      -9.034   8.806  71.029  1.00  0.00    -0.217 C  
HETATM   18  O   UNL     1      -8.133   9.602  70.822  1.00  0.00    -0.279 OA 
ENDBRANCH   5   8
TORSDOF 1
ENDMDL
MODEL      123
REMARK 921   NORMALIZED FREE ENERGY PREDICTED BY IDOCK:   -4.02 KCAL/MOL
REMARK 922        TOTAL FREE ENERGY PREDICTED BY IDOCK:   -4.60 KCAL/MOL
REMARK 923 INTER-LIGAND FREE ENERGY PREDICTED BY IDOCK:   -4.12 KCAL/MOL
REMARK 924 INTRA-LIGAND FREE ENERGY PREDICTED BY IDOCK:   -0.48 KCAL/MOL
REMARK 927      BINDING AFFINITY PREDICTED BY RF-SCORE:    0.00 PKD
ROOT
HETATM    1  F   UNL     1      -5.394  20.337  66.333  1.00  0.00    -0.173 F  
HETATM    2  C   UNL     1      -6.261  19.379  66.688  1.00  0.00    -0.176 A  
HETATM    3  C   UNL     1      -7.133  19.598  67.743  1.00  0.00    -0.291 A  
HETATM    4  C   UNL     1      -8.032  18.595  68.121  1.00  0.00    -0.312 A  
HETATM    5  C   UNL     1      -8.080  17.364  67.439  1.00  0.00    -0.213 A  
HETATM    6  C   UNL     1      -7.159  17.168  66.390  1.00  0.00    -0.310 A  
HETATM    7  C   UNL     1      -6.263  18.172  66.010  1.00  0.00    -0.264 A  
ENDROOT
BRANCH   5   8
HETATM    8  C   UNL     1      -9.009  16.236  67.879  1.00  0.00    -0.187 C  
HETATM    9  C   UNL     1      -9.774  15.532  66.756  1.00  0.00    -0.239 C  
HETATM   10  C   UNL     1      -9.425  14.113  66.751  1.00  0.00    -0.290 A  
HETATM   11  O   UNL     1     -10.584  16.011  65.981  1.00  0.00    -0.323 OA 
HETATM   12  C   UNL     1      -9.861  13.117  65.895  1.00  0.00    -0.241 A  
HETATM   13  C   UNL     1      -9.370  11.824  66.103  1.00  0.00    -0.236 A  
HETATM   14  C   UNL     1      -8.467  11.555  67.150  1.00  0.00    -0.158 A  
HETATM   15  C   UNL     1      -8.051  12.572  68.012  1.00  0.00    -0.164 A  
HETATM   16  C   UNL     1      -8.550  13.843  67.789  1.00  0.00    -0.182 A  
HETATM   17  C   UNL     1      -8.296  15.060  68.552  1.00  0.00    -0.161 C  
HETATM   18  O   UNL     1      -7.641  15.060  69.581  1.00  0.00    -0.198 OA 
ENDBRANCH   5   8
TORSDOF 1
ENDMDL
MODEL      124
REMARK 921   NORMALIZED FREE ENERGY PREDICTED BY IDOCK:   -4.01 KCAL/MOL
REMARK 922        TOTAL FREE ENERGY PREDICTED BY IDOCK:   -4.59 KCAL/MOL
REMARK 923 INTER-LIGAND FREE ENERGY PREDICTED BY IDOCK:   -4.11 KCAL/MOL
REMARK 924 INTRA-LIGAND FREE ENERGY PREDICTED BY IDOCK:   -0.47 KCAL/MOL
REMARK 927      BINDING AFFINITY PREDICTED BY RF-SCORE:    0.00 PKD
ROOT
HETATM    1  F   UNL     1     -12.630   9.834  72.328  1.00  0.00    -0.427 F  
HETATM    2  C   UNL     1     -12.025  10.225  71.199  1.00  0.00    -0.376 A  
HETATM    3  C   UNL     1     -10.789   9.694  70.862  1.00  0.00    -0.409 A  
HETATM    4  C   UNL     1     -10.152  10.110  69.687  1.00  0.00    -0.265 A  
HETATM    5  C   UNL     1     -10.750  11.049  68.826  1.00  0.00    -0.240 A  
HETATM    6  C   UNL     1     -11.994  11.586  69.216  1.00  0.00    -0.397 A  
HETATM    7  C   UNL     1     -12.632  11.169  70.388  1.00  0.00    -0.328 A  
ENDROOT
BRANCH   5   8
HETATM    8  C   UNL     1     -10.041  11.560  67.575  1.00  0.00    -0.203 C  
HETATM    9  C   UNL     1      -8.700  12.257  67.813  1.00  0.00    -0.174 C  
HETATM   10  C   UNL     1      -7.649  11.538  67.095  1.00  0.00    -0.149 A  
HETATM   11  O   UNL     1      -8.480  13.271  68.454  1.00  0.00    -0.165 OA 
HETATM   12  C   UNL     1      -6.292  11.805  67.052  1.00  0.00    -0.150 A  
HETATM   13  C   UNL     1      -5.489  10.954  66.285  1.00  0.00    -0.120 A  
HETATM   14  C   UNL     1      -6.051   9.870  65.584  1.00  0.00    -0.075 A  
HETATM   15  C   UNL     1      -7.426   9.628  65.629  1.00  0.00    -0.101 A  
HETATM   16  C   UNL     1      -8.201  10.482  66.392  1.00  0.00    -0.140 A  
HETATM   17  C   UNL     1      -9.647  10.463  66.583  1.00  0.00    -0.177 C  
HETATM   18  O   UNL     1     -10.375   9.691  65.979  1.00  0.00    -0.218 OA 
ENDBRANCH   5   8
TORSDOF 1
ENDMDL
MODEL      125
REMARK 921   NORMALIZED FREE ENERGY PREDICTED BY IDOCK:   -4.00 KCAL/MOL
REMARK 922        TOTAL FREE ENERGY PREDICTED BY IDOCK:   -4.58 KCAL/MOL
REMARK 923 INTER-LIGAND FREE ENERGY PREDICTED BY IDOCK:   -4.10 KCAL/MOL
REMARK 924 INTRA-LIGAND FREE ENERGY PREDICTED BY IDOCK:   -0.48 KCAL/MOL
REMARK 927      BINDING AFFINITY PREDICTED BY RF-SCORE:    0.00 PKD
ROOT
HETATM    1  F   UNL     1     -12.884  14.709  64.503  1.00  0.00    -0.396 F  
HETATM    2  C   UNL     1     -12.096  13.789  65.074  1.00  0.00    -0.403 A  
HETATM    3  C   UNL     1     -12.114  13.626  66.450  1.00  0.00    -0.478 A  
HETATM    4  C   UNL     1     -11.284  12.672  67.048  1.00  0.00    -0.348 A  
HETATM    5  C   UNL     1     -10.435  11.856  66.276  1.00  0.00    -0.274 A  
HETATM    6  C   UNL     1     -10.424  12.070  64.882  1.00  0.00    -0.325 A  
HETATM    7  C   UNL     1     -11.257  13.021  64.284  1.00  0.00    -0.411 A  
ENDROOT
BRANCH   5   8
HETATM    8  C   UNL     1      -9.478  10.856  66.916  1.00  0.00    -0.198 C  
HETATM    9  C   UNL     1      -9.591   9.416  66.412  1.00  0.00    -0.224 C  
HETATM   10  C   UNL     1      -8.310   9.003  65.843  1.00  0.00    -0.129 A  
HETATM   11  O   UNL     1     -10.551   8.667  66.479  1.00  0.00    -0.199 OA 
HETATM   12  C   UNL     1      -7.973   7.796  65.254  1.00  0.00    -0.127 A  
HETATM   13  C   UNL     1      -6.666   7.650  64.779  1.00  0.00    -0.050 A  
HETATM   14  C   UNL     1      -5.733   8.698  64.903  1.00  0.00    -0.048 A  
HETATM   15  C   UNL     1      -6.089   9.902  65.514  1.00  0.00    -0.078 A  
HETATM   16  C   UNL     1      -7.387  10.024  65.977  1.00  0.00    -0.112 A  
HETATM   17  C   UNL     1      -7.997  11.155  66.668  1.00  0.00    -0.159 C  
HETATM   18  O   UNL     1      -7.356  12.138  67.002  1.00  0.00    -0.136 OA 
ENDBRANCH   5   8
TORSDOF 1
ENDMDL
MODEL      126
REMARK 921   NORMALIZED FREE ENERGY PREDICTED BY IDOCK:   -3.99 KCAL/MOL
REMARK 922        TOTAL FREE ENERGY PREDICTED BY IDOCK:   -4.56 KCAL/MOL
REMARK 923 INTER-LIGAND FREE ENERGY PREDICTED BY IDOCK:   -4.57 KCAL/MOL
REMARK 924 INTRA-LIGAND FREE ENERGY PREDICTED BY IDOCK:    0.01 KCAL/MOL
REMARK 927      BINDING AFFINITY PREDICTED BY RF-SCORE:    0.00 PKD
ROOT
HETATM    1  F   UNL     1     -12.482  13.507  69.224  1.00  0.00    -0.327 F  
HETATM    2  C   UNL     1     -11.991  12.311  69.572  1.00  0.00    -0.270 A  
HETATM    3  C   UNL     1     -12.397  11.720  70.759  1.00  0.00    -0.433 A  
HETATM    4  C   UNL     1     -11.877  10.475  71.128  1.00  0.00    -0.391 A  
HETATM    5  C   UNL     1     -10.956   9.796  70.308  1.00  0.00    -0.352 A  
HETATM    6  C   UNL     1     -10.546  10.441  69.123  1.00  0.00    -0.255 A  
HETATM    7  C   UNL     1     -11.068  11.684  68.752  1.00  0.00    -0.283 A  
ENDROOT
BRANCH   5   8
HETATM    8  C   UNL     1     -10.331   8.468  70.726  1.00  0.00    -0.238 C  
HETATM    9  C   UNL     1      -8.811   8.376  70.575  1.00  0.00    -0.148 C  
HETATM   10  C   UNL     1      -8.213   8.108  71.881  1.00  0.00    -0.180 A  
HETATM   11  O   UNL     1      -8.148   8.463  69.555  1.00  0.00    -0.108 OA 
HETATM   12  C   UNL     1      -6.875   7.973  72.209  1.00  0.00    -0.077 A  
HETATM   13  C   UNL     1      -6.559   7.719  73.549  1.00  0.00    -0.092 A  
HETATM   14  C   UNL     1      -7.573   7.604  74.519  1.00  0.00    -0.196 A  
HETATM   15  C   UNL     1      -8.918   7.729  74.164  1.00  0.00    -0.204 A  
HETATM   16  C   UNL     1      -9.207   7.979  72.834  1.00  0.00    -0.332 A  
HETATM   17  C   UNL     1     -10.516   8.124  72.206  1.00  0.00    -0.302 C  
HETATM   18  O   UNL     1     -11.557   7.944  72.817  1.00  0.00    -0.383 OA 
ENDBRANCH   5   8
TORSDOF 1
ENDMDL
MODEL      127
REMARK 921   NORMALIZED FREE ENERGY PREDICTED BY IDOCK:   -3.96 KCAL/MOL
REMARK 922        TOTAL FREE ENERGY PREDICTED BY IDOCK:   -4.53 KCAL/MOL
REMARK 923 INTER-LIGAND FREE ENERGY PREDICTED BY IDOCK:   -4.05 KCAL/MOL
REMARK 924 INTRA-LIGAND FREE ENERGY PREDICTED BY IDOCK:   -0.48 KCAL/MOL
REMARK 927      BINDING AFFINITY PREDICTED BY RF-SCORE:    0.00 PKD
ROOT
HETATM    1  F   UNL     1     -11.646  16.563  68.646  1.00  0.00    -0.344 F  
HETATM    2  C   UNL     1     -10.977  15.491  68.201  1.00  0.00    -0.312 A  
HETATM    3  C   UNL     1     -10.160  15.603  67.087  1.00  0.00    -0.256 A  
HETATM    4  C   UNL     1      -9.469  14.481  66.616  1.00  0.00    -0.301 A  
HETATM    5  C   UNL     1      -9.574  13.235  67.263  1.00  0.00    -0.234 A  
HETATM    6  C   UNL     1     -10.436  13.153  68.376  1.00  0.00    -0.261 A  
HETATM    7  C   UNL     1     -11.124  14.275  68.849  1.00  0.00    -0.283 A  
ENDROOT
BRANCH   5   8
HETATM    8  C   UNL     1      -8.879  11.988  66.725  1.00  0.00    -0.198 C  
HETATM    9  C   UNL     1      -8.112  11.160  67.759  1.00  0.00    -0.117 C  
HETATM   10  C   UNL     1      -8.668   9.809  67.802  1.00  0.00    -0.129 A  
HETATM   11  O   UNL     1      -7.160  11.500  68.441  1.00  0.00    -0.071 OA 
HETATM   12  C   UNL     1      -8.297   8.746  68.607  1.00  0.00    -0.128 A  
HETATM   13  C   UNL     1      -8.996   7.544  68.454  1.00  0.00    -0.128 A  
HETATM   14  C   UNL     1     -10.037   7.430  67.513  1.00  0.00    -0.250 A  
HETATM   15  C   UNL     1     -10.386   8.512  66.700  1.00  0.00    -0.303 A  
HETATM   16  C   UNL     1      -9.680   9.689  66.867  1.00  0.00    -0.240 A  
HETATM   17  C   UNL     1      -9.829  10.943  66.135  1.00  0.00    -0.222 C  
HETATM   18  O   UNL     1     -10.583  11.057  65.183  1.00  0.00    -0.277 OA 
ENDBRANCH   5   8
TORSDOF 1
ENDMDL
MODEL      128
REMARK 921   NORMALIZED FREE ENERGY PREDICTED BY IDOCK:   -3.96 KCAL/MOL
REMARK 922        TOTAL FREE ENERGY PREDICTED BY IDOCK:   -4.53 KCAL/MOL
REMARK 923 INTER-LIGAND FREE ENERGY PREDICTED BY IDOCK:   -4.09 KCAL/MOL
REMARK 924 INTRA-LIGAND FREE ENERGY PREDICTED BY IDOCK:   -0.44 KCAL/MOL
REMARK 927      BINDING AFFINITY PREDICTED BY RF-SCORE:    0.00 PKD
ROOT
HETATM    1  F   UNL     1     -11.788  13.091  64.872  1.00  0.00    -0.336 F  
HETATM    2  C   UNL     1     -11.242  11.995  65.414  1.00  0.00    -0.322 A  
HETATM    3  C   UNL     1     -11.417  11.735  66.764  1.00  0.00    -0.352 A  
HETATM    4  C   UNL     1     -10.838  10.596  67.333  1.00  0.00    -0.353 A  
HETATM    5  C   UNL     1     -10.089   9.692  66.556  1.00  0.00    -0.314 A  
HETATM    6  C   UNL     1      -9.910  10.004  65.192  1.00  0.00    -0.388 A  
HETATM    7  C   UNL     1     -10.491  11.141  64.623  1.00  0.00    -0.400 A  
ENDROOT
BRANCH   5   8
HETATM    8  C   UNL     1      -9.398   8.480  67.173  1.00  0.00    -0.191 C  
HETATM    9  C   UNL     1     -10.088   7.134  66.938  1.00  0.00    -0.238 C  
HETATM   10  C   UNL     1      -9.175   6.242  66.228  1.00  0.00    -0.165 A  
HETATM   11  O   UNL     1     -11.202   6.786  67.294  1.00  0.00    -0.348 OA 
HETATM   12  C   UNL     1      -9.394   4.946  65.794  1.00  0.00    -0.165 A  
HETATM   13  C   UNL     1      -8.347   4.301  65.127  1.00  0.00    -0.114 A  
HETATM   14  C   UNL     1      -7.118   4.954  64.912  1.00  0.00    -0.062 A  
HETATM   15  C   UNL     1      -6.913   6.258  65.372  1.00  0.00    -0.056 A  
HETATM   16  C   UNL     1      -7.961   6.875  66.029  1.00  0.00    -0.109 A  
HETATM   17  C   UNL     1      -7.996   8.208  66.623  1.00  0.00    -0.102 C  
HETATM   18  O   UNL     1      -7.009   8.924  66.675  1.00  0.00    -0.078 OA 
ENDBRANCH   5   8
TORSDOF 1
ENDMDL
MODEL      129
REMARK 921   NORMALIZED FREE ENERGY PREDICTED BY IDOCK:   -3.95 KCAL/MOL
REMARK 922        TOTAL FREE ENERGY PREDICTED BY IDOCK:   -4.52 KCAL/MOL
REMARK 923 INTER-LIGAND FREE ENERGY PREDICTED BY IDOCK:   -4.04 KCAL/MOL
REMARK 924 INTRA-LIGAND FREE ENERGY PREDICTED BY IDOCK:   -0.48 KCAL/MOL
REMARK 927      BINDING AFFINITY PREDICTED BY RF-SCORE:    0.00 PKD
ROOT
HETATM    1  F   UNL     1     -12.835  14.384  64.398  1.00  0.00    -0.334 F  
HETATM    2  C   UNL     1     -12.076  13.848  65.363  1.00  0.00    -0.408 A  
HETATM    3  C   UNL     1     -11.537  14.662  66.346  1.00  0.00    -0.343 A  
HETATM    4  C   UNL     1     -10.735  14.105  67.348  1.00  0.00    -0.284 A  
HETATM    5  C   UNL     1     -10.475  12.722  67.390  1.00  0.00    -0.234 A  
HETATM    6  C   UNL     1     -11.019  11.930  66.358  1.00  0.00    -0.337 A  
HETATM    7  C   UNL     1     -11.823  12.486  65.358  1.00  0.00    -0.479 A  
ENDROOT
BRANCH   5   8
HETATM    8  C   UNL     1      -9.552  12.107  68.437  1.00  0.00    -0.186 C  
HETATM    9  C   UNL     1     -10.073  10.838  69.116  1.00  0.00    -0.205 C  
HETATM   10  C   UNL     1      -9.141   9.741  68.867  1.00  0.00    -0.148 A  
HETATM   11  O   UNL     1     -11.075  10.706  69.798  1.00  0.00    -0.257 OA 
HETATM   12  C   UNL     1      -9.230   8.421  69.270  1.00  0.00    -0.154 A  
HETATM   13  C   UNL     1      -8.195   7.558  68.896  1.00  0.00    -0.128 A  
HETATM   14  C   UNL     1      -7.104   8.026  68.138  1.00  0.00    -0.089 A  
HETATM   15  C   UNL     1      -7.026   9.367  67.754  1.00  0.00    -0.080 A  
HETATM   16  C   UNL     1      -8.060  10.203  68.136  1.00  0.00    -0.105 A  
HETATM   17  C   UNL     1      -8.205  11.633  67.888  1.00  0.00    -0.141 C  
HETATM   18  O   UNL     1      -7.328  12.295  67.356  1.00  0.00    -0.131 OA 
ENDBRANCH   5   8
TORSDOF 1
ENDMDL
MODEL      130
REMARK 921   NORMALIZED FREE ENERGY PREDICTED BY IDOCK:   -3.92 KCAL/MOL
REMARK 922        TOTAL FREE ENERGY PREDICTED BY IDOCK:   -4.49 KCAL/MOL
REMARK 923 INTER-LIGAND FREE ENERGY PREDICTED BY IDOCK:   -4.04 KCAL/MOL
REMARK 924 INTRA-LIGAND FREE ENERGY PREDICTED BY IDOCK:   -0.45 KCAL/MOL
REMARK 927      BINDING AFFINITY PREDICTED BY RF-SCORE:    0.00 PKD
ROOT
HETATM    1  F   UNL     1      -7.811   6.270  72.666  1.00  0.00    -0.102 F  
HETATM    2  C   UNL     1      -8.615   7.014  71.895  1.00  0.00    -0.120 A  
HETATM    3  C   UNL     1      -9.507   6.395  71.033  1.00  0.00    -0.181 A  
HETATM    4  C   UNL     1     -10.340   7.171  70.220  1.00  0.00    -0.214 A  
HETATM    5  C   UNL     1     -10.303   8.577  70.269  1.00  0.00    -0.218 A  
HETATM    6  C   UNL     1      -9.364   9.171  71.137  1.00  0.00    -0.313 A  
HETATM    7  C   UNL     1      -8.534   8.395  71.953  1.00  0.00    -0.237 A  
ENDROOT
BRANCH   5   8
HETATM    8  C   UNL     1     -11.159   9.438  69.344  1.00  0.00    -0.098 C  
HETATM    9  C   UNL     1     -11.592  10.791  69.911  1.00  0.00    -0.331 C  
HETATM   10  C   UNL     1     -11.081  11.859  69.054  1.00  0.00    -0.300 A  
HETATM   11  O   UNL     1     -12.282  11.011  70.893  1.00  0.00    -0.339 OA 
HETATM   12  C   UNL     1     -11.213  13.228  69.205  1.00  0.00    -0.266 A  
HETATM   13  C   UNL     1     -10.622  14.046  68.237  1.00  0.00    -0.253 A  
HETATM   14  C   UNL     1      -9.921  13.487  67.151  1.00  0.00    -0.246 A  
HETATM   15  C   UNL     1      -9.812  12.102  67.009  1.00  0.00    -0.212 A  
HETATM   16  C   UNL     1     -10.406  11.312  67.977  1.00  0.00    -0.204 A  
HETATM   17  C   UNL     1     -10.459   9.856  68.048  1.00  0.00    -0.222 C  
HETATM   18  O   UNL     1     -10.029   9.143  67.155  1.00  0.00    -0.185 OA 
ENDBRANCH   5   8
TORSDOF 1
ENDMDL
MODEL      131
REMARK 921   NORMALIZED FREE ENERGY PREDICTED BY IDOCK:   -3.92 KCAL/MOL
REMARK 922        TOTAL FREE ENERGY PREDICTED BY IDOCK:   -4.49 KCAL/MOL
REMARK 923 INTER-LIGAND FREE ENERGY PREDICTED BY IDOCK:   -4.10 KCAL/MOL
REMARK 924 INTRA-LIGAND FREE ENERGY PREDICTED BY IDOCK:   -0.39 KCAL/MOL
REMARK 927      BINDING AFFINITY PREDICTED BY RF-SCORE:    0.00 PKD
ROOT
HETATM    1  F   UNL     1     -12.815  14.423  66.472  1.00  0.00    -0.378 F  
HETATM    2  C   UNL     1     -12.081  13.320  66.275  1.00  0.00    -0.414 A  
HETATM    3  C   UNL     1     -11.920  12.820  64.993  1.00  0.00    -0.456 A  
HETATM    4  C   UNL     1     -11.162  11.662  64.788  1.00  0.00    -0.300 A  
HETATM    5  C   UNL     1     -10.542  10.997  65.862  1.00  0.00    -0.270 A  
HETATM    6  C   UNL     1     -10.750  11.519  67.155  1.00  0.00    -0.294 A  
HETATM    7  C   UNL     1     -11.505  12.678  67.359  1.00  0.00    -0.397 A  
ENDROOT
BRANCH   5   8
HETATM    8  C   UNL     1      -9.766   9.698  65.665  1.00  0.00    -0.363 C  
HETATM    9  C   UNL     1      -8.255   9.852  65.475  1.00  0.00    -0.136 C  
HETATM   10  C   UNL     1      -7.560   9.125  66.535  1.00  0.00    -0.093 A  
HETATM   11  O   UNL     1      -7.663  10.440  64.585  1.00  0.00    -0.140 OA 
HETATM   12  C   UNL     1      -6.199   9.016  66.761  1.00  0.00    -0.062 A  
HETATM   13  C   UNL     1      -5.784   8.255  67.859  1.00  0.00    -0.039 A  
HETATM   14  C   UNL     1      -6.725   7.624  68.696  1.00  0.00    -0.054 A  
HETATM   15  C   UNL     1      -8.093   7.734  68.441  1.00  0.00    -0.124 A  
HETATM   16  C   UNL     1      -8.481   8.490  67.349  1.00  0.00    -0.127 A  
HETATM   17  C   UNL     1      -9.831   8.739  66.856  1.00  0.00    -0.229 C  
HETATM   18  O   UNL     1     -10.813   8.198  67.340  1.00  0.00    -0.226 OA 
ENDBRANCH   5   8
TORSDOF 1
ENDMDL
MODEL      132
REMARK 921   NORMALIZED FREE ENERGY PREDICTED BY IDOCK:   -3.88 KCAL/MOL
REMARK 922        TOTAL FREE ENERGY PREDICTED BY IDOCK:   -4.45 KCAL/MOL
REMARK 923 INTER-LIGAND FREE ENERGY PREDICTED BY IDOCK:   -3.97 KCAL/MOL
REMARK 924 INTRA-LIGAND FREE ENERGY PREDICTED BY IDOCK:   -0.48 KCAL/MOL
REMARK 927      BINDING AFFINITY PREDICTED BY RF-SCORE:    0.00 PKD
ROOT
HETATM    1  F   UNL     1      -7.572   4.704  74.066  1.00  0.00    -0.080 F  
HETATM    2  C   UNL     1      -8.434   5.314  73.243  1.00  0.00    -0.117 A  
HETATM    3  C   UNL     1      -9.737   4.853  73.146  1.00  0.00    -0.161 A  
HETATM    4  C   UNL     1     -10.636   5.483  72.278  1.00  0.00    -0.276 A  
HETATM    5  C   UNL     1     -10.247   6.595  71.507  1.00  0.00    -0.218 A  
HETATM    6  C   UNL     1      -8.906   7.019  71.611  1.00  0.00    -0.130 A  
HETATM    7  C   UNL     1      -8.009   6.391  72.481  1.00  0.00    -0.102 A  
ENDROOT
BRANCH   5   8
HETATM    8  C   UNL     1     -11.194   7.254  70.509  1.00  0.00    -0.305 C  
HETATM    9  C   UNL     1     -11.158   8.783  70.473  1.00  0.00    -0.246 C  
HETATM   10  C   UNL     1     -10.784   9.225  69.131  1.00  0.00    -0.202 A  
HETATM   11  O   UNL     1     -11.424   9.565  71.370  1.00  0.00    -0.342 OA 
HETATM   12  C   UNL     1     -10.608  10.514  68.662  1.00  0.00    -0.226 A  
HETATM   13  C   UNL     1     -10.242  10.671  67.321  1.00  0.00    -0.250 A  
HETATM   14  C   UNL     1     -10.063   9.551  66.487  1.00  0.00    -0.326 A  
HETATM   15  C   UNL     1     -10.260   8.258  66.977  1.00  0.00    -0.380 A  
HETATM   16  C   UNL     1     -10.623   8.126  68.305  1.00  0.00    -0.153 A  
HETATM   17  C   UNL     1     -10.911   6.903  69.046  1.00  0.00    -0.212 C  
HETATM   18  O   UNL     1     -10.943   5.808  68.509  1.00  0.00    -0.242 OA 
ENDBRANCH   5   8
TORSDOF 1
ENDMDL
MODEL      133
REMARK 921   NORMALIZED FREE ENERGY PREDICTED BY IDOCK:   -3.83 KCAL/MOL
REMARK 922        TOTAL FREE ENERGY PREDICTED BY IDOCK:   -4.39 KCAL/MOL
REMARK 923 INTER-LIGAND FREE ENERGY PREDICTED BY IDOCK:   -4.41 KCAL/MOL
REMARK 924 INTRA-LIGAND FREE ENERGY PREDICTED BY IDOCK:    0.02 KCAL/MOL
REMARK 927      BINDING AFFINITY PREDICTED BY RF-SCORE:    0.00 PKD
ROOT
HETATM    1  F   UNL     1      -8.415  10.027  65.354  1.00  0.00    -0.130 F  
HETATM    2  C   UNL     1      -8.705  11.076  66.135  1.00  0.00    -0.184 A  
HETATM    3  C   UNL     1      -7.917  11.349  67.242  1.00  0.00    -0.149 A  
HETATM    4  C   UNL     1      -8.225  12.438  68.063  1.00  0.00    -0.168 A  
HETATM    5  C   UNL     1      -9.317  13.280  67.779  1.00  0.00    -0.209 A  
HETATM    6  C   UNL     1     -10.112  12.955  66.661  1.00  0.00    -0.247 A  
HETATM    7  C   UNL     1      -9.802  11.868  65.838  1.00  0.00    -0.261 A  
ENDROOT
BRANCH   5   8
HETATM    8  C   UNL     1      -9.706  14.433  68.700  1.00  0.00    -0.216 C  
HETATM    9  C   UNL     1      -8.556  15.338  69.149  1.00  0.00    -0.235 C  
HETATM   10  C   UNL     1      -8.819  16.706  68.708  1.00  0.00    -0.264 A  
HETATM   11  O   UNL     1      -7.571  15.036  69.802  1.00  0.00    -0.194 OA 
HETATM   12  C   UNL     1      -8.036  17.834  68.876  1.00  0.00    -0.174 A  
HETATM   13  C   UNL     1      -8.517  19.040  68.352  1.00  0.00    -0.383 A  
HETATM   14  C   UNL     1      -9.754  19.092  67.682  1.00  0.00    -0.373 A  
HETATM   15  C   UNL     1     -10.536  17.943  67.537  1.00  0.00    -0.398 A  
HETATM   16  C   UNL     1     -10.042  16.763  68.064  1.00  0.00    -0.284 A  
HETATM   17  C   UNL     1     -10.666  15.445  68.069  1.00  0.00    -0.279 C  
HETATM   18  O   UNL     1     -11.799  15.258  67.656  1.00  0.00    -0.265 OA 
ENDBRANCH   5   8
TORSDOF 1
ENDMDL
MODEL      134
REMARK 921   NORMALIZED FREE ENERGY PREDICTED BY IDOCK:   -3.83 KCAL/MOL
REMARK 922        TOTAL FREE ENERGY PREDICTED BY IDOCK:   -4.39 KCAL/MOL
REMARK 923 INTER-LIGAND FREE ENERGY PREDICTED BY IDOCK:   -4.22 KCAL/MOL
REMARK 924 INTRA-LIGAND FREE ENERGY PREDICTED BY IDOCK:   -0.17 KCAL/MOL
REMARK 927      BINDING AFFINITY PREDICTED BY RF-SCORE:    0.00 PKD
ROOT
HETATM    1  F   UNL     1      -9.322   5.138  65.287  1.00  0.00    -0.160 F  
HETATM    2  C   UNL     1      -9.705   5.295  66.561  1.00  0.00    -0.167 A  
HETATM    3  C   UNL     1     -10.742   6.162  66.866  1.00  0.00    -0.413 A  
HETATM    4  C   UNL     1     -11.135   6.335  68.197  1.00  0.00    -0.364 A  
HETATM    5  C   UNL     1     -10.506   5.631  69.241  1.00  0.00    -0.356 A  
HETATM    6  C   UNL     1      -9.438   4.778  68.895  1.00  0.00    -0.209 A  
HETATM    7  C   UNL     1      -9.047   4.603  67.564  1.00  0.00    -0.134 A  
ENDROOT
BRANCH   5   8
HETATM    8  C   UNL     1     -10.879   5.855  70.703  1.00  0.00    -0.363 C  
HETATM    9  C   UNL     1     -10.096   5.023  71.721  1.00  0.00    -0.200 C  
HETATM   10  C   UNL     1      -9.392   5.919  72.636  1.00  0.00    -0.146 A  
HETATM   11  O   UNL     1     -10.055   3.809  71.830  1.00  0.00    -0.179 OA 
HETATM   12  C   UNL     1      -8.552   5.597  73.687  1.00  0.00    -0.120 A  
HETATM   13  C   UNL     1      -7.993   6.652  74.416  1.00  0.00    -0.128 A  
HETATM   14  C   UNL     1      -8.283   7.990  74.085  1.00  0.00    -0.318 A  
HETATM   15  C   UNL     1      -9.145   8.293  73.029  1.00  0.00    -0.319 A  
HETATM   16  C   UNL     1      -9.687   7.234  72.323  1.00  0.00    -0.177 A  
HETATM   17  C   UNL     1     -10.625   7.278  71.206  1.00  0.00    -0.220 C  
HETATM   18  O   UNL     1     -11.123   8.321  70.813  1.00  0.00    -0.250 OA 
ENDBRANCH   5   8
TORSDOF 1
ENDMDL
MODEL      135
REMARK 921   NORMALIZED FREE ENERGY PREDICTED BY IDOCK:   -3.81 KCAL/MOL
REMARK 922        TOTAL FREE ENERGY PREDICTED BY IDOCK:   -4.37 KCAL/MOL
REMARK 923 INTER-LIGAND FREE ENERGY PREDICTED BY IDOCK:   -3.89 KCAL/MOL
REMARK 924 INTRA-LIGAND FREE ENERGY PREDICTED BY IDOCK:   -0.48 KCAL/MOL
REMARK 927      BINDING AFFINITY PREDICTED BY RF-SCORE:    0.00 PKD
ROOT
HETATM    1  F   UNL     1     -12.429  11.484  71.163  1.00  0.00    -0.436 F  
HETATM    2  C   UNL     1     -11.718  10.700  70.342  1.00  0.00    -0.353 A  
HETATM    3  C   UNL     1     -11.467  11.113  69.043  1.00  0.00    -0.364 A  
HETATM    4  C   UNL     1     -10.733  10.290  68.182  1.00  0.00    -0.287 A  
HETATM    5  C   UNL     1     -10.228   9.049  68.613  1.00  0.00    -0.226 A  
HETATM    6  C   UNL     1     -10.527   8.651  69.932  1.00  0.00    -0.221 A  
HETATM    7  C   UNL     1     -11.257   9.475  70.795  1.00  0.00    -0.383 A  
ENDROOT
BRANCH   5   8
HETATM    8  C   UNL     1      -9.482   8.111  67.669  1.00  0.00    -0.172 C  
HETATM    9  C   UNL     1      -8.090   7.675  68.132  1.00  0.00    -0.124 C  
HETATM   10  C   UNL     1      -8.057   6.219  68.254  1.00  0.00    -0.112 A  
HETATM   11  O   UNL     1      -7.113   8.374  68.346  1.00  0.00    -0.077 OA 
HETATM   12  C   UNL     1      -7.013   5.409  68.664  1.00  0.00    -0.060 A  
HETATM   13  C   UNL     1      -7.240   4.028  68.696  1.00  0.00    -0.055 A  
HETATM   14  C   UNL     1      -8.488   3.494  68.321  1.00  0.00    -0.106 A  
HETATM   15  C   UNL     1      -9.523   4.329  67.896  1.00  0.00    -0.216 A  
HETATM   16  C   UNL     1      -9.277   5.690  67.871  1.00  0.00    -0.108 A  
HETATM   17  C   UNL     1     -10.170   6.763  67.448  1.00  0.00    -0.197 C  
HETATM   18  O   UNL     1     -11.268   6.543  66.962  1.00  0.00    -0.397 OA 
ENDBRANCH   5   8
TORSDOF 1
ENDMDL
MODEL      136
REMARK 921   NORMALIZED FREE ENERGY PREDICTED BY IDOCK:   -3.80 KCAL/MOL
REMARK 922        TOTAL FREE ENERGY PREDICTED BY IDOCK:   -4.37 KCAL/MOL
REMARK 923 INTER-LIGAND FREE ENERGY PREDICTED BY IDOCK:   -3.92 KCAL/MOL
REMARK 924 INTRA-LIGAND FREE ENERGY PREDICTED BY IDOCK:   -0.45 KCAL/MOL
REMARK 927      BINDING AFFINITY PREDICTED BY RF-SCORE:    0.00 PKD
ROOT
HETATM    1  F   UNL     1      -9.971   4.685  69.262  1.00  0.00    -0.246 F  
HETATM    2  C   UNL     1      -9.800   5.919  68.770  1.00  0.00    -0.140 A  
HETATM    3  C   UNL     1     -10.484   6.305  67.628  1.00  0.00    -0.288 A  
HETATM    4  C   UNL     1     -10.298   7.590  67.107  1.00  0.00    -0.384 A  
HETATM    5  C   UNL     1      -9.437   8.513  67.731  1.00  0.00    -0.168 A  
HETATM    6  C   UNL     1      -8.738   8.075  68.874  1.00  0.00    -0.131 A  
HETATM    7  C   UNL     1      -8.926   6.792  69.397  1.00  0.00    -0.137 A  
ENDROOT
BRANCH   5   8
HETATM    8  C   UNL     1      -9.174   9.895  67.141  1.00  0.00    -0.158 C  
HETATM    9  C   UNL     1      -8.153   9.946  66.002  1.00  0.00    -0.120 C  
HETATM   10  C   UNL     1      -8.796  10.478  64.803  1.00  0.00    -0.211 A  
HETATM   11  O   UNL     1      -6.973   9.642  66.034  1.00  0.00    -0.088 OA 
HETATM   12  C   UNL     1      -8.255  10.672  63.544  1.00  0.00    -0.020 A  
HETATM   13  C   UNL     1      -9.090  11.200  62.554  1.00  0.00    -0.347 A  
HETATM   14  C   UNL     1     -10.431  11.522  62.839  1.00  0.00    -0.114 A  
HETATM   15  C   UNL     1     -10.954  11.333  64.120  1.00  0.00    -0.376 A  
HETATM   16  C   UNL     1     -10.110  10.811  65.084  1.00  0.00    -0.363 A  
HETATM   17  C   UNL     1     -10.397  10.544  66.489  1.00  0.00    -0.233 C  
HETATM   18  O   UNL     1     -11.457  10.855  67.008  1.00  0.00    -0.392 OA 
ENDBRANCH   5   8
TORSDOF 1
ENDMDL
MODEL      137
REMARK 921   NORMALIZED FREE ENERGY PREDICTED BY IDOCK:   -3.80 KCAL/MOL
REMARK 922        TOTAL FREE ENERGY PREDICTED BY IDOCK:   -4.36 KCAL/MOL
REMARK 923 INTER-LIGAND FREE ENERGY PREDICTED BY IDOCK:   -3.90 KCAL/MOL
REMARK 924 INTRA-LIGAND FREE ENERGY PREDICTED BY IDOCK:   -0.47 KCAL/MOL
REMARK 927      BINDING AFFINITY PREDICTED BY RF-SCORE:    0.00 PKD
ROOT
HETATM    1  F   UNL     1      -9.467   9.913  64.333  1.00  0.00    -0.290 F  
HETATM    2  C   UNL     1      -9.164   9.413  65.538  1.00  0.00    -0.232 A  
HETATM    3  C   UNL     1      -7.837   9.301  65.923  1.00  0.00    -0.099 A  
HETATM    4  C   UNL     1      -7.519   8.769  67.177  1.00  0.00    -0.088 A  
HETATM    5  C   UNL     1      -8.526   8.355  68.070  1.00  0.00    -0.132 A  
HETATM    6  C   UNL     1      -9.862   8.458  67.633  1.00  0.00    -0.222 A  
HETATM    7  C   UNL     1     -10.180   8.994  66.381  1.00  0.00    -0.297 A  
ENDROOT
BRANCH   5   8
HETATM    8  C   UNL     1      -8.195   7.714  69.415  1.00  0.00    -0.129 C  
HETATM    9  C   UNL     1      -8.542   8.549  70.649  1.00  0.00    -0.148 C  
HETATM   10  C   UNL     1      -9.492   7.811  71.479  1.00  0.00    -0.174 A  
HETATM   11  O   UNL     1      -8.104   9.642  70.967  1.00  0.00    -0.287 OA 
HETATM   12  C   UNL     1     -10.087   8.198  72.667  1.00  0.00    -0.379 A  
HETATM   13  C   UNL     1     -10.974   7.300  73.270  1.00  0.00    -0.355 A  
HETATM   14  C   UNL     1     -11.242   6.048  72.683  1.00  0.00    -0.326 A  
HETATM   15  C   UNL     1     -10.619   5.671  71.491  1.00  0.00    -0.306 A  
HETATM   16  C   UNL     1      -9.745   6.574  70.913  1.00  0.00    -0.190 A  
HETATM   17  C   UNL     1      -8.956   6.416  69.696  1.00  0.00    -0.137 C  
HETATM   18  O   UNL     1      -8.922   5.368  69.073  1.00  0.00    -0.106 OA 
ENDBRANCH   5   8
TORSDOF 1
ENDMDL
MODEL      138
REMARK 921   NORMALIZED FREE ENERGY PREDICTED BY IDOCK:   -3.78 KCAL/MOL
REMARK 922        TOTAL FREE ENERGY PREDICTED BY IDOCK:   -4.34 KCAL/MOL
REMARK 923 INTER-LIGAND FREE ENERGY PREDICTED BY IDOCK:   -4.10 KCAL/MOL
REMARK 924 INTRA-LIGAND FREE ENERGY PREDICTED BY IDOCK:   -0.24 KCAL/MOL
REMARK 927      BINDING AFFINITY PREDICTED BY RF-SCORE:    0.00 PKD
ROOT
HETATM    1  F   UNL     1      -8.286  10.521  65.847  1.00  0.00    -0.130 F  
HETATM    2  C   UNL     1      -8.999   9.900  66.796  1.00  0.00    -0.138 A  
HETATM    3  C   UNL     1      -8.606   8.649  67.245  1.00  0.00    -0.125 A  
HETATM    4  C   UNL     1      -9.356   7.997  68.229  1.00  0.00    -0.143 A  
HETATM    5  C   UNL     1     -10.501   8.593  68.789  1.00  0.00    -0.209 A  
HETATM    6  C   UNL     1     -10.885   9.854  68.288  1.00  0.00    -0.275 A  
HETATM    7  C   UNL     1     -10.133  10.508  67.307  1.00  0.00    -0.242 A  
ENDROOT
BRANCH   5   8
HETATM    8  C   UNL     1     -11.366   7.869  69.816  1.00  0.00     0.101 C  
HETATM    9  C   UNL     1     -10.992   6.410  70.085  1.00  0.00    -0.334 C  
HETATM   10  C   UNL     1     -10.656   6.251  71.498  1.00  0.00    -0.282 A  
HETATM   11  O   UNL     1     -10.991   5.475  69.301  1.00  0.00    -0.255 OA 
HETATM   12  C   UNL     1     -10.241   5.113  72.166  1.00  0.00    -0.258 A  
HETATM   13  C   UNL     1      -9.976   5.226  73.535  1.00  0.00    -0.185 A  
HETATM   14  C   UNL     1     -10.131   6.458  74.200  1.00  0.00    -0.353 A  
HETATM   15  C   UNL     1     -10.565   7.592  73.509  1.00  0.00    -0.347 A  
HETATM   16  C   UNL     1     -10.823   7.456  72.157  1.00  0.00    -0.273 A  
HETATM   17  C   UNL     1     -11.306   8.468  71.223  1.00  0.00    -0.271 C  
HETATM   18  O   UNL     1     -11.634   9.586  71.585  1.00  0.00    -0.377 OA 
ENDBRANCH   5   8
TORSDOF 1
ENDMDL
MODEL      139
REMARK 921   NORMALIZED FREE ENERGY PREDICTED BY IDOCK:   -3.72 KCAL/MOL
REMARK 922        TOTAL FREE ENERGY PREDICTED BY IDOCK:   -4.28 KCAL/MOL
REMARK 923 INTER-LIGAND FREE ENERGY PREDICTED BY IDOCK:   -3.88 KCAL/MOL
REMARK 924 INTRA-LIGAND FREE ENERGY PREDICTED BY IDOCK:   -0.40 KCAL/MOL
REMARK 927      BINDING AFFINITY PREDICTED BY RF-SCORE:    0.00 PKD
ROOT
HETATM    1  F   UNL     1     -13.792  10.736  71.434  1.00  0.00    -0.114 F  
HETATM    2  C   UNL     1     -12.757   9.904  71.614  1.00  0.00    -0.429 A  
HETATM    3  C   UNL     1     -11.524  10.211  71.061  1.00  0.00    -0.436 A  
HETATM    4  C   UNL     1     -10.445   9.338  71.240  1.00  0.00    -0.408 A  
HETATM    5  C   UNL     1     -10.582   8.153  71.988  1.00  0.00    -0.334 A  
HETATM    6  C   UNL     1     -11.858   7.861  72.511  1.00  0.00    -0.390 A  
HETATM    7  C   UNL     1     -12.935   8.735  72.336  1.00  0.00    -0.442 A  
ENDROOT
BRANCH   5   8
HETATM    8  C   UNL     1      -9.434   7.159  72.138  1.00  0.00    -0.152 C  
HETATM    9  C   UNL     1      -9.356   6.071  71.065  1.00  0.00    -0.161 C  
HETATM   10  C   UNL     1      -8.071   6.167  70.375  1.00  0.00    -0.112 A  
HETATM   11  O   UNL     1     -10.179   5.211  70.802  1.00  0.00    -0.223 OA 
HETATM   12  C   UNL     1      -7.592   5.402  69.327  1.00  0.00    -0.077 A  
HETATM   13  C   UNL     1      -6.316   5.700  68.837  1.00  0.00    -0.037 A  
HETATM   14  C   UNL     1      -5.553   6.742  69.400  1.00  0.00    -0.015 A  
HETATM   15  C   UNL     1      -6.050   7.492  70.468  1.00  0.00    -0.031 A  
HETATM   16  C   UNL     1      -7.313   7.180  70.937  1.00  0.00    -0.075 A  
HETATM   17  C   UNL     1      -8.042   7.787  72.045  1.00  0.00    -0.106 C  
HETATM   18  O   UNL     1      -7.541   8.631  72.770  1.00  0.00    -0.338 OA 
ENDBRANCH   5   8
TORSDOF 1
ENDMDL
MODEL      140
REMARK 921   NORMALIZED FREE ENERGY PREDICTED BY IDOCK:   -3.70 KCAL/MOL
REMARK 922        TOTAL FREE ENERGY PREDICTED BY IDOCK:   -4.26 KCAL/MOL
REMARK 923 INTER-LIGAND FREE ENERGY PREDICTED BY IDOCK:   -3.98 KCAL/MOL
REMARK 924 INTRA-LIGAND FREE ENERGY PREDICTED BY IDOCK:   -0.28 KCAL/MOL
REMARK 927      BINDING AFFINITY PREDICTED BY RF-SCORE:    0.00 PKD
ROOT
HETATM    1  F   UNL     1     -14.323  13.409  73.055  1.00  0.00    -0.215 F  
HETATM    2  C   UNL     1     -13.310  13.841  72.293  1.00  0.00    -0.521 A  
HETATM    3  C   UNL     1     -12.367  14.704  72.827  1.00  0.00    -0.321 A  
HETATM    4  C   UNL     1     -11.315  15.165  72.028  1.00  0.00    -0.358 A  
HETATM    5  C   UNL     1     -11.183  14.754  70.688  1.00  0.00    -0.173 A  
HETATM    6  C   UNL     1     -12.176  13.897  70.172  1.00  0.00    -0.425 A  
HETATM    7  C   UNL     1     -13.226  13.434  70.971  1.00  0.00    -0.102 A  
ENDROOT
BRANCH   5   8
HETATM    8  C   UNL     1     -10.078  15.296  69.785  1.00  0.00    -0.230 C  
HETATM    9  C   UNL     1      -9.936  14.605  68.427  1.00  0.00    -0.227 C  
HETATM   10  C   UNL     1     -10.132  15.588  67.364  1.00  0.00    -0.246 A  
HETATM   11  O   UNL     1      -9.665  13.438  68.200  1.00  0.00    -0.216 OA 
HETATM   12  C   UNL     1     -10.115  15.397  65.994  1.00  0.00    -0.346 A  
HETATM   13  C   UNL     1     -10.337  16.513  65.181  1.00  0.00    -0.049 A  
HETATM   14  C   UNL     1     -10.565  17.783  65.746  1.00  0.00    -0.175 A  
HETATM   15  C   UNL     1     -10.564  17.957  67.132  1.00  0.00    -0.315 A  
HETATM   16  C   UNL     1     -10.341  16.840  67.917  1.00  0.00    -0.319 A  
HETATM   17  C   UNL     1     -10.265  16.757  69.371  1.00  0.00    -0.225 C  
HETATM   18  O   UNL     1     -10.308  17.747  70.084  1.00  0.00     0.483 OA 
ENDBRANCH   5   8
TORSDOF 1
ENDMDL
MODEL      141
REMARK 921   NORMALIZED FREE ENERGY PREDICTED BY IDOCK:   -3.70 KCAL/MOL
REMARK 922        TOTAL FREE ENERGY PREDICTED BY IDOCK:   -4.25 KCAL/MOL
REMARK 923 INTER-LIGAND FREE ENERGY PREDICTED BY IDOCK:   -3.77 KCAL/MOL
REMARK 924 INTRA-LIGAND FREE ENERGY PREDICTED BY IDOCK:   -0.48 KCAL/MOL
REMARK 927      BINDING AFFINITY PREDICTED BY RF-SCORE:    0.00 PKD
ROOT
HETATM    1  F   UNL     1      -5.631   8.926  66.545  1.00  0.00    -0.042 F  
HETATM    2  C   UNL     1      -6.630   9.817  66.551  1.00  0.00    -0.072 A  
HETATM    3  C   UNL     1      -7.304  10.103  65.374  1.00  0.00    -0.144 A  
HETATM    4  C   UNL     1      -8.341  11.041  65.377  1.00  0.00     0.010 A  
HETATM    5  C   UNL     1      -8.729  11.696  66.561  1.00  0.00    -0.182 A  
HETATM    6  C   UNL     1      -8.003  11.401  67.733  1.00  0.00    -0.119 A  
HETATM    7  C   UNL     1      -6.968  10.460  67.731  1.00  0.00    -0.083 A  
ENDROOT
BRANCH   5   8
HETATM    8  C   UNL     1      -9.815  12.769  66.570  1.00  0.00    -0.258 C  
HETATM    9  C   UNL     1     -10.938  12.565  67.589  1.00  0.00    -0.242 C  
HETATM   10  C   UNL     1     -10.976  13.708  68.499  1.00  0.00    -0.289 A  
HETATM   11  O   UNL     1     -11.731  11.642  67.662  1.00  0.00    -0.513 OA 
HETATM   12  C   UNL     1     -11.813  13.926  69.579  1.00  0.00    -0.383 A  
HETATM   13  C   UNL     1     -11.643  15.113  70.300  1.00  0.00    -0.325 A  
HETATM   14  C   UNL     1     -10.655  16.046  69.930  1.00  0.00    -0.314 A  
HETATM   15  C   UNL     1      -9.830  15.813  68.827  1.00  0.00    -0.214 A  
HETATM   16  C   UNL     1     -10.017  14.634  68.128  1.00  0.00    -0.224 A  
HETATM   17  C   UNL     1      -9.314  14.168  66.937  1.00  0.00    -0.264 C  
HETATM   18  O   UNL     1      -8.495  14.857  66.352  1.00  0.00    -0.116 OA 
ENDBRANCH   5   8
TORSDOF 1
ENDMDL
MODEL      142
REMARK 921   NORMALIZED FREE ENERGY PREDICTED BY IDOCK:   -3.70 KCAL/MOL
REMARK 922        TOTAL FREE ENERGY PREDICTED BY IDOCK:   -4.25 KCAL/MOL
REMARK 923 INTER-LIGAND FREE ENERGY PREDICTED BY IDOCK:   -3.98 KCAL/MOL
REMARK 924 INTRA-LIGAND FREE ENERGY PREDICTED BY IDOCK:   -0.27 KCAL/MOL
REMARK 927      BINDING AFFINITY PREDICTED BY RF-SCORE:    0.00 PKD
ROOT
HETATM    1  F   UNL     1      -8.252  10.369  64.271  1.00  0.00    -0.159 F  
HETATM    2  C   UNL     1      -8.859   9.543  65.135  1.00  0.00    -0.186 A  
HETATM    3  C   UNL     1      -8.382   8.253  65.303  1.00  0.00    -0.175 A  
HETATM    4  C   UNL     1      -9.021   7.387  66.197  1.00  0.00    -0.182 A  
HETATM    5  C   UNL     1     -10.136   7.805  66.947  1.00  0.00    -0.356 A  
HETATM    6  C   UNL     1     -10.609   9.116  66.729  1.00  0.00    -0.207 A  
HETATM    7  C   UNL     1      -9.968   9.983  65.838  1.00  0.00    -0.339 A  
ENDROOT
BRANCH   5   8
HETATM    8  C   UNL     1     -10.883   6.855  67.878  1.00  0.00    -0.287 C  
HETATM    9  C   UNL     1     -10.491   5.380  67.772  1.00  0.00    -0.140 C  
HETATM   10  C   UNL     1      -9.996   4.918  69.067  1.00  0.00    -0.237 A  
HETATM   11  O   UNL     1     -10.586   4.643  66.805  1.00  0.00    -0.148 OA 
HETATM   12  C   UNL     1      -9.515   3.668  69.414  1.00  0.00    -0.249 A  
HETATM   13  C   UNL     1      -9.094   3.480  70.735  1.00  0.00    -0.181 A  
HETATM   14  C   UNL     1      -9.164   4.530  71.670  1.00  0.00    -0.183 A  
HETATM   15  C   UNL     1      -9.667   5.781  71.302  1.00  0.00    -0.210 A  
HETATM   16  C   UNL     1     -10.078   5.944  69.992  1.00  0.00    -0.258 A  
HETATM   17  C   UNL     1     -10.658   7.128  69.368  1.00  0.00    -0.233 C  
HETATM   18  O   UNL     1     -10.934   8.132  70.004  1.00  0.00    -0.248 OA 
ENDBRANCH   5   8
TORSDOF 1
ENDMDL
MODEL      143
REMARK 921   NORMALIZED FREE ENERGY PREDICTED BY IDOCK:   -3.68 KCAL/MOL
REMARK 922        TOTAL FREE ENERGY PREDICTED BY IDOCK:   -4.24 KCAL/MOL
REMARK 923 INTER-LIGAND FREE ENERGY PREDICTED BY IDOCK:   -3.80 KCAL/MOL
REMARK 924 INTRA-LIGAND FREE ENERGY PREDICTED BY IDOCK:   -0.44 KCAL/MOL
REMARK 927      BINDING AFFINITY PREDICTED BY RF-SCORE:    0.00 PKD
ROOT
HETATM    1  F   UNL     1     -10.251  10.296  67.636  1.00  0.00    -0.196 F  
HETATM    2  C   UNL     1     -10.175   9.757  68.860  1.00  0.00    -0.200 A  
HETATM    3  C   UNL     1     -11.137  10.067  69.809  1.00  0.00    -0.319 A  
HETATM    4  C   UNL     1     -11.052   9.512  71.090  1.00  0.00    -0.450 A  
HETATM    5  C   UNL     1     -10.014   8.627  71.435  1.00  0.00    -0.324 A  
HETATM    6  C   UNL     1      -9.040   8.356  70.452  1.00  0.00    -0.155 A  
HETATM    7  C   UNL     1      -9.126   8.908  69.170  1.00  0.00    -0.141 A  
ENDROOT
BRANCH   5   8
HETATM    8  C   UNL     1      -9.871   8.064  72.846  1.00  0.00    -0.357 C  
HETATM    9  C   UNL     1     -10.304   6.607  73.024  1.00  0.00    -0.222 C  
HETATM   10  C   UNL     1      -9.168   5.821  73.499  1.00  0.00    -0.131 A  
HETATM   11  O   UNL     1     -11.410   6.123  72.851  1.00  0.00    -0.242 OA 
HETATM   12  C   UNL     1      -9.105   4.465  73.768  1.00  0.00    -0.104 A  
HETATM   13  C   UNL     1      -7.883   3.949  74.214  1.00  0.00    -0.082 A  
HETATM   14  C   UNL     1      -6.765   4.788  74.382  1.00  0.00    -0.070 A  
HETATM   15  C   UNL     1      -6.854   6.157  74.120  1.00  0.00    -0.079 A  
HETATM   16  C   UNL     1      -8.072   6.646  73.681  1.00  0.00    -0.110 A  
HETATM   17  C   UNL     1      -8.432   8.024  73.365  1.00  0.00    -0.235 C  
HETATM   18  O   UNL     1      -7.667   8.956  73.550  1.00  0.00    -0.382 OA 
ENDBRANCH   5   8
TORSDOF 1
ENDMDL
MODEL      144
REMARK 921   NORMALIZED FREE ENERGY PREDICTED BY IDOCK:   -3.67 KCAL/MOL
REMARK 922        TOTAL FREE ENERGY PREDICTED BY IDOCK:   -4.22 KCAL/MOL
REMARK 923 INTER-LIGAND FREE ENERGY PREDICTED BY IDOCK:   -4.26 KCAL/MOL
REMARK 924 INTRA-LIGAND FREE ENERGY PREDICTED BY IDOCK:    0.04 KCAL/MOL
REMARK 927      BINDING AFFINITY PREDICTED BY RF-SCORE:    0.00 PKD
ROOT
HETATM    1  F   UNL     1      -7.140  20.001  65.942  1.00  0.00    -0.240 F  
HETATM    2  C   UNL     1      -7.473  18.817  66.473  1.00  0.00    -0.240 A  
HETATM    3  C   UNL     1      -8.712  18.657  67.074  1.00  0.00    -0.285 A  
HETATM    4  C   UNL     1      -9.057  17.425  67.638  1.00  0.00    -0.234 A  
HETATM    5  C   UNL     1      -8.173  16.330  67.596  1.00  0.00    -0.166 A  
HETATM    6  C   UNL     1      -6.912  16.538  67.001  1.00  0.00    -0.250 A  
HETATM    7  C   UNL     1      -6.568  17.769  66.434  1.00  0.00    -0.276 A  
ENDROOT
BRANCH   5   8
HETATM    8  C   UNL     1      -8.508  14.999  68.262  1.00  0.00    -0.147 C  
HETATM    9  C   UNL     1      -9.999  14.704  68.442  1.00  0.00    -0.227 C  
HETATM   10  C   UNL     1     -10.336  13.474  67.728  1.00  0.00    -0.241 A  
HETATM   11  O   UNL     1     -10.818  15.332  69.091  1.00  0.00    -0.228 OA 
HETATM   12  C   UNL     1     -11.568  12.856  67.604  1.00  0.00    -0.406 A  
HETATM   13  C   UNL     1     -11.627  11.675  66.857  1.00  0.00    -0.246 A  
HETATM   14  C   UNL     1     -10.468  11.141  66.259  1.00  0.00    -0.312 A  
HETATM   15  C   UNL     1      -9.232  11.774  66.410  1.00  0.00    -0.223 A  
HETATM   16  C   UNL     1      -9.197  12.939  67.154  1.00  0.00    -0.225 A  
HETATM   17  C   UNL     1      -8.042  13.769  67.480  1.00  0.00    -0.185 C  
HETATM   18  O   UNL     1      -6.903  13.449  67.179  1.00  0.00    -0.129 OA 
ENDBRANCH   5   8
TORSDOF 1
ENDMDL
MODEL      145
REMARK 921   NORMALIZED FREE ENERGY PREDICTED BY IDOCK:   -3.66 KCAL/MOL
REMARK 922        TOTAL FREE ENERGY PREDICTED BY IDOCK:   -4.21 KCAL/MOL
REMARK 923 INTER-LIGAND FREE ENERGY PREDICTED BY IDOCK:   -3.77 KCAL/MOL
REMARK 924 INTRA-LIGAND FREE ENERGY PREDICTED BY IDOCK:   -0.44 KCAL/MOL
REMARK 927      BINDING AFFINITY PREDICTED BY RF-SCORE:    0.00 PKD
ROOT
HETATM    1  F   UNL     1     -10.882   4.921  72.636  1.00  0.00    -0.246 F  
HETATM    2  C   UNL     1     -10.436   6.064  72.098  1.00  0.00    -0.206 A  
HETATM    3  C   UNL     1     -10.444   7.228  72.850  1.00  0.00    -0.326 A  
HETATM    4  C   UNL     1      -9.988   8.424  72.285  1.00  0.00    -0.383 A  
HETATM    5  C   UNL     1      -9.503   8.468  70.964  1.00  0.00    -0.234 A  
HETATM    6  C   UNL     1      -9.536   7.270  70.221  1.00  0.00    -0.165 A  
HETATM    7  C   UNL     1      -9.989   6.074  70.787  1.00  0.00    -0.237 A  
ENDROOT
BRANCH   5   8
HETATM    8  C   UNL     1      -9.062   9.775  70.311  1.00  0.00    -0.208 C  
HETATM    9  C   UNL     1      -7.988   9.645  69.229  1.00  0.00    -0.104 C  
HETATM   10  C   UNL     1      -8.509  10.167  67.968  1.00  0.00    -0.118 A  
HETATM   11  O   UNL     1      -6.850   9.220  69.344  1.00  0.00    -0.047 OA 
HETATM   12  C   UNL     1      -7.889  10.222  66.732  1.00  0.00    -0.114 A  
HETATM   13  C   UNL     1      -8.613  10.773  65.669  1.00  0.00    -0.185 A  
HETATM   14  C   UNL     1      -9.923  11.253  65.860  1.00  0.00    -0.277 A  
HETATM   15  C   UNL     1     -10.524  11.201  67.120  1.00  0.00    -0.270 A  
HETATM   16  C   UNL     1      -9.790  10.654  68.157  1.00  0.00    -0.170 A  
HETATM   17  C   UNL     1     -10.174  10.508  69.557  1.00  0.00    -0.200 C  
HETATM   18  O   UNL     1     -11.217  10.961  69.998  1.00  0.00    -0.281 OA 
ENDBRANCH   5   8
TORSDOF 1
ENDMDL
MODEL      146
REMARK 921   NORMALIZED FREE ENERGY PREDICTED BY IDOCK:   -3.65 KCAL/MOL
REMARK 922        TOTAL FREE ENERGY PREDICTED BY IDOCK:   -4.20 KCAL/MOL
REMARK 923 INTER-LIGAND FREE ENERGY PREDICTED BY IDOCK:   -4.14 KCAL/MOL
REMARK 924 INTRA-LIGAND FREE ENERGY PREDICTED BY IDOCK:   -0.06 KCAL/MOL
REMARK 927      BINDING AFFINITY PREDICTED BY RF-SCORE:    0.00 PKD
ROOT
HETATM    1  F   UNL     1     -13.151  15.747  71.499  1.00  0.00    -0.462 F  
HETATM    2  C   UNL     1     -12.290  15.345  70.555  1.00  0.00    -0.408 A  
HETATM    3  C   UNL     1     -11.175  16.116  70.268  1.00  0.00    -0.389 A  
HETATM    4  C   UNL     1     -10.281  15.702  69.275  1.00  0.00    -0.250 A  
HETATM    5  C   UNL     1     -10.481  14.502  68.567  1.00  0.00    -0.250 A  
HETATM    6  C   UNL     1     -11.641  13.758  68.868  1.00  0.00    -0.358 A  
HETATM    7  C   UNL     1     -12.533  14.170  69.863  1.00  0.00    -0.313 A  
ENDROOT
BRANCH   5   8
HETATM    8  C   UNL     1      -9.551  14.068  67.438  1.00  0.00    -0.227 C  
HETATM    9  C   UNL     1      -8.078  13.906  67.820  1.00  0.00    -0.172 C  
HETATM   10  C   UNL     1      -7.662  12.529  67.562  1.00  0.00    -0.165 A  
HETATM   11  O   UNL     1      -7.310  14.756  68.239  1.00  0.00    -0.102 OA 
HETATM   12  C   UNL     1      -6.429  11.942  67.784  1.00  0.00    -0.084 A  
HETATM   13  C   UNL     1      -6.286  10.590  67.452  1.00  0.00    -0.058 A  
HETATM   14  C   UNL     1      -7.364   9.864  66.910  1.00  0.00    -0.091 A  
HETATM   15  C   UNL     1      -8.596  10.480  66.680  1.00  0.00    -0.133 A  
HETATM   16  C   UNL     1      -8.714  11.817  67.015  1.00  0.00    -0.181 A  
HETATM   17  C   UNL     1      -9.872  12.690  66.853  1.00  0.00    -0.234 C  
HETATM   18  O   UNL     1     -10.891  12.324  66.291  1.00  0.00    -0.260 OA 
ENDBRANCH   5   8
TORSDOF 1
ENDMDL
MODEL      147
REMARK 921   NORMALIZED FREE ENERGY PREDICTED BY IDOCK:   -3.63 KCAL/MOL
REMARK 922        TOTAL FREE ENERGY PREDICTED BY IDOCK:   -4.18 KCAL/MOL
REMARK 923 INTER-LIGAND FREE ENERGY PREDICTED BY IDOCK:   -3.70 KCAL/MOL
REMARK 924 INTRA-LIGAND FREE ENERGY PREDICTED BY IDOCK:   -0.47 KCAL/MOL
REMARK 927      BINDING AFFINITY PREDICTED BY RF-SCORE:    0.00 PKD
ROOT
HETATM    1  F   UNL     1     -10.008   9.972  64.497  1.00  0.00    -0.384 F  
HETATM    2  C   UNL     1     -10.032   9.566  65.773  1.00  0.00    -0.245 A  
HETATM    3  C   UNL     1      -9.335   8.427  66.146  1.00  0.00    -0.267 A  
HETATM    4  C   UNL     1      -9.368   7.997  67.477  1.00  0.00    -0.171 A  
HETATM    5  C   UNL     1     -10.085   8.710  68.456  1.00  0.00    -0.211 A  
HETATM    6  C   UNL     1     -10.803   9.848  68.034  1.00  0.00    -0.294 A  
HETATM    7  C   UNL     1     -10.768  10.279  66.705  1.00  0.00    -0.183 A  
ENDROOT
BRANCH   5   8
HETATM    8  C   UNL     1     -10.183   8.220  69.898  1.00  0.00    -0.201 C  
HETATM    9  C   UNL     1     -10.842   6.851  70.088  1.00  0.00    -0.263 C  
HETATM   10  C   UNL     1      -9.891   5.945  70.730  1.00  0.00    -0.229 A  
HETATM   11  O   UNL     1     -11.980   6.517  69.808  1.00  0.00    -0.277 OA 
HETATM   12  C   UNL     1     -10.057   4.613  71.065  1.00  0.00    -0.246 A  
HETATM   13  C   UNL     1      -8.981   3.960  71.676  1.00  0.00    -0.157 A  
HETATM   14  C   UNL     1      -7.778   4.643  71.938  1.00  0.00    -0.097 A  
HETATM   15  C   UNL     1      -7.637   5.992  71.605  1.00  0.00    -0.100 A  
HETATM   16  C   UNL     1      -8.714   6.618  71.003  1.00  0.00    -0.138 A  
HETATM   17  C   UNL     1      -8.832   8.011  70.585  1.00  0.00    -0.143 C  
HETATM   18  O   UNL     1      -7.965   8.837  70.818  1.00  0.00    -0.098 OA 
ENDBRANCH   5   8
TORSDOF 1
ENDMDL
MODEL      148
REMARK 921   NORMALIZED FREE ENERGY PREDICTED BY IDOCK:   -3.62 KCAL/MOL
REMARK 922        TOTAL FREE ENERGY PREDICTED BY IDOCK:   -4.17 KCAL/MOL
REMARK 923 INTER-LIGAND FREE ENERGY PREDICTED BY IDOCK:   -3.69 KCAL/MOL
REMARK 924 INTRA-LIGAND FREE ENERGY PREDICTED BY IDOCK:   -0.47 KCAL/MOL
REMARK 927      BINDING AFFINITY PREDICTED BY RF-SCORE:    0.00 PKD
ROOT
HETATM    1  F   UNL     1     -12.105  16.136  68.919  1.00  0.00    -0.362 F  
HETATM    2  C   UNL     1     -11.531  14.962  68.627  1.00  0.00    -0.306 A  
HETATM    3  C   UNL     1     -10.400  14.928  67.827  1.00  0.00    -0.244 A  
HETATM    4  C   UNL     1      -9.806  13.701  67.514  1.00  0.00    -0.227 A  
HETATM    5  C   UNL     1     -10.327  12.491  68.009  1.00  0.00    -0.226 A  
HETATM    6  C   UNL     1     -11.494  12.562  68.797  1.00  0.00    -0.353 A  
HETATM    7  C   UNL     1     -12.086  13.789  69.113  1.00  0.00    -0.374 A  
ENDROOT
BRANCH   5   8
HETATM    8  C   UNL     1      -9.730  11.140  67.626  1.00  0.00    -0.184 C  
HETATM    9  C   UNL     1      -9.789  10.789  66.137  1.00  0.00    -0.221 C  
HETATM   10  C   UNL     1      -8.432  10.587  65.636  1.00  0.00    -0.179 A  
HETATM   11  O   UNL     1     -10.776  10.648  65.435  1.00  0.00    -0.171 OA 
HETATM   12  C   UNL     1      -8.020  10.281  64.351  1.00  0.00    -0.135 A  
HETATM   13  C   UNL     1      -6.646  10.142  64.126  1.00  0.00    -0.113 A  
HETATM   14  C   UNL     1      -5.724  10.306  65.178  1.00  0.00    -0.124 A  
HETATM   15  C   UNL     1      -6.162  10.601  66.471  1.00  0.00    -0.097 A  
HETATM   16  C   UNL     1      -7.524  10.733  66.670  1.00  0.00    -0.135 A  
HETATM   17  C   UNL     1      -8.233  11.009  67.915  1.00  0.00    -0.119 C  
HETATM   18  O   UNL     1      -7.661  11.070  68.991  1.00  0.00    -0.124 OA 
ENDBRANCH   5   8
TORSDOF 1
ENDMDL
MODEL      149
REMARK 921   NORMALIZED FREE ENERGY PREDICTED BY IDOCK:   -3.62 KCAL/MOL
REMARK 922        TOTAL FREE ENERGY PREDICTED BY IDOCK:   -4.17 KCAL/MOL
REMARK 923 INTER-LIGAND FREE ENERGY PREDICTED BY IDOCK:   -3.86 KCAL/MOL
REMARK 924 INTRA-LIGAND FREE ENERGY PREDICTED BY IDOCK:   -0.31 KCAL/MOL
REMARK 927      BINDING AFFINITY PREDICTED BY RF-SCORE:    0.00 PKD
ROOT
HETATM    1  F   UNL     1     -11.915  13.029  65.568  1.00  0.00    -0.362 F  
HETATM    2  C   UNL     1     -11.370  11.976  66.191  1.00  0.00    -0.351 A  
HETATM    3  C   UNL     1     -11.651  11.747  67.529  1.00  0.00    -0.361 A  
HETATM    4  C   UNL     1     -11.074  10.653  68.183  1.00  0.00    -0.343 A  
HETATM    5  C   UNL     1     -10.220   9.764  67.504  1.00  0.00    -0.271 A  
HETATM    6  C   UNL     1      -9.936  10.044  66.151  1.00  0.00    -0.322 A  
HETATM    7  C   UNL     1     -10.516  11.136  65.496  1.00  0.00    -0.317 A  
ENDROOT
BRANCH   5   8
HETATM    8  C   UNL     1      -9.532   8.604  68.217  1.00  0.00    -0.150 C  
HETATM    9  C   UNL     1      -8.067   8.834  68.594  1.00  0.00    -0.116 C  
HETATM   10  C   UNL     1      -7.918   8.714  70.043  1.00  0.00    -0.106 A  
HETATM   11  O   UNL     1      -7.123   9.048  67.853  1.00  0.00    -0.077 OA 
HETATM   12  C   UNL     1      -6.778   8.870  70.812  1.00  0.00    -0.059 A  
HETATM   13  C   UNL     1      -6.902   8.704  72.195  1.00  0.00    -0.069 A  
HETATM   14  C   UNL     1      -8.147   8.387  72.774  1.00  0.00    -0.168 A  
HETATM   15  C   UNL     1      -9.282   8.220  71.978  1.00  0.00    -0.270 A  
HETATM   16  C   UNL     1      -9.136   8.388  70.613  1.00  0.00    -0.174 A  
HETATM   17  C   UNL     1     -10.148   8.245  69.572  1.00  0.00    -0.197 C  
HETATM   18  O   UNL     1     -11.279   7.855  69.811  1.00  0.00    -0.143 OA 
ENDBRANCH   5   8
TORSDOF 1
ENDMDL
MODEL      150
REMARK 921   NORMALIZED FREE ENERGY PREDICTED BY IDOCK:   -3.58 KCAL/MOL
REMARK 922        TOTAL FREE ENERGY PREDICTED BY IDOCK:   -4.12 KCAL/MOL
REMARK 923 INTER-LIGAND FREE ENERGY PREDICTED BY IDOCK:   -3.81 KCAL/MOL
REMARK 924 INTRA-LIGAND FREE ENERGY PREDICTED BY IDOCK:   -0.32 KCAL/MOL
REMARK 927      BINDING AFFINITY PREDICTED BY RF-SCORE:    0.00 PKD
ROOT
HETATM    1  F   UNL     1     -11.787  12.336  62.891  1.00  0.00    -0.363 F  
HETATM    2  C   UNL     1     -11.140  11.830  63.949  1.00  0.00    -0.408 A  
HETATM    3  C   UNL     1     -10.248  10.784  63.774  1.00  0.00    -0.354 A  
HETATM    4  C   UNL     1      -9.580  10.248  64.880  1.00  0.00    -0.365 A  
HETATM    5  C   UNL     1      -9.782  10.762  66.174  1.00  0.00    -0.253 A  
HETATM    6  C   UNL     1     -10.717  11.808  66.317  1.00  0.00    -0.312 A  
HETATM    7  C   UNL     1     -11.383  12.346  65.211  1.00  0.00    -0.374 A  
ENDROOT
BRANCH   5   8
HETATM    8  C   UNL     1      -9.110  10.148  67.399  1.00  0.00    -0.149 C  
HETATM    9  C   UNL     1      -9.979   9.193  68.221  1.00  0.00    -0.175 C  
HETATM   10  C   UNL     1      -9.346   7.876  68.255  1.00  0.00    -0.145 A  
HETATM   11  O   UNL     1     -11.019   9.437  68.809  1.00  0.00    -0.159 OA 
HETATM   12  C   UNL     1      -9.795   6.716  68.861  1.00  0.00    -0.143 A  
HETATM   13  C   UNL     1      -8.996   5.573  68.744  1.00  0.00    -0.120 A  
HETATM   14  C   UNL     1      -7.780   5.614  68.035  1.00  0.00    -0.089 A  
HETATM   15  C   UNL     1      -7.338   6.800  67.444  1.00  0.00    -0.095 A  
HETATM   16  C   UNL     1      -8.143   7.917  67.573  1.00  0.00    -0.124 A  
HETATM   17  C   UNL     1      -7.901   9.268  67.078  1.00  0.00    -0.098 C  
HETATM   18  O   UNL     1      -6.854   9.586  66.536  1.00  0.00    -0.081 OA 
ENDBRANCH   5   8
TORSDOF 1
ENDMDL
MODEL      151
REMARK 921   NORMALIZED FREE ENERGY PREDICTED BY IDOCK:   -3.56 KCAL/MOL
REMARK 922        TOTAL FREE ENERGY PREDICTED BY IDOCK:   -4.10 KCAL/MOL
REMARK 923 INTER-LIGAND FREE ENERGY PREDICTED BY IDOCK:   -3.67 KCAL/MOL
REMARK 924 INTRA-LIGAND FREE ENERGY PREDICTED BY IDOCK:   -0.44 KCAL/MOL
REMARK 927      BINDING AFFINITY PREDICTED BY RF-SCORE:    0.00 PKD
ROOT
HETATM    1  F   UNL     1      -7.986  12.128  68.054  1.00  0.00    -0.117 F  
HETATM    2  C   UNL     1      -8.671  10.982  68.160  1.00  0.00    -0.141 A  
HETATM    3  C   UNL     1      -9.926  10.875  67.582  1.00  0.00    -0.197 A  
HETATM    4  C   UNL     1     -10.646   9.681  67.701  1.00  0.00    -0.334 A  
HETATM    5  C   UNL     1     -10.114   8.574  68.388  1.00  0.00    -0.221 A  
HETATM    6  C   UNL     1      -8.847   8.730  68.986  1.00  0.00    -0.137 A  
HETATM    7  C   UNL     1      -8.125   9.921  68.863  1.00  0.00    -0.105 A  
ENDROOT
BRANCH   5   8
HETATM    8  C   UNL     1     -10.912   7.288  68.582  1.00  0.00    -0.033 C  
HETATM    9  C   UNL     1     -10.515   6.119  67.677  1.00  0.00    -0.234 C  
HETATM   10  C   UNL     1     -10.093   4.991  68.505  1.00  0.00    -0.184 A  
HETATM   11  O   UNL     1     -10.556   6.060  66.460  1.00  0.00    -0.228 OA 
HETATM   12  C   UNL     1      -9.632   3.749  68.105  1.00  0.00    -0.176 A  
HETATM   13  C   UNL     1      -9.286   2.834  69.106  1.00  0.00    -0.215 A  
HETATM   14  C   UNL     1      -9.407   3.174  70.467  1.00  0.00    -0.227 A  
HETATM   15  C   UNL     1      -9.889   4.429  70.849  1.00  0.00    -0.266 A  
HETATM   16  C   UNL     1     -10.226   5.316  69.843  1.00  0.00    -0.364 A  
HETATM   17  C   UNL     1     -10.771   6.664  69.973  1.00  0.00    -0.240 C  
HETATM   18  O   UNL     1     -11.082   7.141  71.052  1.00  0.00    -0.247 OA 
ENDBRANCH   5   8
TORSDOF 1
ENDMDL
MODEL      152
REMARK 921   NORMALIZED FREE ENERGY PREDICTED BY IDOCK:   -3.55 KCAL/MOL
REMARK 922        TOTAL FREE ENERGY PREDICTED BY IDOCK:   -4.10 KCAL/MOL
REMARK 923 INTER-LIGAND FREE ENERGY PREDICTED BY IDOCK:   -3.75 KCAL/MOL
REMARK 924 INTRA-LIGAND FREE ENERGY PREDICTED BY IDOCK:   -0.35 KCAL/MOL
REMARK 927      BINDING AFFINITY PREDICTED BY RF-SCORE:    0.00 PKD
ROOT
HETATM    1  F   UNL     1     -11.304  14.691  65.303  1.00  0.00    -0.312 F  
HETATM    2  C   UNL     1     -10.883  13.681  66.075  1.00  0.00    -0.275 A  
HETATM    3  C   UNL     1     -10.733  13.874  67.439  1.00  0.00    -0.275 A  
HETATM    4  C   UNL     1     -10.283  12.822  68.245  1.00  0.00    -0.245 A  
HETATM    5  C   UNL     1      -9.994  11.558  67.699  1.00  0.00    -0.199 A  
HETATM    6  C   UNL     1     -10.133  11.407  66.304  1.00  0.00    -0.263 A  
HETATM    7  C   UNL     1     -10.585  12.457  65.499  1.00  0.00    -0.307 A  
ENDROOT
BRANCH   5   8
HETATM    8  C   UNL     1      -9.443  10.419  68.553  1.00  0.00    -0.159 C  
HETATM    9  C   UNL     1     -10.490   9.512  69.202  1.00  0.00    -0.210 C  
HETATM   10  C   UNL     1     -10.293   8.140  68.739  1.00  0.00    -0.220 A  
HETATM   11  O   UNL     1     -11.351   9.814  70.011  1.00  0.00    -0.242 OA 
HETATM   12  C   UNL     1     -11.024   7.008  69.051  1.00  0.00    -0.169 A  
HETATM   13  C   UNL     1     -10.629   5.800  68.467  1.00  0.00    -0.299 A  
HETATM   14  C   UNL     1      -9.523   5.749  67.596  1.00  0.00    -0.114 A  
HETATM   15  C   UNL     1      -8.789   6.901  67.306  1.00  0.00    -0.118 A  
HETATM   16  C   UNL     1      -9.197   8.084  67.896  1.00  0.00    -0.137 A  
HETATM   17  C   UNL     1      -8.594   9.407  67.779  1.00  0.00    -0.116 C  
HETATM   18  O   UNL     1      -7.550   9.597  67.177  1.00  0.00    -0.091 OA 
ENDBRANCH   5   8
TORSDOF 1
ENDMDL
MODEL      153
REMARK 921   NORMALIZED FREE ENERGY PREDICTED BY IDOCK:   -3.51 KCAL/MOL
REMARK 922        TOTAL FREE ENERGY PREDICTED BY IDOCK:   -4.05 KCAL/MOL
REMARK 923 INTER-LIGAND FREE ENERGY PREDICTED BY IDOCK:   -3.63 KCAL/MOL
REMARK 924 INTRA-LIGAND FREE ENERGY PREDICTED BY IDOCK:   -0.42 KCAL/MOL
REMARK 927      BINDING AFFINITY PREDICTED BY RF-SCORE:    0.00 PKD
ROOT
HETATM    1  F   UNL     1     -12.792   9.398  72.563  1.00  0.00    -0.443 F  
HETATM    2  C   UNL     1     -11.889   8.571  72.020  1.00  0.00    -0.362 A  
HETATM    3  C   UNL     1     -10.967   7.930  72.833  1.00  0.00    -0.452 A  
HETATM    4  C   UNL     1     -10.017   7.074  72.265  1.00  0.00    -0.188 A  
HETATM    5  C   UNL     1      -9.985   6.836  70.878  1.00  0.00    -0.200 A  
HETATM    6  C   UNL     1     -10.921   7.527  70.081  1.00  0.00    -0.267 A  
HETATM    7  C   UNL     1     -11.873   8.380  70.648  1.00  0.00    -0.100 A  
ENDROOT
BRANCH   5   8
HETATM    8  C   UNL     1      -8.917   5.957  70.236  1.00  0.00    -0.152 C  
HETATM    9  C   UNL     1      -9.352   4.531  69.890  1.00  0.00    -0.148 C  
HETATM   10  C   UNL     1      -9.200   4.316  68.453  1.00  0.00    -0.190 A  
HETATM   11  O   UNL     1      -9.738   3.656  70.647  1.00  0.00    -0.180 OA 
HETATM   12  C   UNL     1      -9.497   3.187  67.710  1.00  0.00    -0.209 A  
HETATM   13  C   UNL     1      -9.259   3.238  66.332  1.00  0.00    -0.161 A  
HETATM   14  C   UNL     1      -8.734   4.399  65.733  1.00  0.00    -0.120 A  
HETATM   15  C   UNL     1      -8.427   5.523  66.504  1.00  0.00    -0.113 A  
HETATM   16  C   UNL     1      -8.669   5.451  67.864  1.00  0.00    -0.106 A  
HETATM   17  C   UNL     1      -8.415   6.464  68.882  1.00  0.00    -0.121 C  
HETATM   18  O   UNL     1      -7.848   7.514  68.629  1.00  0.00    -0.116 OA 
ENDBRANCH   5   8
TORSDOF 1
ENDMDL
MODEL      154
REMARK 921   NORMALIZED FREE ENERGY PREDICTED BY IDOCK:   -3.50 KCAL/MOL
REMARK 922        TOTAL FREE ENERGY PREDICTED BY IDOCK:   -4.04 KCAL/MOL
REMARK 923 INTER-LIGAND FREE ENERGY PREDICTED BY IDOCK:   -3.57 KCAL/MOL
REMARK 924 INTRA-LIGAND FREE ENERGY PREDICTED BY IDOCK:   -0.47 KCAL/MOL
REMARK 927      BINDING AFFINITY PREDICTED BY RF-SCORE:    0.00 PKD
ROOT
HETATM    1  F   UNL     1      -8.684  16.360  68.497  1.00  0.00    -0.188 F  
HETATM    2  C   UNL     1      -9.054  15.152  68.053  1.00  0.00    -0.180 A  
HETATM    3  C   UNL     1      -8.093  14.263  67.596  1.00  0.00    -0.188 A  
HETATM    4  C   UNL     1      -8.480  13.005  67.122  1.00  0.00    -0.176 A  
HETATM    5  C   UNL     1      -9.831  12.612  67.114  1.00  0.00    -0.212 A  
HETATM    6  C   UNL     1     -10.782  13.552  67.561  1.00  0.00    -0.266 A  
HETATM    7  C   UNL     1     -10.396  14.809  68.037  1.00  0.00    -0.237 A  
ENDROOT
BRANCH   5   8
HETATM    8  C   UNL     1     -10.276  11.269  66.542  1.00  0.00    -0.269 C  
HETATM    9  C   UNL     1      -9.873  11.002  65.090  1.00  0.00    -0.268 C  
HETATM   10  C   UNL     1      -9.042   9.801  65.034  1.00  0.00    -0.280 A  
HETATM   11  O   UNL     1     -10.190  11.628  64.092  1.00  0.00    -0.276 OA 
HETATM   12  C   UNL     1      -8.443   9.213  63.934  1.00  0.00    -0.189 A  
HETATM   13  C   UNL     1      -7.687   8.056  64.149  1.00  0.00    -0.129 A  
HETATM   14  C   UNL     1      -7.549   7.516  65.442  1.00  0.00    -0.095 A  
HETATM   15  C   UNL     1      -8.174   8.116  66.537  1.00  0.00    -0.107 A  
HETATM   16  C   UNL     1      -8.918   9.258  66.301  1.00  0.00    -0.193 A  
HETATM   17  C   UNL     1      -9.682  10.053  67.256  1.00  0.00    -0.167 C  
HETATM   18  O   UNL     1      -9.819   9.717  68.422  1.00  0.00    -0.147 OA 
ENDBRANCH   5   8
TORSDOF 1
ENDMDL
MODEL      155
REMARK 921   NORMALIZED FREE ENERGY PREDICTED BY IDOCK:   -3.49 KCAL/MOL
REMARK 922        TOTAL FREE ENERGY PREDICTED BY IDOCK:   -4.03 KCAL/MOL
REMARK 923 INTER-LIGAND FREE ENERGY PREDICTED BY IDOCK:   -3.55 KCAL/MOL
REMARK 924 INTRA-LIGAND FREE ENERGY PREDICTED BY IDOCK:   -0.48 KCAL/MOL
REMARK 927      BINDING AFFINITY PREDICTED BY RF-SCORE:    0.00 PKD
ROOT
HETATM    1  F   UNL     1      -8.498   2.566  64.210  1.00  0.00    -0.081 F  
HETATM    2  C   UNL     1      -9.076   3.492  64.986  1.00  0.00    -0.140 A  
HETATM    3  C   UNL     1     -10.399   3.844  64.768  1.00  0.00    -0.184 A  
HETATM    4  C   UNL     1     -11.001   4.818  65.571  1.00  0.00     0.004 A  
HETATM    5  C   UNL     1     -10.293   5.443  66.615  1.00  0.00    -0.325 A  
HETATM    6  C   UNL     1      -8.942   5.079  66.790  1.00  0.00    -0.113 A  
HETATM    7  C   UNL     1      -8.341   4.102  65.989  1.00  0.00    -0.109 A  
ENDROOT
BRANCH   5   8
HETATM    8  C   UNL     1     -10.914   6.552  67.459  1.00  0.00    -0.444 C  
HETATM    9  C   UNL     1     -10.785   6.381  68.974  1.00  0.00    -0.286 C  
HETATM   10  C   UNL     1     -10.054   7.519  69.527  1.00  0.00    -0.189 A  
HETATM   11  O   UNL     1     -11.230   5.485  69.672  1.00  0.00    -0.138 OA 
HETATM   12  C   UNL     1      -9.693   7.761  70.841  1.00  0.00    -0.174 A  
HETATM   13  C   UNL     1      -8.986   8.937  71.112  1.00  0.00    -0.305 A  
HETATM   14  C   UNL     1      -8.660   9.837  70.079  1.00  0.00    -0.229 A  
HETATM   15  C   UNL     1      -9.047   9.581  68.762  1.00  0.00    -0.133 A  
HETATM   16  C   UNL     1      -9.747   8.414  68.517  1.00  0.00    -0.169 A  
HETATM   17  C   UNL     1     -10.283   7.930  67.249  1.00  0.00    -0.273 C  
HETATM   18  O   UNL     1     -10.237   8.594  66.226  1.00  0.00    -0.264 OA 
ENDBRANCH   5   8
TORSDOF 1
ENDMDL
MODEL      156
REMARK 921   NORMALIZED FREE ENERGY PREDICTED BY IDOCK:   -3.46 KCAL/MOL
REMARK 922        TOTAL FREE ENERGY PREDICTED BY IDOCK:   -4.00 KCAL/MOL
REMARK 923 INTER-LIGAND FREE ENERGY PREDICTED BY IDOCK:   -3.79 KCAL/MOL
REMARK 924 INTRA-LIGAND FREE ENERGY PREDICTED BY IDOCK:   -0.21 KCAL/MOL
REMARK 927      BINDING AFFINITY PREDICTED BY RF-SCORE:    0.00 PKD
ROOT
HETATM    1  F   UNL     1     -13.077  12.525  62.747  1.00  0.00    -0.086 F  
HETATM    2  C   UNL     1     -12.340  12.306  63.843  1.00  0.00    -0.509 A  
HETATM    3  C   UNL     1     -12.538  13.085  64.972  1.00  0.00    -0.515 A  
HETATM    4  C   UNL     1     -11.761  12.864  66.114  1.00  0.00    -0.451 A  
HETATM    5  C   UNL     1     -10.785  11.850  66.148  1.00  0.00    -0.318 A  
HETATM    6  C   UNL     1     -10.594  11.096  64.972  1.00  0.00    -0.340 A  
HETATM    7  C   UNL     1     -11.373  11.315  63.831  1.00  0.00    -0.147 A  
ENDROOT
BRANCH   5   8
HETATM    8  C   UNL     1      -9.886  11.637  67.362  1.00  0.00    -0.197 C  
HETATM    9  C   UNL     1      -8.927  10.448  67.275  1.00  0.00    -0.135 C  
HETATM   10  C   UNL     1      -7.552  10.929  67.390  1.00  0.00    -0.100 A  
HETATM   11  O   UNL     1      -9.201   9.265  67.165  1.00  0.00    -0.128 OA 
HETATM   12  C   UNL     1      -6.374  10.204  67.340  1.00  0.00    -0.066 A  
HETATM   13  C   UNL     1      -5.173  10.909  67.475  1.00  0.00    -0.037 A  
HETATM   14  C   UNL     1      -5.174  12.305  67.658  1.00  0.00    -0.094 A  
HETATM   15  C   UNL     1      -6.375  13.016  67.721  1.00  0.00    -0.149 A  
HETATM   16  C   UNL     1      -7.550  12.299  67.586  1.00  0.00    -0.144 A  
HETATM   17  C   UNL     1      -8.921  12.792  67.640  1.00  0.00    -0.191 C  
HETATM   18  O   UNL     1      -9.187  13.952  67.912  1.00  0.00    -0.183 OA 
ENDBRANCH   5   8
TORSDOF 1
ENDMDL
MODEL      157
REMARK 921   NORMALIZED FREE ENERGY PREDICTED BY IDOCK:   -3.44 KCAL/MOL
REMARK 922        TOTAL FREE ENERGY PREDICTED BY IDOCK:   -3.98 KCAL/MOL
REMARK 923 INTER-LIGAND FREE ENERGY PREDICTED BY IDOCK:   -3.75 KCAL/MOL
REMARK 924 INTRA-LIGAND FREE ENERGY PREDICTED BY IDOCK:   -0.23 KCAL/MOL
REMARK 927      BINDING AFFINITY PREDICTED BY RF-SCORE:    0.00 PKD
ROOT
HETATM    1  F   UNL     1     -12.398  13.041  69.133  1.00  0.00    -0.293 F  
HETATM    2  C   UNL     1     -11.538  12.017  69.197  1.00  0.00    -0.312 A  
HETATM    3  C   UNL     1     -11.590  11.140  70.269  1.00  0.00    -0.388 A  
HETATM    4  C   UNL     1     -10.684  10.076  70.341  1.00  0.00    -0.369 A  
HETATM    5  C   UNL     1      -9.724   9.866  69.334  1.00  0.00    -0.228 A  
HETATM    6  C   UNL     1      -9.684  10.794  68.273  1.00  0.00    -0.172 A  
HETATM    7  C   UNL     1     -10.591  11.855  68.199  1.00  0.00    -0.233 A  
ENDROOT
BRANCH   5   8
HETATM    8  C   UNL     1      -8.689   8.749  69.429  1.00  0.00    -0.142 C  
HETATM    9  C   UNL     1      -8.684   7.961  70.740  1.00  0.00    -0.134 C  
HETATM   10  C   UNL     1      -8.946   6.552  70.457  1.00  0.00    -0.152 A  
HETATM   11  O   UNL     1      -8.466   8.374  71.867  1.00  0.00    -0.148 OA 
HETATM   12  C   UNL     1      -9.054   5.496  71.344  1.00  0.00    -0.157 A  
HETATM   13  C   UNL     1      -9.315   4.228  70.813  1.00  0.00    -0.222 A  
HETATM   14  C   UNL     1      -9.459   4.043  69.424  1.00  0.00    -0.259 A  
HETATM   15  C   UNL     1      -9.332   5.121  68.545  1.00  0.00    -0.161 A  
HETATM   16  C   UNL     1      -9.072   6.365  69.091  1.00  0.00    -0.131 A  
HETATM   17  C   UNL     1      -8.871   7.633  68.398  1.00  0.00    -0.130 C  
HETATM   18  O   UNL     1      -8.825   7.710  67.181  1.00  0.00    -0.122 OA 
ENDBRANCH   5   8
TORSDOF 1
ENDMDL
MODEL      158
REMARK 921   NORMALIZED FREE ENERGY PREDICTED BY IDOCK:   -3.40 KCAL/MOL
REMARK 922        TOTAL FREE ENERGY PREDICTED BY IDOCK:   -3.94 KCAL/MOL
REMARK 923 INTER-LIGAND FREE ENERGY PREDICTED BY IDOCK:   -3.67 KCAL/MOL
REMARK 924 INTRA-LIGAND FREE ENERGY PREDICTED BY IDOCK:   -0.27 KCAL/MOL
REMARK 927      BINDING AFFINITY PREDICTED BY RF-SCORE:    0.00 PKD
ROOT
HETATM    1  F   UNL     1     -10.734  17.524  65.609  1.00  0.00    -0.379 F  
HETATM    2  C   UNL     1     -10.565  16.204  65.460  1.00  0.00    -0.377 A  
HETATM    3  C   UNL     1     -11.500  15.466  64.753  1.00  0.00    -0.337 A  
HETATM    4  C   UNL     1     -11.329  14.085  64.606  1.00  0.00    -0.378 A  
HETATM    5  C   UNL     1     -10.211  13.426  65.151  1.00  0.00    -0.316 A  
HETATM    6  C   UNL     1      -9.295  14.205  65.887  1.00  0.00    -0.036 A  
HETATM    7  C   UNL     1      -9.464  15.586  66.031  1.00  0.00    -0.387 A  
ENDROOT
BRANCH   5   8
HETATM    8  C   UNL     1     -10.042  11.913  65.055  1.00  0.00    -0.297 C  
HETATM    9  C   UNL     1      -9.511  11.389  63.719  1.00  0.00    -0.171 C  
HETATM   10  C   UNL     1      -8.258  10.673  63.946  1.00  0.00     0.010 A  
HETATM   11  O   UNL     1     -10.021  11.487  62.615  1.00  0.00    -0.173 OA 
HETATM   12  C   UNL     1      -7.430  10.063  63.020  1.00  0.00    -0.138 A  
HETATM   13  C   UNL     1      -6.273   9.438  63.498  1.00  0.00    -0.093 A  
HETATM   14  C   UNL     1      -5.972   9.434  64.874  1.00  0.00    -0.066 A  
HETATM   15  C   UNL     1      -6.830  10.044  65.793  1.00  0.00    -0.111 A  
HETATM   16  C   UNL     1      -7.968  10.653  65.299  1.00  0.00    -0.060 A  
HETATM   17  C   UNL     1      -9.027  11.329  66.041  1.00  0.00    -0.200 C  
HETATM   18  O   UNL     1      -9.056  11.351  67.261  1.00  0.00    -0.158 OA 
ENDBRANCH   5   8
TORSDOF 1
ENDMDL
MODEL      159
REMARK 921   NORMALIZED FREE ENERGY PREDICTED BY IDOCK:   -3.35 KCAL/MOL
REMARK 922        TOTAL FREE ENERGY PREDICTED BY IDOCK:   -3.89 KCAL/MOL
REMARK 923 INTER-LIGAND FREE ENERGY PREDICTED BY IDOCK:   -3.75 KCAL/MOL
REMARK 924 INTRA-LIGAND FREE ENERGY PREDICTED BY IDOCK:   -0.14 KCAL/MOL
REMARK 927      BINDING AFFINITY PREDICTED BY RF-SCORE:    0.00 PKD
ROOT
HETATM    1  F   UNL     1      -5.548   9.582  66.821  1.00  0.00    -0.043 F  
HETATM    2  C   UNL     1      -6.572  10.422  67.022  1.00  0.00    -0.075 A  
HETATM    3  C   UNL     1      -7.795  10.173  66.419  1.00  0.00    -0.114 A  
HETATM    4  C   UNL     1      -8.861  11.056  66.620  1.00  0.00    -0.168 A  
HETATM    5  C   UNL     1      -8.724  12.191  67.441  1.00  0.00    -0.177 A  
HETATM    6  C   UNL     1      -7.458  12.426  68.016  1.00  0.00    -0.114 A  
HETATM    7  C   UNL     1      -6.393  11.542  67.817  1.00  0.00    -0.063 A  
ENDROOT
BRANCH   5   8
HETATM    8  C   UNL     1      -9.857  13.198  67.619  1.00  0.00    -0.219 C  
HETATM    9  C   UNL     1      -9.582  14.605  67.086  1.00  0.00    -0.233 C  
HETATM   10  C   UNL     1     -10.575  14.936  66.066  1.00  0.00    -0.321 A  
HETATM   11  O   UNL     1      -8.717  15.389  67.438  1.00  0.00    -0.164 OA 
HETATM   12  C   UNL     1     -10.687  16.089  65.309  1.00  0.00    -0.417 A  
HETATM   13  C   UNL     1     -11.737  16.159  64.387  1.00  0.00    -0.059 A  
HETATM   14  C   UNL     1     -12.642  15.090  64.243  1.00  0.00     0.051 A  
HETATM   15  C   UNL     1     -12.520  13.941  65.028  1.00  0.00    -0.447 A  
HETATM   16  C   UNL     1     -11.476  13.894  65.934  1.00  0.00    -0.328 A  
HETATM   17  C   UNL     1     -11.146  12.832  66.879  1.00  0.00    -0.270 C  
HETATM   18  O   UNL     1     -11.856  11.852  67.032  1.00  0.00    -0.585 OA 
ENDBRANCH   5   8
TORSDOF 1
ENDMDL
MODEL      160
REMARK 921   NORMALIZED FREE ENERGY PREDICTED BY IDOCK:   -3.33 KCAL/MOL
REMARK 922        TOTAL FREE ENERGY PREDICTED BY IDOCK:   -3.86 KCAL/MOL
REMARK 923 INTER-LIGAND FREE ENERGY PREDICTED BY IDOCK:   -3.39 KCAL/MOL
REMARK 924 INTRA-LIGAND FREE ENERGY PREDICTED BY IDOCK:   -0.47 KCAL/MOL
REMARK 927      BINDING AFFINITY PREDICTED BY RF-SCORE:    0.00 PKD
ROOT
HETATM    1  F   UNL     1      -5.759  13.155  69.135  1.00  0.00    -0.069 F  
HETATM    2  C   UNL     1      -6.753  12.258  69.092  1.00  0.00    -0.095 A  
HETATM    3  C   UNL     1      -7.891  12.527  68.347  1.00  0.00    -0.141 A  
HETATM    4  C   UNL     1      -8.933  11.595  68.309  1.00  0.00    -0.185 A  
HETATM    5  C   UNL     1      -8.846  10.374  69.004  1.00  0.00    -0.176 A  
HETATM    6  C   UNL     1      -7.686  10.148  69.773  1.00  0.00    -0.176 A  
HETATM    7  C   UNL     1      -6.642  11.078  69.808  1.00  0.00    -0.143 A  
ENDROOT
BRANCH   5   8
HETATM    8  C   UNL     1      -9.999   9.375  69.026  1.00  0.00    -0.182 C  
HETATM    9  C   UNL     1      -9.734   8.042  68.323  1.00  0.00    -0.164 C  
HETATM   10  C   UNL     1      -9.877   6.953  69.287  1.00  0.00    -0.159 A  
HETATM   11  O   UNL     1      -9.477   7.848  67.147  1.00  0.00    -0.144 OA 
HETATM   12  C   UNL     1      -9.704   5.594  69.089  1.00  0.00    -0.193 A  
HETATM   13  C   UNL     1      -9.901   4.750  70.187  1.00  0.00    -0.308 A  
HETATM   14  C   UNL     1     -10.265   5.273  71.443  1.00  0.00    -0.279 A  
HETATM   15  C   UNL     1     -10.450   6.647  71.617  1.00  0.00    -0.232 A  
HETATM   16  C   UNL     1     -10.251   7.463  70.518  1.00  0.00    -0.196 A  
HETATM   17  C   UNL     1     -10.403   8.911  70.428  1.00  0.00    -0.204 C  
HETATM   18  O   UNL     1     -10.830   9.581  71.354  1.00  0.00    -0.347 OA 
ENDBRANCH   5   8
TORSDOF 1
ENDMDL
MODEL      161
REMARK 921   NORMALIZED FREE ENERGY PREDICTED BY IDOCK:   -3.33 KCAL/MOL
REMARK 922        TOTAL FREE ENERGY PREDICTED BY IDOCK:   -3.86 KCAL/MOL
REMARK 923 INTER-LIGAND FREE ENERGY PREDICTED BY IDOCK:   -3.56 KCAL/MOL
REMARK 924 INTRA-LIGAND FREE ENERGY PREDICTED BY IDOCK:   -0.30 KCAL/MOL
REMARK 927      BINDING AFFINITY PREDICTED BY RF-SCORE:    0.00 PKD
ROOT
HETATM    1  F   UNL     1     -11.024  20.288  65.279  1.00  0.00    -0.470 F  
HETATM    2  C   UNL     1     -10.887  19.170  66.004  1.00  0.00    -0.228 A  
HETATM    3  C   UNL     1     -10.947  17.934  65.380  1.00  0.00     0.344 A  
HETATM    4  C   UNL     1     -10.815  16.765  66.139  1.00  0.00    -0.006 A  
HETATM    5  C   UNL     1     -10.605  16.818  67.529  1.00  0.00    -0.309 A  
HETATM    6  C   UNL     1     -10.577  18.093  68.132  1.00  0.00    -0.320 A  
HETATM    7  C   UNL     1     -10.706  19.261  67.374  1.00  0.00    -0.594 A  
ENDROOT
BRANCH   5   8
HETATM    8  C   UNL     1     -10.522  15.554  68.380  1.00  0.00    -0.240 C  
HETATM    9  C   UNL     1     -10.036  15.755  69.817  1.00  0.00    -0.276 C  
HETATM   10  C   UNL     1     -11.072  15.302  70.743  1.00  0.00    -0.340 A  
HETATM   11  O   UNL     1      -8.959  16.182  70.196  1.00  0.00     0.592 OA 
HETATM   12  C   UNL     1     -11.065  15.322  72.127  1.00  0.00    -0.109 A  
HETATM   13  C   UNL     1     -12.195  14.827  72.788  1.00  0.00    -0.334 A  
HETATM   14  C   UNL     1     -13.293  14.326  72.062  1.00  0.00    -0.484 A  
HETATM   15  C   UNL     1     -13.273  14.301  70.665  1.00  0.00    -0.172 A  
HETATM   16  C   UNL     1     -12.146  14.794  70.033  1.00  0.00    -0.380 A  
HETATM   17  C   UNL     1     -11.866  14.857  68.603  1.00  0.00    -0.300 C  
HETATM   18  O   UNL     1     -12.615  14.371  67.770  1.00  0.00     0.063 OA 
ENDBRANCH   5   8
TORSDOF 1
ENDMDL
MODEL      162
REMARK 921   NORMALIZED FREE ENERGY PREDICTED BY IDOCK:   -3.28 KCAL/MOL
REMARK 922        TOTAL FREE ENERGY PREDICTED BY IDOCK:   -3.81 KCAL/MOL
REMARK 923 INTER-LIGAND FREE ENERGY PREDICTED BY IDOCK:   -3.45 KCAL/MOL
REMARK 924 INTRA-LIGAND FREE ENERGY PREDICTED BY IDOCK:   -0.35 KCAL/MOL
REMARK 927      BINDING AFFINITY PREDICTED BY RF-SCORE:    0.00 PKD
ROOT
HETATM    1  F   UNL     1     -12.552   5.914  72.492  1.00  0.00    -0.290 F  
HETATM    2  C   UNL     1     -11.568   6.370  71.705  1.00  0.00    -0.316 A  
HETATM    3  C   UNL     1     -11.672   7.629  71.134  1.00  0.00    -0.311 A  
HETATM    4  C   UNL     1     -10.650   8.102  70.305  1.00  0.00    -0.228 A  
HETATM    5  C   UNL     1      -9.502   7.329  70.047  1.00  0.00    -0.161 A  
HETATM    6  C   UNL     1      -9.444   6.043  70.623  1.00  0.00    -0.190 A  
HETATM    7  C   UNL     1     -10.465   5.571  71.455  1.00  0.00    -0.298 A  
ENDROOT
BRANCH   5   8
HETATM    8  C   UNL     1      -8.408   7.803  69.095  1.00  0.00    -0.134 C  
HETATM    9  C   UNL     1      -8.516   7.292  67.656  1.00  0.00    -0.116 C  
HETATM   10  C   UNL     1      -8.635   8.430  66.748  1.00  0.00    -0.123 A  
HETATM   11  O   UNL     1      -8.478   6.139  67.262  1.00  0.00    -0.106 OA 
HETATM   12  C   UNL     1      -8.780   8.428  65.372  1.00  0.00    -0.175 A  
HETATM   13  C   UNL     1      -8.876   9.667  64.729  1.00  0.00    -0.242 A  
HETATM   14  C   UNL     1      -8.824  10.867  65.464  1.00  0.00    -0.199 A  
HETATM   15  C   UNL     1      -8.663  10.847  66.852  1.00  0.00    -0.144 A  
HETATM   16  C   UNL     1      -8.569   9.611  67.466  1.00  0.00    -0.126 A  
HETATM   17  C   UNL     1      -8.373   9.318  68.882  1.00  0.00    -0.120 C  
HETATM   18  O   UNL     1      -8.175  10.195  69.708  1.00  0.00    -0.172 OA 
ENDBRANCH   5   8
TORSDOF 1
ENDMDL
MODEL      163
REMARK 921   NORMALIZED FREE ENERGY PREDICTED BY IDOCK:   -3.23 KCAL/MOL
REMARK 922        TOTAL FREE ENERGY PREDICTED BY IDOCK:   -3.76 KCAL/MOL
REMARK 923 INTER-LIGAND FREE ENERGY PREDICTED BY IDOCK:   -3.52 KCAL/MOL
REMARK 924 INTRA-LIGAND FREE ENERGY PREDICTED BY IDOCK:   -0.24 KCAL/MOL
REMARK 927      BINDING AFFINITY PREDICTED BY RF-SCORE:    0.00 PKD
ROOT
HETATM    1  F   UNL     1      -7.927   7.590  63.212  1.00  0.00    -0.125 F  
HETATM    2  C   UNL     1      -8.071   8.289  64.346  1.00  0.00    -0.145 A  
HETATM    3  C   UNL     1      -8.685   9.531  64.315  1.00  0.00    -0.232 A  
HETATM    4  C   UNL     1      -8.827  10.266  65.497  1.00  0.00    -0.191 A  
HETATM    5  C   UNL     1      -8.370   9.761  66.729  1.00  0.00    -0.124 A  
HETATM    6  C   UNL     1      -7.727   8.506  66.717  1.00  0.00    -0.091 A  
HETATM    7  C   UNL     1      -7.588   7.770  65.536  1.00  0.00    -0.083 A  
ENDROOT
BRANCH   5   8
HETATM    8  C   UNL     1      -8.459  10.575  68.016  1.00  0.00    -0.120 C  
HETATM    9  C   UNL     1      -8.942  12.019  67.854  1.00  0.00    -0.182 C  
HETATM   10  C   UNL     1     -10.159  12.211  68.639  1.00  0.00    -0.161 A  
HETATM   11  O   UNL     1      -8.421  12.920  67.219  1.00  0.00    -0.183 OA 
HETATM   12  C   UNL     1     -10.940  13.346  68.761  1.00  0.00    -0.290 A  
HETATM   13  C   UNL     1     -12.071  13.270  69.581  1.00  0.00    -0.331 A  
HETATM   14  C   UNL     1     -12.392  12.076  70.256  1.00  0.00    -0.275 A  
HETATM   15  C   UNL     1     -11.582  10.945  70.131  1.00  0.00    -0.425 A  
HETATM   16  C   UNL     1     -10.469  11.044  69.316  1.00  0.00    -0.210 A  
HETATM   17  C   UNL     1      -9.458  10.029  69.039  1.00  0.00    -0.187 C  
HETATM   18  O   UNL     1      -9.449   8.947  69.604  1.00  0.00    -0.162 OA 
ENDBRANCH   5   8
TORSDOF 1
ENDMDL
MODEL      164
REMARK 921   NORMALIZED FREE ENERGY PREDICTED BY IDOCK:   -3.20 KCAL/MOL
REMARK 922        TOTAL FREE ENERGY PREDICTED BY IDOCK:   -3.73 KCAL/MOL
REMARK 923 INTER-LIGAND FREE ENERGY PREDICTED BY IDOCK:   -3.67 KCAL/MOL
REMARK 924 INTRA-LIGAND FREE ENERGY PREDICTED BY IDOCK:   -0.06 KCAL/MOL
REMARK 927      BINDING AFFINITY PREDICTED BY RF-SCORE:    0.00 PKD
ROOT
HETATM    1  F   UNL     1      -9.033   5.463  64.873  1.00  0.00    -0.158 F  
HETATM    2  C   UNL     1      -9.211   5.817  66.153  1.00  0.00    -0.156 A  
HETATM    3  C   UNL     1     -10.382   5.469  66.807  1.00  0.00    -0.321 A  
HETATM    4  C   UNL     1     -10.573   5.848  68.140  1.00  0.00    -0.312 A  
HETATM    5  C   UNL     1      -9.587   6.567  68.842  1.00  0.00    -0.128 A  
HETATM    6  C   UNL     1      -8.421   6.927  68.136  1.00  0.00    -0.124 A  
HETATM    7  C   UNL     1      -8.229   6.545  66.805  1.00  0.00    -0.110 A  
ENDROOT
BRANCH   5   8
HETATM    8  C   UNL     1      -9.806   7.043  70.275  1.00  0.00    -0.180 C  
HETATM    9  C   UNL     1     -11.029   6.460  70.987  1.00  0.00    -0.274 C  
HETATM   10  C   UNL     1     -10.593   5.741  72.182  1.00  0.00    -0.268 A  
HETATM   11  O   UNL     1     -12.204   6.573  70.681  1.00  0.00    -0.331 OA 
HETATM   12  C   UNL     1     -11.359   5.044  73.100  1.00  0.00    -0.397 A  
HETATM   13  C   UNL     1     -10.693   4.434  74.169  1.00  0.00    -0.313 A  
HETATM   14  C   UNL     1      -9.294   4.532  74.297  1.00  0.00    -0.127 A  
HETATM   15  C   UNL     1      -8.541   5.252  73.366  1.00  0.00    -0.116 A  
HETATM   16  C   UNL     1      -9.220   5.849  72.319  1.00  0.00    -0.149 A  
HETATM   17  C   UNL     1      -8.679   6.669  71.241  1.00  0.00    -0.129 C  
HETATM   18  O   UNL     1      -7.505   7.002  71.201  1.00  0.00    -0.079 OA 
ENDBRANCH   5   8
TORSDOF 1
ENDMDL
MODEL      165
REMARK 921   NORMALIZED FREE ENERGY PREDICTED BY IDOCK:   -3.12 KCAL/MOL
REMARK 922        TOTAL FREE ENERGY PREDICTED BY IDOCK:   -3.65 KCAL/MOL
REMARK 923 INTER-LIGAND FREE ENERGY PREDICTED BY IDOCK:   -3.18 KCAL/MOL
REMARK 924 INTRA-LIGAND FREE ENERGY PREDICTED BY IDOCK:   -0.46 KCAL/MOL
REMARK 927      BINDING AFFINITY PREDICTED BY RF-SCORE:    0.00 PKD
ROOT
HETATM    1  F   UNL     1      -5.290  21.048  67.462  1.00  0.00    -0.204 F  
HETATM    2  C   UNL     1      -6.081  19.969  67.415  1.00  0.00    -0.184 A  
HETATM    3  C   UNL     1      -7.295  19.976  68.084  1.00  0.00    -0.315 A  
HETATM    4  C   UNL     1      -8.117  18.845  68.044  1.00  0.00    -0.321 A  
HETATM    5  C   UNL     1      -7.744  17.697  67.320  1.00  0.00    -0.222 A  
HETATM    6  C   UNL     1      -6.491  17.717  66.674  1.00  0.00    -0.239 A  
HETATM    7  C   UNL     1      -5.670  18.848  66.712  1.00  0.00    -0.166 A  
ENDROOT
BRANCH   5   8
HETATM    8  C   UNL     1      -8.599  16.433  67.318  1.00  0.00    -0.200 C  
HETATM    9  C   UNL     1      -8.520  15.578  68.585  1.00  0.00    -0.174 C  
HETATM   10  C   UNL     1      -9.852  15.469  69.176  1.00  0.00    -0.246 A  
HETATM   11  O   UNL     1      -7.544  15.020  69.058  1.00  0.00    -0.136 OA 
HETATM   12  C   UNL     1     -10.234  14.815  70.334  1.00  0.00     0.406 A  
HETATM   13  C   UNL     1     -11.587  14.863  70.688  1.00  0.00    -0.341 A  
HETATM   14  C   UNL     1     -12.517  15.553  69.888  1.00  0.00    -0.243 A  
HETATM   15  C   UNL     1     -12.113  16.195  68.715  1.00  0.00     0.197 A  
HETATM   16  C   UNL     1     -10.771  16.133  68.384  1.00  0.00    -0.298 A  
HETATM   17  C   UNL     1     -10.103  16.691  67.212  1.00  0.00    -0.279 C  
HETATM   18  O   UNL     1     -10.718  17.230  66.307  1.00  0.00    -0.221 OA 
ENDBRANCH   5   8
TORSDOF 1
ENDMDL
MODEL      166
REMARK 921   NORMALIZED FREE ENERGY PREDICTED BY IDOCK:   -3.10 KCAL/MOL
REMARK 922        TOTAL FREE ENERGY PREDICTED BY IDOCK:   -3.63 KCAL/MOL
REMARK 923 INTER-LIGAND FREE ENERGY PREDICTED BY IDOCK:   -3.22 KCAL/MOL
REMARK 924 INTRA-LIGAND FREE ENERGY PREDICTED BY IDOCK:   -0.40 KCAL/MOL
REMARK 927      BINDING AFFINITY PREDICTED BY RF-SCORE:    0.00 PKD
ROOT
HETATM    1  F   UNL     1     -11.204  12.882  68.140  1.00  0.00    -0.242 F  
HETATM    2  C   UNL     1     -10.715  11.635  68.142  1.00  0.00    -0.213 A  
HETATM    3  C   UNL     1      -9.528  11.362  68.803  1.00  0.00    -0.128 A  
HETATM    4  C   UNL     1      -9.011  10.062  68.797  1.00  0.00    -0.145 A  
HETATM    5  C   UNL     1      -9.684   9.013  68.142  1.00  0.00    -0.172 A  
HETATM    6  C   UNL     1     -10.874   9.334  67.457  1.00  0.00    -0.182 A  
HETATM    7  C   UNL     1     -11.392  10.633  67.466  1.00  0.00    -0.241 A  
ENDROOT
BRANCH   5   8
HETATM    8  C   UNL     1      -9.102   7.604  68.071  1.00  0.00    -0.135 C  
HETATM    9  C   UNL     1     -10.113   6.483  67.815  1.00  0.00    -0.148 C  
HETATM   10  C   UNL     1      -9.757   5.787  66.581  1.00  0.00    -0.180 A  
HETATM   11  O   UNL     1     -11.059   6.149  68.508  1.00  0.00    -0.328 OA 
HETATM   12  C   UNL     1     -10.407   4.732  65.964  1.00  0.00    -0.328 A  
HETATM   13  C   UNL     1      -9.860   4.241  64.774  1.00  0.00    -0.167 A  
HETATM   14  C   UNL     1      -8.688   4.805  64.233  1.00  0.00    -0.143 A  
HETATM   15  C   UNL     1      -8.040   5.860  64.879  1.00  0.00    -0.132 A  
HETATM   16  C   UNL     1      -8.598   6.329  66.055  1.00  0.00    -0.146 A  
HETATM   17  C   UNL     1      -8.108   7.390  66.927  1.00  0.00    -0.120 C  
HETATM   18  O   UNL     1      -7.041   7.951  66.737  1.00  0.00    -0.074 OA 
ENDBRANCH   5   8
TORSDOF 1
ENDMDL
MODEL      167
REMARK 921   NORMALIZED FREE ENERGY PREDICTED BY IDOCK:   -3.09 KCAL/MOL
REMARK 922        TOTAL FREE ENERGY PREDICTED BY IDOCK:   -3.61 KCAL/MOL
REMARK 923 INTER-LIGAND FREE ENERGY PREDICTED BY IDOCK:   -3.19 KCAL/MOL
REMARK 924 INTRA-LIGAND FREE ENERGY PREDICTED BY IDOCK:   -0.41 KCAL/MOL
REMARK 927      BINDING AFFINITY PREDICTED BY RF-SCORE:    0.00 PKD
ROOT
HETATM    1  F   UNL     1      -9.527  12.889  67.076  1.00  0.00    -0.206 F  
HETATM    2  C   UNL     1      -9.364  11.574  67.267  1.00  0.00    -0.166 A  
HETATM    3  C   UNL     1      -9.680  10.686  66.250  1.00  0.00    -0.245 A  
HETATM    4  C   UNL     1      -9.520   9.311  66.453  1.00  0.00    -0.277 A  
HETATM    5  C   UNL     1      -9.026   8.806  67.670  1.00  0.00    -0.141 A  
HETATM    6  C   UNL     1      -8.742   9.737  68.691  1.00  0.00    -0.122 A  
HETATM    7  C   UNL     1      -8.899  11.111  68.487  1.00  0.00    -0.161 A  
ENDROOT
BRANCH   5   8
HETATM    8  C   UNL     1      -8.906   7.307  67.931  1.00  0.00    -0.128 C  
HETATM    9  C   UNL     1      -7.880   6.900  68.990  1.00  0.00    -0.111 C  
HETATM   10  C   UNL     1      -8.558   6.181  70.067  1.00  0.00    -0.136 A  
HETATM   11  O   UNL     1      -6.674   7.081  68.980  1.00  0.00    -0.052 OA 
HETATM   12  C   UNL     1      -8.022   5.658  71.230  1.00  0.00    -0.112 A  
HETATM   13  C   UNL     1      -8.895   5.010  72.111  1.00  0.00    -0.137 A  
HETATM   14  C   UNL     1     -10.267   4.899  71.814  1.00  0.00    -0.268 A  
HETATM   15  C   UNL     1     -10.785   5.422  70.627  1.00  0.00    -0.257 A  
HETATM   16  C   UNL     1      -9.904   6.056  69.770  1.00  0.00    -0.208 A  
HETATM   17  C   UNL     1     -10.182   6.658  68.471  1.00  0.00    -0.171 C  
HETATM   18  O   UNL     1     -11.277   6.581  67.937  1.00  0.00    -0.292 OA 
ENDBRANCH   5   8
TORSDOF 1
ENDMDL
MODEL      168
REMARK 921   NORMALIZED FREE ENERGY PREDICTED BY IDOCK:   -3.02 KCAL/MOL
REMARK 922        TOTAL FREE ENERGY PREDICTED BY IDOCK:   -3.54 KCAL/MOL
REMARK 923 INTER-LIGAND FREE ENERGY PREDICTED BY IDOCK:   -3.09 KCAL/MOL
REMARK 924 INTRA-LIGAND FREE ENERGY PREDICTED BY IDOCK:   -0.45 KCAL/MOL
REMARK 927      BINDING AFFINITY PREDICTED BY RF-SCORE:    0.00 PKD
ROOT
HETATM    1  F   UNL     1     -10.918   4.887  65.391  1.00  0.00    -0.241 F  
HETATM    2  C   UNL     1     -10.441   4.785  66.639  1.00  0.00    -0.165 A  
HETATM    3  C   UNL     1     -10.688   5.796  67.554  1.00  0.00    -0.320 A  
HETATM    4  C   UNL     1     -10.181   5.695  68.854  1.00  0.00    -0.279 A  
HETATM    5  C   UNL     1      -9.434   4.574  69.261  1.00  0.00    -0.242 A  
HETATM    6  C   UNL     1      -9.180   3.579  68.295  1.00  0.00    -0.225 A  
HETATM    7  C   UNL     1      -9.690   3.678  66.996  1.00  0.00    -0.100 A  
ENDROOT
BRANCH   5   8
HETATM    8  C   UNL     1      -8.821   4.478  70.655  1.00  0.00    -0.140 C  
HETATM    9  C   UNL     1      -7.505   5.235  70.853  1.00  0.00    -0.082 C  
HETATM   10  C   UNL     1      -7.675   6.228  71.911  1.00  0.00    -0.097 A  
HETATM   11  O   UNL     1      -6.442   5.061  70.281  1.00  0.00    -0.028 OA 
HETATM   12  C   UNL     1      -6.757   7.142  72.396  1.00  0.00    -0.056 A  
HETATM   13  C   UNL     1      -7.173   7.995  73.424  1.00  0.00    -0.161 A  
HETATM   14  C   UNL     1      -8.481   7.918  73.940  1.00  0.00    -0.316 A  
HETATM   15  C   UNL     1      -9.388   6.978  73.446  1.00  0.00    -0.198 A  
HETATM   16  C   UNL     1      -8.955   6.143  72.431  1.00  0.00    -0.136 A  
HETATM   17  C   UNL     1      -9.689   5.072  71.767  1.00  0.00    -0.163 C  
HETATM   18  O   UNL     1     -10.804   4.727  72.123  1.00  0.00    -0.138 OA 
ENDBRANCH   5   8
TORSDOF 1
ENDMDL
MODEL      169
REMARK 921   NORMALIZED FREE ENERGY PREDICTED BY IDOCK:   -2.94 KCAL/MOL
REMARK 922        TOTAL FREE ENERGY PREDICTED BY IDOCK:   -3.46 KCAL/MOL
REMARK 923 INTER-LIGAND FREE ENERGY PREDICTED BY IDOCK:   -2.99 KCAL/MOL
REMARK 924 INTRA-LIGAND FREE ENERGY PREDICTED BY IDOCK:   -0.47 KCAL/MOL
REMARK 927      BINDING AFFINITY PREDICTED BY RF-SCORE:    0.00 PKD
ROOT
HETATM    1  F   UNL     1      -5.855  11.559  66.189  1.00  0.00    -0.145 F  
HETATM    2  C   UNL     1      -6.447  10.592  66.903  1.00  0.00    -0.080 A  
HETATM    3  C   UNL     1      -7.337  10.927  67.911  1.00  0.00    -0.088 A  
HETATM    4  C   UNL     1      -7.948   9.918  68.663  1.00  0.00    -0.087 A  
HETATM    5  C   UNL     1      -7.688   8.559  68.407  1.00  0.00    -0.101 A  
HETATM    6  C   UNL     1      -6.756   8.257  67.393  1.00  0.00    -0.063 A  
HETATM    7  C   UNL     1      -6.148   9.265  66.639  1.00  0.00    -0.064 A  
ENDROOT
BRANCH   5   8
HETATM    8  C   UNL     1      -8.295   7.448  69.260  1.00  0.00    -0.132 C  
HETATM    9  C   UNL     1      -8.205   7.652  70.774  1.00  0.00    -0.109 C  
HETATM   10  C   UNL     1      -9.553   7.674  71.338  1.00  0.00    -0.178 A  
HETATM   11  O   UNL     1      -7.204   7.748  71.463  1.00  0.00    -0.060 OA 
HETATM   12  C   UNL     1      -9.937   7.857  72.654  1.00  0.00    -0.330 A  
HETATM   13  C   UNL     1     -11.307   7.838  72.938  1.00  0.00    -0.406 A  
HETATM   14  C   UNL     1     -12.253   7.637  71.913  1.00  0.00    -0.336 A  
HETATM   15  C   UNL     1     -11.842   7.439  70.593  1.00  0.00    -0.245 A  
HETATM   16  C   UNL     1     -10.483   7.460  70.336  1.00  0.00    -0.230 A  
HETATM   17  C   UNL     1      -9.801   7.256  69.063  1.00  0.00    -0.165 C  
HETATM   18  O   UNL     1     -10.398   6.942  68.046  1.00  0.00    -0.169 OA 
ENDBRANCH   5   8
TORSDOF 1
ENDMDL
MODEL      170
REMARK 921   NORMALIZED FREE ENERGY PREDICTED BY IDOCK:   -2.86 KCAL/MOL
REMARK 922        TOTAL FREE ENERGY PREDICTED BY IDOCK:   -3.37 KCAL/MOL
REMARK 923 INTER-LIGAND FREE ENERGY PREDICTED BY IDOCK:   -3.06 KCAL/MOL
REMARK 924 INTRA-LIGAND FREE ENERGY PREDICTED BY IDOCK:   -0.31 KCAL/MOL
REMARK 927      BINDING AFFINITY PREDICTED BY RF-SCORE:    0.00 PKD
ROOT
HETATM    1  F   UNL     1      -8.566   7.594  70.607  1.00  0.00    -0.127 F  
HETATM    2  C   UNL     1      -8.582   8.690  69.837  1.00  0.00    -0.131 A  
HETATM    3  C   UNL     1      -7.621   9.673  70.020  1.00  0.00    -0.151 A  
HETATM    4  C   UNL     1      -7.643  10.823  69.224  1.00  0.00    -0.129 A  
HETATM    5  C   UNL     1      -8.618  10.999  68.223  1.00  0.00    -0.143 A  
HETATM    6  C   UNL     1      -9.594   9.992  68.086  1.00  0.00    -0.152 A  
HETATM    7  C   UNL     1      -9.570   8.840  68.879  1.00  0.00    -0.158 A  
ENDROOT
BRANCH   5   8
HETATM    8  C   UNL     1      -8.695  12.275  67.390  1.00  0.00    -0.180 C  
HETATM    9  C   UNL     1      -9.765  13.281  67.819  1.00  0.00    -0.217 C  
HETATM   10  C   UNL     1      -9.124  14.547  68.167  1.00  0.00    -0.191 A  
HETATM   11  O   UNL     1     -10.974  13.128  67.850  1.00  0.00    -0.236 OA 
HETATM   12  C   UNL     1      -9.707  15.715  68.627  1.00  0.00    -0.204 A  
HETATM   13  C   UNL     1      -8.863  16.799  68.894  1.00  0.00    -0.228 A  
HETATM   14  C   UNL     1      -7.473  16.695  68.698  1.00  0.00    -0.211 A  
HETATM   15  C   UNL     1      -6.906  15.511  68.219  1.00  0.00    -0.120 A  
HETATM   16  C   UNL     1      -7.759  14.454  67.960  1.00  0.00    -0.140 A  
HETATM   17  C   UNL     1      -7.428  13.133  67.435  1.00  0.00    -0.124 C  
HETATM   18  O   UNL     1      -6.301  12.841  67.069  1.00  0.00    -0.219 OA 
ENDBRANCH   5   8
TORSDOF 1
ENDMDL
MODEL      171
REMARK 921   NORMALIZED FREE ENERGY PREDICTED BY IDOCK:   -2.77 KCAL/MOL
REMARK 922        TOTAL FREE ENERGY PREDICTED BY IDOCK:   -3.28 KCAL/MOL
REMARK 923 INTER-LIGAND FREE ENERGY PREDICTED BY IDOCK:   -3.14 KCAL/MOL
REMARK 924 INTRA-LIGAND FREE ENERGY PREDICTED BY IDOCK:   -0.14 KCAL/MOL
REMARK 927      BINDING AFFINITY PREDICTED BY RF-SCORE:    0.00 PKD
ROOT
HETATM    1  F   UNL     1     -12.132  11.624  68.997  1.00  0.00    -0.343 F  
HETATM    2  C   UNL     1     -11.401  10.646  69.546  1.00  0.00    -0.277 A  
HETATM    3  C   UNL     1     -11.881   9.968  70.656  1.00  0.00    -0.411 A  
HETATM    4  C   UNL     1     -11.113   8.953  71.236  1.00  0.00    -0.367 A  
HETATM    5  C   UNL     1      -9.862   8.590  70.703  1.00  0.00    -0.218 A  
HETATM    6  C   UNL     1      -9.395   9.319  69.591  1.00  0.00    -0.187 A  
HETATM    7  C   UNL     1     -10.164  10.332  69.009  1.00  0.00    -0.225 A  
ENDROOT
BRANCH   5   8
HETATM    8  C   UNL     1      -8.984   7.529  71.361  1.00  0.00    -0.140 C  
HETATM    9  C   UNL     1      -9.543   6.105  71.345  1.00  0.00    -0.159 C  
HETATM   10  C   UNL     1      -8.613   5.231  70.633  1.00  0.00    -0.126 A  
HETATM   11  O   UNL     1     -10.570   5.692  71.856  1.00  0.00    -0.218 OA 
HETATM   12  C   UNL     1      -8.731   3.879  70.362  1.00  0.00    -0.126 A  
HETATM   13  C   UNL     1      -7.691   3.268  69.652  1.00  0.00    -0.044 A  
HETATM   14  C   UNL     1      -6.569   4.010  69.236  1.00  0.00    -0.040 A  
HETATM   15  C   UNL     1      -6.463   5.370  69.533  1.00  0.00    -0.038 A  
HETATM   16  C   UNL     1      -7.501   5.953  70.236  1.00  0.00    -0.089 A  
HETATM   17  C   UNL     1      -7.622   7.335  70.690  1.00  0.00    -0.091 C  
HETATM   18  O   UNL     1      -6.720   8.146  70.557  1.00  0.00    -0.037 OA 
ENDBRANCH   5   8
TORSDOF 1
ENDMDL
MODEL      172
REMARK 921   NORMALIZED FREE ENERGY PREDICTED BY IDOCK:   -2.75 KCAL/MOL
REMARK 922        TOTAL FREE ENERGY PREDICTED BY IDOCK:   -3.25 KCAL/MOL
REMARK 923 INTER-LIGAND FREE ENERGY PREDICTED BY IDOCK:   -3.30 KCAL/MOL
REMARK 924 INTRA-LIGAND FREE ENERGY PREDICTED BY IDOCK:    0.05 KCAL/MOL
REMARK 927      BINDING AFFINITY PREDICTED BY RF-SCORE:    0.00 PKD
ROOT
HETATM    1  F   UNL     1     -11.229  10.563  66.684  1.00  0.00    -0.242 F  
HETATM    2  C   UNL     1     -10.589   9.641  67.415  1.00  0.00    -0.268 A  
HETATM    3  C   UNL     1     -10.640   9.701  68.798  1.00  0.00    -0.242 A  
HETATM    4  C   UNL     1      -9.963   8.744  69.562  1.00  0.00    -0.195 A  
HETATM    5  C   UNL     1      -9.238   7.704  68.951  1.00  0.00    -0.139 A  
HETATM    6  C   UNL     1      -9.186   7.690  67.542  1.00  0.00    -0.145 A  
HETATM    7  C   UNL     1      -9.865   8.645  66.779  1.00  0.00    -0.322 A  
ENDROOT
BRANCH   5   8
HETATM    8  C   UNL     1      -8.442   6.690  69.768  1.00  0.00    -0.132 C  
HETATM    9  C   UNL     1      -8.972   6.411  71.176  1.00  0.00    -0.146 C  
HETATM   10  C   UNL     1      -9.300   4.992  71.295  1.00  0.00    -0.197 A  
HETATM   11  O   UNL     1      -9.092   7.192  72.104  1.00  0.00    -0.130 OA 
HETATM   12  C   UNL     1      -9.829   4.314  72.379  1.00  0.00    -0.217 A  
HETATM   13  C   UNL     1     -10.056   2.941  72.236  1.00  0.00    -0.222 A  
HETATM   14  C   UNL     1      -9.752   2.282  71.029  1.00  0.00    -0.157 A  
HETATM   15  C   UNL     1      -9.205   2.983  69.951  1.00  0.00    -0.225 A  
HETATM   16  C   UNL     1      -8.988   4.339  70.115  1.00  0.00    -0.144 A  
HETATM   17  C   UNL     1      -8.410   5.283  69.165  1.00  0.00    -0.091 C  
HETATM   18  O   UNL     1      -7.953   4.929  68.090  1.00  0.00    -0.086 OA 
ENDBRANCH   5   8
TORSDOF 1
ENDMDL
MODEL      173
REMARK 921   NORMALIZED FREE ENERGY PREDICTED BY IDOCK:   -2.73 KCAL/MOL
REMARK 922        TOTAL FREE ENERGY PREDICTED BY IDOCK:   -3.23 KCAL/MOL
REMARK 923 INTER-LIGAND FREE ENERGY PREDICTED BY IDOCK:   -2.75 KCAL/MOL
REMARK 924 INTRA-LIGAND FREE ENERGY PREDICTED BY IDOCK:   -0.47 KCAL/MOL
REMARK 927      BINDING AFFINITY PREDICTED BY RF-SCORE:    0.00 PKD
ROOT
HETATM    1  F   UNL     1      -9.581  12.135  62.688  1.00  0.00    -0.150 F  
HETATM    2  C   UNL     1      -9.256  11.331  63.709  1.00  0.00    -0.078 A  
HETATM    3  C   UNL     1      -7.923  11.122  64.022  1.00  0.00     0.679 A  
HETATM    4  C   UNL     1      -7.582  10.274  65.082  1.00  0.00    -0.133 A  
HETATM    5  C   UNL     1      -8.572   9.635  65.852  1.00  0.00    -0.146 A  
HETATM    6  C   UNL     1      -9.917   9.850  65.486  1.00  0.00    -0.363 A  
HETATM    7  C   UNL     1     -10.257  10.700  64.430  1.00  0.00    -0.400 A  
ENDROOT
BRANCH   5   8
HETATM    8  C   UNL     1      -8.217   8.658  66.969  1.00  0.00    -0.106 C  
HETATM    9  C   UNL     1      -8.596   9.103  68.383  1.00  0.00    -0.129 C  
HETATM   10  C   UNL     1      -9.517   8.129  68.965  1.00  0.00    -0.155 A  
HETATM   11  O   UNL     1      -8.200  10.080  68.997  1.00  0.00    -0.107 OA 
HETATM   12  C   UNL     1     -10.127   8.149  70.207  1.00  0.00    -0.192 A  
HETATM   13  C   UNL     1     -10.978   7.086  70.527  1.00  0.00    -0.297 A  
HETATM   14  C   UNL     1     -11.198   6.038  69.612  1.00  0.00    -0.428 A  
HETATM   15  C   UNL     1     -10.561   6.030  68.369  1.00  0.00    -0.322 A  
HETATM   16  C   UNL     1      -9.723   7.090  68.074  1.00  0.00    -0.140 A  
HETATM   17  C   UNL     1      -8.927   7.306  66.871  1.00  0.00    -0.135 C  
HETATM   18  O   UNL     1      -8.853   6.474  65.980  1.00  0.00    -0.152 OA 
ENDBRANCH   5   8
TORSDOF 1
ENDMDL
MODEL      174
REMARK 921   NORMALIZED FREE ENERGY PREDICTED BY IDOCK:   -2.62 KCAL/MOL
REMARK 922        TOTAL FREE ENERGY PREDICTED BY IDOCK:   -3.11 KCAL/MOL
REMARK 923 INTER-LIGAND FREE ENERGY PREDICTED BY IDOCK:   -2.65 KCAL/MOL
REMARK 924 INTRA-LIGAND FREE ENERGY PREDICTED BY IDOCK:   -0.47 KCAL/MOL
REMARK 927      BINDING AFFINITY PREDICTED BY RF-SCORE:    0.00 PKD
ROOT
HETATM    1  F   UNL     1     -12.507  11.710  63.253  1.00  0.00    -0.633 F  
HETATM    2  C   UNL     1     -11.665  12.455  63.980  1.00  0.00    -0.420 A  
HETATM    3  C   UNL     1     -10.297  12.304  63.818  1.00  0.00    -0.464 A  
HETATM    4  C   UNL     1      -9.416  13.075  64.584  1.00  0.00     0.529 A  
HETATM    5  C   UNL     1      -9.893  14.020  65.513  1.00  0.00    -0.229 A  
HETATM    6  C   UNL     1     -11.290  14.126  65.670  1.00  0.00    -0.319 A  
HETATM    7  C   UNL     1     -12.170  13.358  64.901  1.00  0.00    -0.450 A  
ENDROOT
BRANCH   5   8
HETATM    8  C   UNL     1      -8.948  14.823  66.402  1.00  0.00    -0.223 C  
HETATM    9  C   UNL     1      -8.876  16.323  66.107  1.00  0.00    -0.327 C  
HETATM   10  C   UNL     1      -9.280  17.068  67.297  1.00  0.00    -0.225 A  
HETATM   11  O   UNL     1      -8.514  16.873  65.080  1.00  0.00     0.993 OA 
HETATM   12  C   UNL     1      -9.385  18.437  67.468  1.00  0.00    -0.270 A  
HETATM   13  C   UNL     1      -9.800  18.904  68.719  1.00  0.00    -0.461 A  
HETATM   14  C   UNL     1     -10.097  18.005  69.762  1.00  0.00     0.540 A  
HETATM   15  C   UNL     1      -9.970  16.627  69.573  1.00  0.00    -0.091 A  
HETATM   16  C   UNL     1      -9.557  16.188  68.329  1.00  0.00    -0.216 A  
HETATM   17  C   UNL     1      -9.323  14.817  67.885  1.00  0.00    -0.193 C  
HETATM   18  O   UNL     1      -9.393  13.865  68.645  1.00  0.00    -0.187 OA 
ENDBRANCH   5   8
TORSDOF 1
ENDMDL
MODEL      175
REMARK 921   NORMALIZED FREE ENERGY PREDICTED BY IDOCK:   -2.61 KCAL/MOL
REMARK 922        TOTAL FREE ENERGY PREDICTED BY IDOCK:   -3.10 KCAL/MOL
REMARK 923 INTER-LIGAND FREE ENERGY PREDICTED BY IDOCK:   -2.63 KCAL/MOL
REMARK 924 INTRA-LIGAND FREE ENERGY PREDICTED BY IDOCK:   -0.47 KCAL/MOL
REMARK 927      BINDING AFFINITY PREDICTED BY RF-SCORE:    0.00 PKD
ROOT
HETATM    1  F   UNL     1     -11.002  10.596  66.574  1.00  0.00    -0.288 F  
HETATM    2  C   UNL     1     -10.322   9.648  67.233  1.00  0.00    -0.249 A  
HETATM    3  C   UNL     1     -10.494   9.503  68.600  1.00  0.00    -0.237 A  
HETATM    4  C   UNL     1      -9.775   8.521  69.290  1.00  0.00    -0.173 A  
HETATM    5  C   UNL     1      -8.887   7.659  68.619  1.00  0.00    -0.127 A  
HETATM    6  C   UNL     1      -8.718   7.855  67.233  1.00  0.00    -0.131 A  
HETATM    7  C   UNL     1      -9.438   8.835  66.542  1.00  0.00    -0.281 A  
ENDROOT
BRANCH   5   8
HETATM    8  C   UNL     1      -8.049   6.626  69.365  1.00  0.00    -0.119 C  
HETATM    9  C   UNL     1      -7.198   7.169  70.516  1.00  0.00    -0.067 C  
HETATM   10  C   UNL     1      -7.594   6.512  71.759  1.00  0.00    -0.094 A  
HETATM   11  O   UNL     1      -6.296   7.988  70.464  1.00  0.00    -0.036 OA 
HETATM   12  C   UNL     1      -7.108   6.716  73.039  1.00  0.00    -0.077 A  
HETATM   13  C   UNL     1      -7.663   5.953  74.072  1.00  0.00    -0.098 A  
HETATM   14  C   UNL     1      -8.677   5.013  73.808  1.00  0.00    -0.109 A  
HETATM   15  C   UNL     1      -9.144   4.812  72.507  1.00  0.00    -0.142 A  
HETATM   16  C   UNL     1      -8.580   5.576  71.501  1.00  0.00    -0.132 A  
HETATM   17  C   UNL     1      -8.868   5.543  70.071  1.00  0.00    -0.128 C  
HETATM   18  O   UNL     1      -9.624   4.722  69.578  1.00  0.00    -0.144 OA 
ENDBRANCH   5   8
TORSDOF 1
ENDMDL
MODEL      176
REMARK 921   NORMALIZED FREE ENERGY PREDICTED BY IDOCK:   -2.59 KCAL/MOL
REMARK 922        TOTAL FREE ENERGY PREDICTED BY IDOCK:   -3.08 KCAL/MOL
REMARK 923 INTER-LIGAND FREE ENERGY PREDICTED BY IDOCK:   -3.15 KCAL/MOL
REMARK 924 INTRA-LIGAND FREE ENERGY PREDICTED BY IDOCK:    0.07 KCAL/MOL
REMARK 927      BINDING AFFINITY PREDICTED BY RF-SCORE:    0.00 PKD
ROOT
HETATM    1  F   UNL     1      -9.715   3.971  66.188  1.00  0.00    -0.166 F  
HETATM    2  C   UNL     1      -9.794   5.087  66.923  1.00  0.00    -0.188 A  
HETATM    3  C   UNL     1     -10.742   6.050  66.612  1.00  0.00    -0.315 A  
HETATM    4  C   UNL     1     -10.818   7.221  67.374  1.00  0.00    -0.317 A  
HETATM    5  C   UNL     1      -9.958   7.438  68.467  1.00  0.00    -0.172 A  
HETATM    6  C   UNL     1      -8.990   6.449  68.736  1.00  0.00    -0.126 A  
HETATM    7  C   UNL     1      -8.915   5.277  67.977  1.00  0.00    -0.113 A  
ENDROOT
BRANCH   5   8
HETATM    8  C   UNL     1      -9.985   8.737  69.267  1.00  0.00    -0.194 C  
HETATM    9  C   UNL     1      -8.623   9.259  69.729  1.00  0.00    -0.159 C  
HETATM   10  C   UNL     1      -8.402  10.590  69.169  1.00  0.00    -0.154 A  
HETATM   11  O   UNL     1      -7.821   8.718  70.472  1.00  0.00    -0.080 OA 
HETATM   12  C   UNL     1      -7.300  11.415  69.307  1.00  0.00    -0.042 A  
HETATM   13  C   UNL     1      -7.335  12.656  68.661  1.00  0.00    -0.101 A  
HETATM   14  C   UNL     1      -8.457  13.042  67.902  1.00  0.00    -0.185 A  
HETATM   15  C   UNL     1      -9.565  12.200  67.788  1.00  0.00    -0.195 A  
HETATM   16  C   UNL     1      -9.510  10.979  68.436  1.00  0.00    -0.182 A  
HETATM   17  C   UNL     1     -10.532   9.940  68.496  1.00  0.00    -0.205 C  
HETATM   18  O   UNL     1     -11.645  10.092  68.018  1.00  0.00    -0.253 OA 
ENDBRANCH   5   8
TORSDOF 1
ENDMDL
MODEL      177
REMARK 921   NORMALIZED FREE ENERGY PREDICTED BY IDOCK:   -2.56 KCAL/MOL
REMARK 922        TOTAL FREE ENERGY PREDICTED BY IDOCK:   -3.05 KCAL/MOL
REMARK 923 INTER-LIGAND FREE ENERGY PREDICTED BY IDOCK:   -2.68 KCAL/MOL
REMARK 924 INTRA-LIGAND FREE ENERGY PREDICTED BY IDOCK:   -0.37 KCAL/MOL
REMARK 927      BINDING AFFINITY PREDICTED BY RF-SCORE:    0.00 PKD
ROOT
HETATM    1  F   UNL     1     -12.337   6.785  71.146  1.00  0.00    -0.379 F  
HETATM    2  C   UNL     1     -11.277   6.606  70.348  1.00  0.00    -0.344 A  
HETATM    3  C   UNL     1     -10.939   7.582  69.424  1.00  0.00    -0.099 A  
HETATM    4  C   UNL     1      -9.838   7.390  68.582  1.00  0.00    -0.165 A  
HETATM    5  C   UNL     1      -9.050   6.227  68.665  1.00  0.00    -0.126 A  
HETATM    6  C   UNL     1      -9.441   5.244  69.598  1.00  0.00    -0.196 A  
HETATM    7  C   UNL     1     -10.540   5.437  70.441  1.00  0.00    -0.322 A  
ENDROOT
BRANCH   5   8
HETATM    8  C   UNL     1      -7.885   5.973  67.712  1.00  0.00    -0.105 C  
HETATM    9  C   UNL     1      -8.215   5.145  66.469  1.00  0.00    -0.108 C  
HETATM   10  C   UNL     1      -7.926   5.935  65.274  1.00  0.00    -0.115 A  
HETATM   11  O   UNL     1      -8.620   3.996  66.414  1.00  0.00    -0.108 OA 
HETATM   12  C   UNL     1      -8.099   5.588  63.945  1.00  0.00    -0.122 A  
HETATM   13  C   UNL     1      -7.744   6.535  62.978  1.00  0.00    -0.094 A  
HETATM   14  C   UNL     1      -7.229   7.791  63.353  1.00  0.00    -0.087 A  
HETATM   15  C   UNL     1      -7.049   8.114  64.700  1.00  0.00    -0.080 A  
HETATM   16  C   UNL     1      -7.405   7.163  65.639  1.00  0.00    -0.079 A  
HETATM   17  C   UNL     1      -7.293   7.241  67.091  1.00  0.00    -0.094 C  
HETATM   18  O   UNL     1      -6.761   8.183  67.655  1.00  0.00    -0.060 OA 
ENDBRANCH   5   8
TORSDOF 1
ENDMDL
MODEL      178
REMARK 921   NORMALIZED FREE ENERGY PREDICTED BY IDOCK:   -2.55 KCAL/MOL
REMARK 922        TOTAL FREE ENERGY PREDICTED BY IDOCK:   -3.03 KCAL/MOL
REMARK 923 INTER-LIGAND FREE ENERGY PREDICTED BY IDOCK:   -2.67 KCAL/MOL
REMARK 924 INTRA-LIGAND FREE ENERGY PREDICTED BY IDOCK:   -0.37 KCAL/MOL
REMARK 927      BINDING AFFINITY PREDICTED BY RF-SCORE:    0.00 PKD
ROOT
HETATM    1  F   UNL     1      -9.535   5.027  65.482  1.00  0.00    -0.157 F  
HETATM    2  C   UNL     1      -9.638   4.888  66.810  1.00  0.00    -0.161 A  
HETATM    3  C   UNL     1     -10.512   5.696  67.521  1.00  0.00    -0.294 A  
HETATM    4  C   UNL     1     -10.613   5.558  68.910  1.00  0.00    -0.258 A  
HETATM    5  C   UNL     1      -9.852   4.599  69.605  1.00  0.00    -0.293 A  
HETATM    6  C   UNL     1      -8.954   3.815  68.852  1.00  0.00    -0.178 A  
HETATM    7  C   UNL     1      -8.855   3.950  67.464  1.00  0.00    -0.135 A  
ENDROOT
BRANCH   5   8
HETATM    8  C   UNL     1      -9.902   4.479  71.125  1.00  0.00    -0.263 C  
HETATM    9  C   UNL     1      -9.365   3.168  71.703  1.00  0.00    -0.131 C  
HETATM   10  C   UNL     1      -8.250   3.459  72.602  1.00  0.00    -0.080 A  
HETATM   11  O   UNL     1      -9.778   2.036  71.516  1.00  0.00    -0.134 OA 
HETATM   12  C   UNL     1      -7.460   2.575  73.316  1.00  0.00    -0.042 A  
HETATM   13  C   UNL     1      -6.443   3.113  74.112  1.00  0.00    -0.029 A  
HETATM   14  C   UNL     1      -6.240   4.505  74.179  1.00  0.00    -0.042 A  
HETATM   15  C   UNL     1      -7.059   5.381  73.462  1.00  0.00    -0.086 A  
HETATM   16  C   UNL     1      -8.058   4.827  72.682  1.00  0.00    -0.100 A  
HETATM   17  C   UNL     1      -9.053   5.515  71.866  1.00  0.00    -0.138 C  
HETATM   18  O   UNL     1      -9.162   6.730  71.857  1.00  0.00    -0.144 OA 
ENDBRANCH   5   8
TORSDOF 1
ENDMDL
MODEL      179
REMARK 921   NORMALIZED FREE ENERGY PREDICTED BY IDOCK:   -2.52 KCAL/MOL
REMARK 922        TOTAL FREE ENERGY PREDICTED BY IDOCK:   -3.01 KCAL/MOL
REMARK 923 INTER-LIGAND FREE ENERGY PREDICTED BY IDOCK:   -2.54 KCAL/MOL
REMARK 924 INTRA-LIGAND FREE ENERGY PREDICTED BY IDOCK:   -0.46 KCAL/MOL
REMARK 927      BINDING AFFINITY PREDICTED BY RF-SCORE:    0.00 PKD
ROOT
HETATM    1  F   UNL     1      -7.890  11.837  69.120  1.00  0.00    -0.093 F  
HETATM    2  C   UNL     1      -8.133  10.530  68.955  1.00  0.00    -0.138 A  
HETATM    3  C   UNL     1      -8.501  10.052  67.707  1.00  0.00    -0.114 A  
HETATM    4  C   UNL     1      -8.766   8.689  67.536  1.00  0.00    -0.135 A  
HETATM    5  C   UNL     1      -8.650   7.783  68.607  1.00  0.00    -0.129 A  
HETATM    6  C   UNL     1      -8.300   8.311  69.867  1.00  0.00    -0.125 A  
HETATM    7  C   UNL     1      -8.032   9.673  70.038  1.00  0.00    -0.182 A  
ENDROOT
BRANCH   5   8
HETATM    8  C   UNL     1      -8.996   6.305  68.453  1.00  0.00    -0.116 C  
HETATM    9  C   UNL     1     -10.250   6.001  67.629  1.00  0.00    -0.181 C  
HETATM   10  C   UNL     1      -9.883   5.172  66.483  1.00  0.00    -0.210 A  
HETATM   11  O   UNL     1     -11.400   6.334  67.857  1.00  0.00    -0.257 OA 
HETATM   12  C   UNL     1     -10.693   4.688  65.471  1.00  0.00    -0.176 A  
HETATM   13  C   UNL     1     -10.091   3.910  64.476  1.00  0.00    -0.224 A  
HETATM   14  C   UNL     1      -8.710   3.634  64.513  1.00  0.00    -0.105 A  
HETATM   15  C   UNL     1      -7.914   4.120  65.553  1.00  0.00    -0.097 A  
HETATM   16  C   UNL     1      -8.530   4.886  66.526  1.00  0.00    -0.110 A  
HETATM   17  C   UNL     1      -7.936   5.484  67.716  1.00  0.00    -0.101 C  
HETATM   18  O   UNL     1      -6.775   5.283  68.037  1.00  0.00    -0.051 OA 
ENDBRANCH   5   8
TORSDOF 1
ENDMDL
MODEL      180
REMARK 921   NORMALIZED FREE ENERGY PREDICTED BY IDOCK:   -2.41 KCAL/MOL
REMARK 922        TOTAL FREE ENERGY PREDICTED BY IDOCK:   -2.89 KCAL/MOL
REMARK 923 INTER-LIGAND FREE ENERGY PREDICTED BY IDOCK:   -2.42 KCAL/MOL
REMARK 924 INTRA-LIGAND FREE ENERGY PREDICTED BY IDOCK:   -0.47 KCAL/MOL
REMARK 927      BINDING AFFINITY PREDICTED BY RF-SCORE:    0.00 PKD
ROOT
HETATM    1  F   UNL     1     -11.023  11.915  70.066  1.00  0.00    -0.131 F  
HETATM    2  C   UNL     1     -10.744  11.013  69.115  1.00  0.00    -0.234 A  
HETATM    3  C   UNL     1      -9.732  10.088  69.320  1.00  0.00    -0.227 A  
HETATM    4  C   UNL     1      -9.433   9.152  68.324  1.00  0.00    -0.152 A  
HETATM    5  C   UNL     1     -10.154   9.118  67.115  1.00  0.00    -0.301 A  
HETATM    6  C   UNL     1     -11.158  10.091  66.932  1.00  0.00     0.048 A  
HETATM    7  C   UNL     1     -11.458  11.025  67.929  1.00  0.00    -0.358 A  
ENDROOT
BRANCH   5   8
HETATM    8  C   UNL     1      -9.799   8.147  65.994  1.00  0.00     0.038 C  
HETATM    9  C   UNL     1      -8.377   8.264  65.441  1.00  0.00    -0.162 C  
HETATM   10  C   UNL     1      -7.682   6.992  65.626  1.00  0.00    -0.102 A  
HETATM   11  O   UNL     1      -7.859   9.221  64.891  1.00  0.00    -0.109 OA 
HETATM   12  C   UNL     1      -6.379   6.662  65.297  1.00  0.00    -0.042 A  
HETATM   13  C   UNL     1      -5.949   5.362  65.583  1.00  0.00    -0.025 A  
HETATM   14  C   UNL     1      -6.818   4.430  66.182  1.00  0.00    -0.058 A  
HETATM   15  C   UNL     1      -8.134   4.780  66.493  1.00  0.00    -0.107 A  
HETATM   16  C   UNL     1      -8.539   6.070  66.200  1.00  0.00    -0.142 A  
HETATM   17  C   UNL     1      -9.853   6.672  66.398  1.00  0.00    -0.039 C  
HETATM   18  O   UNL     1     -10.813   6.028  66.791  1.00  0.00    -0.315 OA 
ENDBRANCH   5   8
TORSDOF 1
ENDMDL
MODEL      181
REMARK 921   NORMALIZED FREE ENERGY PREDICTED BY IDOCK:   -2.33 KCAL/MOL
REMARK 922        TOTAL FREE ENERGY PREDICTED BY IDOCK:   -2.80 KCAL/MOL
REMARK 923 INTER-LIGAND FREE ENERGY PREDICTED BY IDOCK:   -2.33 KCAL/MOL
REMARK 924 INTRA-LIGAND FREE ENERGY PREDICTED BY IDOCK:   -0.47 KCAL/MOL
REMARK 927      BINDING AFFINITY PREDICTED BY RF-SCORE:    0.00 PKD
ROOT
HETATM    1  F   UNL     1      -9.458   9.624  70.380  1.00  0.00    -0.248 F  
HETATM    2  C   UNL     1      -9.414   8.698  69.413  1.00  0.00    -0.161 A  
HETATM    3  C   UNL     1      -8.243   7.992  69.190  1.00  0.00    -0.130 A  
HETATM    4  C   UNL     1      -8.194   7.032  68.173  1.00  0.00    -0.120 A  
HETATM    5  C   UNL     1      -9.320   6.755  67.376  1.00  0.00    -0.140 A  
HETATM    6  C   UNL     1     -10.485   7.513  67.614  1.00  0.00    -0.319 A  
HETATM    7  C   UNL     1     -10.536   8.470  68.633  1.00  0.00    -0.200 A  
ENDROOT
BRANCH   5   8
HETATM    8  C   UNL     1      -9.265   5.758  66.222  1.00  0.00    -0.168 C  
HETATM    9  C   UNL     1      -8.151   5.990  65.199  1.00  0.00    -0.132 C  
HETATM   10  C   UNL     1      -7.286   4.813  65.153  1.00  0.00    -0.072 A  
HETATM   11  O   UNL     1      -7.978   6.960  64.481  1.00  0.00    -0.122 OA 
HETATM   12  C   UNL     1      -6.151   4.603  64.391  1.00  0.00    -0.022 A  
HETATM   13  C   UNL     1      -5.493   3.376  64.533  1.00  0.00    -0.010 A  
HETATM   14  C   UNL     1      -5.979   2.397  65.422  1.00  0.00    -0.019 A  
HETATM   15  C   UNL     1      -7.135   2.624  66.171  1.00  0.00    -0.064 A  
HETATM   16  C   UNL     1      -7.770   3.843  66.013  1.00  0.00    -0.089 A  
HETATM   17  C   UNL     1      -8.995   4.314  66.651  1.00  0.00    -0.121 C  
HETATM   18  O   UNL     1      -9.671   3.598  67.372  1.00  0.00    -0.194 OA 
ENDBRANCH   5   8
TORSDOF 1
ENDMDL
MODEL      182
REMARK 921   NORMALIZED FREE ENERGY PREDICTED BY IDOCK:   -2.27 KCAL/MOL
REMARK 922        TOTAL FREE ENERGY PREDICTED BY IDOCK:   -2.74 KCAL/MOL
REMARK 923 INTER-LIGAND FREE ENERGY PREDICTED BY IDOCK:   -2.57 KCAL/MOL
REMARK 924 INTRA-LIGAND FREE ENERGY PREDICTED BY IDOCK:   -0.17 KCAL/MOL
REMARK 927      BINDING AFFINITY PREDICTED BY RF-SCORE:    0.00 PKD
ROOT
HETATM    1  F   UNL     1      -6.486   5.752  63.905  1.00  0.00    -0.027 F  
HETATM    2  C   UNL     1      -6.742   6.021  65.192  1.00  0.00    -0.044 A  
HETATM    3  C   UNL     1      -7.217   7.272  65.552  1.00  0.00    -0.066 A  
HETATM    4  C   UNL     1      -7.475   7.557  66.897  1.00  0.00    -0.098 A  
HETATM    5  C   UNL     1      -7.277   6.588  67.899  1.00  0.00    -0.087 A  
HETATM    6  C   UNL     1      -6.767   5.336  67.498  1.00  0.00    -0.055 A  
HETATM    7  C   UNL     1      -6.512   5.050  66.153  1.00  0.00    -0.044 A  
ENDROOT
BRANCH   5   8
HETATM    8  C   UNL     1      -7.492   6.902  69.377  1.00  0.00    -0.094 C  
HETATM    9  C   UNL     1      -7.943   8.330  69.691  1.00  0.00    -0.111 C  
HETATM   10  C   UNL     1      -9.234   8.288  70.375  1.00  0.00    -0.153 A  
HETATM   11  O   UNL     1      -7.351   9.373  69.469  1.00  0.00    -0.065 OA 
HETATM   12  C   UNL     1     -10.013   9.343  70.817  1.00  0.00    -0.358 A  
HETATM   13  C   UNL     1     -11.224   9.033  71.447  1.00  0.00    -0.394 A  
HETATM   14  C   UNL     1     -11.624   7.694  71.622  1.00  0.00    -0.301 A  
HETATM   15  C   UNL     1     -10.814   6.645  71.181  1.00  0.00    -0.284 A  
HETATM   16  C   UNL     1      -9.622   6.974  70.562  1.00  0.00    -0.169 A  
HETATM   17  C   UNL     1      -8.597   6.076  70.041  1.00  0.00    -0.131 C  
HETATM   18  O   UNL     1      -8.655   4.866  70.184  1.00  0.00    -0.088 OA 
ENDBRANCH   5   8
TORSDOF 1
ENDMDL
MODEL      183
REMARK 921   NORMALIZED FREE ENERGY PREDICTED BY IDOCK:   -2.26 KCAL/MOL
REMARK 922        TOTAL FREE ENERGY PREDICTED BY IDOCK:   -2.73 KCAL/MOL
REMARK 923 INTER-LIGAND FREE ENERGY PREDICTED BY IDOCK:   -2.34 KCAL/MOL
REMARK 924 INTRA-LIGAND FREE ENERGY PREDICTED BY IDOCK:   -0.39 KCAL/MOL
REMARK 927      BINDING AFFINITY PREDICTED BY RF-SCORE:    0.00 PKD
ROOT
HETATM    1  F   UNL     1      -6.029   4.113  66.361  1.00  0.00    -0.023 F  
HETATM    2  C   UNL     1      -6.389   5.221  67.022  1.00  0.00    -0.040 A  
HETATM    3  C   UNL     1      -5.490   5.831  67.882  1.00  0.00    -0.008 A  
HETATM    4  C   UNL     1      -5.869   6.982  68.581  1.00  0.00    -0.019 A  
HETATM    5  C   UNL     1      -7.148   7.548  68.417  1.00  0.00    -0.081 A  
HETATM    6  C   UNL     1      -8.044   6.884  67.554  1.00  0.00    -0.116 A  
HETATM    7  C   UNL     1      -7.664   5.735  66.853  1.00  0.00    -0.101 A  
ENDROOT
BRANCH   5   8
HETATM    8  C   UNL     1      -7.599   8.765  69.219  1.00  0.00    -0.093 C  
HETATM    9  C   UNL     1      -7.429  10.117  68.522  1.00  0.00    -0.086 C  
HETATM   10  C   UNL     1      -8.734  10.763  68.398  1.00  0.00    -0.142 A  
HETATM   11  O   UNL     1      -6.397  10.645  68.142  1.00  0.00    -0.057 OA 
HETATM   12  C   UNL     1      -9.047  11.978  67.814  1.00  0.00    -0.187 A  
HETATM   13  C   UNL     1     -10.388  12.374  67.823  1.00  0.00    -0.222 A  
HETATM   14  C   UNL     1     -11.377  11.559  68.408  1.00  0.00    -0.342 A  
HETATM   15  C   UNL     1     -11.037  10.343  69.005  1.00  0.00    -0.297 A  
HETATM   16  C   UNL     1      -9.705   9.972  68.987  1.00  0.00    -0.204 A  
HETATM   17  C   UNL     1      -9.092   8.778  69.557  1.00  0.00    -0.146 C  
HETATM   18  O   UNL     1      -9.724   7.976  70.225  1.00  0.00    -0.175 OA 
ENDBRANCH   5   8
TORSDOF 1
ENDMDL
MODEL      184
REMARK 921   NORMALIZED FREE ENERGY PREDICTED BY IDOCK:   -2.21 KCAL/MOL
REMARK 922        TOTAL FREE ENERGY PREDICTED BY IDOCK:   -2.67 KCAL/MOL
REMARK 923 INTER-LIGAND FREE ENERGY PREDICTED BY IDOCK:   -2.19 KCAL/MOL
REMARK 924 INTRA-LIGAND FREE ENERGY PREDICTED BY IDOCK:   -0.48 KCAL/MOL
REMARK 927      BINDING AFFINITY PREDICTED BY RF-SCORE:    0.00 PKD
ROOT
HETATM    1  F   UNL     1      -7.857  10.974  69.470  1.00  0.00    -0.128 F  
HETATM    2  C   UNL     1      -8.177   9.674  69.465  1.00  0.00    -0.136 A  
HETATM    3  C   UNL     1      -9.040   9.181  68.498  1.00  0.00    -0.132 A  
HETATM    4  C   UNL     1      -9.383   7.825  68.499  1.00  0.00    -0.147 A  
HETATM    5  C   UNL     1      -8.856   6.939  69.457  1.00  0.00    -0.133 A  
HETATM    6  C   UNL     1      -8.003   7.482  70.441  1.00  0.00    -0.102 A  
HETATM    7  C   UNL     1      -7.657   8.837  70.438  1.00  0.00    -0.082 A  
ENDROOT
BRANCH   5   8
HETATM    8  C   UNL     1      -9.269   5.472  69.511  1.00  0.00    -0.151 C  
HETATM    9  C   UNL     1      -8.136   4.474  69.759  1.00  0.00    -0.060 C  
HETATM   10  C   UNL     1      -8.410   3.727  70.985  1.00  0.00    -0.086 A  
HETATM   11  O   UNL     1      -7.155   4.259  69.066  1.00  0.00    -0.050 OA 
HETATM   12  C   UNL     1      -7.644   2.749  71.592  1.00  0.00    -0.044 A  
HETATM   13  C   UNL     1      -8.133   2.184  72.775  1.00  0.00    -0.054 A  
HETATM   14  C   UNL     1      -9.364   2.602  73.318  1.00  0.00    -0.109 A  
HETATM   15  C   UNL     1     -10.129   3.581  72.680  1.00  0.00    -0.234 A  
HETATM   16  C   UNL     1      -9.627   4.124  71.512  1.00  0.00    -0.238 A  
HETATM   17  C   UNL     1     -10.235   5.131  70.649  1.00  0.00    -0.256 C  
HETATM   18  O   UNL     1     -11.360   5.561  70.841  1.00  0.00    -0.054 OA 
ENDBRANCH   5   8
TORSDOF 1
ENDMDL
MODEL      185
REMARK 921   NORMALIZED FREE ENERGY PREDICTED BY IDOCK:   -2.17 KCAL/MOL
REMARK 922        TOTAL FREE ENERGY PREDICTED BY IDOCK:   -2.64 KCAL/MOL
REMARK 923 INTER-LIGAND FREE ENERGY PREDICTED BY IDOCK:   -2.61 KCAL/MOL
REMARK 924 INTRA-LIGAND FREE ENERGY PREDICTED BY IDOCK:   -0.03 KCAL/MOL
REMARK 927      BINDING AFFINITY PREDICTED BY RF-SCORE:    0.00 PKD
ROOT
HETATM    1  F   UNL     1      -8.069   5.437  69.986  1.00  0.00    -0.079 F  
HETATM    2  C   UNL     1      -8.206   6.496  69.178  1.00  0.00    -0.116 A  
HETATM    3  C   UNL     1      -7.207   7.455  69.125  1.00  0.00    -0.084 A  
HETATM    4  C   UNL     1      -7.355   8.567  68.288  1.00  0.00    -0.094 A  
HETATM    5  C   UNL     1      -8.497   8.726  67.482  1.00  0.00    -0.120 A  
HETATM    6  C   UNL     1      -9.504   7.744  67.583  1.00  0.00    -0.168 A  
HETATM    7  C   UNL     1      -9.355   6.631  68.416  1.00  0.00    -0.123 A  
ENDROOT
BRANCH   5   8
HETATM    8  C   UNL     1      -8.703   9.963  66.612  1.00  0.00    -0.138 C  
HETATM    9  C   UNL     1     -10.027  10.703  66.818  1.00  0.00    -0.209 C  
HETATM   10  C   UNL     1      -9.752  12.075  67.238  1.00  0.00    -0.190 A  
HETATM   11  O   UNL     1     -11.159  10.286  66.640  1.00  0.00    -0.045 OA 
HETATM   12  C   UNL     1     -10.649  13.080  67.555  1.00  0.00    -0.237 A  
HETATM   13  C   UNL     1     -10.125  14.319  67.937  1.00  0.00    -0.233 A  
HETATM   14  C   UNL     1      -8.733  14.528  67.990  1.00  0.00    -0.167 A  
HETATM   15  C   UNL     1      -7.845  13.505  67.652  1.00  0.00    -0.178 A  
HETATM   16  C   UNL     1      -8.385  12.288  67.277  1.00  0.00    -0.182 A  
HETATM   17  C   UNL     1      -7.685  11.079  66.855  1.00  0.00    -0.140 C  
HETATM   18  O   UNL     1      -6.474  11.047  66.701  1.00  0.00    -0.106 OA 
ENDBRANCH   5   8
TORSDOF 1
ENDMDL
MODEL      186
REMARK 921   NORMALIZED FREE ENERGY PREDICTED BY IDOCK:   -2.16 KCAL/MOL
REMARK 922        TOTAL FREE ENERGY PREDICTED BY IDOCK:   -2.62 KCAL/MOL
REMARK 923 INTER-LIGAND FREE ENERGY PREDICTED BY IDOCK:   -2.23 KCAL/MOL
REMARK 924 INTRA-LIGAND FREE ENERGY PREDICTED BY IDOCK:   -0.39 KCAL/MOL
REMARK 927      BINDING AFFINITY PREDICTED BY RF-SCORE:    0.00 PKD
ROOT
HETATM    1  F   UNL     1      -8.810   5.033  64.623  1.00  0.00    -0.146 F  
HETATM    2  C   UNL     1      -8.900   5.432  65.898  1.00  0.00    -0.148 A  
HETATM    3  C   UNL     1     -10.064   5.195  66.612  1.00  0.00    -0.267 A  
HETATM    4  C   UNL     1     -10.164   5.621  67.941  1.00  0.00    -0.234 A  
HETATM    5  C   UNL     1      -9.093   6.275  68.580  1.00  0.00    -0.125 A  
HETATM    6  C   UNL     1      -7.935   6.523  67.813  1.00  0.00    -0.115 A  
HETATM    7  C   UNL     1      -7.835   6.094  66.486  1.00  0.00    -0.104 A  
ENDROOT
BRANCH   5   8
HETATM    8  C   UNL     1      -9.207   6.803  70.007  1.00  0.00    -0.158 C  
HETATM    9  C   UNL     1      -8.680   5.871  71.101  1.00  0.00    -0.132 C  
HETATM   10  C   UNL     1      -7.609   6.544  71.831  1.00  0.00    -0.094 A  
HETATM   11  O   UNL     1      -9.072   4.754  71.392  1.00  0.00    -0.129 OA 
HETATM   12  C   UNL     1      -6.840   6.064  72.877  1.00  0.00    -0.075 A  
HETATM   13  C   UNL     1      -5.865   6.916  73.408  1.00  0.00    -0.054 A  
HETATM   14  C   UNL     1      -5.681   8.213  72.890  1.00  0.00    -0.052 A  
HETATM   15  C   UNL     1      -6.478   8.683  71.844  1.00  0.00    -0.074 A  
HETATM   16  C   UNL     1      -7.437   7.825  71.336  1.00  0.00    -0.076 A  
HETATM   17  C   UNL     1      -8.404   8.078  70.273  1.00  0.00    -0.125 C  
HETATM   18  O   UNL     1      -8.526   9.173  69.750  1.00  0.00    -0.119 OA 
ENDBRANCH   5   8
TORSDOF 1
ENDMDL
MODEL      187
REMARK 921   NORMALIZED FREE ENERGY PREDICTED BY IDOCK:   -2.12 KCAL/MOL
REMARK 922        TOTAL FREE ENERGY PREDICTED BY IDOCK:   -2.58 KCAL/MOL
REMARK 923 INTER-LIGAND FREE ENERGY PREDICTED BY IDOCK:   -2.10 KCAL/MOL
REMARK 924 INTRA-LIGAND FREE ENERGY PREDICTED BY IDOCK:   -0.47 KCAL/MOL
REMARK 927      BINDING AFFINITY PREDICTED BY RF-SCORE:    0.00 PKD
ROOT
HETATM    1  F   UNL     1      -8.323   7.554  69.754  1.00  0.00    -0.124 F  
HETATM    2  C   UNL     1      -8.563   8.814  69.366  1.00  0.00    -0.133 A  
HETATM    3  C   UNL     1      -7.766   9.843  69.839  1.00  0.00    -0.177 A  
HETATM    4  C   UNL     1      -8.022  11.160  69.442  1.00  0.00     0.103 A  
HETATM    5  C   UNL     1      -9.070  11.463  68.552  1.00  0.00    -0.169 A  
HETATM    6  C   UNL     1      -9.877  10.393  68.113  1.00  0.00    -0.168 A  
HETATM    7  C   UNL     1      -9.619   9.076  68.508  1.00  0.00    -0.161 A  
ENDROOT
BRANCH   5   8
HETATM    8  C   UNL     1      -9.403  12.899  68.159  1.00  0.00    -0.214 C  
HETATM    9  C   UNL     1      -9.240  13.233  66.674  1.00  0.00    -0.215 C  
HETATM   10  C   UNL     1     -10.524  13.676  66.136  1.00  0.00    -0.297 A  
HETATM   11  O   UNL     1      -8.224  13.195  66.000  1.00  0.00     0.954 OA 
HETATM   12  C   UNL     1     -10.837  14.051  64.841  1.00  0.00    -0.421 A  
HETATM   13  C   UNL     1     -12.157  14.435  64.580  1.00  0.00    -0.498 A  
HETATM   14  C   UNL     1     -13.123  14.439  65.604  1.00  0.00     0.061 A  
HETATM   15  C   UNL     1     -12.782  14.071  66.908  1.00  0.00     0.248 A  
HETATM   16  C   UNL     1     -11.472  13.696  67.144  1.00  0.00    -0.367 A  
HETATM   17  C   UNL     1     -10.860  13.297  68.407  1.00  0.00    -0.258 C  
HETATM   18  O   UNL     1     -11.464  13.339  69.466  1.00  0.00    -0.268 OA 
ENDBRANCH   5   8
TORSDOF 1
ENDMDL
MODEL      188
REMARK 921   NORMALIZED FREE ENERGY PREDICTED BY IDOCK:   -2.09 KCAL/MOL
REMARK 922        TOTAL FREE ENERGY PREDICTED BY IDOCK:   -2.55 KCAL/MOL
REMARK 923 INTER-LIGAND FREE ENERGY PREDICTED BY IDOCK:   -2.49 KCAL/MOL
REMARK 924 INTRA-LIGAND FREE ENERGY PREDICTED BY IDOCK:   -0.05 KCAL/MOL
REMARK 927      BINDING AFFINITY PREDICTED BY RF-SCORE:    0.00 PKD
ROOT
HETATM    1  F   UNL     1      -5.259  12.293  66.549  1.00  0.00    -0.016 F  
HETATM    2  C   UNL     1      -6.375  11.553  66.591  1.00  0.00    -0.103 A  
HETATM    3  C   UNL     1      -7.526  12.077  67.158  1.00  0.00    -0.138 A  
HETATM    4  C   UNL     1      -8.689  11.300  67.212  1.00  0.00    -0.145 A  
HETATM    5  C   UNL     1      -8.720   9.996  66.685  1.00  0.00    -0.138 A  
HETATM    6  C   UNL     1      -7.522   9.488  66.141  1.00  0.00    -0.100 A  
HETATM    7  C   UNL     1      -6.361  10.265  66.084  1.00  0.00    -0.094 A  
ENDROOT
BRANCH   5   8
HETATM    8  C   UNL     1      -9.960   9.113  66.792  1.00  0.00    -0.322 C  
HETATM    9  C   UNL     1      -9.759   7.641  66.425  1.00  0.00    -0.127 C  
HETATM   10  C   UNL     1     -10.093   6.807  67.577  1.00  0.00    -0.215 A  
HETATM   11  O   UNL     1      -9.414   7.172  65.353  1.00  0.00     0.436 OA 
HETATM   12  C   UNL     1     -10.032   5.430  67.695  1.00  0.00    -0.195 A  
HETATM   13  C   UNL     1     -10.409   4.868  68.920  1.00  0.00    -0.069 A  
HETATM   14  C   UNL     1     -10.836   5.683  69.986  1.00  0.00    -0.366 A  
HETATM   15  C   UNL     1     -10.904   7.070  69.840  1.00  0.00    -0.280 A  
HETATM   16  C   UNL     1     -10.529   7.604  68.621  1.00  0.00    -0.203 A  
HETATM   17  C   UNL     1     -10.533   9.003  68.207  1.00  0.00    -0.200 C  
HETATM   18  O   UNL     1     -10.979   9.891  68.915  1.00  0.00    -0.220 OA 
ENDBRANCH   5   8
TORSDOF 1
ENDMDL
MODEL      189
REMARK 921   NORMALIZED FREE ENERGY PREDICTED BY IDOCK:   -2.08 KCAL/MOL
REMARK 922        TOTAL FREE ENERGY PREDICTED BY IDOCK:   -2.54 KCAL/MOL
REMARK 923 INTER-LIGAND FREE ENERGY PREDICTED BY IDOCK:   -2.08 KCAL/MOL
REMARK 924 INTRA-LIGAND FREE ENERGY PREDICTED BY IDOCK:   -0.47 KCAL/MOL
REMARK 927      BINDING AFFINITY PREDICTED BY RF-SCORE:    0.00 PKD
ROOT
HETATM    1  F   UNL     1      -9.027  13.392  67.414  1.00  0.00    -0.177 F  
HETATM    2  C   UNL     1      -8.451  12.281  66.937  1.00  0.00    -0.159 A  
HETATM    3  C   UNL     1      -9.202  11.380  66.198  1.00  0.00    -0.223 A  
HETATM    4  C   UNL     1      -8.604  10.214  65.708  1.00  0.00    -0.159 A  
HETATM    5  C   UNL     1      -7.242   9.941  65.938  1.00  0.00    -0.108 A  
HETATM    6  C   UNL     1      -6.518  10.867  66.716  1.00  0.00    -0.115 A  
HETATM    7  C   UNL     1      -7.114  12.034  67.203  1.00  0.00    -0.130 A  
ENDROOT
BRANCH   5   8
HETATM    8  C   UNL     1      -6.590   8.645  65.466  1.00  0.00    -0.063 C  
HETATM    9  C   UNL     1      -6.958   7.391  66.262  1.00  0.00    -0.069 C  
HETATM   10  C   UNL     1      -7.583   6.418  65.368  1.00  0.00    -0.089 A  
HETATM   11  O   UNL     1      -6.756   7.162  67.443  1.00  0.00    -0.062 OA 
HETATM   12  C   UNL     1      -8.089   5.166  65.669  1.00  0.00    -0.115 A  
HETATM   13  C   UNL     1      -8.645   4.423  64.622  1.00  0.00    -0.134 A  
HETATM   14  C   UNL     1      -8.681   4.940  63.312  1.00  0.00    -0.114 A  
HETATM   15  C   UNL     1      -8.152   6.201  63.027  1.00  0.00    -0.079 A  
HETATM   16  C   UNL     1      -7.606   6.916  64.077  1.00  0.00    -0.112 A  
HETATM   17  C   UNL     1      -6.972   8.230  64.043  1.00  0.00    -0.075 C  
HETATM   18  O   UNL     1      -6.772   8.830  62.999  1.00  0.00    -0.091 OA 
ENDBRANCH   5   8
TORSDOF 1
ENDMDL
MODEL      190
REMARK 921   NORMALIZED FREE ENERGY PREDICTED BY IDOCK:   -2.01 KCAL/MOL
REMARK 922        TOTAL FREE ENERGY PREDICTED BY IDOCK:   -2.46 KCAL/MOL
REMARK 923 INTER-LIGAND FREE ENERGY PREDICTED BY IDOCK:   -2.41 KCAL/MOL
REMARK 924 INTRA-LIGAND FREE ENERGY PREDICTED BY IDOCK:   -0.05 KCAL/MOL
REMARK 927      BINDING AFFINITY PREDICTED BY RF-SCORE:    0.00 PKD
ROOT
HETATM    1  F   UNL     1      -7.335   1.621  66.361  1.00  0.00    -0.051 F  
HETATM    2  C   UNL     1      -7.715   2.761  66.954  1.00  0.00    -0.075 A  
HETATM    3  C   UNL     1      -6.909   3.332  67.926  1.00  0.00    -0.049 A  
HETATM    4  C   UNL     1      -7.310   4.517  68.553  1.00  0.00    -0.061 A  
HETATM    5  C   UNL     1      -8.515   5.155  68.204  1.00  0.00    -0.099 A  
HETATM    6  C   UNL     1      -9.321   4.530  67.231  1.00  0.00    -0.165 A  
HETATM    7  C   UNL     1      -8.919   3.348  66.602  1.00  0.00    -0.162 A  
ENDROOT
BRANCH   5   8
HETATM    8  C   UNL     1      -8.997   6.412  68.922  1.00  0.00    -0.123 C  
HETATM    9  C   UNL     1      -8.032   7.600  68.898  1.00  0.00    -0.125 C  
HETATM   10  C   UNL     1      -8.683   8.736  68.248  1.00  0.00    -0.135 A  
HETATM   11  O   UNL     1      -6.906   7.666  69.361  1.00  0.00    -0.046 OA 
HETATM   12  C   UNL     1      -8.171   9.995  67.991  1.00  0.00    -0.116 A  
HETATM   13  C   UNL     1      -9.006  10.914  67.346  1.00  0.00    -0.136 A  
HETATM   14  C   UNL     1     -10.319  10.561  66.977  1.00  0.00    -0.289 A  
HETATM   15  C   UNL     1     -10.820   9.288  67.259  1.00  0.00    -0.140 A  
HETATM   16  C   UNL     1      -9.978   8.396  67.899  1.00  0.00    -0.228 A  
HETATM   17  C   UNL     1     -10.264   7.031  68.325  1.00  0.00    -0.182 C  
HETATM   18  O   UNL     1     -11.375   6.536  68.228  1.00  0.00    -0.230 OA 
ENDBRANCH   5   8
TORSDOF 1
ENDMDL
MODEL      191
REMARK 921   NORMALIZED FREE ENERGY PREDICTED BY IDOCK:   -1.84 KCAL/MOL
REMARK 922        TOTAL FREE ENERGY PREDICTED BY IDOCK:   -2.28 KCAL/MOL
REMARK 923 INTER-LIGAND FREE ENERGY PREDICTED BY IDOCK:   -1.82 KCAL/MOL
REMARK 924 INTRA-LIGAND FREE ENERGY PREDICTED BY IDOCK:   -0.47 KCAL/MOL
REMARK 927      BINDING AFFINITY PREDICTED BY RF-SCORE:    0.00 PKD
ROOT
HETATM    1  F   UNL     1      -8.980  14.933  68.593  1.00  0.00    -0.158 F  
HETATM    2  C   UNL     1      -8.261  13.889  68.159  1.00  0.00    -0.158 A  
HETATM    3  C   UNL     1      -8.875  12.893  67.416  1.00  0.00    -0.199 A  
HETATM    4  C   UNL     1      -8.127  11.797  66.971  1.00  0.00    -0.169 A  
HETATM    5  C   UNL     1      -6.752  11.690  67.251  1.00  0.00    -0.124 A  
HETATM    6  C   UNL     1      -6.169  12.709  68.033  1.00  0.00    -0.094 A  
HETATM    7  C   UNL     1      -6.915  13.806  68.475  1.00  0.00    -0.103 A  
ENDROOT
BRANCH   5   8
HETATM    8  C   UNL     1      -5.936  10.472  66.830  1.00  0.00    -0.063 C  
HETATM    9  C   UNL     1      -6.170   9.202  67.651  1.00  0.00    -0.058 C  
HETATM   10  C   UNL     1      -6.650   8.140  66.770  1.00  0.00    -0.057 A  
HETATM   11  O   UNL     1      -5.972   9.028  68.842  1.00  0.00    -0.043 OA 
HETATM   12  C   UNL     1      -7.008   6.843  67.094  1.00  0.00    -0.074 A  
HETATM   13  C   UNL     1      -7.443   6.013  66.055  1.00  0.00    -0.085 A  
HETATM   14  C   UNL     1      -7.509   6.489  64.731  1.00  0.00    -0.091 A  
HETATM   15  C   UNL     1      -7.129   7.798  64.424  1.00  0.00    -0.070 A  
HETATM   16  C   UNL     1      -6.700   8.600  65.466  1.00  0.00    -0.063 A  
HETATM   17  C   UNL     1      -6.229   9.980  65.410  1.00  0.00    -0.095 C  
HETATM   18  O   UNL     1      -6.076  10.574  64.356  1.00  0.00    -0.115 OA 
ENDBRANCH   5   8
TORSDOF 1
ENDMDL
MODEL      192
REMARK 921   NORMALIZED FREE ENERGY PREDICTED BY IDOCK:   -1.50 KCAL/MOL
REMARK 922        TOTAL FREE ENERGY PREDICTED BY IDOCK:   -1.93 KCAL/MOL
REMARK 923 INTER-LIGAND FREE ENERGY PREDICTED BY IDOCK:   -1.47 KCAL/MOL
REMARK 924 INTRA-LIGAND FREE ENERGY PREDICTED BY IDOCK:   -0.45 KCAL/MOL
REMARK 927      BINDING AFFINITY PREDICTED BY RF-SCORE:    0.00 PKD
ROOT
HETATM    1  F   UNL     1     -10.195  10.534  71.016  1.00  0.00     0.251 F  
HETATM    2  C   UNL     1      -9.510   9.429  70.695  1.00  0.00    -0.262 A  
HETATM    3  C   UNL     1      -8.874   8.700  71.687  1.00  0.00    -0.292 A  
HETATM    4  C   UNL     1      -8.150   7.551  71.351  1.00  0.00    -0.096 A  
HETATM    5  C   UNL     1      -8.066   7.107  70.018  1.00  0.00    -0.127 A  
HETATM    6  C   UNL     1      -8.703   7.888  69.033  1.00  0.00    -0.138 A  
HETATM    7  C   UNL     1      -9.429   9.035  69.369  1.00  0.00    -0.159 A  
ENDROOT
BRANCH   5   8
HETATM    8  C   UNL     1      -7.228   5.893  69.626  1.00  0.00    -0.070 C  
HETATM    9  C   UNL     1      -8.018   4.641  69.237  1.00  0.00    -0.070 C  
HETATM   10  C   UNL     1      -7.683   4.266  67.866  1.00  0.00    -0.079 A  
HETATM   11  O   UNL     1      -8.789   3.993  69.925  1.00  0.00    -0.074 OA 
HETATM   12  C   UNL     1      -8.179   3.219  67.109  1.00  0.00    -0.083 A  
HETATM   13  C   UNL     1      -7.691   3.075  65.805  1.00  0.00    -0.081 A  
HETATM   14  C   UNL     1      -6.730   3.967  65.292  1.00  0.00    -0.048 A  
HETATM   15  C   UNL     1      -6.231   5.008  66.079  1.00  0.00    -0.031 A  
HETATM   16  C   UNL     1      -6.726   5.131  67.364  1.00  0.00    -0.055 A  
HETATM   17  C   UNL     1      -6.356   6.105  68.386  1.00  0.00    -0.043 C  
HETATM   18  O   UNL     1      -5.453   6.909  68.224  1.00  0.00    -0.015 OA 
ENDBRANCH   5   8
TORSDOF 1
ENDMDL
MODEL      193
REMARK 921   NORMALIZED FREE ENERGY PREDICTED BY IDOCK:   -1.17 KCAL/MOL
REMARK 922        TOTAL FREE ENERGY PREDICTED BY IDOCK:   -1.58 KCAL/MOL
REMARK 923 INTER-LIGAND FREE ENERGY PREDICTED BY IDOCK:   -1.47 KCAL/MOL
REMARK 924 INTRA-LIGAND FREE ENERGY PREDICTED BY IDOCK:   -0.11 KCAL/MOL
REMARK 927      BINDING AFFINITY PREDICTED BY RF-SCORE:    0.00 PKD
ROOT
HETATM    1  F   UNL     1      -7.310   1.719  66.384  1.00  0.00    -0.051 F  
HETATM    2  C   UNL     1      -7.600   2.920  66.901  1.00  0.00    -0.074 A  
HETATM    3  C   UNL     1      -6.695   3.540  67.749  1.00  0.00    -0.042 A  
HETATM    4  C   UNL     1      -7.001   4.790  68.298  1.00  0.00    -0.057 A  
HETATM    5  C   UNL     1      -8.209   5.445  67.993  1.00  0.00    -0.099 A  
HETATM    6  C   UNL     1      -9.116   4.771  67.149  1.00  0.00    -0.124 A  
HETATM    7  C   UNL     1      -8.809   3.523  66.598  1.00  0.00    -0.139 A  
ENDROOT
BRANCH   5   8
HETATM    8  C   UNL     1      -8.586   6.778  68.633  1.00  0.00    -0.122 C  
HETATM    9  C   UNL     1      -9.990   7.294  68.309  1.00  0.00    -0.160 C  
HETATM   10  C   UNL     1     -10.747   7.441  69.550  1.00  0.00    -0.233 A  
HETATM   11  O   UNL     1     -10.451   7.589  67.219  1.00  0.00    -0.262 OA 
HETATM   12  C   UNL     1     -12.057   7.852  69.720  1.00  0.00     1.002 A  
HETATM   13  C   UNL     1     -12.554   7.906  71.027  1.00  0.00    -0.111 A  
HETATM   14  C   UNL     1     -11.741   7.554  72.122  1.00  0.00    -0.344 A  
HETATM   15  C   UNL     1     -10.417   7.155  71.929  1.00  0.00    -0.220 A  
HETATM   16  C   UNL     1      -9.946   7.111  70.629  1.00  0.00    -0.195 A  
HETATM   17  C   UNL     1      -8.610   6.757  70.163  1.00  0.00    -0.140 C  
HETATM   18  O   UNL     1      -7.690   6.532  70.932  1.00  0.00    -0.097 OA 
ENDBRANCH   5   8
TORSDOF 1
ENDMDL
MODEL      194
REMARK 921   NORMALIZED FREE ENERGY PREDICTED BY IDOCK:    5.07 KCAL/MOL
REMARK 922        TOTAL FREE ENERGY PREDICTED BY IDOCK:    5.02 KCAL/MOL
REMARK 923 INTER-LIGAND FREE ENERGY PREDICTED BY IDOCK:    5.01 KCAL/MOL
REMARK 924 INTRA-LIGAND FREE ENERGY PREDICTED BY IDOCK:    0.01 KCAL/MOL
REMARK 927      BINDING AFFINITY PREDICTED BY RF-SCORE:    0.00 PKD
ROOT
HETATM    1  F   UNL     1     -11.620  16.521  65.174  1.00  0.00    -0.011 F  
HETATM    2  C   UNL     1     -10.556  16.641  65.978  1.00  0.00    -0.233 A  
HETATM    3  C   UNL     1      -9.458  17.377  65.562  1.00  0.00     0.568 A  
HETATM    4  C   UNL     1      -8.342  17.494  66.398  1.00  0.00    -0.297 A  
HETATM    5  C   UNL     1      -8.315  16.888  67.668  1.00  0.00    -0.192 A  
HETATM    6  C   UNL     1      -9.439  16.125  68.046  1.00  0.00    -0.211 A  
HETATM    7  C   UNL     1     -10.556  16.011  67.212  1.00  0.00    -0.313 A  
ENDROOT
BRANCH   5   8
HETATM    8  C   UNL     1      -7.082  16.952  68.565  1.00  0.00    -0.198 C  
HETATM    9  C   UNL     1      -6.088  18.070  68.245  1.00  0.00    -0.178 C  
HETATM   10  C   UNL     1      -5.947  18.939  69.411  1.00  0.00    -0.267 A  
HETATM   11  O   UNL     1      -5.454  18.243  67.217  1.00  0.00    -0.135 OA 
HETATM   12  C   UNL     1      -5.175  20.078  69.554  1.00  0.00    -0.239 A  
HETATM   13  C   UNL     1      -5.218  20.739  70.786  1.00  0.00    -0.240 A  
HETATM   14  C   UNL     1      -6.019  20.253  71.837  1.00  0.00    -0.202 A  
HETATM   15  C   UNL     1      -6.779  19.093  71.677  1.00  0.00     1.902 A  
HETATM   16  C   UNL     1      -6.721  18.455  70.451  1.00  0.00     0.901 A  
HETATM   17  C   UNL     1      -7.390  17.226  70.039  1.00  0.00     1.226 C  
HETATM   18  O   UNL     1      -8.045  16.548  70.815  1.00  0.00     3.132 OA 
ENDBRANCH   5   8
TORSDOF 1
ENDMDL
MODEL      195
REMARK 921   NORMALIZED FREE ENERGY PREDICTED BY IDOCK:    6.77 KCAL/MOL
REMARK 922        TOTAL FREE ENERGY PREDICTED BY IDOCK:    6.82 KCAL/MOL
REMARK 923 INTER-LIGAND FREE ENERGY PREDICTED BY IDOCK:    7.26 KCAL/MOL
REMARK 924 INTRA-LIGAND FREE ENERGY PREDICTED BY IDOCK:   -0.44 KCAL/MOL
REMARK 927      BINDING AFFINITY PREDICTED BY RF-SCORE:    0.00 PKD
ROOT
HETATM    1  F   UNL     1      -9.336  15.830  64.970  1.00  0.00    -0.024 F  
HETATM    2  C   UNL     1      -9.964  15.977  66.144  1.00  0.00    -0.325 A  
HETATM    3  C   UNL     1      -9.820  15.010  67.127  1.00  0.00    -0.233 A  
HETATM    4  C   UNL     1     -10.484  15.158  68.350  1.00  0.00    -0.233 A  
HETATM    5  C   UNL     1     -11.288  16.283  68.612  1.00  0.00    -0.333 A  
HETATM    6  C   UNL     1     -11.432  17.232  67.579  1.00  0.00     0.640 A  
HETATM    7  C   UNL     1     -10.766  17.086  66.358  1.00  0.00    -0.075 A  
ENDROOT
BRANCH   5   8
HETATM    8  C   UNL     1     -12.069  16.429  69.915  1.00  0.00     0.491 C  
HETATM    9  C   UNL     1     -13.410  15.693  69.968  1.00  0.00     0.746 C  
HETATM   10  C   UNL     1     -13.388  14.731  71.068  1.00  0.00    -0.427 A  
HETATM   11  O   UNL     1     -14.390  15.861  69.262  1.00  0.00     3.631 OA 
HETATM   12  C   UNL     1     -14.373  13.843  71.460  1.00  0.00    -0.004 A  
HETATM   13  C   UNL     1     -14.101  13.017  72.556  1.00  0.00    -0.206 A  
HETATM   14  C   UNL     1     -12.867  13.096  73.230  1.00  0.00     2.042 A  
HETATM   15  C   UNL     1     -11.891  14.010  72.826  1.00  0.00     0.958 A  
HETATM   16  C   UNL     1     -12.182  14.818  71.741  1.00  0.00    -0.416 A  
HETATM   17  C   UNL     1     -11.356  15.860  71.143  1.00  0.00    -0.382 C  
HETATM   18  O   UNL     1     -10.288  16.204  71.626  1.00  0.00     1.415 OA 
ENDBRANCH   5   8
TORSDOF 1
ENDMDL
MODEL      196
REMARK 921   NORMALIZED FREE ENERGY PREDICTED BY IDOCK:   25.99 KCAL/MOL
REMARK 922        TOTAL FREE ENERGY PREDICTED BY IDOCK:   27.17 KCAL/MOL
REMARK 923 INTER-LIGAND FREE ENERGY PREDICTED BY IDOCK:   27.54 KCAL/MOL
REMARK 924 INTRA-LIGAND FREE ENERGY PREDICTED BY IDOCK:   -0.36 KCAL/MOL
REMARK 927      BINDING AFFINITY PREDICTED BY RF-SCORE:    0.00 PKD
ROOT
HETATM    1  F   UNL     1     -10.209  19.883  74.019  1.00  0.00     2.094 F  
HETATM    2  C   UNL     1      -9.948  19.266  72.859  1.00  0.00     4.091 A  
HETATM    3  C   UNL     1      -9.865  17.883  72.820  1.00  0.00     8.906 A  
HETATM    4  C   UNL     1      -9.582  17.238  71.611  1.00  0.00     7.696 A  
HETATM    5  C   UNL     1      -9.394  17.967  70.422  1.00  0.00     3.024 A  
HETATM    6  C   UNL     1      -9.459  19.373  70.506  1.00  0.00     1.527 A  
HETATM    7  C   UNL     1      -9.745  20.017  71.714  1.00  0.00     2.694 A  
ENDROOT
BRANCH   5   8
HETATM    8  C   UNL     1      -9.021  17.284  69.109  1.00  0.00     0.024 C  
HETATM    9  C   UNL     1      -8.416  15.885  69.239  1.00  0.00    -0.242 C  
HETATM   10  C   UNL     1      -9.259  14.927  68.526  1.00  0.00    -0.192 A  
HETATM   11  O   UNL     1      -7.382  15.560  69.799  1.00  0.00    -0.185 OA 
HETATM   12  C   UNL     1      -9.102  13.558  68.405  1.00  0.00    -0.155 A  
HETATM   13  C   UNL     1     -10.060  12.859  67.663  1.00  0.00    -0.221 A  
HETATM   14  C   UNL     1     -11.140  13.534  67.063  1.00  0.00    -0.310 A  
HETATM   15  C   UNL     1     -11.272  14.920  67.186  1.00  0.00    -0.345 A  
HETATM   16  C   UNL     1     -10.313  15.590  67.922  1.00  0.00    -0.250 A  
HETATM   17  C   UNL     1     -10.207  17.023  68.177  1.00  0.00    -0.322 C  
HETATM   18  O   UNL     1     -10.958  17.834  67.661  1.00  0.00    -0.301 OA 
ENDBRANCH   5   8
TORSDOF 1
ENDMDL
MODEL      197
REMARK 921   NORMALIZED FREE ENERGY PREDICTED BY IDOCK:   26.03 KCAL/MOL
REMARK 922        TOTAL FREE ENERGY PREDICTED BY IDOCK:   27.21 KCAL/MOL
REMARK 923 INTER-LIGAND FREE ENERGY PREDICTED BY IDOCK:   27.66 KCAL/MOL
REMARK 924 INTRA-LIGAND FREE ENERGY PREDICTED BY IDOCK:   -0.45 KCAL/MOL
REMARK 927      BINDING AFFINITY PREDICTED BY RF-SCORE:    0.00 PKD
ROOT
HETATM    1  F   UNL     1      -8.463  15.941  63.267  1.00  0.00    13.028 F  
HETATM    2  C   UNL     1      -8.444  16.141  64.592  1.00  0.00     6.534 A  
HETATM    3  C   UNL     1      -8.818  15.117  65.447  1.00  0.00     1.428 A  
HETATM    4  C   UNL     1      -8.809  15.328  66.830  1.00  0.00    -0.281 A  
HETATM    5  C   UNL     1      -8.410  16.563  67.377  1.00  0.00    -0.188 A  
HETATM    6  C   UNL     1      -8.063  17.589  66.474  1.00  0.00    -0.305 A  
HETATM    7  C   UNL     1      -8.069  17.377  65.092  1.00  0.00     2.662 A  
ENDROOT
BRANCH   5   8
HETATM    8  C   UNL     1      -8.455  16.831  68.878  1.00  0.00    -0.217 C  
HETATM    9  C   UNL     1      -7.100  16.841  69.590  1.00  0.00     0.105 C  
HETATM   10  C   UNL     1      -6.893  18.147  70.212  1.00  0.00     1.007 A  
HETATM   11  O   UNL     1      -6.295  15.931  69.691  1.00  0.00    -0.168 OA 
HETATM   12  C   UNL     1      -5.801  18.599  70.931  1.00  0.00     0.102 A  
HETATM   13  C   UNL     1      -5.848  19.907  71.426  1.00  0.00    -0.321 A  
HETATM   14  C   UNL     1      -6.971  20.725  71.196  1.00  0.00     1.688 A  
HETATM   15  C   UNL     1      -8.069  20.243  70.479  1.00  0.00     1.542 A  
HETATM   16  C   UNL     1      -8.002  18.947  70.001  1.00  0.00     1.167 A  
HETATM   17  C   UNL     1      -9.013  18.205  69.255  1.00  0.00     0.270 C  
HETATM   18  O   UNL     1     -10.125  18.657  69.038  1.00  0.00    -0.394 OA 
ENDBRANCH   5   8
TORSDOF 1
ENDMDL
MODEL      198
REMARK 921   NORMALIZED FREE ENERGY PREDICTED BY IDOCK:   28.80 KCAL/MOL
REMARK 922        TOTAL FREE ENERGY PREDICTED BY IDOCK:   30.15 KCAL/MOL
REMARK 923 INTER-LIGAND FREE ENERGY PREDICTED BY IDOCK:   30.63 KCAL/MOL
REMARK 924 INTRA-LIGAND FREE ENERGY PREDICTED BY IDOCK:   -0.48 KCAL/MOL
REMARK 927      BINDING AFFINITY PREDICTED BY RF-SCORE:    0.00 PKD
ROOT
HETATM    1  F   UNL     1     -10.591  15.309  74.187  1.00  0.00     1.947 F  
HETATM    2  C   UNL     1     -10.887  14.371  73.278  1.00  0.00     3.267 A  
HETATM    3  C   UNL     1     -11.150  14.741  71.968  1.00  0.00     0.532 A  
HETATM    4  C   UNL     1     -11.470  13.762  71.021  1.00  0.00     0.619 A  
HETATM    5  C   UNL     1     -11.516  12.399  71.367  1.00  0.00     2.532 A  
HETATM    6  C   UNL     1     -11.269  12.064  72.714  1.00  0.00    10.361 A  
HETATM    7  C   UNL     1     -10.946  13.041  73.660  1.00  0.00    11.703 A  
ENDROOT
BRANCH   5   8
HETATM    8  C   UNL     1     -11.925  11.326  70.362  1.00  0.00    -0.471 C  
HETATM    9  C   UNL     1     -10.912  10.199  70.148  1.00  0.00    -0.316 C  
HETATM   10  C   UNL     1     -11.533   8.922  70.495  1.00  0.00    -0.231 A  
HETATM   11  O   UNL     1      -9.772  10.280  69.724  1.00  0.00    -0.220 OA 
HETATM   12  C   UNL     1     -10.976   7.655  70.474  1.00  0.00    -0.259 A  
HETATM   13  C   UNL     1     -11.789   6.584  70.859  1.00  0.00    -0.391 A  
HETATM   14  C   UNL     1     -13.125   6.797  71.250  1.00  0.00    -0.170 A  
HETATM   15  C   UNL     1     -13.672   8.083  71.250  1.00  0.00    -0.218 A  
HETATM   16  C   UNL     1     -12.850   9.127  70.864  1.00  0.00    -0.042 A  
HETATM   17  C   UNL     1     -13.181  10.543  70.753  1.00  0.00    -0.149 C  
HETATM   18  O   UNL     1     -14.314  10.964  70.921  1.00  0.00     2.133 OA 
ENDBRANCH   5   8
TORSDOF 1
ENDMDL
MODEL      199
REMARK 921   NORMALIZED FREE ENERGY PREDICTED BY IDOCK:   57.33 KCAL/MOL
REMARK 922        TOTAL FREE ENERGY PREDICTED BY IDOCK:   60.35 KCAL/MOL
REMARK 923 INTER-LIGAND FREE ENERGY PREDICTED BY IDOCK:   60.39 KCAL/MOL
REMARK 924 INTRA-LIGAND FREE ENERGY PREDICTED BY IDOCK:   -0.05 KCAL/MOL
REMARK 927      BINDING AFFINITY PREDICTED BY RF-SCORE:    0.00 PKD
ROOT
HETATM    1  F   UNL     1     -11.347  17.031  65.761  1.00  0.00     0.088 F  
HETATM    2  C   UNL     1     -10.442  17.174  66.739  1.00  0.00    -0.263 A  
HETATM    3  C   UNL     1      -9.308  17.939  66.520  1.00  0.00    -0.290 A  
HETATM    4  C   UNL     1      -8.358  18.080  67.538  1.00  0.00    -0.233 A  
HETATM    5  C   UNL     1      -8.538  17.470  68.794  1.00  0.00    -0.209 A  
HETATM    6  C   UNL     1      -9.691  16.677  68.969  1.00  0.00    -0.260 A  
HETATM    7  C   UNL     1     -10.642  16.539  67.953  1.00  0.00    -0.329 A  
ENDROOT
BRANCH   5   8
HETATM    8  C   UNL     1      -7.482  17.560  69.892  1.00  0.00     1.079 C  
HETATM    9  C   UNL     1      -7.087  18.977  70.314  1.00  0.00     0.732 C  
HETATM   10  C   UNL     1      -7.373  19.153  71.736  1.00  0.00     3.832 A  
HETATM   11  O   UNL     1      -6.576  19.851  69.634  1.00  0.00    -0.345 OA 
HETATM   12  C   UNL     1      -7.195  20.279  72.521  1.00  0.00     2.209 A  
HETATM   13  C   UNL     1      -7.554  20.190  73.871  1.00  0.00     9.247 A  
HETATM   14  C   UNL     1      -8.075  18.993  74.401  1.00  0.00     8.265 A  
HETATM   15  C   UNL     1      -8.232  17.865  73.593  1.00  0.00    13.585 A  
HETATM   16  C   UNL     1      -7.870  17.975  72.263  1.00  0.00    12.003 A  
HETATM   17  C   UNL     1      -7.910  16.948  71.227  1.00  0.00     7.062 C  
HETATM   18  O   UNL     1      -8.209  15.790  71.469  1.00  0.00     4.219 OA 
ENDBRANCH   5   8
TORSDOF 1
ENDMDL
MODEL      200
REMARK 921   NORMALIZED FREE ENERGY PREDICTED BY IDOCK:   64.92 KCAL/MOL
REMARK 922        TOTAL FREE ENERGY PREDICTED BY IDOCK:   68.37 KCAL/MOL
REMARK 923 INTER-LIGAND FREE ENERGY PREDICTED BY IDOCK:   68.85 KCAL/MOL
REMARK 924 INTRA-LIGAND FREE ENERGY PREDICTED BY IDOCK:   -0.48 KCAL/MOL
REMARK 927      BINDING AFFINITY PREDICTED BY RF-SCORE:    0.00 PKD
ROOT
HETATM    1  F   UNL     1     -11.347  17.031  65.761  1.00  0.00     0.088 F  
HETATM    2  C   UNL     1     -10.456  17.176  66.751  1.00  0.00    -0.263 A  
HETATM    3  C   UNL     1      -9.331  17.962  66.554  1.00  0.00    -0.290 A  
HETATM    4  C   UNL     1      -8.395  18.105  67.584  1.00  0.00    -0.244 A  
HETATM    5  C   UNL     1      -8.579  17.477  68.830  1.00  0.00    -0.133 A  
HETATM    6  C   UNL     1      -9.721  16.664  68.983  1.00  0.00    -0.260 A  
HETATM    7  C   UNL     1     -10.658  16.523  67.955  1.00  0.00    -0.328 A  
ENDROOT
BRANCH   5   8
HETATM    8  C   UNL     1      -7.537  17.570  69.941  1.00  0.00     1.195 C  
HETATM    9  C   UNL     1      -8.062  18.032  71.303  1.00  0.00     8.035 C  
HETATM   10  C   UNL     1      -7.804  16.992  72.296  1.00  0.00    13.391 A  
HETATM   11  O   UNL     1      -8.585  19.096  71.588  1.00  0.00     4.984 OA 
HETATM   12  C   UNL     1      -8.131  16.979  73.640  1.00  0.00    17.712 A  
HETATM   13  C   UNL     1      -7.771  15.849  74.384  1.00  0.00    13.384 A  
HETATM   14  C   UNL     1      -7.098  14.771  73.776  1.00  0.00     4.514 A  
HETATM   15  C   UNL     1      -6.765  14.811  72.420  1.00  0.00     1.998 A  
HETATM   16  C   UNL     1      -7.129  15.938  71.706  1.00  0.00     4.515 A  
HETATM   17  C   UNL     1      -6.878  16.236  70.300  1.00  0.00     0.692 C  
HETATM   18  O   UNL     1      -6.204  15.509  69.589  1.00  0.00    -0.139 OA 
ENDBRANCH   5   8
TORSDOF 1
ENDMDL
