MODEL        1
REMARK 921   NORMALIZED FREE ENERGY PREDICTED BY IDOCK:   -6.83 KCAL/MOL
REMARK 922        TOTAL FREE ENERGY PREDICTED BY IDOCK:   -8.32 KCAL/MOL
REMARK 923 INTER-LIGAND FREE ENERGY PREDICTED BY IDOCK:   -8.03 KCAL/MOL
REMARK 924 INTRA-LIGAND FREE ENERGY PREDICTED BY IDOCK:   -0.29 KCAL/MOL
REMARK 927      BINDING AFFINITY PREDICTED BY RF-SCORE:    0.00 PKD
ROOT
HETATM    1  C   UNL     1     -13.080  10.912  71.686  1.00  0.00    -0.538 C  
HETATM    2  C   UNL     1     -12.446  10.633  70.335  1.00  0.00    -0.338 C  
ENDROOT
BRANCH   2   3
HETATM    3  O   UNL     1     -11.585  11.730  70.010  1.00  0.00    -0.293 OA 
BRANCH   3   4
HETATM    4  C   UNL     1     -11.836  12.336  68.815  1.00  0.00    -0.306 C  
HETATM    5  O   UNL     1     -12.231  11.751  67.811  1.00  0.00    -0.536 OA 
BRANCH   4   6
HETATM    6  C   UNL     1     -11.679  13.789  68.893  1.00  0.00    -0.336 A  
HETATM    7  C   UNL     1     -10.913  14.590  68.059  1.00  0.00    -0.260 A  
HETATM    8  C   UNL     1      -9.943  14.271  66.985  1.00  0.00    -0.258 C  
HETATM    9  N   UNL     1     -10.488  14.751  65.733  1.00  0.00    -0.314 N  
HETATM   10  C   UNL     1     -10.444  13.867  64.581  1.00  0.00    -0.396 C  
HETATM   11  C   UNL     1     -10.749  16.090  65.478  1.00  0.00    -0.361 C  
HETATM   12  C   UNL     1     -10.356  17.111  66.484  1.00  0.00    -0.306 A  
HETATM   13  O   UNL     1     -11.221  16.485  64.413  1.00  0.00    -0.919 OA 
HETATM   14  C   UNL     1     -10.615  17.046  67.866  1.00  0.00    -0.365 A  
HETATM   15  C   UNL     1     -10.275  18.122  68.700  1.00  0.00    -0.382 A  
HETATM   16  N   UNL     1     -11.170  15.883  68.446  1.00  0.00    -0.353 NA 
HETATM   17  C   UNL     1     -11.999  15.815  69.538  1.00  0.00    -0.310 A  
HETATM   18  C   UNL     1      -9.618  19.232  68.162  1.00  0.00    -0.423 A  
HETATM   19  C   UNL     1      -9.353  19.286  66.799  1.00  0.00    -0.329 A  
HETATM   20  N   UNL     1     -12.333  14.580  69.825  1.00  0.00    -0.302 NA 
HETATM   21  C   UNL     1      -9.737  18.253  65.957  1.00  0.00    -0.114 A  
HETATM   22  F   UNL     1      -8.710  20.343  66.294  1.00  0.00    -0.293 F  
ENDBRANCH   4   6
ENDBRANCH   3   4
ENDBRANCH   2   3
TORSDOF 3
ENDMDL
MODEL        2
REMARK 921   NORMALIZED FREE ENERGY PREDICTED BY IDOCK:   -6.76 KCAL/MOL
REMARK 922        TOTAL FREE ENERGY PREDICTED BY IDOCK:   -8.23 KCAL/MOL
REMARK 923 INTER-LIGAND FREE ENERGY PREDICTED BY IDOCK:   -8.27 KCAL/MOL
REMARK 924 INTRA-LIGAND FREE ENERGY PREDICTED BY IDOCK:    0.04 KCAL/MOL
REMARK 927      BINDING AFFINITY PREDICTED BY RF-SCORE:    0.00 PKD
ROOT
HETATM    1  C   UNL     1      -9.725  20.199  66.775  1.00  0.00    -0.577 C  
HETATM    2  C   UNL     1     -10.474  19.130  66.001  1.00  0.00    -0.467 C  
ENDROOT
BRANCH   2   3
HETATM    3  O   UNL     1      -9.713  17.919  66.059  1.00  0.00    -0.505 OA 
BRANCH   3   4
HETATM    4  C   UNL     1     -10.445  16.769  66.074  1.00  0.00    -0.293 C  
HETATM    5  O   UNL     1     -10.743  16.124  65.074  1.00  0.00    -0.558 OA 
BRANCH   4   6
HETATM    6  C   UNL     1     -10.750  16.332  67.437  1.00  0.00    -0.287 A  
HETATM    7  C   UNL     1     -11.340  15.135  67.816  1.00  0.00    -0.328 A  
HETATM    8  C   UNL     1     -11.959  14.038  67.037  1.00  0.00    -0.438 C  
HETATM    9  N   UNL     1     -11.150  12.850  67.214  1.00  0.00    -0.265 N  
HETATM   10  C   UNL     1     -10.808  12.070  66.037  1.00  0.00    -0.289 C  
HETATM   11  C   UNL     1     -10.956  12.237  68.443  1.00  0.00    -0.236 C  
HETATM   12  C   UNL     1     -11.692  12.742  69.632  1.00  0.00    -0.372 A  
HETATM   13  O   UNL     1     -10.258  11.234  68.584  1.00  0.00    -0.191 OA 
HETATM   14  C   UNL     1     -11.802  14.091  70.019  1.00  0.00    -0.320 A  
HETATM   15  C   UNL     1     -12.447  14.431  71.218  1.00  0.00    -0.423 A  
HETATM   16  N   UNL     1     -11.314  15.126  69.190  1.00  0.00    -0.279 NA 
HETATM   17  C   UNL     1     -10.799  16.334  69.587  1.00  0.00    -0.345 A  
HETATM   18  C   UNL     1     -13.038  13.430  71.993  1.00  0.00    -0.473 A  
HETATM   19  C   UNL     1     -12.938  12.101  71.600  1.00  0.00    -0.321 A  
HETATM   20  N   UNL     1     -10.441  17.076  68.565  1.00  0.00    -0.351 NA 
HETATM   21  C   UNL     1     -12.252  11.749  70.446  1.00  0.00    -0.416 A  
HETATM   22  F   UNL     1     -13.520  11.150  72.337  1.00  0.00    -0.538 F  
ENDBRANCH   4   6
ENDBRANCH   3   4
ENDBRANCH   2   3
TORSDOF 3
ENDMDL
MODEL        3
REMARK 921   NORMALIZED FREE ENERGY PREDICTED BY IDOCK:   -6.71 KCAL/MOL
REMARK 922        TOTAL FREE ENERGY PREDICTED BY IDOCK:   -8.17 KCAL/MOL
REMARK 923 INTER-LIGAND FREE ENERGY PREDICTED BY IDOCK:   -7.82 KCAL/MOL
REMARK 924 INTRA-LIGAND FREE ENERGY PREDICTED BY IDOCK:   -0.35 KCAL/MOL
REMARK 927      BINDING AFFINITY PREDICTED BY RF-SCORE:    0.00 PKD
ROOT
HETATM    1  C   UNL     1     -11.054   6.320  67.887  1.00  0.00    -0.360 C  
HETATM    2  C   UNL     1     -10.795   5.930  69.332  1.00  0.00    -0.352 C  
ENDROOT
BRANCH   2   3
HETATM    3  O   UNL     1     -11.899   6.386  70.121  1.00  0.00    -0.409 OA 
BRANCH   3   4
HETATM    4  C   UNL     1     -11.570   6.926  71.329  1.00  0.00    -0.310 C  
HETATM    5  O   UNL     1     -10.726   6.462  72.089  1.00  0.00    -0.215 OA 
BRANCH   4   6
HETATM    6  C   UNL     1     -12.269   8.189  71.573  1.00  0.00    -0.301 A  
HETATM    7  C   UNL     1     -11.843   9.460  71.216  1.00  0.00    -0.360 A  
HETATM    8  C   UNL     1     -10.570   9.963  70.651  1.00  0.00    -0.271 C  
HETATM    9  N   UNL     1     -10.840  10.476  69.325  1.00  0.00    -0.226 N  
HETATM   10  C   UNL     1      -9.943  10.098  68.246  1.00  0.00    -0.148 C  
HETATM   11  C   UNL     1     -11.689  11.546  69.080  1.00  0.00    -0.335 C  
HETATM   12  C   UNL     1     -12.276  12.285  70.228  1.00  0.00    -0.342 A  
HETATM   13  O   UNL     1     -11.918  11.967  67.947  1.00  0.00    -0.526 OA 
HETATM   14  C   UNL     1     -12.894  11.704  71.351  1.00  0.00    -0.356 A  
HETATM   15  C   UNL     1     -13.495  12.515  72.326  1.00  0.00    -0.490 A  
HETATM   16  N   UNL     1     -12.876  10.304  71.546  1.00  0.00    -0.414 NA 
HETATM   17  C   UNL     1     -13.836   9.540  72.160  1.00  0.00    -0.303 A  
HETATM   18  C   UNL     1     -13.420  13.906  72.209  1.00  0.00    -0.623 A  
HETATM   19  C   UNL     1     -12.798  14.475  71.105  1.00  0.00    -0.338 A  
HETATM   20  N   UNL     1     -13.512   8.269  72.183  1.00  0.00    -0.299 NA 
HETATM   21  C   UNL     1     -12.251  13.681  70.107  1.00  0.00    -0.413 A  
HETATM   22  F   UNL     1     -12.715  15.806  71.008  1.00  0.00    -0.431 F  
ENDBRANCH   4   6
ENDBRANCH   3   4
ENDBRANCH   2   3
TORSDOF 3
ENDMDL
MODEL        4
REMARK 921   NORMALIZED FREE ENERGY PREDICTED BY IDOCK:   -6.70 KCAL/MOL
REMARK 922        TOTAL FREE ENERGY PREDICTED BY IDOCK:   -8.16 KCAL/MOL
REMARK 923 INTER-LIGAND FREE ENERGY PREDICTED BY IDOCK:   -7.81 KCAL/MOL
REMARK 924 INTRA-LIGAND FREE ENERGY PREDICTED BY IDOCK:   -0.35 KCAL/MOL
REMARK 927      BINDING AFFINITY PREDICTED BY RF-SCORE:    0.00 PKD
ROOT
HETATM    1  C   UNL     1      -7.702  19.295  67.924  1.00  0.00    -0.318 C  
HETATM    2  C   UNL     1      -8.323  19.991  66.726  1.00  0.00    -0.323 C  
ENDROOT
BRANCH   2   3
HETATM    3  O   UNL     1      -8.919  18.993  65.890  1.00  0.00    -0.448 OA 
BRANCH   3   4
HETATM    4  C   UNL     1     -10.222  18.702  66.166  1.00  0.00    -0.416 C  
HETATM    5  O   UNL     1     -11.035  19.509  66.604  1.00  0.00    -0.418 OA 
BRANCH   4   6
HETATM    6  C   UNL     1     -10.570  17.333  65.782  1.00  0.00    -0.194 A  
HETATM    7  C   UNL     1     -10.440  16.191  66.559  1.00  0.00    -0.297 A  
HETATM    8  C   UNL     1      -9.812  15.949  67.877  1.00  0.00    -0.218 C  
HETATM    9  N   UNL     1     -10.856  15.578  68.809  1.00  0.00    -0.244 N  
HETATM   10  C   UNL     1     -10.869  16.214  70.116  1.00  0.00    -0.328 C  
HETATM   11  C   UNL     1     -11.638  14.441  68.665  1.00  0.00    -0.314 C  
HETATM   12  C   UNL     1     -11.334  13.484  67.569  1.00  0.00    -0.335 A  
HETATM   13  O   UNL     1     -12.529  14.141  69.459  1.00  0.00    -0.298 OA 
HETATM   14  C   UNL     1     -11.103  13.823  66.222  1.00  0.00    -0.302 A  
HETATM   15  C   UNL     1     -10.920  12.817  65.262  1.00  0.00    -0.314 A  
HETATM   16  N   UNL     1     -11.000  15.175  65.822  1.00  0.00    -0.344 NA 
HETATM   17  C   UNL     1     -11.363  15.712  64.612  1.00  0.00    -0.349 A  
HETATM   18  C   UNL     1     -10.902  11.477  65.659  1.00  0.00    -0.310 A  
HETATM   19  C   UNL     1     -11.117  11.148  66.992  1.00  0.00    -0.273 A  
HETATM   20  N   UNL     1     -11.131  17.002  64.558  1.00  0.00    -1.062 NA 
HETATM   21  C   UNL     1     -11.357  12.133  67.939  1.00  0.00    -0.361 A  
HETATM   22  F   UNL     1     -11.082   9.866  67.369  1.00  0.00    -0.343 F  
ENDBRANCH   4   6
ENDBRANCH   3   4
ENDBRANCH   2   3
TORSDOF 3
ENDMDL
MODEL        5
REMARK 921   NORMALIZED FREE ENERGY PREDICTED BY IDOCK:   -6.68 KCAL/MOL
REMARK 922        TOTAL FREE ENERGY PREDICTED BY IDOCK:   -8.14 KCAL/MOL
REMARK 923 INTER-LIGAND FREE ENERGY PREDICTED BY IDOCK:   -8.18 KCAL/MOL
REMARK 924 INTRA-LIGAND FREE ENERGY PREDICTED BY IDOCK:    0.04 KCAL/MOL
REMARK 927      BINDING AFFINITY PREDICTED BY RF-SCORE:    0.00 PKD
ROOT
HETATM    1  C   UNL     1      -9.148  18.853  66.758  1.00  0.00    -0.323 C  
HETATM    2  C   UNL     1     -10.401  18.222  66.179  1.00  0.00    -0.398 C  
ENDROOT
BRANCH   2   3
HETATM    3  O   UNL     1     -10.058  16.925  65.680  1.00  0.00    -0.546 OA 
BRANCH   3   4
HETATM    4  C   UNL     1     -11.021  16.313  64.933  1.00  0.00    -0.307 C  
HETATM    5  O   UNL     1     -11.564  16.816  63.955  1.00  0.00    -1.195 OA 
BRANCH   4   6
HETATM    6  C   UNL     1     -11.264  14.938  65.372  1.00  0.00    -0.359 A  
HETATM    7  C   UNL     1     -11.021  14.409  66.631  1.00  0.00    -0.318 A  
HETATM    8  C   UNL     1     -10.343  14.958  67.828  1.00  0.00    -0.244 C  
HETATM    9  N   UNL     1     -11.330  15.094  68.879  1.00  0.00    -0.283 N  
HETATM   10  C   UNL     1     -11.363  16.335  69.633  1.00  0.00    -0.266 C  
HETATM   11  C   UNL     1     -12.018  14.019  69.422  1.00  0.00    -0.343 C  
HETATM   12  C   UNL     1     -11.663  12.639  68.998  1.00  0.00    -0.367 A  
HETATM   13  O   UNL     1     -12.862  14.148  70.308  1.00  0.00    -0.297 OA 
HETATM   14  C   UNL     1     -11.493  12.206  67.669  1.00  0.00    -0.331 A  
HETATM   15  C   UNL     1     -11.251  10.851  67.394  1.00  0.00    -0.345 A  
HETATM   16  N   UNL     1     -11.512  13.127  66.597  1.00  0.00    -0.331 NA 
HETATM   17  C   UNL     1     -11.948  12.900  65.316  1.00  0.00    -0.419 A  
HETATM   18  C   UNL     1     -11.112   9.946  68.449  1.00  0.00    -0.193 A  
HETATM   19  C   UNL     1     -11.267  10.381  69.759  1.00  0.00    -0.293 A  
HETATM   20  N   UNL     1     -11.825  13.964  64.559  1.00  0.00    -0.406 NA 
HETATM   21  C   UNL     1     -11.564  11.707  70.039  1.00  0.00    -0.338 A  
HETATM   22  F   UNL     1     -11.117   9.513  70.765  1.00  0.00    -0.279 F  
ENDBRANCH   4   6
ENDBRANCH   3   4
ENDBRANCH   2   3
TORSDOF 3
ENDMDL
MODEL        6
REMARK 921   NORMALIZED FREE ENERGY PREDICTED BY IDOCK:   -6.61 KCAL/MOL
REMARK 922        TOTAL FREE ENERGY PREDICTED BY IDOCK:   -8.06 KCAL/MOL
REMARK 923 INTER-LIGAND FREE ENERGY PREDICTED BY IDOCK:   -7.68 KCAL/MOL
REMARK 924 INTRA-LIGAND FREE ENERGY PREDICTED BY IDOCK:   -0.37 KCAL/MOL
REMARK 927      BINDING AFFINITY PREDICTED BY RF-SCORE:    0.00 PKD
ROOT
HETATM    1  C   UNL     1     -10.077   6.647  74.256  1.00  0.00    -0.378 C  
HETATM    2  C   UNL     1      -9.944   6.571  72.745  1.00  0.00    -0.172 C  
ENDROOT
BRANCH   2   3
HETATM    3  O   UNL     1     -11.183   6.093  72.212  1.00  0.00    -0.259 OA 
BRANCH   3   4
HETATM    4  C   UNL     1     -11.613   6.720  71.080  1.00  0.00    -0.339 C  
HETATM    5  O   UNL     1     -11.549   6.238  69.954  1.00  0.00    -0.435 OA 
BRANCH   4   6
HETATM    6  C   UNL     1     -12.256   8.001  71.374  1.00  0.00    -0.309 A  
HETATM    7  C   UNL     1     -11.806   9.263  71.011  1.00  0.00    -0.307 A  
HETATM    8  C   UNL     1     -10.547   9.731  70.389  1.00  0.00    -0.304 C  
HETATM    9  N   UNL     1     -10.865  10.271  69.085  1.00  0.00    -0.220 N  
HETATM   10  C   UNL     1     -10.037   9.879  67.957  1.00  0.00    -0.171 C  
HETATM   11  C   UNL     1     -11.689  11.371  68.896  1.00  0.00    -0.343 C  
HETATM   12  C   UNL     1     -12.193  12.114  70.081  1.00  0.00    -0.308 A  
HETATM   13  O   UNL     1     -11.961  11.816  67.781  1.00  0.00    -0.586 OA 
HETATM   14  C   UNL     1     -12.773  11.538  71.227  1.00  0.00    -0.364 A  
HETATM   15  C   UNL     1     -13.297  12.355  72.240  1.00  0.00    -0.427 A  
HETATM   16  N   UNL     1     -12.793  10.136  71.403  1.00  0.00    -0.392 NA 
HETATM   17  C   UNL     1     -13.746   9.395  72.055  1.00  0.00    -0.395 A  
HETATM   18  C   UNL     1     -13.181  13.744  72.137  1.00  0.00    -0.538 A  
HETATM   19  C   UNL     1     -12.596  14.307  71.010  1.00  0.00    -0.358 A  
HETATM   20  N   UNL     1     -13.463   8.114  72.047  1.00  0.00    -0.306 NA 
HETATM   21  C   UNL     1     -12.127  13.510  69.976  1.00  0.00    -0.411 A  
HETATM   22  F   UNL     1     -12.474  15.636  70.925  1.00  0.00    -0.359 F  
ENDBRANCH   4   6
ENDBRANCH   3   4
ENDBRANCH   2   3
TORSDOF 3
ENDMDL
MODEL        7
REMARK 921   NORMALIZED FREE ENERGY PREDICTED BY IDOCK:   -6.52 KCAL/MOL
REMARK 922        TOTAL FREE ENERGY PREDICTED BY IDOCK:   -7.95 KCAL/MOL
REMARK 923 INTER-LIGAND FREE ENERGY PREDICTED BY IDOCK:   -7.89 KCAL/MOL
REMARK 924 INTRA-LIGAND FREE ENERGY PREDICTED BY IDOCK:   -0.07 KCAL/MOL
REMARK 927      BINDING AFFINITY PREDICTED BY RF-SCORE:    0.00 PKD
ROOT
HETATM    1  C   UNL     1      -9.521  19.225  66.372  1.00  0.00    -0.411 C  
HETATM    2  C   UNL     1     -10.752  18.921  67.208  1.00  0.00    -0.449 C  
ENDROOT
BRANCH   2   3
HETATM    3  O   UNL     1     -10.904  17.500  67.279  1.00  0.00    -0.269 OA 
BRANCH   3   4
HETATM    4  C   UNL     1     -10.759  16.958  68.521  1.00  0.00    -0.359 C  
HETATM    5  O   UNL     1     -10.419  17.588  69.517  1.00  0.00    -0.217 OA 
BRANCH   4   6
HETATM    6  C   UNL     1     -11.157  15.549  68.554  1.00  0.00    -0.307 A  
HETATM    7  C   UNL     1     -11.353  14.765  69.681  1.00  0.00    -0.283 A  
HETATM    8  C   UNL     1     -11.101  15.006  71.120  1.00  0.00    -0.152 C  
HETATM    9  N   UNL     1     -12.377  15.018  71.803  1.00  0.00    -0.324 N  
HETATM   10  C   UNL     1     -12.638  16.085  72.755  1.00  0.00    -0.472 C  
HETATM   11  C   UNL     1     -13.224  13.920  71.854  1.00  0.00    -0.397 C  
HETATM   12  C   UNL     1     -12.772  12.626  71.281  1.00  0.00    -0.354 A  
HETATM   13  O   UNL     1     -14.311  13.945  72.430  1.00  0.00    -0.647 OA 
HETATM   14  C   UNL     1     -12.180  12.449  70.016  1.00  0.00    -0.194 A  
HETATM   15  C   UNL     1     -11.882  11.159  69.549  1.00  0.00    -0.423 A  
HETATM   16  N   UNL     1     -11.827  13.561  69.218  1.00  0.00    -0.323 NA 
HETATM   17  C   UNL     1     -11.818  13.629  67.848  1.00  0.00    -0.366 A  
HETATM   18  C   UNL     1     -12.115  10.055  70.373  1.00  0.00    -0.284 A  
HETATM   19  C   UNL     1     -12.688  10.236  71.626  1.00  0.00    -0.456 A  
HETATM   20  N   UNL     1     -11.433  14.807  67.416  1.00  0.00    -0.354 NA 
HETATM   21  C   UNL     1     -13.039  11.502  72.073  1.00  0.00    -0.430 A  
HETATM   22  F   UNL     1     -12.894   9.178  72.417  1.00  0.00    -0.418 F  
ENDBRANCH   4   6
ENDBRANCH   3   4
ENDBRANCH   2   3
TORSDOF 3
ENDMDL
MODEL        8
REMARK 921   NORMALIZED FREE ENERGY PREDICTED BY IDOCK:   -6.51 KCAL/MOL
REMARK 922        TOTAL FREE ENERGY PREDICTED BY IDOCK:   -7.94 KCAL/MOL
REMARK 923 INTER-LIGAND FREE ENERGY PREDICTED BY IDOCK:   -7.62 KCAL/MOL
REMARK 924 INTRA-LIGAND FREE ENERGY PREDICTED BY IDOCK:   -0.32 KCAL/MOL
REMARK 927      BINDING AFFINITY PREDICTED BY RF-SCORE:    0.00 PKD
ROOT
HETATM    1  C   UNL     1     -10.820   5.969  68.865  1.00  0.00    -0.400 C  
HETATM    2  C   UNL     1     -10.918   6.274  70.349  1.00  0.00    -0.322 C  
ENDROOT
BRANCH   2   3
HETATM    3  O   UNL     1     -11.872   7.326  70.526  1.00  0.00    -0.276 OA 
BRANCH   3   4
HETATM    4  C   UNL     1     -11.805   7.980  71.721  1.00  0.00    -0.296 C  
HETATM    5  O   UNL     1     -11.382   7.483  72.760  1.00  0.00    -0.337 OA 
BRANCH   4   6
HETATM    6  C   UNL     1     -12.203   9.383  71.601  1.00  0.00    -0.390 A  
HETATM    7  C   UNL     1     -11.650  10.338  70.760  1.00  0.00    -0.355 A  
HETATM    8  C   UNL     1     -10.461  10.319  69.877  1.00  0.00    -0.256 C  
HETATM    9  N   UNL     1     -10.917  10.438  68.509  1.00  0.00    -0.238 N  
HETATM   10  C   UNL     1     -10.355   9.538  67.516  1.00  0.00    -0.248 C  
HETATM   11  C   UNL     1     -11.599  11.546  68.026  1.00  0.00    -0.300 C  
HETATM   12  C   UNL     1     -11.786  12.726  68.910  1.00  0.00    -0.370 A  
HETATM   13  O   UNL     1     -11.991  11.632  66.863  1.00  0.00    -0.567 OA 
HETATM   14  C   UNL     1     -12.238  12.692  70.243  1.00  0.00    -0.271 A  
HETATM   15  C   UNL     1     -12.462  13.887  70.943  1.00  0.00    -0.447 A  
HETATM   16  N   UNL     1     -12.423  11.463  70.915  1.00  0.00    -0.390 NA 
HETATM   17  C   UNL     1     -13.346  11.182  71.891  1.00  0.00    -0.304 A  
HETATM   18  C   UNL     1     -12.172  15.111  70.334  1.00  0.00    -0.391 A  
HETATM   19  C   UNL     1     -11.714  15.138  69.022  1.00  0.00    -0.335 A  
HETATM   20  N   UNL     1     -13.251   9.944  72.315  1.00  0.00    -0.403 NA 
HETATM   21  C   UNL     1     -11.544  13.965  68.302  1.00  0.00    -0.372 A  
HETATM   22  F   UNL     1     -11.423  16.311  68.450  1.00  0.00    -0.350 F  
ENDBRANCH   4   6
ENDBRANCH   3   4
ENDBRANCH   2   3
TORSDOF 3
ENDMDL
MODEL        9
REMARK 921   NORMALIZED FREE ENERGY PREDICTED BY IDOCK:   -6.50 KCAL/MOL
REMARK 922        TOTAL FREE ENERGY PREDICTED BY IDOCK:   -7.92 KCAL/MOL
REMARK 923 INTER-LIGAND FREE ENERGY PREDICTED BY IDOCK:   -7.57 KCAL/MOL
REMARK 924 INTRA-LIGAND FREE ENERGY PREDICTED BY IDOCK:   -0.35 KCAL/MOL
REMARK 927      BINDING AFFINITY PREDICTED BY RF-SCORE:    0.00 PKD
ROOT
HETATM    1  C   UNL     1     -12.443  11.978  63.541  1.00  0.00    -0.654 C  
HETATM    2  C   UNL     1     -12.125  13.453  63.708  1.00  0.00    -0.456 C  
ENDROOT
BRANCH   2   3
HETATM    3  O   UNL     1     -12.397  13.818  65.065  1.00  0.00    -0.399 OA 
BRANCH   3   4
HETATM    4  C   UNL     1     -11.306  13.890  65.880  1.00  0.00    -0.313 C  
HETATM    5  O   UNL     1     -10.206  14.307  65.530  1.00  0.00    -0.322 OA 
BRANCH   4   6
HETATM    6  C   UNL     1     -11.623  13.507  67.256  1.00  0.00    -0.362 A  
HETATM    7  C   UNL     1     -11.539  12.237  67.809  1.00  0.00    -0.351 A  
HETATM    8  C   UNL     1     -11.273  10.908  67.214  1.00  0.00    -0.233 C  
HETATM    9  N   UNL     1     -10.015  10.424  67.742  1.00  0.00    -0.171 N  
HETATM   10  C   UNL     1      -9.052   9.858  66.813  1.00  0.00    -0.143 C  
HETATM   11  C   UNL     1      -9.802  10.169  69.089  1.00  0.00    -0.214 C  
HETATM   12  C   UNL     1     -10.938  10.287  70.040  1.00  0.00    -0.371 A  
HETATM   13  O   UNL     1      -8.725   9.768  69.528  1.00  0.00    -0.154 OA 
HETATM   14  C   UNL     1     -11.844  11.363  70.111  1.00  0.00    -0.355 A  
HETATM   15  C   UNL     1     -12.820  11.400  71.118  1.00  0.00    -0.440 A  
HETATM   16  N   UNL     1     -11.822  12.394  69.144  1.00  0.00    -0.310 NA 
HETATM   17  C   UNL     1     -12.147  13.714  69.332  1.00  0.00    -0.314 A  
HETATM   18  C   UNL     1     -12.931  10.331  72.011  1.00  0.00    -0.503 A  
HETATM   19  C   UNL     1     -12.044   9.265  71.930  1.00  0.00    -0.370 A  
HETATM   20  N   UNL     1     -12.028  14.411  68.227  1.00  0.00    -0.318 NA 
HETATM   21  C   UNL     1     -11.039   9.247  70.973  1.00  0.00    -0.396 A  
HETATM   22  F   UNL     1     -12.166   8.238  72.776  1.00  0.00    -0.423 F  
ENDBRANCH   4   6
ENDBRANCH   3   4
ENDBRANCH   2   3
TORSDOF 3
ENDMDL
MODEL       10
REMARK 921   NORMALIZED FREE ENERGY PREDICTED BY IDOCK:   -6.49 KCAL/MOL
REMARK 922        TOTAL FREE ENERGY PREDICTED BY IDOCK:   -7.91 KCAL/MOL
REMARK 923 INTER-LIGAND FREE ENERGY PREDICTED BY IDOCK:   -7.64 KCAL/MOL
REMARK 924 INTRA-LIGAND FREE ENERGY PREDICTED BY IDOCK:   -0.27 KCAL/MOL
REMARK 927      BINDING AFFINITY PREDICTED BY RF-SCORE:    0.00 PKD
ROOT
HETATM    1  C   UNL     1      -8.415  18.723  68.591  1.00  0.00    -0.364 C  
HETATM    2  C   UNL     1      -9.773  19.365  68.368  1.00  0.00    -0.408 C  
ENDROOT
BRANCH   2   3
HETATM    3  O   UNL     1     -10.565  18.473  67.577  1.00  0.00    -0.409 OA 
BRANCH   3   4
HETATM    4  C   UNL     1     -10.298  18.484  66.240  1.00  0.00    -0.427 C  
HETATM    5  O   UNL     1      -9.793  19.429  65.642  1.00  0.00    -0.380 OA 
BRANCH   4   6
HETATM    6  C   UNL     1     -10.589  17.195  65.612  1.00  0.00    -0.179 A  
HETATM    7  C   UNL     1     -10.225  15.940  66.076  1.00  0.00    -0.334 A  
HETATM    8  C   UNL     1      -9.354  15.504  67.192  1.00  0.00    -0.216 C  
HETATM    9  N   UNL     1     -10.179  14.819  68.164  1.00  0.00    -0.225 N  
HETATM   10  C   UNL     1     -10.014  15.158  69.567  1.00  0.00    -0.201 C  
HETATM   11  C   UNL     1     -10.873  13.650  67.886  1.00  0.00    -0.250 C  
HETATM   12  C   UNL     1     -10.688  12.992  66.566  1.00  0.00    -0.290 A  
HETATM   13  O   UNL     1     -11.579  13.082  68.717  1.00  0.00    -0.266 OA 
HETATM   14  C   UNL     1     -10.730  13.633  65.314  1.00  0.00    -0.336 A  
HETATM   15  C   UNL     1     -10.635  12.883  64.132  1.00  0.00    -0.442 A  
HETATM   16  N   UNL     1     -10.817  15.041  65.222  1.00  0.00    -0.359 NA 
HETATM   17  C   UNL     1     -11.434  15.772  64.239  1.00  0.00    -0.198 A  
HETATM   18  C   UNL     1     -10.431  11.502  64.204  1.00  0.00    -0.408 A  
HETATM   19  C   UNL     1     -10.376  10.875  65.443  1.00  0.00    -0.261 A  
HETATM   20  N   UNL     1     -11.328  17.063  64.446  1.00  0.00    -1.052 NA 
HETATM   21  C   UNL     1     -10.527  11.601  66.616  1.00  0.00    -0.268 A  
HETATM   22  F   UNL     1     -10.164   9.557  65.507  1.00  0.00    -0.370 F  
ENDBRANCH   4   6
ENDBRANCH   3   4
ENDBRANCH   2   3
TORSDOF 3
ENDMDL
MODEL       11
REMARK 921   NORMALIZED FREE ENERGY PREDICTED BY IDOCK:   -6.47 KCAL/MOL
REMARK 922        TOTAL FREE ENERGY PREDICTED BY IDOCK:   -7.89 KCAL/MOL
REMARK 923 INTER-LIGAND FREE ENERGY PREDICTED BY IDOCK:   -7.60 KCAL/MOL
REMARK 924 INTRA-LIGAND FREE ENERGY PREDICTED BY IDOCK:   -0.29 KCAL/MOL
REMARK 927      BINDING AFFINITY PREDICTED BY RF-SCORE:    0.00 PKD
ROOT
HETATM    1  C   UNL     1     -12.393  16.064  74.531  1.00  0.00    -0.698 C  
HETATM    2  C   UNL     1     -12.851  15.962  73.087  1.00  0.00    -0.537 C  
ENDROOT
BRANCH   2   3
HETATM    3  O   UNL     1     -12.228  14.813  72.502  1.00  0.00    -0.321 OA 
BRANCH   3   4
HETATM    4  C   UNL     1     -13.077  13.812  72.133  1.00  0.00    -0.406 C  
HETATM    5  O   UNL     1     -14.156  13.586  72.671  1.00  0.00    -0.762 OA 
BRANCH   4   6
HETATM    6  C   UNL     1     -12.600  13.097  70.949  1.00  0.00    -0.295 A  
HETATM    7  C   UNL     1     -12.205  13.653  69.741  1.00  0.00    -0.291 A  
HETATM    8  C   UNL     1     -12.270  15.034  69.212  1.00  0.00    -0.179 C  
HETATM    9  N   UNL     1     -10.915  15.511  69.037  1.00  0.00    -0.241 N  
HETATM   10  C   UNL     1     -10.586  16.842  69.520  1.00  0.00    -0.283 C  
HETATM   11  C   UNL     1     -10.008  14.926  68.165  1.00  0.00    -0.222 C  
HETATM   12  C   UNL     1     -10.460  13.824  67.277  1.00  0.00    -0.264 A  
HETATM   13  O   UNL     1      -8.855  15.334  68.032  1.00  0.00    -0.166 OA 
HETATM   14  C   UNL     1     -11.210  12.701  67.677  1.00  0.00    -0.283 A  
HETATM   15  C   UNL     1     -11.496  11.679  66.759  1.00  0.00    -0.299 A  
HETATM   16  N   UNL     1     -11.732  12.606  68.987  1.00  0.00    -0.305 NA 
HETATM   17  C   UNL     1     -11.935  11.463  69.718  1.00  0.00    -0.353 A  
HETATM   18  C   UNL     1     -11.088  11.811  65.429  1.00  0.00    -0.336 A  
HETATM   19  C   UNL     1     -10.360  12.927  65.036  1.00  0.00    -0.315 A  
HETATM   20  N   UNL     1     -12.441  11.720  70.901  1.00  0.00    -0.363 NA 
HETATM   21  C   UNL     1     -10.023  13.916  65.949  1.00  0.00    -0.317 A  
HETATM   22  F   UNL     1      -9.987  13.056  63.759  1.00  0.00    -0.367 F  
ENDBRANCH   4   6
ENDBRANCH   3   4
ENDBRANCH   2   3
TORSDOF 3
ENDMDL
MODEL       12
REMARK 921   NORMALIZED FREE ENERGY PREDICTED BY IDOCK:   -6.46 KCAL/MOL
REMARK 922        TOTAL FREE ENERGY PREDICTED BY IDOCK:   -7.88 KCAL/MOL
REMARK 923 INTER-LIGAND FREE ENERGY PREDICTED BY IDOCK:   -7.47 KCAL/MOL
REMARK 924 INTRA-LIGAND FREE ENERGY PREDICTED BY IDOCK:   -0.41 KCAL/MOL
REMARK 927      BINDING AFFINITY PREDICTED BY RF-SCORE:    0.00 PKD
ROOT
HETATM    1  C   UNL     1     -10.355  10.980  64.499  1.00  0.00    -0.420 C  
HETATM    2  C   UNL     1     -10.284  12.301  63.753  1.00  0.00    -0.402 C  
ENDROOT
BRANCH   2   3
HETATM    3  O   UNL     1     -11.616  12.680  63.388  1.00  0.00    -0.490 OA 
BRANCH   3   4
HETATM    4  C   UNL     1     -12.344  13.277  64.374  1.00  0.00    -0.348 C  
HETATM    5  O   UNL     1     -13.261  12.736  64.983  1.00  0.00    -0.768 OA 
BRANCH   4   6
HETATM    6  C   UNL     1     -11.840  14.613  64.696  1.00  0.00    -0.452 A  
HETATM    7  C   UNL     1     -11.079  14.973  65.798  1.00  0.00    -0.346 A  
HETATM    8  C   UNL     1     -10.675  14.233  67.015  1.00  0.00    -0.290 C  
HETATM    9  N   UNL     1      -9.236  14.080  66.990  1.00  0.00    -0.244 N  
HETATM   10  C   UNL     1      -8.678  12.773  67.292  1.00  0.00    -0.200 C  
HETATM   11  C   UNL     1      -8.355  15.151  67.016  1.00  0.00    -0.231 C  
HETATM   12  C   UNL     1      -8.889  16.528  67.189  1.00  0.00    -0.213 A  
HETATM   13  O   UNL     1      -7.133  15.009  66.983  1.00  0.00    -0.184 OA 
HETATM   14  C   UNL     1      -9.969  17.086  66.479  1.00  0.00    -0.310 A  
HETATM   15  C   UNL     1     -10.318  18.432  66.668  1.00  0.00    -0.422 A  
HETATM   16  N   UNL     1     -10.751  16.294  65.607  1.00  0.00    -0.320 NA 
HETATM   17  C   UNL     1     -11.387  16.702  64.462  1.00  0.00     0.114 A  
HETATM   18  C   UNL     1      -9.630  19.198  67.612  1.00  0.00    -0.375 A  
HETATM   19  C   UNL     1      -8.573  18.639  68.320  1.00  0.00    -0.321 A  
HETATM   20  N   UNL     1     -12.037  15.720  63.885  1.00  0.00    -0.647 NA 
HETATM   21  C   UNL     1      -8.183  17.326  68.099  1.00  0.00    -0.231 A  
HETATM   22  F   UNL     1      -7.930  19.372  69.234  1.00  0.00    -0.376 F  
ENDBRANCH   4   6
ENDBRANCH   3   4
ENDBRANCH   2   3
TORSDOF 3
ENDMDL
MODEL       13
REMARK 921   NORMALIZED FREE ENERGY PREDICTED BY IDOCK:   -6.34 KCAL/MOL
REMARK 922        TOTAL FREE ENERGY PREDICTED BY IDOCK:   -7.74 KCAL/MOL
REMARK 923 INTER-LIGAND FREE ENERGY PREDICTED BY IDOCK:   -7.39 KCAL/MOL
REMARK 924 INTRA-LIGAND FREE ENERGY PREDICTED BY IDOCK:   -0.35 KCAL/MOL
REMARK 927      BINDING AFFINITY PREDICTED BY RF-SCORE:    0.00 PKD
ROOT
HETATM    1  C   UNL     1     -12.437  12.588  64.402  1.00  0.00    -0.530 C  
HETATM    2  C   UNL     1     -12.040  13.965  64.904  1.00  0.00    -0.414 C  
ENDROOT
BRANCH   2   3
HETATM    3  O   UNL     1     -12.528  14.110  66.242  1.00  0.00    -0.466 OA 
BRANCH   3   4
HETATM    4  C   UNL     1     -11.574  14.323  67.192  1.00  0.00    -0.380 C  
HETATM    5  O   UNL     1     -10.624  15.088  67.060  1.00  0.00    -0.281 OA 
BRANCH   4   6
HETATM    6  C   UNL     1     -11.868  13.608  68.435  1.00  0.00    -0.372 A  
HETATM    7  C   UNL     1     -11.668  12.259  68.688  1.00  0.00    -0.328 A  
HETATM    8  C   UNL     1     -11.268  11.131  67.816  1.00  0.00    -0.294 C  
HETATM    9  N   UNL     1      -9.975  10.656  68.263  1.00  0.00    -0.154 N  
HETATM   10  C   UNL     1      -8.952  10.408  67.262  1.00  0.00    -0.135 C  
HETATM   11  C   UNL     1      -9.754  10.121  69.523  1.00  0.00    -0.229 C  
HETATM   12  C   UNL     1     -10.906   9.914  70.438  1.00  0.00    -0.380 A  
HETATM   13  O   UNL     1      -8.648   9.730  69.895  1.00  0.00    -0.190 OA 
HETATM   14  C   UNL     1     -11.912  10.857  70.721  1.00  0.00    -0.346 A  
HETATM   15  C   UNL     1     -12.898  10.574  71.678  1.00  0.00    -0.581 A  
HETATM   16  N   UNL     1     -11.979  12.080  70.014  1.00  0.00    -0.339 NA 
HETATM   17  C   UNL     1     -12.432  13.286  70.485  1.00  0.00    -0.260 A  
HETATM   18  C   UNL     1     -12.916   9.323  72.302  1.00  0.00    -0.488 A  
HETATM   19  C   UNL     1     -11.929   8.390  72.010  1.00  0.00    -0.357 A  
HETATM   20  N   UNL     1     -12.368  14.225  69.571  1.00  0.00    -0.291 NA 
HETATM   21  C   UNL     1     -10.916   8.683  71.108  1.00  0.00    -0.320 A  
HETATM   22  F   UNL     1     -11.961   7.190  72.598  1.00  0.00    -0.255 F  
ENDBRANCH   4   6
ENDBRANCH   3   4
ENDBRANCH   2   3
TORSDOF 3
ENDMDL
MODEL       14
REMARK 921   NORMALIZED FREE ENERGY PREDICTED BY IDOCK:   -6.15 KCAL/MOL
REMARK 922        TOTAL FREE ENERGY PREDICTED BY IDOCK:   -7.52 KCAL/MOL
REMARK 923 INTER-LIGAND FREE ENERGY PREDICTED BY IDOCK:   -7.26 KCAL/MOL
REMARK 924 INTRA-LIGAND FREE ENERGY PREDICTED BY IDOCK:   -0.26 KCAL/MOL
REMARK 927      BINDING AFFINITY PREDICTED BY RF-SCORE:    0.00 PKD
ROOT
HETATM    1  C   UNL     1      -8.900   6.875  73.535  1.00  0.00    -0.161 C  
HETATM    2  C   UNL     1      -9.816   6.977  72.329  1.00  0.00    -0.153 C  
ENDROOT
BRANCH   2   3
HETATM    3  O   UNL     1     -10.810   7.969  72.606  1.00  0.00    -0.319 OA 
BRANCH   3   4
HETATM    4  C   UNL     1     -11.748   8.144  71.631  1.00  0.00    -0.287 C  
HETATM    5  O   UNL     1     -12.271   7.231  71.001  1.00  0.00    -0.328 OA 
BRANCH   4   6
HETATM    6  C   UNL     1     -12.137   9.548  71.491  1.00  0.00    -0.389 A  
HETATM    7  C   UNL     1     -11.576  10.488  70.639  1.00  0.00    -0.352 A  
HETATM    8  C   UNL     1     -10.385  10.450  69.760  1.00  0.00    -0.208 C  
HETATM    9  N   UNL     1     -10.837  10.554  68.388  1.00  0.00    -0.222 N  
HETATM   10  C   UNL     1     -10.278   9.637  67.409  1.00  0.00    -0.227 C  
HETATM   11  C   UNL     1     -11.511  11.659  67.889  1.00  0.00    -0.311 C  
HETATM   12  C   UNL     1     -11.693  12.852  68.757  1.00  0.00    -0.363 A  
HETATM   13  O   UNL     1     -11.899  11.731  66.724  1.00  0.00    -0.586 OA 
HETATM   14  C   UNL     1     -12.148  12.839  70.089  1.00  0.00    -0.298 A  
HETATM   15  C   UNL     1     -12.368  14.044  70.772  1.00  0.00    -0.443 A  
HETATM   16  N   UNL     1     -12.343  11.620  70.777  1.00  0.00    -0.385 NA 
HETATM   17  C   UNL     1     -13.270  11.357  71.754  1.00  0.00    -0.367 A  
HETATM   18  C   UNL     1     -12.069  15.258  70.147  1.00  0.00    -0.394 A  
HETATM   19  C   UNL     1     -11.607  15.265  68.837  1.00  0.00    -0.347 A  
HETATM   20  N   UNL     1     -13.183  10.125  72.195  1.00  0.00    -0.427 NA 
HETATM   21  C   UNL     1     -11.442  14.081  68.133  1.00  0.00    -0.341 A  
HETATM   22  F   UNL     1     -11.307  16.428  68.249  1.00  0.00    -0.351 F  
ENDBRANCH   4   6
ENDBRANCH   3   4
ENDBRANCH   2   3
TORSDOF 3
ENDMDL
MODEL       15
REMARK 921   NORMALIZED FREE ENERGY PREDICTED BY IDOCK:   -6.13 KCAL/MOL
REMARK 922        TOTAL FREE ENERGY PREDICTED BY IDOCK:   -7.49 KCAL/MOL
REMARK 923 INTER-LIGAND FREE ENERGY PREDICTED BY IDOCK:   -7.32 KCAL/MOL
REMARK 924 INTRA-LIGAND FREE ENERGY PREDICTED BY IDOCK:   -0.17 KCAL/MOL
REMARK 927      BINDING AFFINITY PREDICTED BY RF-SCORE:    0.00 PKD
ROOT
HETATM    1  C   UNL     1     -10.676  19.370  67.481  1.00  0.00    -0.570 C  
HETATM    2  C   UNL     1     -10.638  19.298  65.965  1.00  0.00    -0.461 C  
ENDROOT
BRANCH   2   3
HETATM    3  O   UNL     1      -9.829  18.178  65.591  1.00  0.00    -0.478 OA 
BRANCH   3   4
HETATM    4  C   UNL     1     -10.512  17.033  65.306  1.00  0.00    -0.037 C  
HETATM    5  O   UNL     1     -11.383  16.941  64.448  1.00  0.00    -1.133 OA 
BRANCH   4   6
HETATM    6  C   UNL     1     -10.014  15.891  66.075  1.00  0.00    -0.334 A  
HETATM    7  C   UNL     1     -10.573  14.624  66.144  1.00  0.00    -0.312 A  
HETATM    8  C   UNL     1     -11.848  14.069  65.634  1.00  0.00    -0.377 C  
HETATM    9  N   UNL     1     -11.534  13.077  64.627  1.00  0.00    -0.322 N  
HETATM   10  C   UNL     1     -12.272  13.110  63.376  1.00  0.00    -0.444 C  
HETATM   11  C   UNL     1     -10.818  11.919  64.895  1.00  0.00    -0.305 C  
HETATM   12  C   UNL     1     -10.439  11.607  66.298  1.00  0.00    -0.286 A  
HETATM   13  O   UNL     1     -10.548  11.088  64.028  1.00  0.00    -0.366 OA 
HETATM   14  C   UNL     1      -9.850  12.503  67.210  1.00  0.00    -0.204 A  
HETATM   15  C   UNL     1      -9.452  12.059  68.480  1.00  0.00    -0.136 A  
HETATM   16  N   UNL     1      -9.697  13.870  66.887  1.00  0.00    -0.259 NA 
HETATM   17  C   UNL     1      -8.701  14.715  67.307  1.00  0.00    -0.208 A  
HETATM   18  C   UNL     1      -9.704  10.738  68.860  1.00  0.00    -0.207 A  
HETATM   19  C   UNL     1     -10.297   9.860  67.961  1.00  0.00    -0.203 A  
HETATM   20  N   UNL     1      -8.852  15.928  66.831  1.00  0.00    -0.216 NA 
HETATM   21  C   UNL     1     -10.641  10.275  66.682  1.00  0.00    -0.232 A  
HETATM   22  F   UNL     1     -10.550   8.602  68.336  1.00  0.00    -0.231 F  
ENDBRANCH   4   6
ENDBRANCH   3   4
ENDBRANCH   2   3
TORSDOF 3
ENDMDL
MODEL       16
REMARK 921   NORMALIZED FREE ENERGY PREDICTED BY IDOCK:   -6.11 KCAL/MOL
REMARK 922        TOTAL FREE ENERGY PREDICTED BY IDOCK:   -7.47 KCAL/MOL
REMARK 923 INTER-LIGAND FREE ENERGY PREDICTED BY IDOCK:   -7.12 KCAL/MOL
REMARK 924 INTRA-LIGAND FREE ENERGY PREDICTED BY IDOCK:   -0.35 KCAL/MOL
REMARK 927      BINDING AFFINITY PREDICTED BY RF-SCORE:    0.00 PKD
ROOT
HETATM    1  C   UNL     1     -10.385  17.403  68.161  1.00  0.00    -0.366 C  
HETATM    2  C   UNL     1     -10.434  16.575  66.890  1.00  0.00    -0.282 C  
ENDROOT
BRANCH   2   3
HETATM    3  O   UNL     1     -10.347  15.193  67.253  1.00  0.00    -0.254 OA 
BRANCH   3   4
HETATM    4  C   UNL     1     -11.509  14.487  67.153  1.00  0.00    -0.368 C  
HETATM    5  O   UNL     1     -12.168  14.380  66.123  1.00  0.00    -0.403 OA 
BRANCH   4   6
HETATM    6  C   UNL     1     -11.833  13.784  68.395  1.00  0.00    -0.376 A  
HETATM    7  C   UNL     1     -11.696  12.427  68.644  1.00  0.00    -0.326 A  
HETATM    8  C   UNL     1     -11.354  11.282  67.769  1.00  0.00    -0.285 C  
HETATM    9  N   UNL     1     -10.084  10.745  68.210  1.00  0.00    -0.165 N  
HETATM   10  C   UNL     1      -9.077  10.451  67.204  1.00  0.00    -0.139 C  
HETATM   11  C   UNL     1      -9.883  10.197  69.468  1.00  0.00    -0.232 C  
HETATM   12  C   UNL     1     -11.041  10.043  70.387  1.00  0.00    -0.393 A  
HETATM   13  O   UNL     1      -8.796   9.753  69.835  1.00  0.00    -0.201 OA 
HETATM   14  C   UNL     1     -12.000  11.033  70.675  1.00  0.00    -0.365 A  
HETATM   15  C   UNL     1     -12.995  10.795  71.635  1.00  0.00    -0.581 A  
HETATM   16  N   UNL     1     -12.011  12.259  69.971  1.00  0.00    -0.333 NA 
HETATM   17  C   UNL     1     -12.404  13.485  70.446  1.00  0.00    -0.327 A  
HETATM   18  C   UNL     1     -13.071   9.546  72.257  1.00  0.00    -0.492 A  
HETATM   19  C   UNL     1     -12.130   8.567  71.959  1.00  0.00    -0.364 A  
HETATM   20  N   UNL     1     -12.299  14.422  69.535  1.00  0.00    -0.276 NA 
HETATM   21  C   UNL     1     -11.108   8.813  71.054  1.00  0.00    -0.328 A  
HETATM   22  F   UNL     1     -12.217   7.369  72.545  1.00  0.00    -0.264 F  
ENDBRANCH   4   6
ENDBRANCH   3   4
ENDBRANCH   2   3
TORSDOF 3
ENDMDL
MODEL       17
REMARK 921   NORMALIZED FREE ENERGY PREDICTED BY IDOCK:   -6.03 KCAL/MOL
REMARK 922        TOTAL FREE ENERGY PREDICTED BY IDOCK:   -7.37 KCAL/MOL
REMARK 923 INTER-LIGAND FREE ENERGY PREDICTED BY IDOCK:   -7.28 KCAL/MOL
REMARK 924 INTRA-LIGAND FREE ENERGY PREDICTED BY IDOCK:   -0.09 KCAL/MOL
REMARK 927      BINDING AFFINITY PREDICTED BY RF-SCORE:    0.00 PKD
ROOT
HETATM    1  C   UNL     1      -9.596  10.559  67.232  1.00  0.00    -0.188 C  
HETATM    2  C   UNL     1     -11.099  10.634  67.434  1.00  0.00    -0.272 C  
ENDROOT
BRANCH   2   3
HETATM    3  O   UNL     1     -11.466  12.012  67.551  1.00  0.00    -0.298 OA 
BRANCH   3   4
HETATM    4  C   UNL     1     -11.665  12.458  68.824  1.00  0.00    -0.332 C  
HETATM    5  O   UNL     1     -11.844  11.728  69.793  1.00  0.00    -0.308 OA 
BRANCH   4   6
HETATM    6  C   UNL     1     -11.538  13.913  68.921  1.00  0.00    -0.316 A  
HETATM    7  C   UNL     1     -10.813  14.744  68.081  1.00  0.00    -0.254 A  
HETATM    8  C   UNL     1      -9.864  14.465  66.979  1.00  0.00    -0.252 C  
HETATM    9  N   UNL     1     -10.452  14.952  65.748  1.00  0.00    -0.309 N  
HETATM   10  C   UNL     1     -10.417  14.087  64.581  1.00  0.00    -0.373 C  
HETATM   11  C   UNL     1     -10.750  16.288  65.522  1.00  0.00    -0.313 C  
HETATM   12  C   UNL     1     -10.355  17.302  66.534  1.00  0.00    -0.308 A  
HETATM   13  O   UNL     1     -11.259  16.688  64.476  1.00  0.00    -0.909 OA 
HETATM   14  C   UNL     1     -10.576  17.209  67.922  1.00  0.00    -0.376 A  
HETATM   15  C   UNL     1     -10.239  18.280  68.764  1.00  0.00    -0.342 A  
HETATM   16  N   UNL     1     -11.089  16.025  68.497  1.00  0.00    -0.329 NA 
HETATM   17  C   UNL     1     -11.888  15.920  69.607  1.00  0.00    -0.290 A  
HETATM   18  C   UNL     1      -9.622  19.413  68.228  1.00  0.00    -0.454 A  
HETATM   19  C   UNL     1      -9.394  19.495  66.860  1.00  0.00    -0.346 A  
HETATM   20  N   UNL     1     -12.186  14.673  69.883  1.00  0.00    -0.319 NA 
HETATM   21  C   UNL     1      -9.776  18.466  66.011  1.00  0.00    -0.111 A  
HETATM   22  F   UNL     1      -8.788  20.575  66.355  1.00  0.00    -0.287 F  
ENDBRANCH   4   6
ENDBRANCH   3   4
ENDBRANCH   2   3
TORSDOF 3
ENDMDL
MODEL       18
REMARK 921   NORMALIZED FREE ENERGY PREDICTED BY IDOCK:   -6.01 KCAL/MOL
REMARK 922        TOTAL FREE ENERGY PREDICTED BY IDOCK:   -7.35 KCAL/MOL
REMARK 923 INTER-LIGAND FREE ENERGY PREDICTED BY IDOCK:   -6.99 KCAL/MOL
REMARK 924 INTRA-LIGAND FREE ENERGY PREDICTED BY IDOCK:   -0.35 KCAL/MOL
REMARK 927      BINDING AFFINITY PREDICTED BY RF-SCORE:    0.00 PKD
ROOT
HETATM    1  C   UNL     1     -11.889  12.690  63.487  1.00  0.00    -0.619 C  
HETATM    2  C   UNL     1     -10.434  12.633  63.915  1.00  0.00    -0.411 C  
ENDROOT
BRANCH   2   3
HETATM    3  O   UNL     1     -10.165  11.318  64.414  1.00  0.00    -0.270 OA 
BRANCH   3   4
HETATM    4  C   UNL     1      -9.500  11.269  65.603  1.00  0.00    -0.229 C  
HETATM    5  O   UNL     1      -8.316  10.972  65.723  1.00  0.00    -0.160 OA 
BRANCH   4   6
HETATM    6  C   UNL     1     -10.338  11.712  66.718  1.00  0.00    -0.222 A  
HETATM    7  C   UNL     1     -10.134  12.822  67.525  1.00  0.00    -0.213 A  
HETATM    8  C   UNL     1      -9.010  13.779  67.637  1.00  0.00    -0.194 C  
HETATM    9  N   UNL     1      -9.488  15.081  67.221  1.00  0.00    -0.204 N  
HETATM   10  C   UNL     1      -8.666  15.854  66.305  1.00  0.00    -0.337 C  
HETATM   11  C   UNL     1     -10.499  15.768  67.878  1.00  0.00    -0.270 C  
HETATM   12  C   UNL     1     -11.058  15.208  69.136  1.00  0.00    -0.263 A  
HETATM   13  O   UNL     1     -10.903  16.870  67.509  1.00  0.00    -0.304 OA 
HETATM   14  C   UNL     1     -11.467  13.876  69.333  1.00  0.00    -0.280 A  
HETATM   15  C   UNL     1     -12.069  13.493  70.542  1.00  0.00    -0.409 A  
HETATM   16  N   UNL     1     -11.234  12.892  68.346  1.00  0.00    -0.252 NA 
HETATM   17  C   UNL     1     -12.008  11.792  68.072  1.00  0.00    -0.125 A  
HETATM   18  C   UNL     1     -12.200  14.426  71.574  1.00  0.00    -0.406 A  
HETATM   19  C   UNL     1     -11.784  15.737  71.379  1.00  0.00    -0.445 A  
HETATM   20  N   UNL     1     -11.509  11.071  67.096  1.00  0.00    -0.442 NA 
HETATM   21  C   UNL     1     -11.241  16.139  70.168  1.00  0.00    -0.374 A  
HETATM   22  F   UNL     1     -11.898  16.620  72.376  1.00  0.00    -0.562 F  
ENDBRANCH   4   6
ENDBRANCH   3   4
ENDBRANCH   2   3
TORSDOF 3
ENDMDL
MODEL       19
REMARK 921   NORMALIZED FREE ENERGY PREDICTED BY IDOCK:   -5.93 KCAL/MOL
REMARK 922        TOTAL FREE ENERGY PREDICTED BY IDOCK:   -7.26 KCAL/MOL
REMARK 923 INTER-LIGAND FREE ENERGY PREDICTED BY IDOCK:   -6.90 KCAL/MOL
REMARK 924 INTRA-LIGAND FREE ENERGY PREDICTED BY IDOCK:   -0.36 KCAL/MOL
REMARK 927      BINDING AFFINITY PREDICTED BY RF-SCORE:    0.00 PKD
ROOT
HETATM    1  C   UNL     1      -9.924   4.333  70.977  1.00  0.00    -0.223 C  
HETATM    2  C   UNL     1      -9.795   5.825  70.731  1.00  0.00    -0.183 C  
ENDROOT
BRANCH   2   3
HETATM    3  O   UNL     1     -11.059   6.436  71.014  1.00  0.00    -0.264 OA 
BRANCH   3   4
HETATM    4  C   UNL     1     -11.101   7.189  72.151  1.00  0.00    -0.248 C  
HETATM    5  O   UNL     1     -10.612   6.853  73.224  1.00  0.00    -0.269 OA 
BRANCH   4   6
HETATM    6  C   UNL     1     -11.714   8.498  71.918  1.00  0.00    -0.341 A  
HETATM    7  C   UNL     1     -11.237   9.507  71.095  1.00  0.00    -0.376 A  
HETATM    8  C   UNL     1      -9.968   9.667  70.347  1.00  0.00    -0.271 C  
HETATM    9  N   UNL     1     -10.278   9.663  68.933  1.00  0.00    -0.193 N  
HETATM   10  C   UNL     1      -9.462   8.843  68.053  1.00  0.00    -0.143 C  
HETATM   11  C   UNL     1     -11.077  10.621  68.325  1.00  0.00    -0.279 C  
HETATM   12  C   UNL     1     -11.560  11.777  69.123  1.00  0.00    -0.372 A  
HETATM   13  O   UNL     1     -11.342  10.601  67.124  1.00  0.00    -0.344 OA 
HETATM   14  C   UNL     1     -12.150  11.707  70.400  1.00  0.00    -0.373 A  
HETATM   15  C   UNL     1     -12.652  12.866  71.011  1.00  0.00    -0.376 A  
HETATM   16  N   UNL     1     -12.201  10.486  71.109  1.00  0.00    -0.375 NA 
HETATM   17  C   UNL     1     -13.169  10.079  71.993  1.00  0.00    -0.443 A  
HETATM   18  C   UNL     1     -12.505  14.102  70.375  1.00  0.00    -0.424 A  
HETATM   19  C   UNL     1     -11.910  14.168  69.121  1.00  0.00    -0.341 A  
HETATM   20  N   UNL     1     -12.916   8.890  72.486  1.00  0.00    -0.402 NA 
HETATM   21  C   UNL     1     -11.463  13.020  68.483  1.00  0.00    -0.340 A  
HETATM   22  F   UNL     1     -11.757  15.355  68.525  1.00  0.00    -0.320 F  
ENDBRANCH   4   6
ENDBRANCH   3   4
ENDBRANCH   2   3
TORSDOF 3
ENDMDL
MODEL       20
REMARK 921   NORMALIZED FREE ENERGY PREDICTED BY IDOCK:   -5.93 KCAL/MOL
REMARK 922        TOTAL FREE ENERGY PREDICTED BY IDOCK:   -7.25 KCAL/MOL
REMARK 923 INTER-LIGAND FREE ENERGY PREDICTED BY IDOCK:   -6.94 KCAL/MOL
REMARK 924 INTRA-LIGAND FREE ENERGY PREDICTED BY IDOCK:   -0.32 KCAL/MOL
REMARK 927      BINDING AFFINITY PREDICTED BY RF-SCORE:    0.00 PKD
ROOT
HETATM    1  C   UNL     1     -10.996  12.354  68.833  1.00  0.00    -0.268 C  
HETATM    2  C   UNL     1     -11.634  11.605  67.676  1.00  0.00    -0.279 C  
ENDROOT
BRANCH   2   3
HETATM    3  O   UNL     1     -12.006  12.560  66.677  1.00  0.00    -0.527 OA 
BRANCH   3   4
HETATM    4  C   UNL     1     -11.017  12.907  65.804  1.00  0.00    -0.278 C  
HETATM    5  O   UNL     1     -10.323  12.105  65.189  1.00  0.00    -0.264 OA 
BRANCH   4   6
HETATM    6  C   UNL     1     -10.946  14.355  65.605  1.00  0.00    -0.314 A  
HETATM    7  C   UNL     1     -10.163  15.256  66.311  1.00  0.00    -0.287 A  
HETATM    8  C   UNL     1      -9.315  15.108  67.516  1.00  0.00    -0.198 C  
HETATM    9  N   UNL     1      -7.940  15.342  67.127  1.00  0.00    -0.205 N  
HETATM   10  C   UNL     1      -6.926  14.412  67.595  1.00  0.00    -0.184 C  
HETATM   11  C   UNL     1      -7.486  16.550  66.619  1.00  0.00    -0.261 C  
HETATM   12  C   UNL     1      -8.414  17.710  66.565  1.00  0.00    -0.294 A  
HETATM   13  O   UNL     1      -6.317  16.734  66.282  1.00  0.00    -0.221 OA 
HETATM   14  C   UNL     1      -9.730  17.687  66.067  1.00  0.00    -0.137 A  
HETATM   15  C   UNL     1     -10.474  18.874  65.983  1.00  0.00    -0.507 A  
HETATM   16  N   UNL     1     -10.344  16.470  65.693  1.00  0.00    -0.515 NA 
HETATM   17  C   UNL     1     -11.280  16.281  64.708  1.00  0.00    -0.259 A  
HETATM   18  C   UNL     1      -9.926  20.069  66.457  1.00  0.00    -0.603 A  
HETATM   19  C   UNL     1      -8.631  20.084  66.959  1.00  0.00    -0.334 A  
HETATM   20  N   UNL     1     -11.654  15.027  64.619  1.00  0.00    -0.410 NA 
HETATM   21  C   UNL     1      -7.866  18.927  66.993  1.00  0.00    -0.253 A  
HETATM   22  F   UNL     1      -8.117  21.226  67.427  1.00  0.00    -0.340 F  
ENDBRANCH   4   6
ENDBRANCH   3   4
ENDBRANCH   2   3
TORSDOF 3
ENDMDL
MODEL       21
REMARK 921   NORMALIZED FREE ENERGY PREDICTED BY IDOCK:   -5.92 KCAL/MOL
REMARK 922        TOTAL FREE ENERGY PREDICTED BY IDOCK:   -7.24 KCAL/MOL
REMARK 923 INTER-LIGAND FREE ENERGY PREDICTED BY IDOCK:   -7.11 KCAL/MOL
REMARK 924 INTRA-LIGAND FREE ENERGY PREDICTED BY IDOCK:   -0.13 KCAL/MOL
REMARK 927      BINDING AFFINITY PREDICTED BY RF-SCORE:    0.00 PKD
ROOT
HETATM    1  C   UNL     1     -11.972  15.936  72.794  1.00  0.00    -0.616 C  
HETATM    2  C   UNL     1     -11.782  15.998  71.289  1.00  0.00    -0.461 C  
ENDROOT
BRANCH   2   3
HETATM    3  O   UNL     1     -12.808  15.212  70.676  1.00  0.00    -0.376 OA 
BRANCH   3   4
HETATM    4  C   UNL     1     -12.369  14.186  69.892  1.00  0.00    -0.327 C  
HETATM    5  O   UNL     1     -11.826  14.330  68.802  1.00  0.00    -0.316 OA 
BRANCH   4   6
HETATM    6  C   UNL     1     -12.528  12.888  70.549  1.00  0.00    -0.217 A  
HETATM    7  C   UNL     1     -12.032  11.667  70.115  1.00  0.00    -0.359 A  
HETATM    8  C   UNL     1     -11.360  11.253  68.862  1.00  0.00    -0.275 C  
HETATM    9  N   UNL     1     -10.007  10.858  69.190  1.00  0.00    -0.195 N  
HETATM   10  C   UNL     1      -8.924  11.358  68.359  1.00  0.00    -0.172 C  
HETATM   11  C   UNL     1      -9.705   9.793  70.026  1.00  0.00    -0.250 C  
HETATM   12  C   UNL     1     -10.806   8.935  70.536  1.00  0.00    -0.276 A  
HETATM   13  O   UNL     1      -8.551   9.472  70.305  1.00  0.00    -0.198 OA 
HETATM   14  C   UNL     1     -12.009   9.393  71.107  1.00  0.00    -0.337 A  
HETATM   15  C   UNL     1     -12.932   8.479  71.638  1.00  0.00    -0.369 A  
HETATM   16  N   UNL     1     -12.333  10.768  71.110  1.00  0.00    -0.382 NA 
HETATM   17  C   UNL     1     -13.063  11.447  72.053  1.00  0.00    -0.318 A  
HETATM   18  C   UNL     1     -12.682   7.107  71.538  1.00  0.00    -0.433 A  
HETATM   19  C   UNL     1     -11.500   6.660  70.962  1.00  0.00    -0.330 A  
HETATM   20  N   UNL     1     -13.190  12.718  71.756  1.00  0.00    -0.420 NA 
HETATM   21  C   UNL     1     -10.555   7.557  70.486  1.00  0.00    -0.232 A  
HETATM   22  F   UNL     1     -11.274   5.347  70.855  1.00  0.00    -0.256 F  
ENDBRANCH   4   6
ENDBRANCH   3   4
ENDBRANCH   2   3
TORSDOF 3
ENDMDL
MODEL       22
REMARK 921   NORMALIZED FREE ENERGY PREDICTED BY IDOCK:   -5.92 KCAL/MOL
REMARK 922        TOTAL FREE ENERGY PREDICTED BY IDOCK:   -7.24 KCAL/MOL
REMARK 923 INTER-LIGAND FREE ENERGY PREDICTED BY IDOCK:   -7.35 KCAL/MOL
REMARK 924 INTRA-LIGAND FREE ENERGY PREDICTED BY IDOCK:    0.10 KCAL/MOL
REMARK 927      BINDING AFFINITY PREDICTED BY RF-SCORE:    0.00 PKD
ROOT
HETATM    1  C   UNL     1      -9.810  18.746  66.186  1.00  0.00    -0.327 C  
HETATM    2  C   UNL     1     -10.351  17.373  66.540  1.00  0.00    -0.312 C  
ENDROOT
BRANCH   2   3
HETATM    3  O   UNL     1      -9.929  16.452  65.528  1.00  0.00    -0.518 OA 
BRANCH   3   4
HETATM    4  C   UNL     1     -10.926  15.939  64.752  1.00  0.00    -0.375 C  
HETATM    5  O   UNL     1     -11.629  16.603  63.998  1.00  0.00    -1.197 OA 
BRANCH   4   6
HETATM    6  C   UNL     1     -10.998  14.480  64.846  1.00  0.00    -0.410 A  
HETATM    7  C   UNL     1     -10.565  13.690  65.901  1.00  0.00    -0.289 A  
HETATM    8  C   UNL     1      -9.802  14.001  67.131  1.00  0.00    -0.240 C  
HETATM    9  N   UNL     1     -10.667  13.765  68.268  1.00  0.00    -0.246 N  
HETATM   10  C   UNL     1     -10.718  14.772  69.314  1.00  0.00    -0.256 C  
HETATM   11  C   UNL     1     -11.192  12.519  68.579  1.00  0.00    -0.283 C  
HETATM   12  C   UNL     1     -10.773  11.334  67.786  1.00  0.00    -0.265 A  
HETATM   13  O   UNL     1     -11.935  12.332  69.542  1.00  0.00    -0.302 OA 
HETATM   14  C   UNL     1     -10.723  11.261  66.381  1.00  0.00    -0.267 A  
HETATM   15  C   UNL     1     -10.399  10.051  65.747  1.00  0.00    -0.191 A  
HETATM   16  N   UNL     1     -10.946  12.408  65.586  1.00  0.00    -0.277 NA 
HETATM   17  C   UNL     1     -11.507  12.454  64.335  1.00  0.00    -0.347 A  
HETATM   18  C   UNL     1     -10.061   8.936  66.519  1.00  0.00    -0.356 A  
HETATM   19  C   UNL     1     -10.099   9.017  67.906  1.00  0.00    -0.197 A  
HETATM   20  N   UNL     1     -11.564  13.678  63.867  1.00  0.00    -0.318 NA 
HETATM   21  C   UNL     1     -10.474  10.192  68.541  1.00  0.00    -0.221 A  
HETATM   22  F   UNL     1      -9.759   7.952  68.638  1.00  0.00    -0.150 F  
ENDBRANCH   4   6
ENDBRANCH   3   4
ENDBRANCH   2   3
TORSDOF 3
ENDMDL
MODEL       23
REMARK 921   NORMALIZED FREE ENERGY PREDICTED BY IDOCK:   -5.79 KCAL/MOL
REMARK 922        TOTAL FREE ENERGY PREDICTED BY IDOCK:   -7.09 KCAL/MOL
REMARK 923 INTER-LIGAND FREE ENERGY PREDICTED BY IDOCK:   -6.78 KCAL/MOL
REMARK 924 INTRA-LIGAND FREE ENERGY PREDICTED BY IDOCK:   -0.31 KCAL/MOL
REMARK 927      BINDING AFFINITY PREDICTED BY RF-SCORE:    0.00 PKD
ROOT
HETATM    1  C   UNL     1     -13.619  13.399  72.217  1.00  0.00    -0.703 C  
HETATM    2  C   UNL     1     -12.613  13.156  71.106  1.00  0.00    -0.314 C  
ENDROOT
BRANCH   2   3
HETATM    3  O   UNL     1     -12.751  14.206  70.142  1.00  0.00    -0.320 OA 
BRANCH   3   4
HETATM    4  C   UNL     1     -11.602  14.566  69.503  1.00  0.00    -0.307 C  
HETATM    5  O   UNL     1     -10.663  15.146  70.039  1.00  0.00    -0.258 OA 
BRANCH   4   6
HETATM    6  C   UNL     1     -11.573  14.090  68.119  1.00  0.00    -0.334 A  
HETATM    7  C   UNL     1     -10.772  13.083  67.601  1.00  0.00    -0.227 A  
HETATM    8  C   UNL     1      -9.649  12.308  68.176  1.00  0.00    -0.213 C  
HETATM    9  N   UNL     1     -10.063  10.924  68.272  1.00  0.00    -0.168 N  
HETATM   10  C   UNL     1      -9.798  10.212  69.511  1.00  0.00    -0.232 C  
HETATM   11  C   UNL     1     -10.395  10.149  67.170  1.00  0.00    -0.238 C  
HETATM   12  C   UNL     1     -10.219  10.712  65.806  1.00  0.00    -0.317 A  
HETATM   13  O   UNL     1     -10.755   8.976  67.265  1.00  0.00    -0.269 OA 
HETATM   14  C   UNL     1     -10.649  11.983  65.380  1.00  0.00    -0.278 A  
HETATM   15  C   UNL     1     -10.508  12.363  64.036  1.00  0.00    -0.443 A  
HETATM   16  N   UNL     1     -11.180  12.916  66.299  1.00  0.00    -0.291 NA 
HETATM   17  C   UNL     1     -12.136  13.870  66.055  1.00  0.00    -0.437 A  
HETATM   18  C   UNL     1      -9.878  11.499  63.136  1.00  0.00    -0.413 A  
HETATM   19  C   UNL     1      -9.444  10.251  63.565  1.00  0.00    -0.298 A  
HETATM   20  N   UNL     1     -12.404  14.582  67.124  1.00  0.00    -0.169 NA 
HETATM   21  C   UNL     1      -9.631   9.843  64.878  1.00  0.00    -0.356 A  
HETATM   22  F   UNL     1      -8.827   9.435  62.704  1.00  0.00    -0.193 F  
ENDBRANCH   4   6
ENDBRANCH   3   4
ENDBRANCH   2   3
TORSDOF 3
ENDMDL
MODEL       24
REMARK 921   NORMALIZED FREE ENERGY PREDICTED BY IDOCK:   -5.79 KCAL/MOL
REMARK 922        TOTAL FREE ENERGY PREDICTED BY IDOCK:   -7.09 KCAL/MOL
REMARK 923 INTER-LIGAND FREE ENERGY PREDICTED BY IDOCK:   -6.72 KCAL/MOL
REMARK 924 INTRA-LIGAND FREE ENERGY PREDICTED BY IDOCK:   -0.36 KCAL/MOL
REMARK 927      BINDING AFFINITY PREDICTED BY RF-SCORE:    0.00 PKD
ROOT
HETATM    1  C   UNL     1     -10.241  18.602  68.022  1.00  0.00    -0.426 C  
HETATM    2  C   UNL     1     -10.206  18.030  66.617  1.00  0.00    -0.373 C  
ENDROOT
BRANCH   2   3
HETATM    3  O   UNL     1     -10.826  16.739  66.644  1.00  0.00    -0.171 OA 
BRANCH   3   4
HETATM    4  C   UNL     1     -10.003  15.691  66.357  1.00  0.00    -0.281 C  
HETATM    5  O   UNL     1      -8.892  15.800  65.849  1.00  0.00    -0.302 OA 
BRANCH   4   6
HETATM    6  C   UNL     1     -10.556  14.417  66.820  1.00  0.00    -0.282 A  
HETATM    7  C   UNL     1     -10.754  14.023  68.136  1.00  0.00    -0.246 A  
HETATM    8  C   UNL     1     -10.365  14.633  69.428  1.00  0.00    -0.122 C  
HETATM    9  N   UNL     1     -11.575  15.010  70.128  1.00  0.00    -0.269 N  
HETATM   10  C   UNL     1     -11.637  16.330  70.731  1.00  0.00    -0.252 C  
HETATM   11  C   UNL     1     -12.537  14.096  70.534  1.00  0.00    -0.342 C  
HETATM   12  C   UNL     1     -12.282  12.644  70.351  1.00  0.00    -0.368 A  
HETATM   13  O   UNL     1     -13.566  14.430  71.120  1.00  0.00    -0.356 OA 
HETATM   14  C   UNL     1     -11.814  12.033  69.172  1.00  0.00    -0.311 A  
HETATM   15  C   UNL     1     -11.704  10.636  69.095  1.00  0.00    -0.324 A  
HETATM   16  N   UNL     1     -11.398  12.811  68.068  1.00  0.00    -0.271 NA 
HETATM   17  C   UNL     1     -11.487  12.480  66.739  1.00  0.00    -0.362 A  
HETATM   18  C   UNL     1     -11.999   9.857  70.217  1.00  0.00    -0.209 A  
HETATM   19  C   UNL     1     -12.448  10.465  71.382  1.00  0.00    -0.415 A  
HETATM   20  N   UNL     1     -11.003  13.422  65.964  1.00  0.00    -0.272 NA 
HETATM   21  C   UNL     1     -12.616  11.841  71.450  1.00  0.00    -0.367 A  
HETATM   22  F   UNL     1     -12.713   9.716  72.458  1.00  0.00    -0.405 F  
ENDBRANCH   4   6
ENDBRANCH   3   4
ENDBRANCH   2   3
TORSDOF 3
ENDMDL
MODEL       25
REMARK 921   NORMALIZED FREE ENERGY PREDICTED BY IDOCK:   -5.77 KCAL/MOL
REMARK 922        TOTAL FREE ENERGY PREDICTED BY IDOCK:   -7.07 KCAL/MOL
REMARK 923 INTER-LIGAND FREE ENERGY PREDICTED BY IDOCK:   -6.87 KCAL/MOL
REMARK 924 INTRA-LIGAND FREE ENERGY PREDICTED BY IDOCK:   -0.20 KCAL/MOL
REMARK 927      BINDING AFFINITY PREDICTED BY RF-SCORE:    0.00 PKD
ROOT
HETATM    1  C   UNL     1     -10.114   5.743  72.740  1.00  0.00    -0.202 C  
HETATM    2  C   UNL     1     -10.465   6.862  73.704  1.00  0.00    -0.369 C  
ENDROOT
BRANCH   2   3
HETATM    3  O   UNL     1     -10.354   8.106  73.004  1.00  0.00    -0.321 OA 
BRANCH   3   4
HETATM    4  C   UNL     1     -11.454   8.471  72.285  1.00  0.00    -0.375 C  
HETATM    5  O   UNL     1     -12.608   8.387  72.693  1.00  0.00    -0.323 OA 
BRANCH   4   6
HETATM    6  C   UNL     1     -11.094   9.075  71.001  1.00  0.00    -0.289 A  
HETATM    7  C   UNL     1     -11.742  10.121  70.361  1.00  0.00    -0.308 A  
HETATM    8  C   UNL     1     -13.010  10.831  70.646  1.00  0.00    -0.232 C  
HETATM    9  N   UNL     1     -12.689  12.203  70.981  1.00  0.00    -0.294 N  
HETATM   10  C   UNL     1     -13.328  12.793  72.145  1.00  0.00    -0.492 C  
HETATM   11  C   UNL     1     -12.076  13.080  70.097  1.00  0.00    -0.307 C  
HETATM   12  C   UNL     1     -11.827  12.645  68.698  1.00  0.00    -0.342 A  
HETATM   13  O   UNL     1     -11.800  14.241  70.397  1.00  0.00    -0.290 OA 
HETATM   14  C   UNL     1     -11.248  11.423  68.307  1.00  0.00    -0.263 A  
HETATM   15  C   UNL     1     -10.978  11.170  66.954  1.00  0.00    -0.333 A  
HETATM   16  N   UNL     1     -10.977  10.412  69.257  1.00  0.00    -0.227 NA 
HETATM   17  C   UNL     1      -9.960   9.492  69.222  1.00  0.00    -0.187 A  
HETATM   18  C   UNL     1     -11.346  12.110  65.988  1.00  0.00    -0.410 A  
HETATM   19  C   UNL     1     -11.929  13.310  66.377  1.00  0.00    -0.410 A  
HETATM   20  N   UNL     1      -9.992   8.684  70.255  1.00  0.00    -0.182 NA 
HETATM   21  C   UNL     1     -12.147  13.594  67.718  1.00  0.00    -0.325 A  
HETATM   22  F   UNL     1     -12.294  14.199  65.448  1.00  0.00    -0.387 F  
ENDBRANCH   4   6
ENDBRANCH   3   4
ENDBRANCH   2   3
TORSDOF 3
ENDMDL
MODEL       26
REMARK 921   NORMALIZED FREE ENERGY PREDICTED BY IDOCK:   -5.75 KCAL/MOL
REMARK 922        TOTAL FREE ENERGY PREDICTED BY IDOCK:   -7.04 KCAL/MOL
REMARK 923 INTER-LIGAND FREE ENERGY PREDICTED BY IDOCK:   -6.88 KCAL/MOL
REMARK 924 INTRA-LIGAND FREE ENERGY PREDICTED BY IDOCK:   -0.16 KCAL/MOL
REMARK 927      BINDING AFFINITY PREDICTED BY RF-SCORE:    0.00 PKD
ROOT
HETATM    1  C   UNL     1     -12.554  15.417  73.937  1.00  0.00    -0.750 C  
HETATM    2  C   UNL     1     -13.670  15.695  72.946  1.00  0.00    -0.545 C  
ENDROOT
BRANCH   2   3
HETATM    3  O   UNL     1     -13.707  14.619  72.002  1.00  0.00    -0.357 OA 
BRANCH   3   4
HETATM    4  C   UNL     1     -13.040  14.843  70.834  1.00  0.00    -0.376 C  
HETATM    5  O   UNL     1     -12.858  15.952  70.342  1.00  0.00    -0.385 OA 
BRANCH   4   6
HETATM    6  C   UNL     1     -12.474  13.612  70.281  1.00  0.00    -0.265 A  
HETATM    7  C   UNL     1     -11.942  13.436  69.012  1.00  0.00    -0.315 A  
HETATM    8  C   UNL     1     -11.903  14.310  67.818  1.00  0.00    -0.379 C  
HETATM    9  N   UNL     1     -10.520  14.647  67.553  1.00  0.00    -0.246 N  
HETATM   10  C   UNL     1     -10.193  16.034  67.272  1.00  0.00    -0.277 C  
HETATM   11  C   UNL     1      -9.553  13.704  67.235  1.00  0.00    -0.238 C  
HETATM   12  C   UNL     1      -9.956  12.286  67.042  1.00  0.00    -0.220 A  
HETATM   13  O   UNL     1      -8.379  14.002  67.022  1.00  0.00    -0.184 OA 
HETATM   14  C   UNL     1     -10.783  11.542  67.905  1.00  0.00    -0.200 A  
HETATM   15  C   UNL     1     -11.013  10.179  67.661  1.00  0.00    -0.331 A  
HETATM   16  N   UNL     1     -11.435  12.159  68.996  1.00  0.00    -0.274 NA 
HETATM   17  C   UNL     1     -11.751  11.589  70.204  1.00  0.00    -0.309 A  
HETATM   18  C   UNL     1     -10.471   9.580  66.520  1.00  0.00    -0.201 A  
HETATM   19  C   UNL     1      -9.667  10.323  65.665  1.00  0.00    -0.247 A  
HETATM   20  N   UNL     1     -12.362  12.432  71.001  1.00  0.00    -0.305 NA 
HETATM   21  C   UNL     1      -9.386  11.656  65.928  1.00  0.00    -0.232 A  
HETATM   22  F   UNL     1      -9.165   9.749  64.567  1.00  0.00    -0.240 F  
ENDBRANCH   4   6
ENDBRANCH   3   4
ENDBRANCH   2   3
TORSDOF 3
ENDMDL
MODEL       27
REMARK 921   NORMALIZED FREE ENERGY PREDICTED BY IDOCK:   -5.73 KCAL/MOL
REMARK 922        TOTAL FREE ENERGY PREDICTED BY IDOCK:   -7.02 KCAL/MOL
REMARK 923 INTER-LIGAND FREE ENERGY PREDICTED BY IDOCK:   -6.82 KCAL/MOL
REMARK 924 INTRA-LIGAND FREE ENERGY PREDICTED BY IDOCK:   -0.19 KCAL/MOL
REMARK 927      BINDING AFFINITY PREDICTED BY RF-SCORE:    0.00 PKD
ROOT
HETATM    1  C   UNL     1      -8.451  20.008  66.489  1.00  0.00    -0.359 C  
HETATM    2  C   UNL     1      -9.918  19.657  66.314  1.00  0.00    -0.466 C  
ENDROOT
BRANCH   2   3
HETATM    3  O   UNL     1      -9.999  18.333  65.775  1.00  0.00    -0.540 OA 
BRANCH   3   4
HETATM    4  C   UNL     1     -10.429  17.374  66.644  1.00  0.00    -0.253 C  
HETATM    5  O   UNL     1     -10.803  17.596  67.791  1.00  0.00    -0.367 OA 
BRANCH   4   6
HETATM    6  C   UNL     1     -10.490  16.053  66.016  1.00  0.00    -0.345 A  
HETATM    7  C   UNL     1     -10.318  14.825  66.639  1.00  0.00    -0.273 A  
HETATM    8  C   UNL     1      -9.893  14.453  68.008  1.00  0.00    -0.221 C  
HETATM    9  N   UNL     1     -11.010  13.805  68.662  1.00  0.00    -0.257 N  
HETATM   10  C   UNL     1     -11.343  14.212  70.017  1.00  0.00    -0.134 C  
HETATM   11  C   UNL     1     -11.569  12.616  68.216  1.00  0.00    -0.332 C  
HETATM   12  C   UNL     1     -10.939  11.899  67.077  1.00  0.00    -0.326 A  
HETATM   13  O   UNL     1     -12.525  12.079  68.775  1.00  0.00    -0.085 OA 
HETATM   14  C   UNL     1     -10.538  12.480  65.860  1.00  0.00    -0.265 A  
HETATM   15  C   UNL     1     -10.041  11.676  64.823  1.00  0.00    -0.304 A  
HETATM   16  N   UNL     1     -10.580  13.881  65.676  1.00  0.00    -0.291 NA 
HETATM   17  C   UNL     1     -10.811  14.557  64.505  1.00  0.00    -0.219 A  
HETATM   18  C   UNL     1      -9.882  10.303  65.029  1.00  0.00    -0.397 A  
HETATM   19  C   UNL     1     -10.267   9.735  66.237  1.00  0.00    -0.212 A  
HETATM   20  N   UNL     1     -10.776  15.858  64.673  1.00  0.00    -0.525 NA 
HETATM   21  C   UNL     1     -10.814  10.513  67.247  1.00  0.00    -0.338 A  
HETATM   22  F   UNL     1     -10.098   8.424  66.434  1.00  0.00    -0.314 F  
ENDBRANCH   4   6
ENDBRANCH   3   4
ENDBRANCH   2   3
TORSDOF 3
ENDMDL
MODEL       28
REMARK 921   NORMALIZED FREE ENERGY PREDICTED BY IDOCK:   -5.69 KCAL/MOL
REMARK 922        TOTAL FREE ENERGY PREDICTED BY IDOCK:   -6.98 KCAL/MOL
REMARK 923 INTER-LIGAND FREE ENERGY PREDICTED BY IDOCK:   -6.65 KCAL/MOL
REMARK 924 INTRA-LIGAND FREE ENERGY PREDICTED BY IDOCK:   -0.33 KCAL/MOL
REMARK 927      BINDING AFFINITY PREDICTED BY RF-SCORE:    0.00 PKD
ROOT
HETATM    1  C   UNL     1     -12.471   9.327  71.917  1.00  0.00    -0.457 C  
HETATM    2  C   UNL     1     -11.022   8.873  71.932  1.00  0.00    -0.369 C  
ENDROOT
BRANCH   2   3
HETATM    3  O   UNL     1     -10.383   9.377  70.754  1.00  0.00    -0.254 OA 
BRANCH   3   4
HETATM    4  C   UNL     1     -10.498   8.591  69.645  1.00  0.00    -0.221 C  
HETATM    5  O   UNL     1     -10.705   7.383  69.671  1.00  0.00    -0.236 OA 
BRANCH   4   6
HETATM    6  C   UNL     1     -10.446   9.375  68.410  1.00  0.00    -0.218 A  
HETATM    7  C   UNL     1     -11.166  10.526  68.122  1.00  0.00    -0.293 A  
HETATM    8  C   UNL     1     -12.262  11.220  68.835  1.00  0.00    -0.093 C  
HETATM    9  N   UNL     1     -11.770  12.514  69.261  1.00  0.00    -0.309 N  
HETATM   10  C   UNL     1     -12.039  12.936  70.625  1.00  0.00    -0.235 C  
HETATM   11  C   UNL     1     -11.351  13.498  68.378  1.00  0.00    -0.292 C  
HETATM   12  C   UNL     1     -11.507  13.278  66.916  1.00  0.00    -0.376 A  
HETATM   13  O   UNL     1     -10.926  14.590  68.752  1.00  0.00    -0.233 OA 
HETATM   14  C   UNL     1     -11.138  12.114  66.216  1.00  0.00    -0.310 A  
HETATM   15  C   UNL     1     -11.250  12.065  64.818  1.00  0.00    -0.373 A  
HETATM   16  N   UNL     1     -10.698  10.961  66.905  1.00  0.00    -0.265 NA 
HETATM   17  C   UNL     1      -9.792  10.028  66.468  1.00  0.00    -0.210 A  
HETATM   18  C   UNL     1     -11.792  13.154  64.130  1.00  0.00    -0.487 A  
HETATM   19  C   UNL     1     -12.168  14.295  64.827  1.00  0.00    -0.443 A  
HETATM   20  N   UNL     1      -9.608   9.072  67.348  1.00  0.00    -0.147 NA 
HETATM   21  C   UNL     1     -12.007  14.375  66.203  1.00  0.00    -0.381 A  
HETATM   22  F   UNL     1     -12.702  15.327  64.165  1.00  0.00    -0.446 F  
ENDBRANCH   4   6
ENDBRANCH   3   4
ENDBRANCH   2   3
TORSDOF 3
ENDMDL
MODEL       29
REMARK 921   NORMALIZED FREE ENERGY PREDICTED BY IDOCK:   -5.55 KCAL/MOL
REMARK 922        TOTAL FREE ENERGY PREDICTED BY IDOCK:   -6.81 KCAL/MOL
REMARK 923 INTER-LIGAND FREE ENERGY PREDICTED BY IDOCK:   -6.59 KCAL/MOL
REMARK 924 INTRA-LIGAND FREE ENERGY PREDICTED BY IDOCK:   -0.22 KCAL/MOL
REMARK 927      BINDING AFFINITY PREDICTED BY RF-SCORE:    0.00 PKD
ROOT
HETATM    1  C   UNL     1     -12.579  12.658  64.842  1.00  0.00    -0.525 C  
HETATM    2  C   UNL     1     -11.389  12.421  65.755  1.00  0.00    -0.352 C  
ENDROOT
BRANCH   2   3
HETATM    3  O   UNL     1     -11.851  11.731  66.921  1.00  0.00    -0.591 OA 
BRANCH   3   4
HETATM    4  C   UNL     1     -10.911  11.519  67.886  1.00  0.00    -0.233 C  
HETATM    5  O   UNL     1     -10.341  12.411  68.505  1.00  0.00    -0.228 OA 
BRANCH   4   6
HETATM    6  C   UNL     1     -10.731  10.095  68.172  1.00  0.00    -0.244 A  
HETATM    7  C   UNL     1     -10.868   9.468  69.402  1.00  0.00    -0.206 A  
HETATM    8  C   UNL     1     -11.072   9.994  70.771  1.00  0.00    -0.334 C  
HETATM    9  N   UNL     1     -12.375   9.561  71.228  1.00  0.00    -0.326 N  
HETATM   10  C   UNL     1     -13.241  10.539  71.863  1.00  0.00    -0.420 C  
HETATM   11  C   UNL     1     -12.720   8.227  71.393  1.00  0.00    -0.263 C  
HETATM   12  C   UNL     1     -11.684   7.179  71.202  1.00  0.00    -0.350 A  
HETATM   13  O   UNL     1     -13.835   7.870  71.772  1.00  0.00    -0.363 OA 
HETATM   14  C   UNL     1     -10.791   7.093  70.116  1.00  0.00    -0.257 A  
HETATM   15  C   UNL     1      -9.920   5.999  70.003  1.00  0.00    -0.227 A  
HETATM   16  N   UNL     1     -10.719   8.125  69.153  1.00  0.00    -0.158 NA 
HETATM   17  C   UNL     1     -10.416   7.997  67.821  1.00  0.00    -0.214 A  
HETATM   18  C   UNL     1      -9.895   5.028  71.008  1.00  0.00    -0.266 A  
HETATM   19  C   UNL     1     -10.769   5.124  72.084  1.00  0.00    -0.187 A  
HETATM   20  N   UNL     1     -10.426   9.153  67.201  1.00  0.00    -0.265 NA 
HETATM   21  C   UNL     1     -11.675   6.171  72.175  1.00  0.00    -0.361 A  
HETATM   22  F   UNL     1     -10.730   4.201  73.050  1.00  0.00    -0.215 F  
ENDBRANCH   4   6
ENDBRANCH   3   4
ENDBRANCH   2   3
TORSDOF 3
ENDMDL
MODEL       30
REMARK 921   NORMALIZED FREE ENERGY PREDICTED BY IDOCK:   -5.54 KCAL/MOL
REMARK 922        TOTAL FREE ENERGY PREDICTED BY IDOCK:   -6.80 KCAL/MOL
REMARK 923 INTER-LIGAND FREE ENERGY PREDICTED BY IDOCK:   -6.40 KCAL/MOL
REMARK 924 INTRA-LIGAND FREE ENERGY PREDICTED BY IDOCK:   -0.40 KCAL/MOL
REMARK 927      BINDING AFFINITY PREDICTED BY RF-SCORE:    0.00 PKD
ROOT
HETATM    1  C   UNL     1     -12.256   9.842  71.421  1.00  0.00    -0.499 C  
HETATM    2  C   UNL     1     -12.238  11.009  70.449  1.00  0.00    -0.373 C  
ENDROOT
BRANCH   2   3
HETATM    3  O   UNL     1     -10.940  11.069  69.848  1.00  0.00    -0.239 OA 
BRANCH   3   4
HETATM    4  C   UNL     1     -10.930  11.153  68.487  1.00  0.00    -0.220 C  
HETATM    5  O   UNL     1     -11.466  10.342  67.739  1.00  0.00    -0.406 OA 
BRANCH   4   6
HETATM    6  C   UNL     1     -10.288  12.382  68.019  1.00  0.00    -0.216 A  
HETATM    7  C   UNL     1     -10.801  13.669  68.088  1.00  0.00    -0.246 A  
HETATM    8  C   UNL     1     -12.128  14.192  68.483  1.00  0.00    -0.277 C  
HETATM    9  N   UNL     1     -11.960  14.981  69.685  1.00  0.00    -0.313 N  
HETATM   10  C   UNL     1     -12.892  14.772  70.780  1.00  0.00    -0.361 C  
HETATM   11  C   UNL     1     -11.185  16.130  69.741  1.00  0.00    -0.343 C  
HETATM   12  C   UNL     1     -10.577  16.657  68.491  1.00  0.00    -0.338 A  
HETATM   13  O   UNL     1     -11.041  16.786  70.771  1.00  0.00    -0.100 OA 
HETATM   14  C   UNL     1      -9.868  15.901  67.539  1.00  0.00    -0.230 A  
HETATM   15  C   UNL     1      -9.259  16.535  66.445  1.00  0.00    -0.327 A  
HETATM   16  N   UNL     1      -9.799  14.493  67.636  1.00  0.00    -0.221 NA 
HETATM   17  C   UNL     1      -8.767  13.683  67.234  1.00  0.00    -0.218 A  
HETATM   18  C   UNL     1      -9.416  17.913  66.269  1.00  0.00    -0.234 A  
HETATM   19  C   UNL     1     -10.127  18.653  67.205  1.00  0.00    -0.354 A  
HETATM   20  N   UNL     1      -9.020  12.416  67.458  1.00  0.00    -0.174 NA 
HETATM   21  C   UNL     1     -10.684  18.044  68.321  1.00  0.00    -0.208 A  
HETATM   22  F   UNL     1     -10.288  19.967  67.023  1.00  0.00    -0.497 F  
ENDBRANCH   4   6
ENDBRANCH   3   4
ENDBRANCH   2   3
TORSDOF 3
ENDMDL
MODEL       31
REMARK 921   NORMALIZED FREE ENERGY PREDICTED BY IDOCK:   -5.53 KCAL/MOL
REMARK 922        TOTAL FREE ENERGY PREDICTED BY IDOCK:   -6.79 KCAL/MOL
REMARK 923 INTER-LIGAND FREE ENERGY PREDICTED BY IDOCK:   -6.48 KCAL/MOL
REMARK 924 INTRA-LIGAND FREE ENERGY PREDICTED BY IDOCK:   -0.31 KCAL/MOL
REMARK 927      BINDING AFFINITY PREDICTED BY RF-SCORE:    0.00 PKD
ROOT
HETATM    1  C   UNL     1      -9.371  11.298  67.558  1.00  0.00    -0.166 C  
HETATM    2  C   UNL     1     -10.454  10.615  66.741  1.00  0.00    -0.247 C  
ENDROOT
BRANCH   2   3
HETATM    3  O   UNL     1     -11.608  11.462  66.732  1.00  0.00    -0.465 OA 
BRANCH   3   4
HETATM    4  C   UNL     1     -11.856  12.098  65.551  1.00  0.00    -0.286 C  
HETATM    5  O   UNL     1     -12.526  11.626  64.638  1.00  0.00    -0.094 OA 
BRANCH   4   6
HETATM    6  C   UNL     1     -11.314  13.457  65.536  1.00  0.00    -0.293 A  
HETATM    7  C   UNL     1     -11.447  14.419  66.527  1.00  0.00    -0.362 A  
HETATM    8  C   UNL     1     -12.246  14.462  67.772  1.00  0.00    -0.155 C  
HETATM    9  N   UNL     1     -11.329  14.487  68.892  1.00  0.00    -0.259 N  
HETATM   10  C   UNL     1     -11.587  13.596  70.011  1.00  0.00    -0.180 C  
HETATM   11  C   UNL     1     -10.423  15.514  69.112  1.00  0.00    -0.232 C  
HETATM   12  C   UNL     1     -10.451  16.710  68.231  1.00  0.00    -0.321 A  
HETATM   13  O   UNL     1      -9.641  15.520  70.063  1.00  0.00    -0.228 OA 
HETATM   14  C   UNL     1     -10.502  16.694  66.824  1.00  0.00    -0.261 A  
HETATM   15  C   UNL     1     -10.428  17.894  66.100  1.00  0.00    -0.321 A  
HETATM   16  N   UNL     1     -10.678  15.482  66.118  1.00  0.00    -0.314 NA 
HETATM   17  C   UNL     1     -10.187  15.166  64.877  1.00  0.00    -0.196 A  
HETATM   18  C   UNL     1     -10.372  19.111  66.784  1.00  0.00    -0.507 A  
HETATM   19  C   UNL     1     -10.336  19.123  68.173  1.00  0.00    -0.376 A  
HETATM   20  N   UNL     1     -10.538  13.959  64.502  1.00  0.00    -0.411 NA 
HETATM   21  C   UNL     1     -10.349  17.939  68.896  1.00  0.00    -0.272 A  
HETATM   22  F   UNL     1     -10.299  20.291  68.822  1.00  0.00    -0.538 F  
ENDBRANCH   4   6
ENDBRANCH   3   4
ENDBRANCH   2   3
TORSDOF 3
ENDMDL
MODEL       32
REMARK 921   NORMALIZED FREE ENERGY PREDICTED BY IDOCK:   -5.51 KCAL/MOL
REMARK 922        TOTAL FREE ENERGY PREDICTED BY IDOCK:   -6.76 KCAL/MOL
REMARK 923 INTER-LIGAND FREE ENERGY PREDICTED BY IDOCK:   -6.51 KCAL/MOL
REMARK 924 INTRA-LIGAND FREE ENERGY PREDICTED BY IDOCK:   -0.24 KCAL/MOL
REMARK 927      BINDING AFFINITY PREDICTED BY RF-SCORE:    0.00 PKD
ROOT
HETATM    1  C   UNL     1     -11.370   6.898  70.505  1.00  0.00    -0.374 C  
HETATM    2  C   UNL     1     -10.781   6.946  69.107  1.00  0.00    -0.234 C  
ENDROOT
BRANCH   2   3
HETATM    3  O   UNL     1     -10.164   8.225  68.926  1.00  0.00    -0.202 OA 
BRANCH   3   4
HETATM    4  C   UNL     1     -10.349   8.794  67.700  1.00  0.00    -0.254 C  
HETATM    5  O   UNL     1     -10.262   8.190  66.636  1.00  0.00    -0.292 OA 
BRANCH   4   6
HETATM    6  C   UNL     1     -10.764  10.193  67.803  1.00  0.00    -0.277 A  
HETATM    7  C   UNL     1     -10.366  11.243  66.989  1.00  0.00    -0.227 A  
HETATM    8  C   UNL     1      -9.348  11.343  65.918  1.00  0.00    -0.228 C  
HETATM    9  N   UNL     1     -10.034  11.598  64.669  1.00  0.00    -0.250 N  
HETATM   10  C   UNL     1      -9.651  10.821  63.503  1.00  0.00    -0.320 C  
HETATM   11  C   UNL     1     -10.792  12.737  64.435  1.00  0.00    -0.368 C  
HETATM   12  C   UNL     1     -10.825  13.812  65.460  1.00  0.00    -0.299 A  
HETATM   13  O   UNL     1     -11.379  12.938  63.372  1.00  0.00    -0.435 OA 
HETATM   14  C   UNL     1     -11.039  13.627  66.839  1.00  0.00    -0.304 A  
HETATM   15  C   UNL     1     -11.142  14.736  67.693  1.00  0.00    -0.311 A  
HETATM   16  N   UNL     1     -11.103  12.329  67.396  1.00  0.00    -0.266 NA 
HETATM   17  C   UNL     1     -11.843  11.927  68.479  1.00  0.00    -0.297 A  
HETATM   18  C   UNL     1     -10.965  16.023  67.179  1.00  0.00    -0.183 A  
HETATM   19  C   UNL     1     -10.740  16.200  65.820  1.00  0.00    -0.280 A  
HETATM   20  N   UNL     1     -11.674  10.653  68.744  1.00  0.00    -0.317 NA 
HETATM   21  C   UNL     1     -10.694  15.113  64.958  1.00  0.00    -0.451 A  
HETATM   22  F   UNL     1     -10.554  17.432  65.336  1.00  0.00    -0.344 F  
ENDBRANCH   4   6
ENDBRANCH   3   4
ENDBRANCH   2   3
TORSDOF 3
ENDMDL
MODEL       33
REMARK 921   NORMALIZED FREE ENERGY PREDICTED BY IDOCK:   -5.49 KCAL/MOL
REMARK 922        TOTAL FREE ENERGY PREDICTED BY IDOCK:   -6.74 KCAL/MOL
REMARK 923 INTER-LIGAND FREE ENERGY PREDICTED BY IDOCK:   -6.45 KCAL/MOL
REMARK 924 INTRA-LIGAND FREE ENERGY PREDICTED BY IDOCK:   -0.29 KCAL/MOL
REMARK 927      BINDING AFFINITY PREDICTED BY RF-SCORE:    0.00 PKD
ROOT
HETATM    1  C   UNL     1      -9.031   9.677  66.157  1.00  0.00    -0.186 C  
HETATM    2  C   UNL     1      -9.823  10.657  67.004  1.00  0.00    -0.185 C  
ENDROOT
BRANCH   2   3
HETATM    3  O   UNL     1      -9.952  11.879  66.269  1.00  0.00    -0.211 OA 
BRANCH   3   4
HETATM    4  C   UNL     1     -11.121  12.554  66.459  1.00  0.00    -0.287 C  
HETATM    5  O   UNL     1     -12.126  12.070  66.970  1.00  0.00    -0.603 OA 
BRANCH   4   6
HETATM    6  C   UNL     1     -11.011  13.961  66.072  1.00  0.00    -0.285 A  
HETATM    7  C   UNL     1     -10.268  14.945  66.709  1.00  0.00    -0.259 A  
HETATM    8  C   UNL     1      -9.514  14.956  67.983  1.00  0.00    -0.198 C  
HETATM    9  N   UNL     1      -8.110  15.125  67.672  1.00  0.00    -0.149 N  
HETATM   10  C   UNL     1      -7.150  14.261  68.337  1.00  0.00    -0.105 C  
HETATM   11  C   UNL     1      -7.600  16.251  67.042  1.00  0.00    -0.215 C  
HETATM   12  C   UNL     1      -8.501  17.399  66.762  1.00  0.00    -0.280 A  
HETATM   13  O   UNL     1      -6.406  16.379  66.774  1.00  0.00    -0.280 OA 
HETATM   14  C   UNL     1      -9.777  17.317  66.173  1.00  0.00    -0.224 A  
HETATM   15  C   UNL     1     -10.493  18.487  65.873  1.00  0.00    -0.379 A  
HETATM   16  N   UNL     1     -10.382  16.065  65.921  1.00  0.00    -0.349 NA 
HETATM   17  C   UNL     1     -11.244  15.750  64.902  1.00  0.00    -0.350 A  
HETATM   18  C   UNL     1      -9.961  19.731  66.223  1.00  0.00    -0.581 A  
HETATM   19  C   UNL     1      -8.707  19.805  66.816  1.00  0.00    -0.339 A  
HETATM   20  N   UNL     1     -11.631  14.498  64.954  1.00  0.00    -0.383 NA 
HETATM   21  C   UNL     1      -7.967  18.658  67.063  1.00  0.00    -0.254 A  
HETATM   22  F   UNL     1      -8.211  20.997  67.163  1.00  0.00    -0.349 F  
ENDBRANCH   4   6
ENDBRANCH   3   4
ENDBRANCH   2   3
TORSDOF 3
ENDMDL
MODEL       34
REMARK 921   NORMALIZED FREE ENERGY PREDICTED BY IDOCK:   -5.47 KCAL/MOL
REMARK 922        TOTAL FREE ENERGY PREDICTED BY IDOCK:   -6.72 KCAL/MOL
REMARK 923 INTER-LIGAND FREE ENERGY PREDICTED BY IDOCK:   -6.55 KCAL/MOL
REMARK 924 INTRA-LIGAND FREE ENERGY PREDICTED BY IDOCK:   -0.17 KCAL/MOL
REMARK 927      BINDING AFFINITY PREDICTED BY RF-SCORE:    0.00 PKD
ROOT
HETATM    1  C   UNL     1     -11.891   8.497  72.340  1.00  0.00    -0.437 C  
HETATM    2  C   UNL     1     -11.925   8.921  70.882  1.00  0.00    -0.213 C  
ENDROOT
BRANCH   2   3
HETATM    3  O   UNL     1     -11.093  10.077  70.734  1.00  0.00    -0.311 OA 
BRANCH   3   4
HETATM    4  C   UNL     1     -10.901  10.497  69.451  1.00  0.00    -0.249 C  
HETATM    5  O   UNL     1     -10.620   9.756  68.514  1.00  0.00    -0.206 OA 
BRANCH   4   6
HETATM    6  C   UNL     1     -11.168  11.928  69.297  1.00  0.00    -0.242 A  
HETATM    7  C   UNL     1     -10.613  12.783  68.356  1.00  0.00    -0.248 A  
HETATM    8  C   UNL     1      -9.531  12.603  67.362  1.00  0.00    -0.189 C  
HETATM    9  N   UNL     1     -10.114  12.711  66.041  1.00  0.00    -0.259 N  
HETATM   10  C   UNL     1      -9.751  11.716  65.046  1.00  0.00    -0.211 C  
HETATM   11  C   UNL     1     -10.729  13.862  65.571  1.00  0.00    -0.302 C  
HETATM   12  C   UNL     1     -10.704  15.092  66.406  1.00  0.00    -0.322 A  
HETATM   13  O   UNL     1     -11.230  13.939  64.450  1.00  0.00    -0.373 OA 
HETATM   14  C   UNL     1     -11.015  15.162  67.777  1.00  0.00    -0.306 A  
HETATM   15  C   UNL     1     -11.045  16.402  68.432  1.00  0.00    -0.351 A  
HETATM   16  N   UNL     1     -11.250  13.988  68.528  1.00  0.00    -0.251 NA 
HETATM   17  C   UNL     1     -12.089  13.846  69.605  1.00  0.00    -0.349 A  
HETATM   18  C   UNL     1     -10.701  17.562  67.733  1.00  0.00    -0.333 A  
HETATM   19  C   UNL     1     -10.381  17.486  66.382  1.00  0.00    -0.334 A  
HETATM   20  N   UNL     1     -12.074  12.625  70.082  1.00  0.00    -0.334 NA 
HETATM   21  C   UNL     1     -10.405  16.272  65.712  1.00  0.00    -0.393 A  
HETATM   22  F   UNL     1     -10.037  18.597  65.723  1.00  0.00    -0.338 F  
ENDBRANCH   4   6
ENDBRANCH   3   4
ENDBRANCH   2   3
TORSDOF 3
ENDMDL
MODEL       35
REMARK 921   NORMALIZED FREE ENERGY PREDICTED BY IDOCK:   -5.45 KCAL/MOL
REMARK 922        TOTAL FREE ENERGY PREDICTED BY IDOCK:   -6.69 KCAL/MOL
REMARK 923 INTER-LIGAND FREE ENERGY PREDICTED BY IDOCK:   -6.47 KCAL/MOL
REMARK 924 INTRA-LIGAND FREE ENERGY PREDICTED BY IDOCK:   -0.22 KCAL/MOL
REMARK 927      BINDING AFFINITY PREDICTED BY RF-SCORE:    0.00 PKD
ROOT
HETATM    1  C   UNL     1     -10.971   5.833  69.026  1.00  0.00    -0.280 C  
HETATM    2  C   UNL     1     -10.605   6.045  67.568  1.00  0.00    -0.273 C  
ENDROOT
BRANCH   2   3
HETATM    3  O   UNL     1     -11.174   7.287  67.141  1.00  0.00    -0.215 OA 
BRANCH   3   4
HETATM    4  C   UNL     1     -10.278   8.284  66.889  1.00  0.00    -0.318 C  
HETATM    5  O   UNL     1      -9.371   8.209  66.067  1.00  0.00    -0.182 OA 
BRANCH   4   6
HETATM    6  C   UNL     1     -10.586   9.500  67.643  1.00  0.00    -0.269 A  
HETATM    7  C   UNL     1     -10.549  10.805  67.172  1.00  0.00    -0.256 A  
HETATM    8  C   UNL     1     -10.075  11.391  65.898  1.00  0.00    -0.243 C  
HETATM    9  N   UNL     1     -11.219  11.951  65.209  1.00  0.00    -0.314 N  
HETATM   10  C   UNL     1     -11.376  11.664  63.794  1.00  0.00    -0.393 C  
HETATM   11  C   UNL     1     -11.983  12.989  65.721  1.00  0.00    -0.429 C  
HETATM   12  C   UNL     1     -11.562  13.648  66.985  1.00  0.00    -0.389 A  
HETATM   13  O   UNL     1     -12.959  13.450  65.131  1.00  0.00    -0.710 OA 
HETATM   14  C   UNL     1     -11.179  12.988  68.168  1.00  0.00    -0.272 A  
HETATM   15  C   UNL     1     -10.892  13.726  69.327  1.00  0.00    -0.141 A  
HETATM   16  N   UNL     1     -11.026  11.584  68.199  1.00  0.00    -0.212 NA 
HETATM   17  C   UNL     1     -11.248  10.748  69.264  1.00  0.00    -0.272 A  
HETATM   18  C   UNL     1     -10.924  15.122  69.283  1.00  0.00    -0.260 A  
HETATM   19  C   UNL     1     -11.290  15.769  68.109  1.00  0.00    -0.337 A  
HETATM   20  N   UNL     1     -11.006   9.494  68.965  1.00  0.00    -0.154 NA 
HETATM   21  C   UNL     1     -11.631  15.047  66.975  1.00  0.00    -0.248 A  
HETATM   22  F   UNL     1     -11.302  17.105  68.069  1.00  0.00    -0.297 F  
ENDBRANCH   4   6
ENDBRANCH   3   4
ENDBRANCH   2   3
TORSDOF 3
ENDMDL
MODEL       36
REMARK 921   NORMALIZED FREE ENERGY PREDICTED BY IDOCK:   -5.42 KCAL/MOL
REMARK 922        TOTAL FREE ENERGY PREDICTED BY IDOCK:   -6.65 KCAL/MOL
REMARK 923 INTER-LIGAND FREE ENERGY PREDICTED BY IDOCK:   -6.34 KCAL/MOL
REMARK 924 INTRA-LIGAND FREE ENERGY PREDICTED BY IDOCK:   -0.32 KCAL/MOL
REMARK 927      BINDING AFFINITY PREDICTED BY RF-SCORE:    0.00 PKD
ROOT
HETATM    1  C   UNL     1     -11.953  12.564  63.476  1.00  0.00    -0.629 C  
HETATM    2  C   UNL     1     -10.547  12.003  63.356  1.00  0.00    -0.428 C  
ENDROOT
BRANCH   2   3
HETATM    3  O   UNL     1     -10.489  10.780  64.097  1.00  0.00    -0.364 OA 
BRANCH   3   4
HETATM    4  C   UNL     1      -9.565  10.747  65.099  1.00  0.00    -0.245 C  
HETATM    5  O   UNL     1      -8.361  10.586  64.927  1.00  0.00    -0.170 OA 
BRANCH   4   6
HETATM    6  C   UNL     1     -10.163  11.029  66.405  1.00  0.00    -0.236 A  
HETATM    7  C   UNL     1     -10.539  10.103  67.367  1.00  0.00    -0.272 A  
HETATM    8  C   UNL     1     -10.610   8.624  67.353  1.00  0.00    -0.228 C  
HETATM    9  N   UNL     1      -9.638   8.121  68.300  1.00  0.00    -0.142 N  
HETATM   10  C   UNL     1      -8.775   7.028  67.883  1.00  0.00    -0.125 C  
HETATM   11  C   UNL     1      -9.692   8.384  69.661  1.00  0.00    -0.173 C  
HETATM   12  C   UNL     1     -10.856   9.127  70.211  1.00  0.00    -0.282 A  
HETATM   13  O   UNL     1      -8.854   7.959  70.455  1.00  0.00    -0.138 OA 
HETATM   14  C   UNL     1     -11.396  10.316  69.686  1.00  0.00    -0.257 A  
HETATM   15  C   UNL     1     -12.440  10.974  70.354  1.00  0.00    -0.397 A  
HETATM   16  N   UNL     1     -10.936  10.841  68.456  1.00  0.00    -0.223 NA 
HETATM   17  C   UNL     1     -10.870  12.161  68.091  1.00  0.00    -0.222 A  
HETATM   18  C   UNL     1     -12.986  10.407  71.509  1.00  0.00    -0.562 A  
HETATM   19  C   UNL     1     -12.458   9.226  72.017  1.00  0.00    -0.378 A  
HETATM   20  N   UNL     1     -10.401  12.312  66.875  1.00  0.00    -0.216 NA 
HETATM   21  C   UNL     1     -11.388   8.599  71.395  1.00  0.00    -0.350 A  
HETATM   22  F   UNL     1     -12.996   8.681  73.112  1.00  0.00    -0.300 F  
ENDBRANCH   4   6
ENDBRANCH   3   4
ENDBRANCH   2   3
TORSDOF 3
ENDMDL
MODEL       37
REMARK 921   NORMALIZED FREE ENERGY PREDICTED BY IDOCK:   -5.37 KCAL/MOL
REMARK 922        TOTAL FREE ENERGY PREDICTED BY IDOCK:   -6.60 KCAL/MOL
REMARK 923 INTER-LIGAND FREE ENERGY PREDICTED BY IDOCK:   -6.24 KCAL/MOL
REMARK 924 INTRA-LIGAND FREE ENERGY PREDICTED BY IDOCK:   -0.35 KCAL/MOL
REMARK 927      BINDING AFFINITY PREDICTED BY RF-SCORE:    0.00 PKD
ROOT
HETATM    1  C   UNL     1     -12.551   9.186  72.050  1.00  0.00    -0.463 C  
HETATM    2  C   UNL     1     -12.443  10.239  70.962  1.00  0.00    -0.384 C  
ENDROOT
BRANCH   2   3
HETATM    3  O   UNL     1     -11.055  10.449  70.680  1.00  0.00    -0.313 OA 
BRANCH   3   4
HETATM    4  C   UNL     1     -10.674  10.189  69.397  1.00  0.00    -0.238 C  
HETATM    5  O   UNL     1     -10.893   9.135  68.809  1.00  0.00    -0.171 OA 
BRANCH   4   6
HETATM    6  C   UNL     1     -10.060  11.356  68.761  1.00  0.00    -0.188 A  
HETATM    7  C   UNL     1     -10.634  12.605  68.579  1.00  0.00    -0.243 A  
HETATM    8  C   UNL     1     -12.007  13.113  68.802  1.00  0.00    -0.280 C  
HETATM    9  N   UNL     1     -11.953  14.101  69.859  1.00  0.00    -0.317 N  
HETATM   10  C   UNL     1     -12.945  14.029  70.919  1.00  0.00    -0.277 C  
HETATM   11  C   UNL     1     -11.236  15.285  69.760  1.00  0.00    -0.286 C  
HETATM   12  C   UNL     1     -10.572  15.627  68.475  1.00  0.00    -0.256 A  
HETATM   13  O   UNL     1     -11.190  16.113  70.669  1.00  0.00    -0.368 OA 
HETATM   14  C   UNL     1      -9.769  14.762  67.708  1.00  0.00    -0.213 A  
HETATM   15  C   UNL     1      -9.119  15.235  66.558  1.00  0.00    -0.334 A  
HETATM   16  N   UNL     1      -9.643  13.396  68.049  1.00  0.00    -0.213 NA 
HETATM   17  C   UNL     1      -8.551  12.589  67.852  1.00  0.00    -0.179 A  
HETATM   18  C   UNL     1      -9.326  16.552  66.139  1.00  0.00    -0.339 A  
HETATM   19  C   UNL     1     -10.131  17.398  66.892  1.00  0.00    -0.314 A  
HETATM   20  N   UNL     1      -8.761  11.365  68.276  1.00  0.00    -0.154 NA 
HETATM   21  C   UNL     1     -10.731  16.957  68.063  1.00  0.00    -0.364 A  
HETATM   22  F   UNL     1     -10.338  18.652  66.478  1.00  0.00    -0.347 F  
ENDBRANCH   4   6
ENDBRANCH   3   4
ENDBRANCH   2   3
TORSDOF 3
ENDMDL
MODEL       38
REMARK 921   NORMALIZED FREE ENERGY PREDICTED BY IDOCK:   -5.36 KCAL/MOL
REMARK 922        TOTAL FREE ENERGY PREDICTED BY IDOCK:   -6.58 KCAL/MOL
REMARK 923 INTER-LIGAND FREE ENERGY PREDICTED BY IDOCK:   -6.33 KCAL/MOL
REMARK 924 INTRA-LIGAND FREE ENERGY PREDICTED BY IDOCK:   -0.26 KCAL/MOL
REMARK 927      BINDING AFFINITY PREDICTED BY RF-SCORE:    0.00 PKD
ROOT
HETATM    1  C   UNL     1     -11.056   6.674  67.927  1.00  0.00    -0.310 C  
HETATM    2  C   UNL     1      -9.891   7.467  67.361  1.00  0.00    -0.169 C  
ENDROOT
BRANCH   2   3
HETATM    3  O   UNL     1     -10.419   8.520  66.549  1.00  0.00    -0.256 OA 
BRANCH   3   4
HETATM    4  C   UNL     1      -9.491   9.276  65.896  1.00  0.00    -0.259 C  
HETATM    5  O   UNL     1      -8.840   8.893  64.930  1.00  0.00    -0.186 OA 
BRANCH   4   6
HETATM    6  C   UNL     1      -9.430  10.642  66.420  1.00  0.00    -0.171 A  
HETATM    7  C   UNL     1      -9.809  11.804  65.764  1.00  0.00    -0.240 A  
HETATM    8  C   UNL     1     -10.224  12.070  64.368  1.00  0.00    -0.302 C  
HETATM    9  N   UNL     1     -11.607  12.501  64.386  1.00  0.00    -0.338 N  
HETATM   10  C   UNL     1     -12.524  11.907  63.428  1.00  0.00    -0.463 C  
HETATM   11  C   UNL     1     -12.037  13.655  65.025  1.00  0.00    -0.392 C  
HETATM   12  C   UNL     1     -11.033  14.566  65.633  1.00  0.00    -0.323 A  
HETATM   13  O   UNL     1     -13.216  14.005  65.042  1.00  0.00    -0.720 OA 
HETATM   14  C   UNL     1      -9.969  14.178  66.469  1.00  0.00    -0.283 A  
HETATM   15  C   UNL     1      -9.143  15.147  67.058  1.00  0.00    -0.249 A  
HETATM   16  N   UNL     1      -9.681  12.812  66.690  1.00  0.00    -0.246 NA 
HETATM   17  C   UNL     1      -9.156  12.247  67.825  1.00  0.00    -0.191 A  
HETATM   18  C   UNL     1      -9.340  16.498  66.758  1.00  0.00    -0.262 A  
HETATM   19  C   UNL     1     -10.383  16.875  65.921  1.00  0.00    -0.315 A  
HETATM   20  N   UNL     1      -9.004  10.950  67.703  1.00  0.00    -0.140 NA 
HETATM   21  C   UNL     1     -11.241  15.929  65.380  1.00  0.00    -0.100 A  
HETATM   22  F   UNL     1     -10.556  18.167  65.625  1.00  0.00    -0.412 F  
ENDBRANCH   4   6
ENDBRANCH   3   4
ENDBRANCH   2   3
TORSDOF 3
ENDMDL
MODEL       39
REMARK 921   NORMALIZED FREE ENERGY PREDICTED BY IDOCK:   -5.35 KCAL/MOL
REMARK 922        TOTAL FREE ENERGY PREDICTED BY IDOCK:   -6.57 KCAL/MOL
REMARK 923 INTER-LIGAND FREE ENERGY PREDICTED BY IDOCK:   -6.23 KCAL/MOL
REMARK 924 INTRA-LIGAND FREE ENERGY PREDICTED BY IDOCK:   -0.34 KCAL/MOL
REMARK 927      BINDING AFFINITY PREDICTED BY RF-SCORE:    0.00 PKD
ROOT
HETATM    1  C   UNL     1     -12.089  16.048  72.135  1.00  0.00    -0.611 C  
HETATM    2  C   UNL     1     -11.938  15.696  70.666  1.00  0.00    -0.402 C  
ENDROOT
BRANCH   2   3
HETATM    3  O   UNL     1     -10.951  16.564  70.098  1.00  0.00    -0.347 OA 
BRANCH   3   4
HETATM    4  C   UNL     1     -10.698  16.373  68.772  1.00  0.00    -0.321 C  
HETATM    5  O   UNL     1     -10.985  17.174  67.889  1.00  0.00    -0.343 OA 
BRANCH   4   6
HETATM    6  C   UNL     1      -9.949  15.139  68.529  1.00  0.00    -0.223 A  
HETATM    7  C   UNL     1     -10.368  14.041  67.791  1.00  0.00    -0.236 A  
HETATM    8  C   UNL     1     -11.667  13.693  67.172  1.00  0.00    -0.383 C  
HETATM    9  N   UNL     1     -11.487  13.668  65.736  1.00  0.00    -0.310 N  
HETATM   10  C   UNL     1     -12.475  14.340  64.908  1.00  0.00    -0.390 C  
HETATM   11  C   UNL     1     -10.632  12.788  65.090  1.00  0.00    -0.302 C  
HETATM   12  C   UNL     1      -9.938  11.737  65.880  1.00  0.00    -0.266 A  
HETATM   13  O   UNL     1     -10.480  12.783  63.869  1.00  0.00    -0.418 OA 
HETATM   14  C   UNL     1      -9.251  11.939  67.092  1.00  0.00    -0.183 A  
HETATM   15  C   UNL     1      -8.554  10.879  67.694  1.00  0.00    -0.124 A  
HETATM   16  N   UNL     1      -9.290  13.189  67.749  1.00  0.00    -0.198 NA 
HETATM   17  C   UNL     1      -8.306  13.751  68.523  1.00  0.00    -0.120 A  
HETATM   18  C   UNL     1      -8.602   9.606  67.119  1.00  0.00    -0.133 A  
HETATM   19  C   UNL     1      -9.292   9.409  65.930  1.00  0.00    -0.230 A  
HETATM   20  N   UNL     1      -8.661  14.922  68.996  1.00  0.00    -0.193 NA 
HETATM   21  C   UNL     1      -9.936  10.463  65.296  1.00  0.00    -0.376 A  
HETATM   22  F   UNL     1      -9.348   8.186  65.393  1.00  0.00    -0.122 F  
ENDBRANCH   4   6
ENDBRANCH   3   4
ENDBRANCH   2   3
TORSDOF 3
ENDMDL
MODEL       40
REMARK 921   NORMALIZED FREE ENERGY PREDICTED BY IDOCK:   -5.33 KCAL/MOL
REMARK 922        TOTAL FREE ENERGY PREDICTED BY IDOCK:   -6.55 KCAL/MOL
REMARK 923 INTER-LIGAND FREE ENERGY PREDICTED BY IDOCK:   -6.57 KCAL/MOL
REMARK 924 INTRA-LIGAND FREE ENERGY PREDICTED BY IDOCK:    0.02 KCAL/MOL
REMARK 927      BINDING AFFINITY PREDICTED BY RF-SCORE:    0.00 PKD
ROOT
HETATM    1  C   UNL     1     -10.479  16.846  68.355  1.00  0.00    -0.355 C  
HETATM    2  C   UNL     1     -10.633  15.651  67.431  1.00  0.00    -0.301 C  
ENDROOT
BRANCH   2   3
HETATM    3  O   UNL     1     -11.815  14.940  67.813  1.00  0.00    -0.345 OA 
BRANCH   3   4
HETATM    4  C   UNL     1     -12.227  13.979  66.938  1.00  0.00    -0.380 C  
HETATM    5  O   UNL     1     -12.862  14.201  65.912  1.00  0.00    -0.471 OA 
BRANCH   4   6
HETATM    6  C   UNL     1     -11.735  12.652  67.311  1.00  0.00    -0.370 A  
HETATM    7  C   UNL     1     -11.466  12.192  68.592  1.00  0.00    -0.296 A  
HETATM    8  C   UNL     1     -11.433  12.870  69.907  1.00  0.00    -0.077 C  
HETATM    9  N   UNL     1     -12.495  12.318  70.722  1.00  0.00    -0.322 N  
HETATM   10  C   UNL     1     -13.348  13.239  71.455  1.00  0.00    -0.249 C  
HETATM   11  C   UNL     1     -12.550  10.985  71.103  1.00  0.00    -0.418 C  
HETATM   12  C   UNL     1     -11.418  10.085  70.760  1.00  0.00    -0.438 A  
HETATM   13  O   UNL     1     -13.463  10.525  71.787  1.00  0.00    -0.338 OA 
HETATM   14  C   UNL     1     -10.804   9.978  69.498  1.00  0.00    -0.253 A  
HETATM   15  C   UNL     1      -9.804   9.020  69.277  1.00  0.00    -0.179 A  
HETATM   16  N   UNL     1     -11.144  10.863  68.449  1.00  0.00    -0.240 NA 
HETATM   17  C   UNL     1     -11.144  10.594  67.104  1.00  0.00    -0.196 A  
HETATM   18  C   UNL     1      -9.373   8.215  70.335  1.00  0.00    -0.158 A  
HETATM   19  C   UNL     1      -9.972   8.332  71.582  1.00  0.00    -0.212 A  
HETATM   20  N   UNL     1     -11.504  11.637  66.394  1.00  0.00    -0.420 NA 
HETATM   21  C   UNL     1     -11.002   9.237  71.796  1.00  0.00    -0.383 A  
HETATM   22  F   UNL     1      -9.545   7.571  72.595  1.00  0.00    -0.166 F  
ENDBRANCH   4   6
ENDBRANCH   3   4
ENDBRANCH   2   3
TORSDOF 3
ENDMDL
MODEL       41
REMARK 921   NORMALIZED FREE ENERGY PREDICTED BY IDOCK:   -5.30 KCAL/MOL
REMARK 922        TOTAL FREE ENERGY PREDICTED BY IDOCK:   -6.52 KCAL/MOL
REMARK 923 INTER-LIGAND FREE ENERGY PREDICTED BY IDOCK:   -6.25 KCAL/MOL
REMARK 924 INTRA-LIGAND FREE ENERGY PREDICTED BY IDOCK:   -0.27 KCAL/MOL
REMARK 927      BINDING AFFINITY PREDICTED BY RF-SCORE:    0.00 PKD
ROOT
HETATM    1  C   UNL     1     -11.595  12.318  63.965  1.00  0.00    -0.495 C  
HETATM    2  C   UNL     1     -12.345  13.262  64.888  1.00  0.00    -0.425 C  
ENDROOT
BRANCH   2   3
HETATM    3  O   UNL     1     -12.459  12.637  66.171  1.00  0.00    -0.520 OA 
BRANCH   3   4
HETATM    4  C   UNL     1     -11.588  13.087  67.119  1.00  0.00    -0.358 C  
HETATM    5  O   UNL     1     -10.852  14.058  66.978  1.00  0.00    -0.285 OA 
BRANCH   4   6
HETATM    6  C   UNL     1     -11.704  12.336  68.369  1.00  0.00    -0.337 A  
HETATM    7  C   UNL     1     -11.314  11.023  68.593  1.00  0.00    -0.281 A  
HETATM    8  C   UNL     1     -10.830   9.959  67.685  1.00  0.00    -0.257 C  
HETATM    9  N   UNL     1      -9.459   9.656  68.040  1.00  0.00    -0.132 N  
HETATM   10  C   UNL     1      -8.480   9.547  66.972  1.00  0.00    -0.128 C  
HETATM   11  C   UNL     1      -9.087   9.150  69.277  1.00  0.00    -0.146 C  
HETATM   12  C   UNL     1     -10.140   8.792  70.263  1.00  0.00    -0.214 A  
HETATM   13  O   UNL     1      -7.917   8.906  69.571  1.00  0.00    -0.087 OA 
HETATM   14  C   UNL     1     -11.239   9.596  70.621  1.00  0.00    -0.320 A  
HETATM   15  C   UNL     1     -12.114   9.183  71.638  1.00  0.00    -0.432 A  
HETATM   16  N   UNL     1     -11.511  10.801  69.935  1.00  0.00    -0.294 NA 
HETATM   17  C   UNL     1     -12.084  11.937  70.448  1.00  0.00    -0.333 A  
HETATM   18  C   UNL     1     -11.928   7.939  72.247  1.00  0.00    -0.387 A  
HETATM   19  C   UNL     1     -10.850   7.144  71.880  1.00  0.00    -0.226 A  
HETATM   20  N   UNL     1     -12.204  12.879  69.543  1.00  0.00    -0.185 NA 
HETATM   21  C   UNL     1      -9.946   7.569  70.918  1.00  0.00    -0.181 A  
HETATM   22  F   UNL     1     -10.687   5.948  72.455  1.00  0.00    -0.222 F  
ENDBRANCH   4   6
ENDBRANCH   3   4
ENDBRANCH   2   3
TORSDOF 3
ENDMDL
MODEL       42
REMARK 921   NORMALIZED FREE ENERGY PREDICTED BY IDOCK:   -5.28 KCAL/MOL
REMARK 922        TOTAL FREE ENERGY PREDICTED BY IDOCK:   -6.50 KCAL/MOL
REMARK 923 INTER-LIGAND FREE ENERGY PREDICTED BY IDOCK:   -6.31 KCAL/MOL
REMARK 924 INTRA-LIGAND FREE ENERGY PREDICTED BY IDOCK:   -0.19 KCAL/MOL
REMARK 927      BINDING AFFINITY PREDICTED BY RF-SCORE:    0.00 PKD
ROOT
HETATM    1  C   UNL     1     -10.819   5.274  72.305  1.00  0.00    -0.269 C  
HETATM    2  C   UNL     1     -10.464   6.472  73.168  1.00  0.00    -0.249 C  
ENDROOT
BRANCH   2   3
HETATM    3  O   UNL     1     -11.106   7.626  72.615  1.00  0.00    -0.300 OA 
BRANCH   3   4
HETATM    4  C   UNL     1     -10.268   8.622  72.209  1.00  0.00    -0.301 C  
HETATM    5  O   UNL     1      -9.079   8.689  72.500  1.00  0.00    -0.322 OA 
BRANCH   4   6
HETATM    6  C   UNL     1     -10.929   9.554  71.295  1.00  0.00    -0.370 A  
HETATM    7  C   UNL     1     -10.439  10.025  70.085  1.00  0.00    -0.284 A  
HETATM    8  C   UNL     1      -9.122   9.888  69.423  1.00  0.00    -0.206 C  
HETATM    9  N   UNL     1      -9.308   9.119  68.211  1.00  0.00    -0.135 N  
HETATM   10  C   UNL     1      -8.376   8.039  67.932  1.00  0.00    -0.129 C  
HETATM   11  C   UNL     1     -10.103   9.541  67.155  1.00  0.00    -0.229 C  
HETATM   12  C   UNL     1     -10.715  10.894  67.202  1.00  0.00    -0.320 A  
HETATM   13  O   UNL     1     -10.262   8.873  66.134  1.00  0.00    -0.259 OA 
HETATM   14  C   UNL     1     -11.408  11.446  68.297  1.00  0.00    -0.286 A  
HETATM   15  C   UNL     1     -12.023  12.702  68.183  1.00  0.00    -0.274 A  
HETATM   16  N   UNL     1     -11.453  10.775  69.540  1.00  0.00    -0.269 NA 
HETATM   17  C   UNL     1     -12.470  10.802  70.461  1.00  0.00    -0.360 A  
HETATM   18  C   UNL     1     -11.889  13.432  66.999  1.00  0.00    -0.443 A  
HETATM   19  C   UNL     1     -11.194  12.889  65.926  1.00  0.00    -0.293 A  
HETATM   20  N   UNL     1     -12.196  10.074  71.517  1.00  0.00    -0.396 NA 
HETATM   21  C   UNL     1     -10.631  11.623  66.009  1.00  0.00    -0.303 A  
HETATM   22  F   UNL     1     -11.055  13.599  64.802  1.00  0.00    -0.313 F  
ENDBRANCH   4   6
ENDBRANCH   3   4
ENDBRANCH   2   3
TORSDOF 3
ENDMDL
MODEL       43
REMARK 921   NORMALIZED FREE ENERGY PREDICTED BY IDOCK:   -5.28 KCAL/MOL
REMARK 922        TOTAL FREE ENERGY PREDICTED BY IDOCK:   -6.49 KCAL/MOL
REMARK 923 INTER-LIGAND FREE ENERGY PREDICTED BY IDOCK:   -6.23 KCAL/MOL
REMARK 924 INTRA-LIGAND FREE ENERGY PREDICTED BY IDOCK:   -0.27 KCAL/MOL
REMARK 927      BINDING AFFINITY PREDICTED BY RF-SCORE:    0.00 PKD
ROOT
HETATM    1  C   UNL     1      -6.786  10.131  64.629  1.00  0.00    -0.117 C  
HETATM    2  C   UNL     1      -8.297   9.980  64.613  1.00  0.00    -0.165 C  
ENDROOT
BRANCH   2   3
HETATM    3  O   UNL     1      -8.832  10.715  65.719  1.00  0.00    -0.171 OA 
BRANCH   3   4
HETATM    4  C   UNL     1      -9.756  11.664  65.397  1.00  0.00    -0.229 C  
HETATM    5  O   UNL     1      -9.977  12.058  64.257  1.00  0.00    -0.276 OA 
BRANCH   4   6
HETATM    6  C   UNL     1     -10.532  12.091  66.562  1.00  0.00    -0.221 A  
HETATM    7  C   UNL     1     -10.239  13.141  67.420  1.00  0.00    -0.232 A  
HETATM    8  C   UNL     1      -9.059  14.026  67.545  1.00  0.00    -0.196 C  
HETATM    9  N   UNL     1      -9.474  15.374  67.216  1.00  0.00    -0.208 N  
HETATM   10  C   UNL     1      -8.638  16.150  66.315  1.00  0.00    -0.338 C  
HETATM   11  C   UNL     1     -10.422  16.078  67.943  1.00  0.00    -0.292 C  
HETATM   12  C   UNL     1     -10.974  15.482  69.188  1.00  0.00    -0.259 A  
HETATM   13  O   UNL     1     -10.774  17.220  67.649  1.00  0.00    -0.359 OA 
HETATM   14  C   UNL     1     -11.452  14.165  69.328  1.00  0.00    -0.292 A  
HETATM   15  C   UNL     1     -12.037  13.750  70.534  1.00  0.00    -0.416 A  
HETATM   16  N   UNL     1     -11.307  13.226  68.281  1.00  0.00    -0.280 NA 
HETATM   17  C   UNL     1     -12.151  12.188  67.975  1.00  0.00     0.026 A  
HETATM   18  C   UNL     1     -12.083  14.630  71.618  1.00  0.00    -0.404 A  
HETATM   19  C   UNL     1     -11.597  15.924  71.480  1.00  0.00    -0.465 A  
HETATM   20  N   UNL     1     -11.725  11.496  66.945  1.00  0.00    -0.513 NA 
HETATM   21  C   UNL     1     -11.070  16.362  70.274  1.00  0.00    -0.267 A  
HETATM   22  F   UNL     1     -11.629  16.756  72.526  1.00  0.00    -0.553 F  
ENDBRANCH   4   6
ENDBRANCH   3   4
ENDBRANCH   2   3
TORSDOF 3
ENDMDL
MODEL       44
REMARK 921   NORMALIZED FREE ENERGY PREDICTED BY IDOCK:   -5.23 KCAL/MOL
REMARK 922        TOTAL FREE ENERGY PREDICTED BY IDOCK:   -6.43 KCAL/MOL
REMARK 923 INTER-LIGAND FREE ENERGY PREDICTED BY IDOCK:   -6.44 KCAL/MOL
REMARK 924 INTRA-LIGAND FREE ENERGY PREDICTED BY IDOCK:    0.00 KCAL/MOL
REMARK 927      BINDING AFFINITY PREDICTED BY RF-SCORE:    0.00 PKD
ROOT
HETATM    1  C   UNL     1     -11.706  16.111  71.016  1.00  0.00    -0.407 C  
HETATM    2  C   UNL     1     -10.800  16.423  69.839  1.00  0.00    -0.333 C  
ENDROOT
BRANCH   2   3
HETATM    3  O   UNL     1     -11.555  16.250  68.635  1.00  0.00    -0.355 OA 
BRANCH   3   4
HETATM    4  C   UNL     1     -10.894  16.552  67.482  1.00  0.00    -0.237 C  
HETATM    5  O   UNL     1     -10.427  17.656  67.220  1.00  0.00    -0.346 OA 
BRANCH   4   6
HETATM    6  C   UNL     1     -10.714  15.377  66.628  1.00  0.00    -0.309 A  
HETATM    7  C   UNL     1     -10.405  14.088  67.039  1.00  0.00    -0.267 A  
HETATM    8  C   UNL     1     -10.026  13.526  68.355  1.00  0.00    -0.232 C  
HETATM    9  N   UNL     1     -11.076  12.623  68.775  1.00  0.00    -0.251 N  
HETATM   10  C   UNL     1     -11.560  12.720  70.142  1.00  0.00    -0.052 C  
HETATM   11  C   UNL     1     -11.420  11.475  68.076  1.00  0.00    -0.311 C  
HETATM   12  C   UNL     1     -10.613  11.075  66.894  1.00  0.00    -0.307 A  
HETATM   13  O   UNL     1     -12.322  10.720  68.438  1.00  0.00    -0.396 OA 
HETATM   14  C   UNL     1     -10.219  11.923  65.841  1.00  0.00    -0.236 A  
HETATM   15  C   UNL     1      -9.536  11.402  64.732  1.00  0.00    -0.239 A  
HETATM   16  N   UNL     1     -10.456  13.315  65.904  1.00  0.00    -0.280 NA 
HETATM   17  C   UNL     1     -10.703  14.163  64.854  1.00  0.00    -0.428 A  
HETATM   18  C   UNL     1      -9.190  10.048  64.707  1.00  0.00    -0.301 A  
HETATM   19  C   UNL     1      -9.569   9.218  65.754  1.00  0.00    -0.271 A  
HETATM   20  N   UNL     1     -10.874  15.401  65.251  1.00  0.00    -0.384 NA 
HETATM   21  C   UNL     1     -10.295   9.712  66.828  1.00  0.00    -0.292 A  
HETATM   22  F   UNL     1      -9.221   7.927  65.732  1.00  0.00    -0.199 F  
ENDBRANCH   4   6
ENDBRANCH   3   4
ENDBRANCH   2   3
TORSDOF 3
ENDMDL
MODEL       45
REMARK 921   NORMALIZED FREE ENERGY PREDICTED BY IDOCK:   -5.23 KCAL/MOL
REMARK 922        TOTAL FREE ENERGY PREDICTED BY IDOCK:   -6.43 KCAL/MOL
REMARK 923 INTER-LIGAND FREE ENERGY PREDICTED BY IDOCK:   -6.13 KCAL/MOL
REMARK 924 INTRA-LIGAND FREE ENERGY PREDICTED BY IDOCK:   -0.31 KCAL/MOL
REMARK 927      BINDING AFFINITY PREDICTED BY RF-SCORE:    0.00 PKD
ROOT
HETATM    1  C   UNL     1     -10.570  19.346  66.834  1.00  0.00    -0.581 C  
HETATM    2  C   UNL     1      -9.933  18.149  67.517  1.00  0.00    -0.332 C  
ENDROOT
BRANCH   2   3
HETATM    3  O   UNL     1     -10.626  16.971  67.091  1.00  0.00    -0.312 OA 
BRANCH   3   4
HETATM    4  C   UNL     1     -10.864  16.049  68.067  1.00  0.00    -0.335 C  
HETATM    5  O   UNL     1     -11.724  16.165  68.934  1.00  0.00    -0.357 OA 
BRANCH   4   6
HETATM    6  C   UNL     1     -10.041  14.850  67.901  1.00  0.00    -0.227 A  
HETATM    7  C   UNL     1     -10.348  13.726  67.149  1.00  0.00    -0.261 A  
HETATM    8  C   UNL     1     -11.577  13.308  66.437  1.00  0.00    -0.347 C  
HETATM    9  N   UNL     1     -11.285  13.276  65.019  1.00  0.00    -0.298 N  
HETATM   10  C   UNL     1     -12.236  13.891  64.108  1.00  0.00    -0.393 C  
HETATM   11  C   UNL     1     -10.341  12.431  64.454  1.00  0.00    -0.343 C  
HETATM   12  C   UNL     1      -9.662  11.424  65.311  1.00  0.00    -0.276 A  
HETATM   13  O   UNL     1     -10.094  12.420  63.249  1.00  0.00    -0.398 OA 
HETATM   14  C   UNL     1      -9.082  11.672  66.569  1.00  0.00    -0.197 A  
HETATM   15  C   UNL     1      -8.385  10.654  67.239  1.00  0.00    -0.120 A  
HETATM   16  N   UNL     1      -9.232  12.926  67.203  1.00  0.00    -0.217 NA 
HETATM   17  C   UNL     1      -8.339  13.544  68.042  1.00  0.00    -0.168 A  
HETATM   18  C   UNL     1      -8.327   9.374  66.681  1.00  0.00    -0.119 A  
HETATM   19  C   UNL     1      -8.913   9.131  65.445  1.00  0.00    -0.207 A  
HETATM   20  N   UNL     1      -8.785  14.702  68.469  1.00  0.00    -0.172 NA 
HETATM   21  C   UNL     1      -9.554  10.145  64.748  1.00  0.00    -0.378 A  
HETATM   22  F   UNL     1      -8.868   7.901  64.924  1.00  0.00    -0.089 F  
ENDBRANCH   4   6
ENDBRANCH   3   4
ENDBRANCH   2   3
TORSDOF 3
ENDMDL
MODEL       46
REMARK 921   NORMALIZED FREE ENERGY PREDICTED BY IDOCK:   -5.23 KCAL/MOL
REMARK 922        TOTAL FREE ENERGY PREDICTED BY IDOCK:   -6.43 KCAL/MOL
REMARK 923 INTER-LIGAND FREE ENERGY PREDICTED BY IDOCK:   -6.35 KCAL/MOL
REMARK 924 INTRA-LIGAND FREE ENERGY PREDICTED BY IDOCK:   -0.08 KCAL/MOL
REMARK 927      BINDING AFFINITY PREDICTED BY RF-SCORE:    0.00 PKD
ROOT
HETATM    1  C   UNL     1     -12.313  13.673  70.683  1.00  0.00    -0.440 C  
HETATM    2  C   UNL     1     -11.829  13.556  69.248  1.00  0.00    -0.341 C  
ENDROOT
BRANCH   2   3
HETATM    3  O   UNL     1     -11.099  12.331  69.122  1.00  0.00    -0.238 OA 
BRANCH   3   4
HETATM    4  C   UNL     1     -11.484  11.526  68.091  1.00  0.00    -0.315 C  
HETATM    5  O   UNL     1     -12.069  11.918  67.086  1.00  0.00    -0.590 OA 
BRANCH   4   6
HETATM    6  C   UNL     1     -11.027  10.147  68.272  1.00  0.00    -0.248 A  
HETATM    7  C   UNL     1     -11.008   9.424  69.455  1.00  0.00    -0.173 A  
HETATM    8  C   UNL     1     -11.273   9.806  70.861  1.00  0.00    -0.359 C  
HETATM    9  N   UNL     1     -12.457   9.099  71.302  1.00  0.00    -0.311 N  
HETATM   10  C   UNL     1     -13.477   9.847  72.017  1.00  0.00    -0.380 C  
HETATM   11  C   UNL     1     -12.536   7.716  71.375  1.00  0.00    -0.333 C  
HETATM   12  C   UNL     1     -11.323   6.903  71.096  1.00  0.00    -0.332 A  
HETATM   13  O   UNL     1     -13.551   7.126  71.742  1.00  0.00    -0.354 OA 
HETATM   14  C   UNL     1     -10.460   7.065  69.996  1.00  0.00    -0.215 A  
HETATM   15  C   UNL     1      -9.399   6.170  69.793  1.00  0.00    -0.162 A  
HETATM   16  N   UNL     1     -10.612   8.155  69.108  1.00  0.00    -0.202 NA 
HETATM   17  C   UNL     1     -10.325   8.178  67.767  1.00  0.00    -0.233 A  
HETATM   18  C   UNL     1      -9.162   5.156  70.725  1.00  0.00    -0.188 A  
HETATM   19  C   UNL     1     -10.009   5.008  71.816  1.00  0.00    -0.191 A  
HETATM   20  N   UNL     1     -10.573   9.350  67.232  1.00  0.00    -0.265 NA 
HETATM   21  C   UNL     1     -11.096   5.852  71.994  1.00  0.00    -0.329 A  
HETATM   22  F   UNL     1      -9.768   4.046  72.713  1.00  0.00    -0.148 F  
ENDBRANCH   4   6
ENDBRANCH   3   4
ENDBRANCH   2   3
TORSDOF 3
ENDMDL
MODEL       47
REMARK 921   NORMALIZED FREE ENERGY PREDICTED BY IDOCK:   -5.22 KCAL/MOL
REMARK 922        TOTAL FREE ENERGY PREDICTED BY IDOCK:   -6.43 KCAL/MOL
REMARK 923 INTER-LIGAND FREE ENERGY PREDICTED BY IDOCK:   -6.11 KCAL/MOL
REMARK 924 INTRA-LIGAND FREE ENERGY PREDICTED BY IDOCK:   -0.32 KCAL/MOL
REMARK 927      BINDING AFFINITY PREDICTED BY RF-SCORE:    0.00 PKD
ROOT
HETATM    1  C   UNL     1     -12.212  12.075  63.212  1.00  0.00    -0.531 C  
HETATM    2  C   UNL     1     -11.277  12.076  64.408  1.00  0.00    -0.344 C  
ENDROOT
BRANCH   2   3
HETATM    3  O   UNL     1     -12.063  12.268  65.589  1.00  0.00    -0.557 OA 
BRANCH   3   4
HETATM    4  C   UNL     1     -12.168  13.558  66.018  1.00  0.00    -0.445 C  
HETATM    5  O   UNL     1     -13.039  14.340  65.655  1.00  0.00    -0.561 OA 
BRANCH   4   6
HETATM    6  C   UNL     1     -11.175  13.875  67.046  1.00  0.00    -0.313 A  
HETATM    7  C   UNL     1     -10.214  14.875  66.997  1.00  0.00    -0.256 A  
HETATM    8  C   UNL     1      -9.786  15.793  65.917  1.00  0.00    -0.354 C  
HETATM    9  N   UNL     1     -10.117  17.143  66.319  1.00  0.00    -0.312 N  
HETATM   10  C   UNL     1     -10.769  18.008  65.351  1.00  0.00     0.163 C  
HETATM   11  C   UNL     1      -9.573  17.761  67.436  1.00  0.00    -0.264 C  
HETATM   12  C   UNL     1      -8.514  17.062  68.210  1.00  0.00    -0.233 A  
HETATM   13  O   UNL     1      -9.870  18.906  67.774  1.00  0.00    -0.313 OA 
HETATM   14  C   UNL     1      -8.559  15.722  68.640  1.00  0.00    -0.194 A  
HETATM   15  C   UNL     1      -7.534  15.204  69.447  1.00  0.00    -0.204 A  
HETATM   16  N   UNL     1      -9.602  14.862  68.227  1.00  0.00    -0.208 NA 
HETATM   17  C   UNL     1     -10.143  13.817  68.932  1.00  0.00    -0.066 A  
HETATM   18  C   UNL     1      -6.436  16.006  69.768  1.00  0.00    -0.164 A  
HETATM   19  C   UNL     1      -6.390  17.324  69.331  1.00  0.00    -0.244 A  
HETATM   20  N   UNL     1     -11.095  13.212  68.261  1.00  0.00    -0.253 NA 
HETATM   21  C   UNL     1      -7.426  17.862  68.580  1.00  0.00    -0.280 A  
HETATM   22  F   UNL     1      -5.329  18.081  69.627  1.00  0.00    -0.172 F  
ENDBRANCH   4   6
ENDBRANCH   3   4
ENDBRANCH   2   3
TORSDOF 3
ENDMDL
MODEL       48
REMARK 921   NORMALIZED FREE ENERGY PREDICTED BY IDOCK:   -5.16 KCAL/MOL
REMARK 922        TOTAL FREE ENERGY PREDICTED BY IDOCK:   -6.35 KCAL/MOL
REMARK 923 INTER-LIGAND FREE ENERGY PREDICTED BY IDOCK:   -6.23 KCAL/MOL
REMARK 924 INTRA-LIGAND FREE ENERGY PREDICTED BY IDOCK:   -0.13 KCAL/MOL
REMARK 927      BINDING AFFINITY PREDICTED BY RF-SCORE:    0.00 PKD
ROOT
HETATM    1  C   UNL     1      -9.408   7.950  66.441  1.00  0.00    -0.247 C  
HETATM    2  C   UNL     1      -9.124   9.198  65.624  1.00  0.00    -0.219 C  
ENDROOT
BRANCH   2   3
HETATM    3  O   UNL     1     -10.117  10.178  65.946  1.00  0.00    -0.258 OA 
BRANCH   3   4
HETATM    4  C   UNL     1      -9.690  11.202  66.740  1.00  0.00    -0.193 C  
HETATM    5  O   UNL     1      -8.666  11.848  66.546  1.00  0.00    -0.194 OA 
BRANCH   4   6
HETATM    6  C   UNL     1     -10.651  11.511  67.799  1.00  0.00    -0.192 A  
HETATM    7  C   UNL     1     -10.665  12.637  68.610  1.00  0.00    -0.242 A  
HETATM    8  C   UNL     1      -9.707  13.752  68.782  1.00  0.00    -0.065 C  
HETATM    9  N   UNL     1     -10.349  14.968  68.330  1.00  0.00    -0.233 N  
HETATM   10  C   UNL     1      -9.599  15.858  67.460  1.00  0.00    -0.221 C  
HETATM   11  C   UNL     1     -11.489  15.493  68.920  1.00  0.00    -0.354 C  
HETATM   12  C   UNL     1     -12.034  14.853  70.146  1.00  0.00    -0.368 A  
HETATM   13  O   UNL     1     -12.032  16.523  68.521  1.00  0.00     0.057 OA 
HETATM   14  C   UNL     1     -12.248  13.473  70.328  1.00  0.00    -0.347 A  
HETATM   15  C   UNL     1     -12.857  13.001  71.500  1.00  0.00    -0.386 A  
HETATM   16  N   UNL     1     -11.811  12.538  69.363  1.00  0.00    -0.316 NA 
HETATM   17  C   UNL     1     -12.392  11.335  69.050  1.00  0.00     0.027 A  
HETATM   18  C   UNL     1     -13.190  13.901  72.516  1.00  0.00    -0.601 A  
HETATM   19  C   UNL     1     -12.965  15.260  72.338  1.00  0.00    -0.380 A  
HETATM   20  N   UNL     1     -11.732  10.700  68.111  1.00  0.00    -0.466 NA 
HETATM   21  C   UNL     1     -12.416  15.743  71.159  1.00  0.00    -0.490 A  
HETATM   22  F   UNL     1     -13.270  16.114  73.320  1.00  0.00    -0.540 F  
ENDBRANCH   4   6
ENDBRANCH   3   4
ENDBRANCH   2   3
TORSDOF 3
ENDMDL
MODEL       49
REMARK 921   NORMALIZED FREE ENERGY PREDICTED BY IDOCK:   -5.15 KCAL/MOL
REMARK 922        TOTAL FREE ENERGY PREDICTED BY IDOCK:   -6.34 KCAL/MOL
REMARK 923 INTER-LIGAND FREE ENERGY PREDICTED BY IDOCK:   -6.15 KCAL/MOL
REMARK 924 INTRA-LIGAND FREE ENERGY PREDICTED BY IDOCK:   -0.19 KCAL/MOL
REMARK 927      BINDING AFFINITY PREDICTED BY RF-SCORE:    0.00 PKD
ROOT
HETATM    1  C   UNL     1     -12.533  12.628  64.827  1.00  0.00    -0.555 C  
HETATM    2  C   UNL     1     -11.410  11.756  65.360  1.00  0.00    -0.222 C  
ENDROOT
BRANCH   2   3
HETATM    3  O   UNL     1     -11.696  11.446  66.728  1.00  0.00    -0.474 OA 
BRANCH   3   4
HETATM    4  C   UNL     1     -10.675  11.668  67.603  1.00  0.00    -0.207 C  
HETATM    5  O   UNL     1     -10.288  10.857  68.438  1.00  0.00    -0.164 OA 
BRANCH   4   6
HETATM    6  C   UNL     1     -10.020  12.956  67.365  1.00  0.00    -0.217 A  
HETATM    7  C   UNL     1     -10.545  14.216  67.610  1.00  0.00    -0.253 A  
HETATM    8  C   UNL     1     -11.895  14.672  68.014  1.00  0.00    -0.311 C  
HETATM    9  N   UNL     1     -11.792  15.262  69.332  1.00  0.00    -0.333 N  
HETATM   10  C   UNL     1     -12.776  14.884  70.333  1.00  0.00    -0.321 C  
HETATM   11  C   UNL     1     -11.030  16.388  69.606  1.00  0.00    -0.329 C  
HETATM   12  C   UNL     1     -10.364  17.104  68.487  1.00  0.00    -0.364 A  
HETATM   13  O   UNL     1     -10.942  16.874  70.733  1.00  0.00     0.060 OA 
HETATM   14  C   UNL     1      -9.603  16.507  67.464  1.00  0.00    -0.231 A  
HETATM   15  C   UNL     1      -8.946  17.304  66.515  1.00  0.00    -0.294 A  
HETATM   16  N   UNL     1      -9.528  15.101  67.343  1.00  0.00    -0.202 NA 
HETATM   17  C   UNL     1      -8.471  14.364  66.871  1.00  0.00    -0.127 A  
HETATM   18  C   UNL     1      -9.104  18.692  66.550  1.00  0.00    -0.317 A  
HETATM   19  C   UNL     1      -9.867  19.277  67.553  1.00  0.00    -0.340 A  
HETATM   20  N   UNL     1      -8.726  13.077  66.882  1.00  0.00    -0.189 NA 
HETATM   21  C   UNL     1     -10.474  18.501  68.530  1.00  0.00    -0.207 A  
HETATM   22  F   UNL     1     -10.028  20.603  67.571  1.00  0.00    -0.555 F  
ENDBRANCH   4   6
ENDBRANCH   3   4
ENDBRANCH   2   3
TORSDOF 3
ENDMDL
MODEL       50
REMARK 921   NORMALIZED FREE ENERGY PREDICTED BY IDOCK:   -5.14 KCAL/MOL
REMARK 922        TOTAL FREE ENERGY PREDICTED BY IDOCK:   -6.33 KCAL/MOL
REMARK 923 INTER-LIGAND FREE ENERGY PREDICTED BY IDOCK:   -6.09 KCAL/MOL
REMARK 924 INTRA-LIGAND FREE ENERGY PREDICTED BY IDOCK:   -0.24 KCAL/MOL
REMARK 927      BINDING AFFINITY PREDICTED BY RF-SCORE:    0.00 PKD
ROOT
HETATM    1  C   UNL     1      -7.398   7.797  62.837  1.00  0.00    -0.100 C  
HETATM    2  C   UNL     1      -7.999   7.857  64.230  1.00  0.00    -0.130 C  
ENDROOT
BRANCH   2   3
HETATM    3  O   UNL     1      -8.195   9.233  64.572  1.00  0.00    -0.133 OA 
BRANCH   3   4
HETATM    4  C   UNL     1      -9.071   9.462  65.592  1.00  0.00    -0.207 C  
HETATM    5  O   UNL     1      -9.745   8.593  66.134  1.00  0.00    -0.253 OA 
BRANCH   4   6
HETATM    6  C   UNL     1      -9.041  10.856  66.038  1.00  0.00    -0.191 A  
HETATM    7  C   UNL     1      -9.608  11.948  65.398  1.00  0.00    -0.165 A  
HETATM    8  C   UNL     1     -10.252  12.104  64.073  1.00  0.00    -0.370 C  
HETATM    9  N   UNL     1     -11.645  12.433  64.289  1.00  0.00    -0.344 N  
HETATM   10  C   UNL     1     -12.647  11.721  63.515  1.00  0.00    -0.367 C  
HETATM   11  C   UNL     1     -12.064  13.588  64.935  1.00  0.00    -0.397 C  
HETATM   12  C   UNL     1     -11.055  14.603  65.336  1.00  0.00    -0.349 A  
HETATM   13  O   UNL     1     -13.251  13.852  65.121  1.00  0.00    -0.768 OA 
HETATM   14  C   UNL     1      -9.849  14.340  66.012  1.00  0.00    -0.314 A  
HETATM   15  C   UNL     1      -9.023  15.399  66.420  1.00  0.00    -0.351 A  
HETATM   16  N   UNL     1      -9.421  13.014  66.246  1.00  0.00    -0.231 NA 
HETATM   17  C   UNL     1      -8.685  12.554  67.308  1.00  0.00    -0.193 A  
HETATM   18  C   UNL     1      -9.371  16.713  66.094  1.00  0.00    -0.318 A  
HETATM   19  C   UNL     1     -10.557  16.966  65.415  1.00  0.00    -0.162 A  
HETATM   20  N   UNL     1      -8.449  11.267  67.223  1.00  0.00    -0.140 NA 
HETATM   21  C   UNL     1     -11.409  15.930  65.058  1.00  0.00    -0.195 A  
HETATM   22  F   UNL     1     -10.877  18.222  65.092  1.00  0.00    -0.407 F  
ENDBRANCH   4   6
ENDBRANCH   3   4
ENDBRANCH   2   3
TORSDOF 3
ENDMDL
MODEL       51
REMARK 921   NORMALIZED FREE ENERGY PREDICTED BY IDOCK:   -5.13 KCAL/MOL
REMARK 922        TOTAL FREE ENERGY PREDICTED BY IDOCK:   -6.31 KCAL/MOL
REMARK 923 INTER-LIGAND FREE ENERGY PREDICTED BY IDOCK:   -6.11 KCAL/MOL
REMARK 924 INTRA-LIGAND FREE ENERGY PREDICTED BY IDOCK:   -0.20 KCAL/MOL
REMARK 927      BINDING AFFINITY PREDICTED BY RF-SCORE:    0.00 PKD
ROOT
HETATM    1  C   UNL     1     -13.250  15.370  72.298  1.00  0.00    -0.515 C  
HETATM    2  C   UNL     1     -13.561  13.884  72.279  1.00  0.00    -0.544 C  
ENDROOT
BRANCH   2   3
HETATM    3  O   UNL     1     -12.626  13.242  71.405  1.00  0.00    -0.342 OA 
BRANCH   3   4
HETATM    4  C   UNL     1     -12.697  11.881  71.372  1.00  0.00    -0.290 C  
HETATM    5  O   UNL     1     -13.324  11.200  72.176  1.00  0.00    -0.452 OA 
BRANCH   4   6
HETATM    6  C   UNL     1     -12.017  11.326  70.201  1.00  0.00    -0.369 A  
HETATM    7  C   UNL     1     -11.219  10.192  70.160  1.00  0.00    -0.310 A  
HETATM    8  C   UNL     1     -10.688   9.308  71.222  1.00  0.00    -0.352 C  
HETATM    9  N   UNL     1     -11.286   8.000  71.057  1.00  0.00    -0.261 N  
HETATM   10  C   UNL     1     -11.814   7.333  72.235  1.00  0.00    -0.248 C  
HETATM   11  C   UNL     1     -11.100   7.214  69.929  1.00  0.00    -0.235 C  
HETATM   12  C   UNL     1     -10.158   7.669  68.873  1.00  0.00    -0.202 A  
HETATM   13  O   UNL     1     -11.622   6.108  69.796  1.00  0.00    -0.405 OA 
HETATM   14  C   UNL     1     -10.113   8.959  68.312  1.00  0.00    -0.187 A  
HETATM   15  C   UNL     1      -9.237   9.238  67.252  1.00  0.00    -0.149 A  
HETATM   16  N   UNL     1     -10.905  10.006  68.835  1.00  0.00    -0.219 NA 
HETATM   17  C   UNL     1     -11.443  11.064  68.145  1.00  0.00    -0.302 A  
HETATM   18  C   UNL     1      -8.362   8.246  66.800  1.00  0.00    -0.107 A  
HETATM   19  C   UNL     1      -8.401   6.978  67.366  1.00  0.00    -0.122 A  
HETATM   20  N   UNL     1     -12.124  11.866  68.928  1.00  0.00    -0.283 NA 
HETATM   21  C   UNL     1      -9.304   6.676  68.375  1.00  0.00    -0.123 A  
HETATM   22  F   UNL     1      -7.551   6.039  66.940  1.00  0.00    -0.088 F  
ENDBRANCH   4   6
ENDBRANCH   3   4
ENDBRANCH   2   3
TORSDOF 3
ENDMDL
MODEL       52
REMARK 921   NORMALIZED FREE ENERGY PREDICTED BY IDOCK:   -5.11 KCAL/MOL
REMARK 922        TOTAL FREE ENERGY PREDICTED BY IDOCK:   -6.29 KCAL/MOL
REMARK 923 INTER-LIGAND FREE ENERGY PREDICTED BY IDOCK:   -6.13 KCAL/MOL
REMARK 924 INTRA-LIGAND FREE ENERGY PREDICTED BY IDOCK:   -0.16 KCAL/MOL
REMARK 927      BINDING AFFINITY PREDICTED BY RF-SCORE:    0.00 PKD
ROOT
HETATM    1  C   UNL     1     -10.369  19.927  65.951  1.00  0.00    -0.567 C  
HETATM    2  C   UNL     1      -9.757  18.569  66.246  1.00  0.00    -0.305 C  
ENDROOT
BRANCH   2   3
HETATM    3  O   UNL     1     -10.658  17.847  67.092  1.00  0.00    -0.360 OA 
BRANCH   3   4
HETATM    4  C   UNL     1     -10.178  17.540  68.330  1.00  0.00    -0.372 C  
HETATM    5  O   UNL     1     -10.186  18.309  69.287  1.00  0.00    -0.275 OA 
BRANCH   4   6
HETATM    6  C   UNL     1      -9.740  16.147  68.419  1.00  0.00    -0.219 A  
HETATM    7  C   UNL     1     -10.301  15.054  67.774  1.00  0.00    -0.245 A  
HETATM    8  C   UNL     1     -11.531  14.898  66.964  1.00  0.00    -0.326 C  
HETATM    9  N   UNL     1     -11.137  14.568  65.611  1.00  0.00    -0.317 N  
HETATM   10  C   UNL     1     -11.775  15.279  64.516  1.00  0.00    -0.305 C  
HETATM   11  C   UNL     1     -10.443  13.413  65.280  1.00  0.00    -0.324 C  
HETATM   12  C   UNL     1     -10.175  12.399  66.332  1.00  0.00    -0.253 A  
HETATM   13  O   UNL     1     -10.105  13.148  64.127  1.00  0.00    -0.335 OA 
HETATM   14  C   UNL     1      -9.661  12.662  67.616  1.00  0.00    -0.197 A  
HETATM   15  C   UNL     1      -9.364  11.603  68.488  1.00  0.00    -0.169 A  
HETATM   16  N   UNL     1      -9.485  13.989  68.069  1.00  0.00    -0.199 NA 
HETATM   17  C   UNL     1      -8.526  14.449  68.936  1.00  0.00    -0.069 A  
HETATM   18  C   UNL     1      -9.642  10.290  68.101  1.00  0.00    -0.151 A  
HETATM   19  C   UNL     1     -10.162  10.036  66.838  1.00  0.00    -0.238 A  
HETATM   20  N   UNL     1      -8.641  15.736  69.159  1.00  0.00    -0.242 NA 
HETATM   21  C   UNL     1     -10.405  11.071  65.947  1.00  0.00    -0.315 A  
HETATM   22  F   UNL     1     -10.441   8.779  66.479  1.00  0.00    -0.346 F  
ENDBRANCH   4   6
ENDBRANCH   3   4
ENDBRANCH   2   3
TORSDOF 3
ENDMDL
MODEL       53
REMARK 921   NORMALIZED FREE ENERGY PREDICTED BY IDOCK:   -5.09 KCAL/MOL
REMARK 922        TOTAL FREE ENERGY PREDICTED BY IDOCK:   -6.27 KCAL/MOL
REMARK 923 INTER-LIGAND FREE ENERGY PREDICTED BY IDOCK:   -6.06 KCAL/MOL
REMARK 924 INTRA-LIGAND FREE ENERGY PREDICTED BY IDOCK:   -0.20 KCAL/MOL
REMARK 927      BINDING AFFINITY PREDICTED BY RF-SCORE:    0.00 PKD
ROOT
HETATM    1  C   UNL     1     -10.420   8.543  67.064  1.00  0.00    -0.362 C  
HETATM    2  C   UNL     1      -9.673   9.855  66.902  1.00  0.00    -0.186 C  
ENDROOT
BRANCH   2   3
HETATM    3  O   UNL     1     -10.607  10.850  66.467  1.00  0.00    -0.248 OA 
BRANCH   3   4
HETATM    4  C   UNL     1     -10.276  11.496  65.313  1.00  0.00    -0.267 C  
HETATM    5  O   UNL     1      -9.984  10.933  64.263  1.00  0.00    -0.277 OA 
BRANCH   4   6
HETATM    6  C   UNL     1     -10.408  12.948  65.441  1.00  0.00    -0.296 A  
HETATM    7  C   UNL     1      -9.827  13.756  66.407  1.00  0.00    -0.298 A  
HETATM    8  C   UNL     1      -9.062  13.447  67.636  1.00  0.00    -0.203 C  
HETATM    9  N   UNL     1      -7.712  13.939  67.460  1.00  0.00    -0.175 N  
HETATM   10  C   UNL     1      -6.610  13.066  67.824  1.00  0.00    -0.146 C  
HETATM   11  C   UNL     1      -7.408  15.280  67.278  1.00  0.00    -0.195 C  
HETATM   12  C   UNL     1      -8.493  16.292  67.374  1.00  0.00    -0.190 A  
HETATM   13  O   UNL     1      -6.257  15.686  67.119  1.00  0.00    -0.317 OA 
HETATM   14  C   UNL     1      -9.748  16.214  66.742  1.00  0.00    -0.242 A  
HETATM   15  C   UNL     1     -10.654  17.282  66.836  1.00  0.00    -0.213 A  
HETATM   16  N   UNL     1     -10.140  15.046  66.050  1.00  0.00    -0.282 NA 
HETATM   17  C   UNL     1     -10.958  14.968  64.950  1.00  0.00    -0.413 A  
HETATM   18  C   UNL     1     -10.330  18.396  67.614  1.00  0.00    -0.427 A  
HETATM   19  C   UNL     1      -9.095  18.463  68.247  1.00  0.00    -0.312 A  
HETATM   20  N   UNL     1     -11.130  13.731  64.552  1.00  0.00    -0.385 NA 
HETATM   21  C   UNL     1      -8.169  17.437  68.113  1.00  0.00    -0.238 A  
HETATM   22  F   UNL     1      -8.797  19.524  69.004  1.00  0.00    -0.393 F  
ENDBRANCH   4   6
ENDBRANCH   3   4
ENDBRANCH   2   3
TORSDOF 3
ENDMDL
MODEL       54
REMARK 921   NORMALIZED FREE ENERGY PREDICTED BY IDOCK:   -5.08 KCAL/MOL
REMARK 922        TOTAL FREE ENERGY PREDICTED BY IDOCK:   -6.26 KCAL/MOL
REMARK 923 INTER-LIGAND FREE ENERGY PREDICTED BY IDOCK:   -6.10 KCAL/MOL
REMARK 924 INTRA-LIGAND FREE ENERGY PREDICTED BY IDOCK:   -0.15 KCAL/MOL
REMARK 927      BINDING AFFINITY PREDICTED BY RF-SCORE:    0.00 PKD
ROOT
HETATM    1  C   UNL     1      -5.776  20.560  69.616  1.00  0.00    -0.400 C  
HETATM    2  C   UNL     1      -6.479  20.353  68.287  1.00  0.00    -0.309 C  
ENDROOT
BRANCH   2   3
HETATM    3  O   UNL     1      -7.375  19.244  68.423  1.00  0.00    -0.279 OA 
BRANCH   3   4
HETATM    4  C   UNL     1      -7.155  18.207  67.565  1.00  0.00    -0.199 C  
HETATM    5  O   UNL     1      -6.067  17.666  67.397  1.00  0.00    -0.140 OA 
BRANCH   4   6
HETATM    6  C   UNL     1      -8.393  17.743  66.938  1.00  0.00    -0.238 A  
HETATM    7  C   UNL     1      -8.743  16.431  66.655  1.00  0.00    -0.256 A  
HETATM    8  C   UNL     1      -7.989  15.159  66.735  1.00  0.00    -0.012 C  
HETATM    9  N   UNL     1      -8.609  14.334  67.751  1.00  0.00    -0.166 N  
HETATM   10  C   UNL     1      -7.750  13.677  68.721  1.00  0.00    -0.064 C  
HETATM   11  C   UNL     1      -9.915  13.874  67.666  1.00  0.00    -0.237 C  
HETATM   12  C   UNL     1     -10.700  14.136  66.431  1.00  0.00    -0.288 A  
HETATM   13  O   UNL     1     -10.435  13.181  68.541  1.00  0.00    -0.249 OA 
HETATM   14  C   UNL     1     -10.810  15.376  65.774  1.00  0.00    -0.343 A  
HETATM   15  C   UNL     1     -11.660  15.516  64.667  1.00  0.00    -0.281 A  
HETATM   16  N   UNL     1     -10.032  16.484  66.182  1.00  0.00    -0.325 NA 
HETATM   17  C   UNL     1     -10.378  17.810  66.114  1.00  0.00    -0.340 A  
HETATM   18  C   UNL     1     -12.347  14.402  64.178  1.00  0.00    -0.340 A  
HETATM   19  C   UNL     1     -12.225  13.177  64.821  1.00  0.00    -0.425 A  
HETATM   20  N   UNL     1      -9.427  18.590  66.569  1.00  0.00    -0.314 NA 
HETATM   21  C   UNL     1     -11.432  13.041  65.952  1.00  0.00    -0.374 A  
HETATM   22  F   UNL     1     -12.872  12.111  64.339  1.00  0.00    -0.526 F  
ENDBRANCH   4   6
ENDBRANCH   3   4
ENDBRANCH   2   3
TORSDOF 3
ENDMDL
MODEL       55
REMARK 921   NORMALIZED FREE ENERGY PREDICTED BY IDOCK:   -5.08 KCAL/MOL
REMARK 922        TOTAL FREE ENERGY PREDICTED BY IDOCK:   -6.25 KCAL/MOL
REMARK 923 INTER-LIGAND FREE ENERGY PREDICTED BY IDOCK:   -6.23 KCAL/MOL
REMARK 924 INTRA-LIGAND FREE ENERGY PREDICTED BY IDOCK:   -0.02 KCAL/MOL
REMARK 927      BINDING AFFINITY PREDICTED BY RF-SCORE:    0.00 PKD
ROOT
HETATM    1  C   UNL     1      -8.366   8.790  63.905  1.00  0.00    -0.145 C  
HETATM    2  C   UNL     1      -8.549  10.018  64.779  1.00  0.00    -0.177 C  
ENDROOT
BRANCH   2   3
HETATM    3  O   UNL     1      -9.876   9.989  65.317  1.00  0.00    -0.291 OA 
BRANCH   3   4
HETATM    4  C   UNL     1     -10.286  11.141  65.921  1.00  0.00    -0.251 C  
HETATM    5  O   UNL     1     -10.283  12.244  65.385  1.00  0.00    -0.261 OA 
BRANCH   4   6
HETATM    6  C   UNL     1     -10.829  10.895  67.258  1.00  0.00    -0.287 A  
HETATM    7  C   UNL     1     -10.381   9.962  68.181  1.00  0.00    -0.195 A  
HETATM    8  C   UNL     1      -9.382   8.872  68.092  1.00  0.00    -0.142 C  
HETATM    9  N   UNL     1      -8.286   9.195  68.982  1.00  0.00    -0.124 N  
HETATM   10  C   UNL     1      -6.930   9.047  68.483  1.00  0.00    -0.064 C  
HETATM   11  C   UNL     1      -8.432   9.322  70.356  1.00  0.00    -0.206 C  
HETATM   12  C   UNL     1      -9.744   9.009  70.980  1.00  0.00    -0.348 A  
HETATM   13  O   UNL     1      -7.495   9.607  71.101  1.00  0.00    -0.328 OA 
HETATM   14  C   UNL     1     -10.998   9.468  70.533  1.00  0.00    -0.288 A  
HETATM   15  C   UNL     1     -12.158   9.178  71.267  1.00  0.00    -0.392 A  
HETATM   16  N   UNL     1     -11.119  10.182  69.319  1.00  0.00    -0.231 NA 
HETATM   17  C   UNL     1     -12.031  11.162  69.021  1.00  0.00    -0.320 A  
HETATM   18  C   UNL     1     -12.072   8.374  72.407  1.00  0.00    -0.443 A  
HETATM   19  C   UNL     1     -10.835   7.912  72.836  1.00  0.00    -0.386 A  
HETATM   20  N   UNL     1     -11.879  11.620  67.801  1.00  0.00    -0.611 NA 
HETATM   21  C   UNL     1      -9.674   8.242  72.150  1.00  0.00    -0.344 A  
HETATM   22  F   UNL     1     -10.761   7.130  73.918  1.00  0.00    -0.398 F  
ENDBRANCH   4   6
ENDBRANCH   3   4
ENDBRANCH   2   3
TORSDOF 3
ENDMDL
MODEL       56
REMARK 921   NORMALIZED FREE ENERGY PREDICTED BY IDOCK:   -5.07 KCAL/MOL
REMARK 922        TOTAL FREE ENERGY PREDICTED BY IDOCK:   -6.24 KCAL/MOL
REMARK 923 INTER-LIGAND FREE ENERGY PREDICTED BY IDOCK:   -5.80 KCAL/MOL
REMARK 924 INTRA-LIGAND FREE ENERGY PREDICTED BY IDOCK:   -0.44 KCAL/MOL
REMARK 927      BINDING AFFINITY PREDICTED BY RF-SCORE:    0.00 PKD
ROOT
HETATM    1  C   UNL     1     -10.857  12.023  63.284  1.00  0.00    -0.400 C  
HETATM    2  C   UNL     1      -9.453  11.454  63.184  1.00  0.00    -0.343 C  
ENDROOT
BRANCH   2   3
HETATM    3  O   UNL     1      -9.414  10.229  63.924  1.00  0.00    -0.270 OA 
BRANCH   3   4
HETATM    4  C   UNL     1      -8.774  10.293  65.126  1.00  0.00    -0.175 C  
HETATM    5  O   UNL     1      -7.555  10.301  65.262  1.00  0.00    -0.141 OA 
BRANCH   4   6
HETATM    6  C   UNL     1      -9.711  10.455  66.239  1.00  0.00    -0.205 A  
HETATM    7  C   UNL     1      -9.981  11.622  66.938  1.00  0.00    -0.202 A  
HETATM    8  C   UNL     1      -9.358  12.965  66.915  1.00  0.00    -0.240 C  
HETATM    9  N   UNL     1     -10.338  13.905  66.414  1.00  0.00    -0.284 N  
HETATM   10  C   UNL     1      -9.922  14.856  65.397  1.00  0.00    -0.332 C  
HETATM   11  C   UNL     1     -11.538  14.171  67.058  1.00  0.00    -0.382 C  
HETATM   12  C   UNL     1     -11.802  13.554  68.385  1.00  0.00    -0.408 A  
HETATM   13  O   UNL     1     -12.368  14.965  66.618  1.00  0.00    -0.038 OA 
HETATM   14  C   UNL     1     -11.616  12.198  68.713  1.00  0.00    -0.327 A  
HETATM   15  C   UNL     1     -11.994  11.719  69.977  1.00  0.00    -0.421 A  
HETATM   16  N   UNL     1     -11.003  11.309  67.803  1.00  0.00    -0.232 NA 
HETATM   17  C   UNL     1     -11.250   9.967  67.659  1.00  0.00     0.043 A  
HETATM   18  C   UNL     1     -12.494  12.609  70.932  1.00  0.00    -0.368 A  
HETATM   19  C   UNL     1     -12.663  13.949  70.607  1.00  0.00    -0.281 A  
HETATM   20  N   UNL     1     -10.504   9.426  66.725  1.00  0.00    -0.226 NA 
HETATM   21  C   UNL     1     -12.348  14.421  69.341  1.00  0.00    -0.228 A  
HETATM   22  F   UNL     1     -13.127  14.798  71.530  1.00  0.00    -0.342 F  
ENDBRANCH   4   6
ENDBRANCH   3   4
ENDBRANCH   2   3
TORSDOF 3
ENDMDL
MODEL       57
REMARK 921   NORMALIZED FREE ENERGY PREDICTED BY IDOCK:   -5.06 KCAL/MOL
REMARK 922        TOTAL FREE ENERGY PREDICTED BY IDOCK:   -6.23 KCAL/MOL
REMARK 923 INTER-LIGAND FREE ENERGY PREDICTED BY IDOCK:   -5.98 KCAL/MOL
REMARK 924 INTRA-LIGAND FREE ENERGY PREDICTED BY IDOCK:   -0.25 KCAL/MOL
REMARK 927      BINDING AFFINITY PREDICTED BY RF-SCORE:    0.00 PKD
ROOT
HETATM    1  C   UNL     1     -10.675   6.139  71.350  1.00  0.00    -0.308 C  
HETATM    2  C   UNL     1     -10.215   7.585  71.388  1.00  0.00    -0.186 C  
ENDROOT
BRANCH   2   3
HETATM    3  O   UNL     1      -9.530   7.869  70.164  1.00  0.00    -0.160 OA 
BRANCH   3   4
HETATM    4  C   UNL     1      -9.102   9.155  70.019  1.00  0.00    -0.192 C  
HETATM    5  O   UNL     1      -8.640   9.838  70.927  1.00  0.00    -0.161 OA 
BRANCH   4   6
HETATM    6  C   UNL     1      -9.162   9.599  68.626  1.00  0.00    -0.136 A  
HETATM    7  C   UNL     1     -10.144  10.387  68.043  1.00  0.00    -0.163 A  
HETATM    8  C   UNL     1     -11.447  10.884  68.540  1.00  0.00    -0.310 C  
HETATM    9  N   UNL     1     -11.372  12.328  68.628  1.00  0.00    -0.266 N  
HETATM   10  C   UNL     1     -11.864  12.969  69.835  1.00  0.00    -0.307 C  
HETATM   11  C   UNL     1     -11.167  13.148  67.529  1.00  0.00    -0.282 C  
HETATM   12  C   UNL     1     -11.129  12.547  66.170  1.00  0.00    -0.336 A  
HETATM   13  O   UNL     1     -11.094  14.373  67.617  1.00  0.00    -0.282 OA 
HETATM   14  C   UNL     1     -10.392  11.407  65.795  1.00  0.00    -0.255 A  
HETATM   15  C   UNL     1     -10.365  10.993  64.455  1.00  0.00    -0.424 A  
HETATM   16  N   UNL     1      -9.712  10.633  66.762  1.00  0.00    -0.180 NA 
HETATM   17  C   UNL     1      -8.549   9.925  66.590  1.00  0.00    -0.125 A  
HETATM   18  C   UNL     1     -11.126  11.679  63.504  1.00  0.00    -0.476 A  
HETATM   19  C   UNL     1     -11.862  12.795  63.881  1.00  0.00    -0.468 A  
HETATM   20  N   UNL     1      -8.184   9.305  67.687  1.00  0.00    -0.114 NA 
HETATM   21  C   UNL     1     -11.849  13.247  65.193  1.00  0.00    -0.377 A  
HETATM   22  F   UNL     1     -12.601  13.437  62.971  1.00  0.00    -0.473 F  
ENDBRANCH   4   6
ENDBRANCH   3   4
ENDBRANCH   2   3
TORSDOF 3
ENDMDL
MODEL       58
REMARK 921   NORMALIZED FREE ENERGY PREDICTED BY IDOCK:   -5.05 KCAL/MOL
REMARK 922        TOTAL FREE ENERGY PREDICTED BY IDOCK:   -6.22 KCAL/MOL
REMARK 923 INTER-LIGAND FREE ENERGY PREDICTED BY IDOCK:   -5.97 KCAL/MOL
REMARK 924 INTRA-LIGAND FREE ENERGY PREDICTED BY IDOCK:   -0.25 KCAL/MOL
REMARK 927      BINDING AFFINITY PREDICTED BY RF-SCORE:    0.00 PKD
ROOT
HETATM    1  C   UNL     1     -10.330  19.674  68.419  1.00  0.00    -0.502 C  
HETATM    2  C   UNL     1      -9.724  18.302  68.656  1.00  0.00    -0.361 C  
ENDROOT
BRANCH   2   3
HETATM    3  O   UNL     1     -10.761  17.325  68.513  1.00  0.00    -0.353 OA 
BRANCH   3   4
HETATM    4  C   UNL     1     -10.392  16.040  68.781  1.00  0.00    -0.237 C  
HETATM    5  O   UNL     1      -9.859  15.675  69.824  1.00  0.00    -0.281 OA 
BRANCH   4   6
HETATM    6  C   UNL     1     -10.800  15.120  67.718  1.00  0.00    -0.292 A  
HETATM    7  C   UNL     1      -9.999  14.197  67.061  1.00  0.00    -0.260 A  
HETATM    8  C   UNL     1      -8.540  13.947  67.088  1.00  0.00    -0.203 C  
HETATM    9  N   UNL     1      -8.322  12.634  67.657  1.00  0.00    -0.161 N  
HETATM   10  C   UNL     1      -7.296  12.488  68.676  1.00  0.00    -0.099 C  
HETATM   11  C   UNL     1      -8.790  11.464  67.077  1.00  0.00    -0.168 C  
HETATM   12  C   UNL     1      -9.457  11.527  65.750  1.00  0.00    -0.255 A  
HETATM   13  O   UNL     1      -8.607  10.354  67.575  1.00  0.00    -0.124 OA 
HETATM   14  C   UNL     1     -10.468  12.434  65.380  1.00  0.00    -0.277 A  
HETATM   15  C   UNL     1     -11.085  12.330  64.124  1.00  0.00    -0.423 A  
HETATM   16  N   UNL     1     -10.844  13.491  66.238  1.00  0.00    -0.288 NA 
HETATM   17  C   UNL     1     -12.087  14.059  66.360  1.00  0.00    -0.455 A  
HETATM   18  C   UNL     1     -10.645  11.363  63.215  1.00  0.00    -0.374 A  
HETATM   19  C   UNL     1      -9.637  10.479  63.580  1.00  0.00    -0.320 A  
HETATM   20  N   UNL     1     -12.101  15.028  67.245  1.00  0.00    -0.043 NA 
HETATM   21  C   UNL     1      -9.061  10.536  64.841  1.00  0.00    -0.235 A  
HETATM   22  F   UNL     1      -9.209   9.567  62.701  1.00  0.00    -0.262 F  
ENDBRANCH   4   6
ENDBRANCH   3   4
ENDBRANCH   2   3
TORSDOF 3
ENDMDL
MODEL       59
REMARK 921   NORMALIZED FREE ENERGY PREDICTED BY IDOCK:   -5.04 KCAL/MOL
REMARK 922        TOTAL FREE ENERGY PREDICTED BY IDOCK:   -6.21 KCAL/MOL
REMARK 923 INTER-LIGAND FREE ENERGY PREDICTED BY IDOCK:   -6.07 KCAL/MOL
REMARK 924 INTRA-LIGAND FREE ENERGY PREDICTED BY IDOCK:   -0.13 KCAL/MOL
REMARK 927      BINDING AFFINITY PREDICTED BY RF-SCORE:    0.00 PKD
ROOT
HETATM    1  C   UNL     1     -10.196  16.980  66.855  1.00  0.00    -0.305 C  
HETATM    2  C   UNL     1     -10.528  16.001  65.743  1.00  0.00    -0.374 C  
ENDROOT
BRANCH   2   3
HETATM    3  O   UNL     1     -11.054  14.810  66.339  1.00  0.00    -0.330 OA 
BRANCH   3   4
HETATM    4  C   UNL     1     -11.934  14.111  65.567  1.00  0.00    -0.391 C  
HETATM    5  O   UNL     1     -13.097  14.445  65.366  1.00  0.00    -0.604 OA 
BRANCH   4   6
HETATM    6  C   UNL     1     -11.302  12.961  64.920  1.00  0.00    -0.307 A  
HETATM    7  C   UNL     1     -10.509  11.996  65.523  1.00  0.00    -0.269 A  
HETATM    8  C   UNL     1      -9.941  11.882  66.886  1.00  0.00    -0.200 C  
HETATM    9  N   UNL     1     -10.549  10.738  67.531  1.00  0.00    -0.220 N  
HETATM   10  C   UNL     1     -11.035  10.893  68.892  1.00  0.00    -0.229 C  
HETATM   11  C   UNL     1     -10.409   9.438  67.067  1.00  0.00    -0.252 C  
HETATM   12  C   UNL     1      -9.507   9.170  65.917  1.00  0.00    -0.326 A  
HETATM   13  O   UNL     1     -10.939   8.474  67.618  1.00  0.00    -0.091 OA 
HETATM   14  C   UNL     1      -9.478   9.891  64.708  1.00  0.00    -0.291 A  
HETATM   15  C   UNL     1      -8.642   9.479  63.659  1.00  0.00    -0.222 A  
HETATM   16  N   UNL     1     -10.247  11.066  64.546  1.00  0.00    -0.319 NA 
HETATM   17  C   UNL     1     -10.807  11.537  63.385  1.00  0.00    -0.346 A  
HETATM   18  C   UNL     1      -7.788   8.388  63.844  1.00  0.00    -0.151 A  
HETATM   19  C   UNL     1      -7.810   7.687  65.043  1.00  0.00    -0.126 A  
HETATM   20  N   UNL     1     -11.455  12.662  63.574  1.00  0.00    -0.490 NA 
HETATM   21  C   UNL     1      -8.675   8.052  66.065  1.00  0.00    -0.183 A  
HETATM   22  F   UNL     1      -6.980   6.655  65.220  1.00  0.00    -0.047 F  
ENDBRANCH   4   6
ENDBRANCH   3   4
ENDBRANCH   2   3
TORSDOF 3
ENDMDL
MODEL       60
REMARK 921   NORMALIZED FREE ENERGY PREDICTED BY IDOCK:   -5.01 KCAL/MOL
REMARK 922        TOTAL FREE ENERGY PREDICTED BY IDOCK:   -6.17 KCAL/MOL
REMARK 923 INTER-LIGAND FREE ENERGY PREDICTED BY IDOCK:   -6.00 KCAL/MOL
REMARK 924 INTRA-LIGAND FREE ENERGY PREDICTED BY IDOCK:   -0.18 KCAL/MOL
REMARK 927      BINDING AFFINITY PREDICTED BY RF-SCORE:    0.00 PKD
ROOT
HETATM    1  C   UNL     1     -10.374  14.952  68.107  1.00  0.00    -0.237 C  
HETATM    2  C   UNL     1     -11.394  14.143  67.326  1.00  0.00    -0.332 C  
ENDROOT
BRANCH   2   3
HETATM    3  O   UNL     1     -12.084  13.289  68.244  1.00  0.00    -0.333 OA 
BRANCH   3   4
HETATM    4  C   UNL     1     -11.895  11.952  68.052  1.00  0.00    -0.253 C  
HETATM    5  O   UNL     1     -11.724  11.426  66.957  1.00  0.00    -0.535 OA 
BRANCH   4   6
HETATM    6  C   UNL     1     -11.817  11.223  69.319  1.00  0.00    -0.354 A  
HETATM    7  C   UNL     1     -10.917  10.220  69.650  1.00  0.00    -0.270 A  
HETATM    8  C   UNL     1      -9.907   9.486  68.854  1.00  0.00    -0.174 C  
HETATM    9  N   UNL     1      -8.598   9.822  69.372  1.00  0.00    -0.151 N  
HETATM   10  C   UNL     1      -7.551  10.163  68.424  1.00  0.00    -0.087 C  
HETATM   11  C   UNL     1      -8.192   9.530  70.666  1.00  0.00    -0.112 C  
HETATM   12  C   UNL     1      -9.089   8.737  71.547  1.00  0.00    -0.322 A  
HETATM   13  O   UNL     1      -7.080   9.829  71.099  1.00  0.00    -0.332 OA 
HETATM   14  C   UNL     1     -10.464   8.967  71.743  1.00  0.00    -0.360 A  
HETATM   15  C   UNL     1     -11.182   8.204  72.676  1.00  0.00    -0.447 A  
HETATM   16  N   UNL     1     -11.156   9.928  70.971  1.00  0.00    -0.351 NA 
HETATM   17  C   UNL     1     -12.229  10.688  71.361  1.00  0.00    -0.302 A  
HETATM   18  C   UNL     1     -10.541   7.170  73.363  1.00  0.00    -0.424 A  
HETATM   19  C   UNL     1      -9.187   6.938  73.158  1.00  0.00    -0.134 A  
HETATM   20  N   UNL     1     -12.643  11.483  70.402  1.00  0.00    -0.202 NA 
HETATM   21  C   UNL     1      -8.455   7.724  72.280  1.00  0.00    -0.165 A  
HETATM   22  F   UNL     1      -8.583   5.937  73.806  1.00  0.00    -0.120 F  
ENDBRANCH   4   6
ENDBRANCH   3   4
ENDBRANCH   2   3
TORSDOF 3
ENDMDL
MODEL       61
REMARK 921   NORMALIZED FREE ENERGY PREDICTED BY IDOCK:   -4.98 KCAL/MOL
REMARK 922        TOTAL FREE ENERGY PREDICTED BY IDOCK:   -6.14 KCAL/MOL
REMARK 923 INTER-LIGAND FREE ENERGY PREDICTED BY IDOCK:   -6.12 KCAL/MOL
REMARK 924 INTRA-LIGAND FREE ENERGY PREDICTED BY IDOCK:   -0.03 KCAL/MOL
REMARK 927      BINDING AFFINITY PREDICTED BY RF-SCORE:    0.00 PKD
ROOT
HETATM    1  C   UNL     1     -14.218  15.207  71.377  1.00  0.00    -0.597 C  
HETATM    2  C   UNL     1     -13.141  14.357  72.027  1.00  0.00    -0.361 C  
ENDROOT
BRANCH   2   3
HETATM    3  O   UNL     1     -12.665  13.419  71.055  1.00  0.00    -0.342 OA 
BRANCH   3   4
HETATM    4  C   UNL     1     -12.757  12.108  71.415  1.00  0.00    -0.263 C  
HETATM    5  O   UNL     1     -13.507  11.679  72.285  1.00  0.00    -0.397 OA 
BRANCH   4   6
HETATM    6  C   UNL     1     -11.925  11.248  70.572  1.00  0.00    -0.371 A  
HETATM    7  C   UNL     1     -11.551  11.481  69.256  1.00  0.00    -0.322 A  
HETATM    8  C   UNL     1     -11.955  12.513  68.274  1.00  0.00    -0.221 C  
HETATM    9  N   UNL     1     -10.795  13.328  67.978  1.00  0.00    -0.237 N  
HETATM   10  C   UNL     1     -10.954  14.772  67.971  1.00  0.00    -0.271 C  
HETATM   11  C   UNL     1      -9.642  12.828  67.392  1.00  0.00    -0.199 C  
HETATM   12  C   UNL     1      -9.613  11.413  66.936  1.00  0.00    -0.203 A  
HETATM   13  O   UNL     1      -8.659  13.528  67.154  1.00  0.00    -0.205 OA 
HETATM   14  C   UNL     1     -10.038  10.299  67.685  1.00  0.00    -0.191 A  
HETATM   15  C   UNL     1      -9.871   9.002  67.177  1.00  0.00    -0.262 A  
HETATM   16  N   UNL     1     -10.684  10.466  68.930  1.00  0.00    -0.209 NA 
HETATM   17  C   UNL     1     -10.633   9.623  70.011  1.00  0.00    -0.260 A  
HETATM   18  C   UNL     1      -9.340   8.824  65.897  1.00  0.00    -0.284 A  
HETATM   19  C   UNL     1      -8.934   9.927  65.157  1.00  0.00    -0.198 A  
HETATM   20  N   UNL     1     -11.354  10.065  71.015  1.00  0.00    -0.365 NA 
HETATM   21  C   UNL     1      -9.042  11.210  65.673  1.00  0.00    -0.221 A  
HETATM   22  F   UNL     1      -8.443   9.751  63.926  1.00  0.00    -0.137 F  
ENDBRANCH   4   6
ENDBRANCH   3   4
ENDBRANCH   2   3
TORSDOF 3
ENDMDL
MODEL       62
REMARK 921   NORMALIZED FREE ENERGY PREDICTED BY IDOCK:   -4.98 KCAL/MOL
REMARK 922        TOTAL FREE ENERGY PREDICTED BY IDOCK:   -6.14 KCAL/MOL
REMARK 923 INTER-LIGAND FREE ENERGY PREDICTED BY IDOCK:   -5.87 KCAL/MOL
REMARK 924 INTRA-LIGAND FREE ENERGY PREDICTED BY IDOCK:   -0.27 KCAL/MOL
REMARK 927      BINDING AFFINITY PREDICTED BY RF-SCORE:    0.00 PKD
ROOT
HETATM    1  C   UNL     1      -9.737   4.098  66.560  1.00  0.00    -0.228 C  
HETATM    2  C   UNL     1      -8.657   5.150  66.739  1.00  0.00    -0.109 C  
ENDROOT
BRANCH   2   3
HETATM    3  O   UNL     1      -8.731   6.058  65.634  1.00  0.00    -0.153 OA 
BRANCH   3   4
HETATM    4  C   UNL     1      -7.919   7.150  65.721  1.00  0.00    -0.123 C  
HETATM    5  O   UNL     1      -6.776   7.130  66.165  1.00  0.00    -0.050 OA 
BRANCH   4   6
HETATM    6  C   UNL     1      -8.534   8.338  65.127  1.00  0.00    -0.146 A  
HETATM    7  C   UNL     1      -9.505   9.148  65.697  1.00  0.00    -0.240 A  
HETATM    8  C   UNL     1     -10.307   9.021  66.935  1.00  0.00    -0.254 C  
HETATM    9  N   UNL     1      -9.928  10.096  67.827  1.00  0.00    -0.162 N  
HETATM   10  C   UNL     1      -9.672   9.774  69.221  1.00  0.00    -0.196 C  
HETATM   11  C   UNL     1     -10.105  11.438  67.523  1.00  0.00    -0.183 C  
HETATM   12  C   UNL     1     -10.817  11.811  66.272  1.00  0.00    -0.325 A  
HETATM   13  O   UNL     1      -9.770  12.343  68.285  1.00  0.00    -0.215 OA 
HETATM   14  C   UNL     1     -10.569  11.276  64.994  1.00  0.00    -0.289 A  
HETATM   15  C   UNL     1     -11.246  11.782  63.873  1.00  0.00    -0.493 A  
HETATM   16  N   UNL     1      -9.679  10.192  64.821  1.00  0.00    -0.315 NA 
HETATM   17  C   UNL     1      -8.886   9.936  63.731  1.00  0.00    -0.232 A  
HETATM   18  C   UNL     1     -12.216  12.774  64.041  1.00  0.00    -0.518 A  
HETATM   19  C   UNL     1     -12.466  13.289  65.307  1.00  0.00    -0.489 A  
HETATM   20  N   UNL     1      -8.179   8.842  63.884  1.00  0.00    -0.166 NA 
HETATM   21  C   UNL     1     -11.761  12.837  66.413  1.00  0.00    -0.464 A  
HETATM   22  F   UNL     1     -13.407  14.226  65.464  1.00  0.00    -0.520 F  
ENDBRANCH   4   6
ENDBRANCH   3   4
ENDBRANCH   2   3
TORSDOF 3
ENDMDL
MODEL       63
REMARK 921   NORMALIZED FREE ENERGY PREDICTED BY IDOCK:   -4.97 KCAL/MOL
REMARK 922        TOTAL FREE ENERGY PREDICTED BY IDOCK:   -6.13 KCAL/MOL
REMARK 923 INTER-LIGAND FREE ENERGY PREDICTED BY IDOCK:   -6.20 KCAL/MOL
REMARK 924 INTRA-LIGAND FREE ENERGY PREDICTED BY IDOCK:    0.07 KCAL/MOL
REMARK 927      BINDING AFFINITY PREDICTED BY RF-SCORE:    0.00 PKD
ROOT
HETATM    1  C   UNL     1      -6.559   7.300  70.467  1.00  0.00    -0.047 C  
HETATM    2  C   UNL     1      -7.802   6.590  69.963  1.00  0.00    -0.111 C  
ENDROOT
BRANCH   2   3
HETATM    3  O   UNL     1      -8.818   7.573  69.735  1.00  0.00    -0.140 OA 
BRANCH   3   4
HETATM    4  C   UNL     1     -10.100   7.135  69.888  1.00  0.00    -0.191 C  
HETATM    5  O   UNL     1     -10.458   5.972  69.734  1.00  0.00    -0.206 OA 
BRANCH   4   6
HETATM    6  C   UNL     1     -10.989   8.198  70.359  1.00  0.00    -0.247 A  
HETATM    7  C   UNL     1     -10.882   9.554  70.091  1.00  0.00    -0.258 A  
HETATM    8  C   UNL     1      -9.834  10.358  69.423  1.00  0.00    -0.213 C  
HETATM    9  N   UNL     1     -10.397  10.909  68.208  1.00  0.00    -0.166 N  
HETATM   10  C   UNL     1      -9.617  10.817  66.986  1.00  0.00    -0.169 C  
HETATM   11  C   UNL     1     -11.468  11.791  68.196  1.00  0.00    -0.316 C  
HETATM   12  C   UNL     1     -12.009  12.295  69.486  1.00  0.00    -0.333 A  
HETATM   13  O   UNL     1     -11.945  12.244  67.157  1.00  0.00    -0.564 OA 
HETATM   14  C   UNL     1     -12.323  11.507  70.610  1.00  0.00    -0.364 A  
HETATM   15  C   UNL     1     -12.918  12.092  71.738  1.00  0.00    -0.437 A  
HETATM   16  N   UNL     1     -11.999  10.132  70.645  1.00  0.00    -0.309 NA 
HETATM   17  C   UNL     1     -12.685   9.135  71.292  1.00  0.00    -0.278 A  
HETATM   18  C   UNL     1     -13.137  13.472  71.767  1.00  0.00    -0.475 A  
HETATM   19  C   UNL     1     -12.814  14.247  70.660  1.00  0.00    -0.314 A  
HETATM   20  N   UNL     1     -12.116   7.964  71.133  1.00  0.00    -0.299 NA 
HETATM   21  C   UNL     1     -12.278  13.669  69.518  1.00  0.00    -0.316 A  
HETATM   22  F   UNL     1     -13.011  15.568  70.699  1.00  0.00    -0.441 F  
ENDBRANCH   4   6
ENDBRANCH   3   4
ENDBRANCH   2   3
TORSDOF 3
ENDMDL
MODEL       64
REMARK 921   NORMALIZED FREE ENERGY PREDICTED BY IDOCK:   -4.96 KCAL/MOL
REMARK 922        TOTAL FREE ENERGY PREDICTED BY IDOCK:   -6.11 KCAL/MOL
REMARK 923 INTER-LIGAND FREE ENERGY PREDICTED BY IDOCK:   -6.00 KCAL/MOL
REMARK 924 INTRA-LIGAND FREE ENERGY PREDICTED BY IDOCK:   -0.11 KCAL/MOL
REMARK 927      BINDING AFFINITY PREDICTED BY RF-SCORE:    0.00 PKD
ROOT
HETATM    1  C   UNL     1     -10.207  16.050  66.800  1.00  0.00    -0.275 C  
HETATM    2  C   UNL     1     -11.049  15.193  65.872  1.00  0.00    -0.319 C  
ENDROOT
BRANCH   2   3
HETATM    3  O   UNL     1     -11.978  14.451  66.669  1.00  0.00    -0.407 OA 
BRANCH   3   4
HETATM    4  C   UNL     1     -11.801  13.099  66.665  1.00  0.00    -0.391 C  
HETATM    5  O   UNL     1     -11.511  12.441  65.671  1.00  0.00    -0.335 OA 
BRANCH   4   6
HETATM    6  C   UNL     1     -11.900  12.530  68.009  1.00  0.00    -0.325 A  
HETATM    7  C   UNL     1     -11.501  11.262  68.409  1.00  0.00    -0.307 A  
HETATM    8  C   UNL     1     -11.023  10.083  67.652  1.00  0.00    -0.234 C  
HETATM    9  N   UNL     1      -9.647   9.836  68.030  1.00  0.00    -0.142 N  
HETATM   10  C   UNL     1      -8.680   9.582  66.976  1.00  0.00    -0.128 C  
HETATM   11  C   UNL     1      -9.258   9.509  69.321  1.00  0.00    -0.169 C  
HETATM   12  C   UNL     1     -10.298   9.289  70.360  1.00  0.00    -0.291 A  
HETATM   13  O   UNL     1      -8.085   9.311  69.633  1.00  0.00    -0.099 OA 
HETATM   14  C   UNL     1     -11.397  10.132  70.616  1.00  0.00    -0.352 A  
HETATM   15  C   UNL     1     -12.259   9.863  71.690  1.00  0.00    -0.482 A  
HETATM   16  N   UNL     1     -11.682  11.229  69.771  1.00  0.00    -0.317 NA 
HETATM   17  C   UNL     1     -12.254  12.424  70.128  1.00  0.00    -0.229 A  
HETATM   18  C   UNL     1     -12.060   8.717  72.464  1.00  0.00    -0.368 A  
HETATM   19  C   UNL     1     -10.983   7.881  72.200  1.00  0.00    -0.281 A  
HETATM   20  N   UNL     1     -12.389  13.230  69.102  1.00  0.00    -0.102 NA 
HETATM   21  C   UNL     1     -10.091   8.169  71.176  1.00  0.00    -0.222 A  
HETATM   22  F   UNL     1     -10.808   6.777  72.934  1.00  0.00    -0.223 F  
ENDBRANCH   4   6
ENDBRANCH   3   4
ENDBRANCH   2   3
TORSDOF 3
ENDMDL
MODEL       65
REMARK 921   NORMALIZED FREE ENERGY PREDICTED BY IDOCK:   -4.93 KCAL/MOL
REMARK 922        TOTAL FREE ENERGY PREDICTED BY IDOCK:   -6.08 KCAL/MOL
REMARK 923 INTER-LIGAND FREE ENERGY PREDICTED BY IDOCK:   -5.72 KCAL/MOL
REMARK 924 INTRA-LIGAND FREE ENERGY PREDICTED BY IDOCK:   -0.36 KCAL/MOL
REMARK 927      BINDING AFFINITY PREDICTED BY RF-SCORE:    0.00 PKD
ROOT
HETATM    1  C   UNL     1      -9.533   3.691  66.566  1.00  0.00    -0.188 C  
HETATM    2  C   UNL     1      -8.327   4.613  66.609  1.00  0.00    -0.106 C  
ENDROOT
BRANCH   2   3
HETATM    3  O   UNL     1      -8.729   5.845  67.217  1.00  0.00    -0.110 OA 
BRANCH   3   4
HETATM    4  C   UNL     1      -8.471   5.949  68.552  1.00  0.00    -0.111 C  
HETATM    5  O   UNL     1      -7.381   5.722  69.067  1.00  0.00    -0.079 OA 
BRANCH   4   6
HETATM    6  C   UNL     1      -9.623   6.464  69.294  1.00  0.00    -0.137 A  
HETATM    7  C   UNL     1      -9.900   7.791  69.588  1.00  0.00    -0.182 A  
HETATM    8  C   UNL     1      -9.118   9.035  69.409  1.00  0.00    -0.146 C  
HETATM    9  N   UNL     1      -9.812   9.866  68.447  1.00  0.00    -0.148 N  
HETATM   10  C   UNL     1      -9.036  10.479  67.383  1.00  0.00    -0.139 C  
HETATM   11  C   UNL     1     -11.087  10.371  68.657  1.00  0.00    -0.262 C  
HETATM   12  C   UNL     1     -11.748  10.154  69.970  1.00  0.00    -0.294 A  
HETATM   13  O   UNL     1     -11.671  11.068  67.828  1.00  0.00    -0.573 OA 
HETATM   14  C   UNL     1     -11.830   8.927  70.656  1.00  0.00    -0.128 A  
HETATM   15  C   UNL     1     -12.565   8.832  71.847  1.00  0.00    -0.428 A  
HETATM   16  N   UNL     1     -11.134   7.788  70.191  1.00  0.00    -0.242 NA 
HETATM   17  C   UNL     1     -11.514   6.475  70.318  1.00  0.00    -0.411 A  
HETATM   18  C   UNL     1     -13.162   9.975  72.384  1.00  0.00    -0.263 A  
HETATM   19  C   UNL     1     -13.068  11.186  71.710  1.00  0.00    -0.431 A  
HETATM   20  N   UNL     1     -10.640   5.657  69.782  1.00  0.00    -0.307 NA 
HETATM   21  C   UNL     1     -12.392  11.279  70.502  1.00  0.00    -0.446 A  
HETATM   22  F   UNL     1     -13.627  12.280  72.237  1.00  0.00    -0.589 F  
ENDBRANCH   4   6
ENDBRANCH   3   4
ENDBRANCH   2   3
TORSDOF 3
ENDMDL
MODEL       66
REMARK 921   NORMALIZED FREE ENERGY PREDICTED BY IDOCK:   -4.91 KCAL/MOL
REMARK 922        TOTAL FREE ENERGY PREDICTED BY IDOCK:   -6.05 KCAL/MOL
REMARK 923 INTER-LIGAND FREE ENERGY PREDICTED BY IDOCK:   -5.74 KCAL/MOL
REMARK 924 INTRA-LIGAND FREE ENERGY PREDICTED BY IDOCK:   -0.32 KCAL/MOL
REMARK 927      BINDING AFFINITY PREDICTED BY RF-SCORE:    0.00 PKD
ROOT
HETATM    1  C   UNL     1      -9.291  20.640  67.051  1.00  0.00    -0.424 C  
HETATM    2  C   UNL     1     -10.404  19.608  67.008  1.00  0.00    -0.460 C  
ENDROOT
BRANCH   2   3
HETATM    3  O   UNL     1     -10.544  19.048  68.318  1.00  0.00    -0.322 OA 
BRANCH   3   4
HETATM    4  C   UNL     1      -9.750  17.971  68.582  1.00  0.00    -0.350 C  
HETATM    5  O   UNL     1      -8.677  18.030  69.173  1.00  0.00    -0.060 OA 
BRANCH   4   6
HETATM    6  C   UNL     1     -10.374  16.715  68.165  1.00  0.00    -0.303 A  
HETATM    7  C   UNL     1      -9.801  15.714  67.394  1.00  0.00    -0.225 A  
HETATM    8  C   UNL     1      -8.521  15.637  66.652  1.00  0.00    -0.288 C  
HETATM    9  N   UNL     1      -7.704  14.617  67.273  1.00  0.00    -0.198 N  
HETATM   10  C   UNL     1      -6.309  14.923  67.542  1.00  0.00    -0.043 C  
HETATM   11  C   UNL     1      -8.068  13.279  67.331  1.00  0.00    -0.175 C  
HETATM   12  C   UNL     1      -9.300  12.831  66.632  1.00  0.00    -0.242 A  
HETATM   13  O   UNL     1      -7.369  12.422  67.870  1.00  0.00    -0.091 OA 
HETATM   14  C   UNL     1     -10.560  13.455  66.704  1.00  0.00    -0.282 A  
HETATM   15  C   UNL     1     -11.672  12.878  66.071  1.00  0.00    -0.456 A  
HETATM   16  N   UNL     1     -10.720  14.693  67.368  1.00  0.00    -0.276 NA 
HETATM   17  C   UNL     1     -11.831  15.138  68.037  1.00  0.00    -0.202 A  
HETATM   18  C   UNL     1     -11.509  11.716  65.312  1.00  0.00    -0.173 A  
HETATM   19  C   UNL     1     -10.261  11.111  65.233  1.00  0.00    -0.280 A  
HETATM   20  N   UNL     1     -11.656  16.338  68.537  1.00  0.00    -0.285 NA 
HETATM   21  C   UNL     1      -9.168  11.641  65.903  1.00  0.00    -0.206 A  
HETATM   22  F   UNL     1     -10.108  10.009  64.492  1.00  0.00    -0.394 F  
ENDBRANCH   4   6
ENDBRANCH   3   4
ENDBRANCH   2   3
TORSDOF 3
ENDMDL
MODEL       67
REMARK 921   NORMALIZED FREE ENERGY PREDICTED BY IDOCK:   -4.90 KCAL/MOL
REMARK 922        TOTAL FREE ENERGY PREDICTED BY IDOCK:   -6.05 KCAL/MOL
REMARK 923 INTER-LIGAND FREE ENERGY PREDICTED BY IDOCK:   -5.76 KCAL/MOL
REMARK 924 INTRA-LIGAND FREE ENERGY PREDICTED BY IDOCK:   -0.28 KCAL/MOL
REMARK 927      BINDING AFFINITY PREDICTED BY RF-SCORE:    0.00 PKD
ROOT
HETATM    1  C   UNL     1     -10.454   7.058  73.467  1.00  0.00    -0.413 C  
HETATM    2  C   UNL     1     -11.469   7.895  72.710  1.00  0.00    -0.368 C  
ENDROOT
BRANCH   2   3
HETATM    3  O   UNL     1     -10.756   8.815  71.876  1.00  0.00    -0.313 OA 
BRANCH   3   4
HETATM    4  C   UNL     1     -10.724   8.497  70.550  1.00  0.00    -0.221 C  
HETATM    5  O   UNL     1     -11.144   7.445  70.080  1.00  0.00    -0.259 OA 
BRANCH   4   6
HETATM    6  C   UNL     1     -10.223   9.603  69.734  1.00  0.00    -0.237 A  
HETATM    7  C   UNL     1     -10.897  10.771  69.406  1.00  0.00    -0.244 A  
HETATM    8  C   UNL     1     -12.297  11.205  69.616  1.00  0.00    -0.218 C  
HETATM    9  N   UNL     1     -12.285  12.334  70.523  1.00  0.00    -0.350 N  
HETATM   10  C   UNL     1     -13.233  12.340  71.624  1.00  0.00    -0.257 C  
HETATM   11  C   UNL     1     -11.664  13.540  70.230  1.00  0.00    -0.173 C  
HETATM   12  C   UNL     1     -11.071  13.744  68.883  1.00  0.00    -0.300 A  
HETATM   13  O   UNL     1     -11.652  14.488  71.013  1.00  0.00    -0.279 OA 
HETATM   14  C   UNL     1     -10.229  12.839  68.209  1.00  0.00    -0.244 A  
HETATM   15  C   UNL     1      -9.656  13.191  66.977  1.00  0.00    -0.241 A  
HETATM   16  N   UNL     1      -9.987  11.548  68.730  1.00  0.00    -0.190 NA 
HETATM   17  C   UNL     1      -8.844  10.801  68.598  1.00  0.00    -0.152 A  
HETATM   18  C   UNL     1      -9.978  14.417  66.390  1.00  0.00    -0.305 A  
HETATM   19  C   UNL     1     -10.820  15.302  67.053  1.00  0.00    -0.321 A  
HETATM   20  N   UNL     1      -8.945   9.638  69.196  1.00  0.00    -0.145 NA 
HETATM   21  C   UNL     1     -11.345  14.988  68.298  1.00  0.00    -0.331 A  
HETATM   22  F   UNL     1     -11.137  16.467  66.480  1.00  0.00    -0.204 F  
ENDBRANCH   4   6
ENDBRANCH   3   4
ENDBRANCH   2   3
TORSDOF 3
ENDMDL
MODEL       68
REMARK 921   NORMALIZED FREE ENERGY PREDICTED BY IDOCK:   -4.88 KCAL/MOL
REMARK 922        TOTAL FREE ENERGY PREDICTED BY IDOCK:   -6.03 KCAL/MOL
REMARK 923 INTER-LIGAND FREE ENERGY PREDICTED BY IDOCK:   -5.68 KCAL/MOL
REMARK 924 INTRA-LIGAND FREE ENERGY PREDICTED BY IDOCK:   -0.35 KCAL/MOL
REMARK 927      BINDING AFFINITY PREDICTED BY RF-SCORE:    0.00 PKD
ROOT
HETATM    1  C   UNL     1     -11.027  15.695  69.885  1.00  0.00    -0.323 C  
HETATM    2  C   UNL     1     -11.298  16.307  68.522  1.00  0.00    -0.330 C  
ENDROOT
BRANCH   2   3
HETATM    3  O   UNL     1     -10.049  16.728  67.966  1.00  0.00    -0.264 OA 
BRANCH   3   4
HETATM    4  C   UNL     1      -9.691  16.114  66.802  1.00  0.00    -0.242 C  
HETATM    5  O   UNL     1      -9.775  16.629  65.692  1.00  0.00    -0.530 OA 
BRANCH   4   6
HETATM    6  C   UNL     1      -9.095  14.798  67.038  1.00  0.00    -0.239 A  
HETATM    7  C   UNL     1      -9.670  13.563  66.774  1.00  0.00    -0.271 A  
HETATM    8  C   UNL     1     -11.031  13.169  66.344  1.00  0.00    -0.288 C  
HETATM    9  N   UNL     1     -10.933  12.587  65.023  1.00  0.00    -0.286 N  
HETATM   10  C   UNL     1     -11.884  13.014  64.011  1.00  0.00    -0.445 C  
HETATM   11  C   UNL     1     -10.214  11.431  64.751  1.00  0.00    -0.286 C  
HETATM   12  C   UNL     1      -9.598  10.677  65.874  1.00  0.00    -0.253 A  
HETATM   13  O   UNL     1     -10.130  10.951  63.621  1.00  0.00    -0.318 OA 
HETATM   14  C   UNL     1      -8.829  11.233  66.913  1.00  0.00    -0.165 A  
HETATM   15  C   UNL     1      -8.221  10.400  67.865  1.00  0.00    -0.106 A  
HETATM   16  N   UNL     1      -8.696  12.634  67.049  1.00  0.00    -0.203 NA 
HETATM   17  C   UNL     1      -7.616  13.321  67.543  1.00  0.00    -0.164 A  
HETATM   18  C   UNL     1      -8.438   9.021  67.816  1.00  0.00    -0.117 A  
HETATM   19  C   UNL     1      -9.209   8.478  66.795  1.00  0.00    -0.172 A  
HETATM   20  N   UNL     1      -7.815  14.617  67.541  1.00  0.00    -0.178 NA 
HETATM   21  C   UNL     1      -9.766   9.287  65.816  1.00  0.00    -0.339 A  
HETATM   22  F   UNL     1      -9.426   7.160  66.762  1.00  0.00    -0.158 F  
ENDBRANCH   4   6
ENDBRANCH   3   4
ENDBRANCH   2   3
TORSDOF 3
ENDMDL
MODEL       69
REMARK 921   NORMALIZED FREE ENERGY PREDICTED BY IDOCK:   -4.88 KCAL/MOL
REMARK 922        TOTAL FREE ENERGY PREDICTED BY IDOCK:   -6.02 KCAL/MOL
REMARK 923 INTER-LIGAND FREE ENERGY PREDICTED BY IDOCK:   -5.75 KCAL/MOL
REMARK 924 INTRA-LIGAND FREE ENERGY PREDICTED BY IDOCK:   -0.27 KCAL/MOL
REMARK 927      BINDING AFFINITY PREDICTED BY RF-SCORE:    0.00 PKD
ROOT
HETATM    1  C   UNL     1     -11.308  10.853  68.096  1.00  0.00    -0.383 C  
HETATM    2  C   UNL     1      -9.802  10.967  68.245  1.00  0.00    -0.178 C  
ENDROOT
BRANCH   2   3
HETATM    3  O   UNL     1      -9.261  11.407  66.994  1.00  0.00    -0.164 OA 
BRANCH   3   4
HETATM    4  C   UNL     1      -7.948  11.775  67.022  1.00  0.00    -0.164 C  
HETATM    5  O   UNL     1      -7.033  11.117  66.539  1.00  0.00    -0.138 OA 
BRANCH   4   6
HETATM    6  C   UNL     1      -7.764  13.103  67.610  1.00  0.00    -0.168 A  
HETATM    7  C   UNL     1      -8.529  14.235  67.369  1.00  0.00    -0.203 A  
HETATM    8  C   UNL     1      -9.609  14.519  66.397  1.00  0.00    -0.303 C  
HETATM    9  N   UNL     1     -10.831  14.746  67.139  1.00  0.00    -0.303 N  
HETATM   10  C   UNL     1     -12.043  14.084  66.687  1.00  0.00    -0.456 C  
HETATM   11  C   UNL     1     -10.993  15.788  68.041  1.00  0.00    -0.330 C  
HETATM   12  C   UNL     1      -9.911  16.797  68.186  1.00  0.00    -0.264 A  
HETATM   13  O   UNL     1     -12.033  15.966  68.674  1.00  0.00    -0.338 OA 
HETATM   14  C   UNL     1      -8.540  16.517  68.343  1.00  0.00    -0.213 A  
HETATM   15  C   UNL     1      -7.627  17.559  68.566  1.00  0.00    -0.266 A  
HETATM   16  N   UNL     1      -8.052  15.195  68.228  1.00  0.00    -0.134 NA 
HETATM   17  C   UNL     1      -6.980  14.647  68.885  1.00  0.00    -0.112 A  
HETATM   18  C   UNL     1      -8.075  18.882  68.566  1.00  0.00    -0.383 A  
HETATM   19  C   UNL     1      -9.427  19.155  68.398  1.00  0.00    -0.369 A  
HETATM   20  N   UNL     1      -6.786  13.394  68.549  1.00  0.00    -0.087 NA 
HETATM   21  C   UNL     1     -10.346  18.128  68.234  1.00  0.00    -0.377 A  
HETATM   22  F   UNL     1      -9.847  20.424  68.382  1.00  0.00    -0.420 F  
ENDBRANCH   4   6
ENDBRANCH   3   4
ENDBRANCH   2   3
TORSDOF 3
ENDMDL
MODEL       70
REMARK 921   NORMALIZED FREE ENERGY PREDICTED BY IDOCK:   -4.85 KCAL/MOL
REMARK 922        TOTAL FREE ENERGY PREDICTED BY IDOCK:   -5.99 KCAL/MOL
REMARK 923 INTER-LIGAND FREE ENERGY PREDICTED BY IDOCK:   -5.93 KCAL/MOL
REMARK 924 INTRA-LIGAND FREE ENERGY PREDICTED BY IDOCK:   -0.06 KCAL/MOL
REMARK 927      BINDING AFFINITY PREDICTED BY RF-SCORE:    0.00 PKD
ROOT
HETATM    1  C   UNL     1      -9.245  10.615  63.555  1.00  0.00    -0.283 C  
HETATM    2  C   UNL     1      -9.221  10.860  65.053  1.00  0.00    -0.207 C  
ENDROOT
BRANCH   2   3
HETATM    3  O   UNL     1     -10.277  10.098  65.648  1.00  0.00    -0.275 OA 
BRANCH   3   4
HETATM    4  C   UNL     1     -10.398  10.224  67.000  1.00  0.00    -0.243 C  
HETATM    5  O   UNL     1     -10.518  11.293  67.589  1.00  0.00    -0.182 OA 
BRANCH   4   6
HETATM    6  C   UNL     1     -10.471   8.923  67.667  1.00  0.00    -0.255 A  
HETATM    7  C   UNL     1     -10.611   8.690  69.027  1.00  0.00    -0.160 A  
HETATM    8  C   UNL     1     -10.581   9.592  70.201  1.00  0.00    -0.272 C  
HETATM    9  N   UNL     1     -11.895   9.582  70.808  1.00  0.00    -0.283 N  
HETATM   10  C   UNL     1     -12.492  10.855  71.175  1.00  0.00    -0.405 C  
HETATM   11  C   UNL     1     -12.475   8.445  71.352  1.00  0.00    -0.288 C  
HETATM   12  C   UNL     1     -11.684   7.189  71.424  1.00  0.00    -0.330 A  
HETATM   13  O   UNL     1     -13.597   8.447  71.856  1.00  0.00    -0.352 OA 
HETATM   14  C   UNL     1     -10.930   6.630  70.374  1.00  0.00    -0.290 A  
HETATM   15  C   UNL     1     -10.302   5.387  70.540  1.00  0.00    -0.344 A  
HETATM   16  N   UNL     1     -10.749   7.329  69.159  1.00  0.00    -0.211 NA 
HETATM   17  C   UNL     1     -10.603   6.790  67.906  1.00  0.00    -0.242 A  
HETATM   18  C   UNL     1     -10.372   4.736  71.775  1.00  0.00    -0.230 A  
HETATM   19  C   UNL     1     -11.106   5.298  72.812  1.00  0.00    -0.286 A  
HETATM   20  N   UNL     1     -10.447   7.714  66.988  1.00  0.00    -0.332 NA 
HETATM   21  C   UNL     1     -11.779   6.499  72.640  1.00  0.00    -0.126 A  
HETATM   22  F   UNL     1     -11.156   4.679  73.996  1.00  0.00    -0.329 F  
ENDBRANCH   4   6
ENDBRANCH   3   4
ENDBRANCH   2   3
TORSDOF 3
ENDMDL
MODEL       71
REMARK 921   NORMALIZED FREE ENERGY PREDICTED BY IDOCK:   -4.84 KCAL/MOL
REMARK 922        TOTAL FREE ENERGY PREDICTED BY IDOCK:   -5.97 KCAL/MOL
REMARK 923 INTER-LIGAND FREE ENERGY PREDICTED BY IDOCK:   -5.61 KCAL/MOL
REMARK 924 INTRA-LIGAND FREE ENERGY PREDICTED BY IDOCK:   -0.37 KCAL/MOL
REMARK 927      BINDING AFFINITY PREDICTED BY RF-SCORE:    0.00 PKD
ROOT
HETATM    1  C   UNL     1      -8.786   6.590  67.746  1.00  0.00    -0.113 C  
HETATM    2  C   UNL     1      -9.938   6.409  68.718  1.00  0.00    -0.147 C  
ENDROOT
BRANCH   2   3
HETATM    3  O   UNL     1     -10.713   7.613  68.722  1.00  0.00    -0.177 OA 
BRANCH   3   4
HETATM    4  C   UNL     1     -10.305   8.567  69.607  1.00  0.00    -0.218 C  
HETATM    5  O   UNL     1      -9.552   8.359  70.552  1.00  0.00    -0.165 OA 
BRANCH   4   6
HETATM    6  C   UNL     1     -10.790   9.898  69.239  1.00  0.00    -0.227 A  
HETATM    7  C   UNL     1     -10.340  10.689  68.192  1.00  0.00    -0.176 A  
HETATM    8  C   UNL     1      -9.203  10.548  67.254  1.00  0.00    -0.143 C  
HETATM    9  N   UNL     1      -9.740  10.370  65.921  1.00  0.00    -0.203 N  
HETATM   10  C   UNL     1      -9.183   9.316  65.091  1.00  0.00    -0.200 C  
HETATM   11  C   UNL     1     -10.511  11.327  65.276  1.00  0.00    -0.282 C  
HETATM   12  C   UNL     1     -10.716  12.650  65.921  1.00  0.00    -0.293 A  
HETATM   13  O   UNL     1     -10.971  11.160  64.147  1.00  0.00    -0.358 OA 
HETATM   14  C   UNL     1     -11.091  12.863  67.261  1.00  0.00    -0.274 A  
HETATM   15  C   UNL     1     -11.345  14.163  67.725  1.00  0.00    -0.330 A  
HETATM   16  N   UNL     1     -11.167  11.786  68.173  1.00  0.00    -0.239 NA 
HETATM   17  C   UNL     1     -12.016  11.664  69.243  1.00  0.00    -0.317 A  
HETATM   18  C   UNL     1     -11.161  15.251  66.868  1.00  0.00    -0.288 A  
HETATM   19  C   UNL     1     -10.778  15.037  65.550  1.00  0.00    -0.359 A  
HETATM   20  N   UNL     1     -11.827  10.542  69.896  1.00  0.00    -0.281 NA 
HETATM   21  C   UNL     1     -10.580  13.752  65.066  1.00  0.00    -0.402 A  
HETATM   22  F   UNL     1     -10.587  16.083  64.740  1.00  0.00    -0.414 F  
ENDBRANCH   4   6
ENDBRANCH   3   4
ENDBRANCH   2   3
TORSDOF 3
ENDMDL
MODEL       72
REMARK 921   NORMALIZED FREE ENERGY PREDICTED BY IDOCK:   -4.82 KCAL/MOL
REMARK 922        TOTAL FREE ENERGY PREDICTED BY IDOCK:   -5.95 KCAL/MOL
REMARK 923 INTER-LIGAND FREE ENERGY PREDICTED BY IDOCK:   -5.69 KCAL/MOL
REMARK 924 INTRA-LIGAND FREE ENERGY PREDICTED BY IDOCK:   -0.26 KCAL/MOL
REMARK 927      BINDING AFFINITY PREDICTED BY RF-SCORE:    0.00 PKD
ROOT
HETATM    1  C   UNL     1      -6.957   8.741  67.385  1.00  0.00    -0.075 C  
HETATM    2  C   UNL     1      -8.461   8.543  67.454  1.00  0.00    -0.127 C  
ENDROOT
BRANCH   2   3
HETATM    3  O   UNL     1      -9.028   9.666  68.137  1.00  0.00    -0.123 OA 
BRANCH   3   4
HETATM    4  C   UNL     1     -10.225  10.102  67.650  1.00  0.00    -0.203 C  
HETATM    5  O   UNL     1     -11.057   9.381  67.110  1.00  0.00    -0.048 OA 
BRANCH   4   6
HETATM    6  C   UNL     1     -10.450  11.519  67.938  1.00  0.00    -0.184 A  
HETATM    7  C   UNL     1     -10.268  12.585  67.069  1.00  0.00    -0.221 A  
HETATM    8  C   UNL     1      -9.683  12.676  65.712  1.00  0.00    -0.175 C  
HETATM    9  N   UNL     1     -10.736  13.057  64.795  1.00  0.00    -0.332 N  
HETATM   10  C   UNL     1     -10.856  12.327  63.544  1.00  0.00    -0.454 C  
HETATM   11  C   UNL     1     -11.421  14.261  64.879  1.00  0.00    -0.378 C  
HETATM   12  C   UNL     1     -10.997  15.270  65.884  1.00  0.00    -0.325 A  
HETATM   13  O   UNL     1     -12.322  14.570  64.099  1.00  0.00    -0.622 OA 
HETATM   14  C   UNL     1     -10.733  15.016  67.243  1.00  0.00    -0.298 A  
HETATM   15  C   UNL     1     -10.430  16.075  68.114  1.00  0.00    -0.269 A  
HETATM   16  N   UNL     1     -10.715  13.695  67.745  1.00  0.00    -0.243 NA 
HETATM   17  C   UNL     1     -11.063  13.282  69.006  1.00  0.00    -0.244 A  
HETATM   18  C   UNL     1     -10.327  17.375  67.611  1.00  0.00    -0.355 A  
HETATM   19  C   UNL     1     -10.576  17.618  66.267  1.00  0.00    -0.215 A  
HETATM   20  N   UNL     1     -10.928  11.985  69.153  1.00  0.00    -0.210 NA 
HETATM   21  C   UNL     1     -10.933  16.587  65.410  1.00  0.00    -0.137 A  
HETATM   22  F   UNL     1     -10.460  18.861  65.789  1.00  0.00    -0.453 F  
ENDBRANCH   4   6
ENDBRANCH   3   4
ENDBRANCH   2   3
TORSDOF 3
ENDMDL
MODEL       73
REMARK 921   NORMALIZED FREE ENERGY PREDICTED BY IDOCK:   -4.81 KCAL/MOL
REMARK 922        TOTAL FREE ENERGY PREDICTED BY IDOCK:   -5.94 KCAL/MOL
REMARK 923 INTER-LIGAND FREE ENERGY PREDICTED BY IDOCK:   -5.86 KCAL/MOL
REMARK 924 INTRA-LIGAND FREE ENERGY PREDICTED BY IDOCK:   -0.08 KCAL/MOL
REMARK 927      BINDING AFFINITY PREDICTED BY RF-SCORE:    0.00 PKD
ROOT
HETATM    1  C   UNL     1     -12.503  12.241  63.943  1.00  0.00    -0.586 C  
HETATM    2  C   UNL     1     -11.275  12.662  64.730  1.00  0.00    -0.302 C  
ENDROOT
BRANCH   2   3
HETATM    3  O   UNL     1     -11.410  14.048  65.061  1.00  0.00    -0.318 OA 
BRANCH   3   4
HETATM    4  C   UNL     1     -10.798  14.434  66.217  1.00  0.00    -0.313 C  
HETATM    5  O   UNL     1     -10.581  13.691  67.168  1.00  0.00    -0.269 OA 
BRANCH   4   6
HETATM    6  C   UNL     1     -10.336  15.822  66.155  1.00  0.00    -0.320 A  
HETATM    7  C   UNL     1      -9.270  16.377  66.848  1.00  0.00    -0.218 A  
HETATM    8  C   UNL     1      -8.396  15.850  67.921  1.00  0.00    -0.153 C  
HETATM    9  N   UNL     1      -7.052  15.749  67.394  1.00  0.00    -0.186 N  
HETATM   10  C   UNL     1      -6.307  14.526  67.642  1.00  0.00    -0.107 C  
HETATM   11  C   UNL     1      -6.320  16.844  66.957  1.00  0.00    -0.194 C  
HETATM   12  C   UNL     1      -6.881  18.209  67.130  1.00  0.00    -0.210 A  
HETATM   13  O   UNL     1      -5.181  16.744  66.502  1.00  0.00    -0.349 OA 
HETATM   14  C   UNL     1      -8.188  18.610  66.795  1.00  0.00    -0.267 A  
HETATM   15  C   UNL     1      -8.569  19.955  66.919  1.00  0.00    -0.391 A  
HETATM   16  N   UNL     1      -9.153  17.664  66.380  1.00  0.00    -0.368 NA 
HETATM   17  C   UNL     1     -10.187  17.865  65.501  1.00  0.00     0.190 A  
HETATM   18  C   UNL     1      -7.664  20.883  67.440  1.00  0.00    -0.262 A  
HETATM   19  C   UNL     1      -6.379  20.481  67.781  1.00  0.00    -0.277 A  
HETATM   20  N   UNL     1     -10.908  16.782  65.333  1.00  0.00    -0.430 NA 
HETATM   21  C   UNL     1      -5.974  19.165  67.608  1.00  0.00    -0.204 A  
HETATM   22  F   UNL     1      -5.523  21.371  68.294  1.00  0.00    -0.326 F  
ENDBRANCH   4   6
ENDBRANCH   3   4
ENDBRANCH   2   3
TORSDOF 3
ENDMDL
MODEL       74
REMARK 921   NORMALIZED FREE ENERGY PREDICTED BY IDOCK:   -4.74 KCAL/MOL
REMARK 922        TOTAL FREE ENERGY PREDICTED BY IDOCK:   -5.86 KCAL/MOL
REMARK 923 INTER-LIGAND FREE ENERGY PREDICTED BY IDOCK:   -5.64 KCAL/MOL
REMARK 924 INTRA-LIGAND FREE ENERGY PREDICTED BY IDOCK:   -0.22 KCAL/MOL
REMARK 927      BINDING AFFINITY PREDICTED BY RF-SCORE:    0.00 PKD
ROOT
HETATM    1  C   UNL     1      -5.260  13.992  72.541  1.00  0.00    -0.230 C  
HETATM    2  C   UNL     1      -5.633  14.845  71.342  1.00  0.00     0.018 C  
ENDROOT
BRANCH   2   3
HETATM    3  O   UNL     1      -6.696  14.191  70.641  1.00  0.00     0.039 OA 
BRANCH   3   4
HETATM    4  C   UNL     1      -7.282  14.924  69.652  1.00  0.00    -0.166 C  
HETATM    5  O   UNL     1      -7.333  16.149  69.635  1.00  0.00    -0.179 OA 
BRANCH   4   6
HETATM    6  C   UNL     1      -7.758  14.081  68.554  1.00  0.00    -0.139 A  
HETATM    7  C   UNL     1      -8.972  14.183  67.891  1.00  0.00    -0.185 A  
HETATM    8  C   UNL     1     -10.178  15.006  68.140  1.00  0.00    -0.221 C  
HETATM    9  N   UNL     1     -10.330  15.925  67.033  1.00  0.00    -0.292 N  
HETATM   10  C   UNL     1     -10.611  17.319  67.331  1.00  0.00    -0.303 C  
HETATM   11  C   UNL     1     -10.544  15.514  65.725  1.00  0.00    -0.356 C  
HETATM   12  C   UNL     1     -10.740  14.069  65.440  1.00  0.00    -0.344 A  
HETATM   13  O   UNL     1     -10.662  16.305  64.790  1.00  0.00    -0.680 OA 
HETATM   14  C   UNL     1      -9.936  13.019  65.922  1.00  0.00    -0.267 A  
HETATM   15  C   UNL     1     -10.169  11.700  65.504  1.00  0.00    -0.302 A  
HETATM   16  N   UNL     1      -8.917  13.263  66.872  1.00  0.00    -0.225 NA 
HETATM   17  C   UNL     1      -7.730  12.589  67.005  1.00  0.00    -0.040 A  
HETATM   18  C   UNL     1     -11.246  11.425  64.657  1.00  0.00    -0.220 A  
HETATM   19  C   UNL     1     -12.045  12.463  64.193  1.00  0.00    -0.453 A  
HETATM   20  N   UNL     1      -7.006  13.059  67.993  1.00  0.00    -0.096 NA 
HETATM   21  C   UNL     1     -11.787  13.777  64.556  1.00  0.00    -0.445 A  
HETATM   22  F   UNL     1     -13.084  12.191  63.397  1.00  0.00    -0.551 F  
ENDBRANCH   4   6
ENDBRANCH   3   4
ENDBRANCH   2   3
TORSDOF 3
ENDMDL
MODEL       75
REMARK 921   NORMALIZED FREE ENERGY PREDICTED BY IDOCK:   -4.73 KCAL/MOL
REMARK 922        TOTAL FREE ENERGY PREDICTED BY IDOCK:   -5.85 KCAL/MOL
REMARK 923 INTER-LIGAND FREE ENERGY PREDICTED BY IDOCK:   -5.49 KCAL/MOL
REMARK 924 INTRA-LIGAND FREE ENERGY PREDICTED BY IDOCK:   -0.36 KCAL/MOL
REMARK 927      BINDING AFFINITY PREDICTED BY RF-SCORE:    0.00 PKD
ROOT
HETATM    1  C   UNL     1     -12.719  12.499  63.945  1.00  0.00    -0.414 C  
HETATM    2  C   UNL     1     -12.060  13.856  64.111  1.00  0.00    -0.425 C  
ENDROOT
BRANCH   2   3
HETATM    3  O   UNL     1     -12.276  14.297  65.455  1.00  0.00    -0.395 OA 
BRANCH   3   4
HETATM    4  C   UNL     1     -11.182  14.252  66.268  1.00  0.00    -0.337 C  
HETATM    5  O   UNL     1     -10.174  14.932  66.111  1.00  0.00    -0.273 OA 
BRANCH   4   6
HETATM    6  C   UNL     1     -11.389  13.367  67.416  1.00  0.00    -0.309 A  
HETATM    7  C   UNL     1     -11.108  12.011  67.484  1.00  0.00    -0.275 A  
HETATM    8  C   UNL     1     -10.685  11.028  66.460  1.00  0.00    -0.241 C  
HETATM    9  N   UNL     1      -9.352  10.575  66.798  1.00  0.00    -0.155 N  
HETATM   10  C   UNL     1      -8.357  10.517  65.740  1.00  0.00    -0.166 C  
HETATM   11  C   UNL     1      -9.052   9.896  67.970  1.00  0.00    -0.121 C  
HETATM   12  C   UNL     1     -10.155   9.507  68.887  1.00  0.00    -0.199 A  
HETATM   13  O   UNL     1      -7.913   9.524  68.251  1.00  0.00    -0.093 OA 
HETATM   14  C   UNL     1     -11.197  10.347  69.323  1.00  0.00    -0.248 A  
HETATM   15  C   UNL     1     -12.128   9.887  70.267  1.00  0.00    -0.168 A  
HETATM   16  N   UNL     1     -11.356  11.644  68.785  1.00  0.00    -0.237 NA 
HETATM   17  C   UNL     1     -11.853  12.753  69.424  1.00  0.00    -0.300 A  
HETATM   18  C   UNL     1     -12.055   8.568  70.722  1.00  0.00    -0.075 A  
HETATM   19  C   UNL     1     -11.033   7.738  70.279  1.00  0.00    -0.247 A  
HETATM   20  N   UNL     1     -11.875  13.804  68.639  1.00  0.00    -0.357 NA 
HETATM   21  C   UNL     1     -10.074   8.202  69.390  1.00  0.00    -0.194 A  
HETATM   22  F   UNL     1     -10.978   6.473  70.706  1.00  0.00    -0.258 F  
ENDBRANCH   4   6
ENDBRANCH   3   4
ENDBRANCH   2   3
TORSDOF 3
ENDMDL
MODEL       76
REMARK 921   NORMALIZED FREE ENERGY PREDICTED BY IDOCK:   -4.63 KCAL/MOL
REMARK 922        TOTAL FREE ENERGY PREDICTED BY IDOCK:   -5.73 KCAL/MOL
REMARK 923 INTER-LIGAND FREE ENERGY PREDICTED BY IDOCK:   -5.54 KCAL/MOL
REMARK 924 INTRA-LIGAND FREE ENERGY PREDICTED BY IDOCK:   -0.19 KCAL/MOL
REMARK 927      BINDING AFFINITY PREDICTED BY RF-SCORE:    0.00 PKD
ROOT
HETATM    1  C   UNL     1      -9.511   3.848  67.518  1.00  0.00    -0.236 C  
HETATM    2  C   UNL     1      -8.898   4.503  66.293  1.00  0.00    -0.113 C  
ENDROOT
BRANCH   2   3
HETATM    3  O   UNL     1      -8.325   5.752  66.693  1.00  0.00    -0.109 OA 
BRANCH   3   4
HETATM    4  C   UNL     1      -8.599   6.809  65.876  1.00  0.00    -0.147 C  
HETATM    5  O   UNL     1      -8.264   6.879  64.698  1.00  0.00    -0.111 OA 
BRANCH   4   6
HETATM    6  C   UNL     1      -9.431   7.814  66.539  1.00  0.00    -0.201 A  
HETATM    7  C   UNL     1      -9.538   9.157  66.210  1.00  0.00    -0.255 A  
HETATM    8  C   UNL     1      -8.797  10.011  65.254  1.00  0.00    -0.178 C  
HETATM    9  N   UNL     1      -9.720  10.437  64.224  1.00  0.00    -0.314 N  
HETATM   10  C   UNL     1      -9.295  10.344  62.838  1.00  0.00    -0.319 C  
HETATM   11  C   UNL     1     -10.838  11.218  64.478  1.00  0.00    -0.284 C  
HETATM   12  C   UNL     1     -11.059  11.746  65.850  1.00  0.00    -0.355 A  
HETATM   13  O   UNL     1     -11.622  11.566  63.596  1.00  0.00    -0.394 OA 
HETATM   14  C   UNL     1     -10.976  11.001  67.042  1.00  0.00    -0.272 A  
HETATM   15  C   UNL     1     -11.300  11.595  68.271  1.00  0.00    -0.348 A  
HETATM   16  N   UNL     1     -10.517   9.664  67.030  1.00  0.00    -0.246 NA 
HETATM   17  C   UNL     1     -10.898   8.649  67.872  1.00  0.00     0.007 A  
HETATM   18  C   UNL     1     -11.642  12.949  68.315  1.00  0.00    -0.374 A  
HETATM   19  C   UNL     1     -11.710  13.684  67.138  1.00  0.00    -0.383 A  
HETATM   20  N   UNL     1     -10.277   7.526  67.600  1.00  0.00    -0.196 NA 
HETATM   21  C   UNL     1     -11.448  13.091  65.911  1.00  0.00    -0.374 A  
HETATM   22  F   UNL     1     -12.022  14.983  67.188  1.00  0.00    -0.342 F  
ENDBRANCH   4   6
ENDBRANCH   3   4
ENDBRANCH   2   3
TORSDOF 3
ENDMDL
MODEL       77
REMARK 921   NORMALIZED FREE ENERGY PREDICTED BY IDOCK:   -4.63 KCAL/MOL
REMARK 922        TOTAL FREE ENERGY PREDICTED BY IDOCK:   -5.72 KCAL/MOL
REMARK 923 INTER-LIGAND FREE ENERGY PREDICTED BY IDOCK:   -5.44 KCAL/MOL
REMARK 924 INTRA-LIGAND FREE ENERGY PREDICTED BY IDOCK:   -0.29 KCAL/MOL
REMARK 927      BINDING AFFINITY PREDICTED BY RF-SCORE:    0.00 PKD
ROOT
HETATM    1  C   UNL     1      -9.150   3.580  64.614  1.00  0.00    -0.132 C  
HETATM    2  C   UNL     1      -9.880   4.286  65.743  1.00  0.00    -0.223 C  
ENDROOT
BRANCH   2   3
HETATM    3  O   UNL     1      -9.369   5.620  65.840  1.00  0.00    -0.159 OA 
BRANCH   3   4
HETATM    4  C   UNL     1      -8.757   5.926  67.020  1.00  0.00    -0.109 C  
HETATM    5  O   UNL     1      -7.890   5.239  67.550  1.00  0.00    -0.095 OA 
BRANCH   4   6
HETATM    6  C   UNL     1      -9.183   7.228  67.536  1.00  0.00    -0.130 A  
HETATM    7  C   UNL     1     -10.124   7.464  68.527  1.00  0.00    -0.175 A  
HETATM    8  C   UNL     1     -11.065   6.571  69.242  1.00  0.00    -0.334 C  
HETATM    9  N   UNL     1     -10.679   6.539  70.637  1.00  0.00    -0.235 N  
HETATM   10  C   UNL     1     -10.609   5.248  71.300  1.00  0.00    -0.172 C  
HETATM   11  C   UNL     1     -10.688   7.658  71.456  1.00  0.00    -0.221 C  
HETATM   12  C   UNL     1     -11.219   8.942  70.928  1.00  0.00    -0.334 A  
HETATM   13  O   UNL     1     -10.349   7.620  72.638  1.00  0.00    -0.227 OA 
HETATM   14  C   UNL     1     -10.889   9.520  69.687  1.00  0.00    -0.235 A  
HETATM   15  C   UNL     1     -11.388  10.786  69.343  1.00  0.00    -0.351 A  
HETATM   16  N   UNL     1     -10.098   8.820  68.748  1.00  0.00    -0.193 NA 
HETATM   17  C   UNL     1      -9.222   9.356  67.839  1.00  0.00    -0.129 A  
HETATM   18  C   UNL     1     -12.266  11.441  70.209  1.00  0.00    -0.433 A  
HETATM   19  C   UNL     1     -12.600  10.861  71.427  1.00  0.00    -0.403 A  
HETATM   20  N   UNL     1      -8.648   8.432  67.106  1.00  0.00    -0.122 NA 
HETATM   21  C   UNL     1     -12.067   9.636  71.802  1.00  0.00    -0.446 A  
HETATM   22  F   UNL     1     -13.454  11.485  72.244  1.00  0.00    -0.580 F  
ENDBRANCH   4   6
ENDBRANCH   3   4
ENDBRANCH   2   3
TORSDOF 3
ENDMDL
MODEL       78
REMARK 921   NORMALIZED FREE ENERGY PREDICTED BY IDOCK:   -4.62 KCAL/MOL
REMARK 922        TOTAL FREE ENERGY PREDICTED BY IDOCK:   -5.72 KCAL/MOL
REMARK 923 INTER-LIGAND FREE ENERGY PREDICTED BY IDOCK:   -5.49 KCAL/MOL
REMARK 924 INTRA-LIGAND FREE ENERGY PREDICTED BY IDOCK:   -0.23 KCAL/MOL
REMARK 927      BINDING AFFINITY PREDICTED BY RF-SCORE:    0.00 PKD
ROOT
HETATM    1  C   UNL     1     -11.528  15.916  70.129  1.00  0.00    -0.366 C  
HETATM    2  C   UNL     1     -11.094  15.223  68.849  1.00  0.00    -0.266 C  
ENDROOT
BRANCH   2   3
HETATM    3  O   UNL     1     -12.140  14.334  68.445  1.00  0.00    -0.335 OA 
BRANCH   3   4
HETATM    4  C   UNL     1     -11.902  13.011  68.670  1.00  0.00    -0.318 C  
HETATM    5  O   UNL     1     -12.149  12.431  69.722  1.00  0.00    -0.285 OA 
BRANCH   4   6
HETATM    6  C   UNL     1     -11.407  12.332  67.471  1.00  0.00    -0.325 A  
HETATM    7  C   UNL     1     -10.568  11.229  67.424  1.00  0.00    -0.224 A  
HETATM    8  C   UNL     1      -9.813  10.505  68.473  1.00  0.00    -0.168 C  
HETATM    9  N   UNL     1     -10.359   9.168  68.576  1.00  0.00    -0.203 N  
HETATM   10  C   UNL     1     -10.638   8.641  69.901  1.00  0.00    -0.224 C  
HETATM   11  C   UNL     1     -10.331   8.251  67.536  1.00  0.00    -0.265 C  
HETATM   12  C   UNL     1      -9.612   8.597  66.282  1.00  0.00    -0.322 A  
HETATM   13  O   UNL     1     -10.807   7.121  67.632  1.00  0.00    -0.237 OA 
HETATM   14  C   UNL     1      -9.735   9.805  65.570  1.00  0.00    -0.312 A  
HETATM   15  C   UNL     1      -9.073   9.974  64.344  1.00  0.00    -0.289 A  
HETATM   16  N   UNL     1     -10.480  10.885  66.097  1.00  0.00    -0.246 NA 
HETATM   17  C   UNL     1     -11.186  11.827  65.392  1.00  0.00    -0.251 A  
HETATM   18  C   UNL     1      -8.238   8.961  63.865  1.00  0.00    -0.171 A  
HETATM   19  C   UNL     1      -8.109   7.775  64.578  1.00  0.00    -0.108 A  
HETATM   20  N   UNL     1     -11.763  12.701  66.182  1.00  0.00    -0.387 NA 
HETATM   21  C   UNL     1      -8.805   7.576  65.761  1.00  0.00    -0.122 A  
HETATM   22  F   UNL     1      -7.296   6.817  64.123  1.00  0.00    -0.062 F  
ENDBRANCH   4   6
ENDBRANCH   3   4
ENDBRANCH   2   3
TORSDOF 3
ENDMDL
MODEL       79
REMARK 921   NORMALIZED FREE ENERGY PREDICTED BY IDOCK:   -4.61 KCAL/MOL
REMARK 922        TOTAL FREE ENERGY PREDICTED BY IDOCK:   -5.71 KCAL/MOL
REMARK 923 INTER-LIGAND FREE ENERGY PREDICTED BY IDOCK:   -5.41 KCAL/MOL
REMARK 924 INTRA-LIGAND FREE ENERGY PREDICTED BY IDOCK:   -0.29 KCAL/MOL
REMARK 927      BINDING AFFINITY PREDICTED BY RF-SCORE:    0.00 PKD
ROOT
HETATM    1  C   UNL     1     -10.703  15.859  64.996  1.00  0.00    -0.426 C  
HETATM    2  C   UNL     1     -11.086  14.792  66.006  1.00  0.00    -0.330 C  
ENDROOT
BRANCH   2   3
HETATM    3  O   UNL     1     -10.828  13.511  65.423  1.00  0.00    -0.282 OA 
BRANCH   3   4
HETATM    4  C   UNL     1     -11.812  12.582  65.593  1.00  0.00    -0.438 C  
HETATM    5  O   UNL     1     -12.728  12.389  64.801  1.00  0.00    -0.622 OA 
BRANCH   4   6
HETATM    6  C   UNL     1     -11.594  11.767  66.789  1.00  0.00    -0.210 A  
HETATM    7  C   UNL     1     -10.809  10.627  66.889  1.00  0.00    -0.205 A  
HETATM    8  C   UNL     1     -10.102   9.812  65.876  1.00  0.00    -0.243 C  
HETATM    9  N   UNL     1      -8.680   9.925  66.123  1.00  0.00    -0.134 N  
HETATM   10  C   UNL     1      -7.804  10.178  64.992  1.00  0.00    -0.140 C  
HETATM   11  C   UNL     1      -8.073   9.493  67.294  1.00  0.00    -0.110 C  
HETATM   12  C   UNL     1      -8.886   8.778  68.312  1.00  0.00    -0.141 A  
HETATM   13  O   UNL     1      -6.865   9.604  67.497  1.00  0.00    -0.080 OA 
HETATM   14  C   UNL     1     -10.143   9.186  68.796  1.00  0.00    -0.197 A  
HETATM   15  C   UNL     1     -10.768   8.472  69.830  1.00  0.00    -0.224 A  
HETATM   16  N   UNL     1     -10.821  10.284  68.220  1.00  0.00    -0.237 NA 
HETATM   17  C   UNL     1     -11.667  11.161  68.851  1.00  0.00    -0.337 A  
HETATM   18  C   UNL     1     -10.167   7.314  70.332  1.00  0.00    -0.200 A  
HETATM   19  C   UNL     1      -8.932   6.908  69.842  1.00  0.00    -0.142 A  
HETATM   20  N   UNL     1     -12.138  12.067  68.029  1.00  0.00    -0.478 NA 
HETATM   21  C   UNL     1      -8.279   7.640  68.860  1.00  0.00    -0.128 A  
HETATM   22  F   UNL     1      -8.369   5.791  70.314  1.00  0.00    -0.107 F  
ENDBRANCH   4   6
ENDBRANCH   3   4
ENDBRANCH   2   3
TORSDOF 3
ENDMDL
MODEL       80
REMARK 921   NORMALIZED FREE ENERGY PREDICTED BY IDOCK:   -4.53 KCAL/MOL
REMARK 922        TOTAL FREE ENERGY PREDICTED BY IDOCK:   -5.62 KCAL/MOL
REMARK 923 INTER-LIGAND FREE ENERGY PREDICTED BY IDOCK:   -5.33 KCAL/MOL
REMARK 924 INTRA-LIGAND FREE ENERGY PREDICTED BY IDOCK:   -0.29 KCAL/MOL
REMARK 927      BINDING AFFINITY PREDICTED BY RF-SCORE:    0.00 PKD
ROOT
HETATM    1  C   UNL     1      -5.664   9.044  66.419  1.00  0.00    -0.050 C  
HETATM    2  C   UNL     1      -5.644  10.352  67.191  1.00  0.00    -0.041 C  
ENDROOT
BRANCH   2   3
HETATM    3  O   UNL     1      -6.576  11.247  66.576  1.00  0.00    -0.134 OA 
BRANCH   3   4
HETATM    4  C   UNL     1      -7.478  11.822  67.422  1.00  0.00    -0.143 C  
HETATM    5  O   UNL     1      -8.188  11.200  68.205  1.00  0.00    -0.120 OA 
BRANCH   4   6
HETATM    6  C   UNL     1      -7.431  13.284  67.362  1.00  0.00    -0.124 A  
HETATM    7  C   UNL     1      -8.498  14.144  67.151  1.00  0.00    -0.195 A  
HETATM    8  C   UNL     1      -9.913  13.906  66.786  1.00  0.00    -0.269 C  
HETATM    9  N   UNL     1     -10.740  14.329  67.897  1.00  0.00    -0.238 N  
HETATM   10  C   UNL     1     -11.807  13.446  68.335  1.00  0.00    -0.366 C  
HETATM   11  C   UNL     1     -10.792  15.638  68.353  1.00  0.00    -0.290 C  
HETATM   12  C   UNL     1     -10.055  16.696  67.612  1.00  0.00    -0.272 A  
HETATM   13  O   UNL     1     -11.490  15.984  69.305  1.00  0.00    -0.343 OA 
HETATM   14  C   UNL     1      -8.719  16.616  67.177  1.00  0.00    -0.195 A  
HETATM   15  C   UNL     1      -8.107  17.722  66.568  1.00  0.00    -0.305 A  
HETATM   16  N   UNL     1      -7.988  15.412  67.295  1.00  0.00    -0.184 NA 
HETATM   17  C   UNL     1      -6.637  15.278  67.498  1.00  0.00    -0.151 A  
HETATM   18  C   UNL     1      -8.850  18.882  66.336  1.00  0.00    -0.310 A  
HETATM   19  C   UNL     1     -10.173  18.952  66.756  1.00  0.00    -0.394 A  
HETATM   20  N   UNL     1      -6.271  14.019  67.555  1.00  0.00    -0.337 NA 
HETATM   21  C   UNL     1     -10.770  17.884  67.411  1.00  0.00    -0.306 A  
HETATM   22  F   UNL     1     -10.884  20.058  66.517  1.00  0.00    -0.559 F  
ENDBRANCH   4   6
ENDBRANCH   3   4
ENDBRANCH   2   3
TORSDOF 3
ENDMDL
MODEL       81
REMARK 921   NORMALIZED FREE ENERGY PREDICTED BY IDOCK:   -4.53 KCAL/MOL
REMARK 922        TOTAL FREE ENERGY PREDICTED BY IDOCK:   -5.61 KCAL/MOL
REMARK 923 INTER-LIGAND FREE ENERGY PREDICTED BY IDOCK:   -5.43 KCAL/MOL
REMARK 924 INTRA-LIGAND FREE ENERGY PREDICTED BY IDOCK:   -0.17 KCAL/MOL
REMARK 927      BINDING AFFINITY PREDICTED BY RF-SCORE:    0.00 PKD
ROOT
HETATM    1  C   UNL     1      -5.850   6.668  64.646  1.00  0.00    -0.031 C  
HETATM    2  C   UNL     1      -7.199   6.233  65.192  1.00  0.00    -0.070 C  
ENDROOT
BRANCH   2   3
HETATM    3  O   UNL     1      -7.654   7.235  66.108  1.00  0.00    -0.084 OA 
BRANCH   3   4
HETATM    4  C   UNL     1      -8.541   8.135  65.597  1.00  0.00    -0.158 C  
HETATM    5  O   UNL     1      -8.705   8.343  64.399  1.00  0.00    -0.033 OA 
BRANCH   4   6
HETATM    6  C   UNL     1      -9.354   8.758  66.642  1.00  0.00    -0.189 A  
HETATM    7  C   UNL     1      -9.707  10.096  66.738  1.00  0.00    -0.187 A  
HETATM    8  C   UNL     1      -9.293  11.293  65.970  1.00  0.00    -0.214 C  
HETATM    9  N   UNL     1     -10.452  11.794  65.262  1.00  0.00    -0.263 N  
HETATM   10  C   UNL     1     -10.300  12.148  63.861  1.00  0.00    -0.415 C  
HETATM   11  C   UNL     1     -11.593  12.259  65.900  1.00  0.00    -0.393 C  
HETATM   12  C   UNL     1     -11.607  12.359  67.383  1.00  0.00    -0.433 A  
HETATM   13  O   UNL     1     -12.576  12.673  65.287  1.00  0.00    -0.630 OA 
HETATM   14  C   UNL     1     -11.188  11.356  68.279  1.00  0.00    -0.263 A  
HETATM   15  C   UNL     1     -11.340  11.537  69.662  1.00  0.00    -0.329 A  
HETATM   16  N   UNL     1     -10.563  10.179  67.809  1.00  0.00    -0.236 NA 
HETATM   17  C   UNL     1     -10.627   8.927  68.367  1.00  0.00    -0.143 A  
HETATM   18  C   UNL     1     -11.848  12.744  70.149  1.00  0.00    -0.326 A  
HETATM   19  C   UNL     1     -12.248  13.735  69.262  1.00  0.00    -0.264 A  
HETATM   20  N   UNL     1      -9.926   8.050  67.689  1.00  0.00    -0.167 NA 
HETATM   21  C   UNL     1     -12.156  13.543  67.891  1.00  0.00    -0.304 A  
HETATM   22  F   UNL     1     -12.718  14.894  69.735  1.00  0.00    -0.302 F  
ENDBRANCH   4   6
ENDBRANCH   3   4
ENDBRANCH   2   3
TORSDOF 3
ENDMDL
MODEL       82
REMARK 921   NORMALIZED FREE ENERGY PREDICTED BY IDOCK:   -4.52 KCAL/MOL
REMARK 922        TOTAL FREE ENERGY PREDICTED BY IDOCK:   -5.60 KCAL/MOL
REMARK 923 INTER-LIGAND FREE ENERGY PREDICTED BY IDOCK:   -5.65 KCAL/MOL
REMARK 924 INTRA-LIGAND FREE ENERGY PREDICTED BY IDOCK:    0.05 KCAL/MOL
REMARK 927      BINDING AFFINITY PREDICTED BY RF-SCORE:    0.00 PKD
ROOT
HETATM    1  C   UNL     1     -14.343   8.012  71.640  1.00  0.00    -0.581 C  
HETATM    2  C   UNL     1     -13.549   8.966  72.514  1.00  0.00    -0.412 C  
ENDROOT
BRANCH   2   3
HETATM    3  O   UNL     1     -12.499   9.530  71.721  1.00  0.00    -0.356 OA 
BRANCH   3   4
HETATM    4  C   UNL     1     -12.665  10.840  71.379  1.00  0.00    -0.439 C  
HETATM    5  O   UNL     1     -13.271  11.662  72.058  1.00  0.00    -0.501 OA 
BRANCH   4   6
HETATM    6  C   UNL     1     -11.946  11.181  70.151  1.00  0.00    -0.365 A  
HETATM    7  C   UNL     1     -10.975  10.421  69.515  1.00  0.00    -0.262 A  
HETATM    8  C   UNL     1     -10.269   9.179  69.903  1.00  0.00    -0.205 C  
HETATM    9  N   UNL     1     -10.651   8.137  68.973  1.00  0.00    -0.192 N  
HETATM   10  C   UNL     1     -11.021   6.839  69.509  1.00  0.00    -0.279 C  
HETATM   11  C   UNL     1     -10.380   8.193  67.613  1.00  0.00    -0.247 C  
HETATM   12  C   UNL     1      -9.563   9.315  67.081  1.00  0.00    -0.208 A  
HETATM   13  O   UNL     1     -10.718   7.306  66.830  1.00  0.00    -0.338 OA 
HETATM   14  C   UNL     1      -9.749  10.679  67.373  1.00  0.00    -0.167 A  
HETATM   15  C   UNL     1      -8.968  11.652  66.730  1.00  0.00    -0.189 A  
HETATM   16  N   UNL     1     -10.683  11.091  68.351  1.00  0.00    -0.189 NA 
HETATM   17  C   UNL     1     -11.410  12.254  68.366  1.00  0.00    -0.292 A  
HETATM   18  C   UNL     1      -7.960  11.257  65.848  1.00  0.00     0.083 A  
HETATM   19  C   UNL     1      -7.771   9.908  65.572  1.00  0.00    -0.124 A  
HETATM   20  N   UNL     1     -12.185  12.336  69.421  1.00  0.00    -0.143 NA 
HETATM   21  C   UNL     1      -8.576   8.942  66.158  1.00  0.00    -0.155 A  
HETATM   22  F   UNL     1      -6.794   9.535  64.739  1.00  0.00    -0.088 F  
ENDBRANCH   4   6
ENDBRANCH   3   4
ENDBRANCH   2   3
TORSDOF 3
ENDMDL
MODEL       83
REMARK 921   NORMALIZED FREE ENERGY PREDICTED BY IDOCK:   -4.47 KCAL/MOL
REMARK 922        TOTAL FREE ENERGY PREDICTED BY IDOCK:   -5.54 KCAL/MOL
REMARK 923 INTER-LIGAND FREE ENERGY PREDICTED BY IDOCK:   -5.39 KCAL/MOL
REMARK 924 INTRA-LIGAND FREE ENERGY PREDICTED BY IDOCK:   -0.15 KCAL/MOL
REMARK 927      BINDING AFFINITY PREDICTED BY RF-SCORE:    0.00 PKD
ROOT
HETATM    1  C   UNL     1     -10.129  18.215  68.535  1.00  0.00    -0.413 C  
HETATM    2  C   UNL     1     -10.419  17.341  67.327  1.00  0.00    -0.319 C  
ENDROOT
BRANCH   2   3
HETATM    3  O   UNL     1     -10.989  16.113  67.792  1.00  0.00    -0.328 OA 
BRANCH   3   4
HETATM    4  C   UNL     1     -11.017  15.100  66.880  1.00  0.00    -0.323 C  
HETATM    5  O   UNL     1     -11.508  15.189  65.760  1.00  0.00    -0.292 OA 
BRANCH   4   6
HETATM    6  C   UNL     1     -10.297  13.917  67.354  1.00  0.00    -0.252 A  
HETATM    7  C   UNL     1     -10.458  12.611  66.913  1.00  0.00    -0.233 A  
HETATM    8  C   UNL     1     -11.437  11.982  65.998  1.00  0.00    -0.338 C  
HETATM    9  N   UNL     1     -10.723  11.514  64.829  1.00  0.00    -0.301 N  
HETATM   10  C   UNL     1     -11.281  11.806  63.520  1.00  0.00    -0.408 C  
HETATM   11  C   UNL     1      -9.732  10.544  64.879  1.00  0.00    -0.300 C  
HETATM   12  C   UNL     1      -9.450   9.859  66.168  1.00  0.00    -0.254 A  
HETATM   13  O   UNL     1      -9.124  10.161  63.880  1.00  0.00    -0.217 OA 
HETATM   14  C   UNL     1      -9.270  10.491  67.413  1.00  0.00    -0.142 A  
HETATM   15  C   UNL     1      -8.914   9.738  68.542  1.00  0.00    -0.124 A  
HETATM   16  N   UNL     1      -9.493  11.879  67.561  1.00  0.00    -0.173 NA 
HETATM   17  C   UNL     1      -8.852  12.735  68.421  1.00  0.00    -0.117 A  
HETATM   18  C   UNL     1      -8.804   8.349  68.440  1.00  0.00    -0.140 A  
HETATM   19  C   UNL     1      -8.995   7.728  67.212  1.00  0.00    -0.127 A  
HETATM   20  N   UNL     1      -9.300  13.963  68.316  1.00  0.00    -0.206 NA 
HETATM   21  C   UNL     1      -9.291   8.470  66.077  1.00  0.00    -0.266 A  
HETATM   22  F   UNL     1      -8.905   6.398  67.124  1.00  0.00    -0.113 F  
ENDBRANCH   4   6
ENDBRANCH   3   4
ENDBRANCH   2   3
TORSDOF 3
ENDMDL
MODEL       84
REMARK 921   NORMALIZED FREE ENERGY PREDICTED BY IDOCK:   -4.45 KCAL/MOL
REMARK 922        TOTAL FREE ENERGY PREDICTED BY IDOCK:   -5.52 KCAL/MOL
REMARK 923 INTER-LIGAND FREE ENERGY PREDICTED BY IDOCK:   -5.59 KCAL/MOL
REMARK 924 INTRA-LIGAND FREE ENERGY PREDICTED BY IDOCK:    0.08 KCAL/MOL
REMARK 927      BINDING AFFINITY PREDICTED BY RF-SCORE:    0.00 PKD
ROOT
HETATM    1  C   UNL     1     -12.727  14.467  65.675  1.00  0.00    -0.302 C  
HETATM    2  C   UNL     1     -11.834  14.688  64.467  1.00  0.00    -0.431 C  
ENDROOT
BRANCH   2   3
HETATM    3  O   UNL     1     -12.171  13.711  63.477  1.00  0.00    -0.618 OA 
BRANCH   3   4
HETATM    4  C   UNL     1     -12.321  12.438  63.940  1.00  0.00    -0.508 C  
HETATM    5  O   UNL     1     -13.402  11.892  64.131  1.00  0.00    -0.652 OA 
BRANCH   4   6
HETATM    6  C   UNL     1     -11.035  11.755  64.090  1.00  0.00    -0.374 A  
HETATM    7  C   UNL     1     -10.319  11.573  65.264  1.00  0.00    -0.272 A  
HETATM    8  C   UNL     1     -10.506  12.097  66.637  1.00  0.00    -0.220 C  
HETATM    9  N   UNL     1     -10.802  10.978  67.506  1.00  0.00    -0.244 N  
HETATM   10  C   UNL     1     -11.906  11.109  68.443  1.00  0.00    -0.232 C  
HETATM   11  C   UNL     1      -9.919   9.932  67.730  1.00  0.00    -0.165 C  
HETATM   12  C   UNL     1      -8.554   9.996  67.146  1.00  0.00    -0.128 A  
HETATM   13  O   UNL     1     -10.186   8.981  68.464  1.00  0.00    -0.189 OA 
HETATM   14  C   UNL     1      -8.244  10.328  65.814  1.00  0.00    -0.147 A  
HETATM   15  C   UNL     1      -6.918  10.261  65.359  1.00  0.00    -0.139 A  
HETATM   16  N   UNL     1      -9.247  10.782  64.927  1.00  0.00    -0.205 NA 
HETATM   17  C   UNL     1      -9.304  10.589  63.570  1.00  0.00    -0.293 A  
HETATM   18  C   UNL     1      -5.897   9.927  66.252  1.00  0.00    -0.059 A  
HETATM   19  C   UNL     1      -6.206   9.613  67.570  1.00  0.00    -0.056 A  
HETATM   20  N   UNL     1     -10.365  11.147  63.038  1.00  0.00    -0.244 NA 
HETATM   21  C   UNL     1      -7.520   9.620  68.015  1.00  0.00    -0.082 A  
HETATM   22  F   UNL     1      -5.223   9.310  68.424  1.00  0.00    -0.034 F  
ENDBRANCH   4   6
ENDBRANCH   3   4
ENDBRANCH   2   3
TORSDOF 3
ENDMDL
MODEL       85
REMARK 921   NORMALIZED FREE ENERGY PREDICTED BY IDOCK:   -4.42 KCAL/MOL
REMARK 922        TOTAL FREE ENERGY PREDICTED BY IDOCK:   -5.48 KCAL/MOL
REMARK 923 INTER-LIGAND FREE ENERGY PREDICTED BY IDOCK:   -5.22 KCAL/MOL
REMARK 924 INTRA-LIGAND FREE ENERGY PREDICTED BY IDOCK:   -0.26 KCAL/MOL
REMARK 927      BINDING AFFINITY PREDICTED BY RF-SCORE:    0.00 PKD
ROOT
HETATM    1  C   UNL     1     -10.647  19.074  67.299  1.00  0.00    -0.554 C  
HETATM    2  C   UNL     1     -10.049  17.790  67.845  1.00  0.00    -0.342 C  
ENDROOT
BRANCH   2   3
HETATM    3  O   UNL     1     -11.117  16.865  68.079  1.00  0.00    -0.336 OA 
BRANCH   3   4
HETATM    4  C   UNL     1     -10.918  15.992  69.108  1.00  0.00    -0.297 C  
HETATM    5  O   UNL     1     -10.835  16.320  70.287  1.00  0.00    -0.319 OA 
BRANCH   4   6
HETATM    6  C   UNL     1     -10.918  14.601  68.655  1.00  0.00    -0.256 A  
HETATM    7  C   UNL     1      -9.947  13.975  67.886  1.00  0.00    -0.237 A  
HETATM    8  C   UNL     1      -8.751  14.488  67.181  1.00  0.00    -0.219 C  
HETATM    9  N   UNL     1      -7.579  13.915  67.810  1.00  0.00    -0.152 N  
HETATM   10  C   UNL     1      -6.467  14.796  68.124  1.00  0.00    -0.136 C  
HETATM   11  C   UNL     1      -7.319  12.552  67.836  1.00  0.00    -0.115 C  
HETATM   12  C   UNL     1      -8.214  11.626  67.095  1.00  0.00    -0.165 A  
HETATM   13  O   UNL     1      -6.325  12.076  68.383  1.00  0.00    -0.050 OA 
HETATM   14  C   UNL     1      -9.621  11.631  67.140  1.00  0.00    -0.175 A  
HETATM   15  C   UNL     1     -10.353  10.641  66.466  1.00  0.00    -0.299 A  
HETATM   16  N   UNL     1     -10.322  12.655  67.817  1.00  0.00    -0.216 NA 
HETATM   17  C   UNL     1     -11.529  12.548  68.460  1.00  0.00    -0.305 A  
HETATM   18  C   UNL     1      -9.681   9.690  65.695  1.00  0.00    -0.363 A  
HETATM   19  C   UNL     1      -8.292   9.697  65.643  1.00  0.00    -0.129 A  
HETATM   20  N   UNL     1     -11.910  13.690  68.983  1.00  0.00    -0.333 NA 
HETATM   21  C   UNL     1      -7.558  10.636  66.352  1.00  0.00    -0.138 A  
HETATM   22  F   UNL     1      -7.655   8.794  64.891  1.00  0.00    -0.088 F  
ENDBRANCH   4   6
ENDBRANCH   3   4
ENDBRANCH   2   3
TORSDOF 3
ENDMDL
MODEL       86
REMARK 921   NORMALIZED FREE ENERGY PREDICTED BY IDOCK:   -4.40 KCAL/MOL
REMARK 922        TOTAL FREE ENERGY PREDICTED BY IDOCK:   -5.46 KCAL/MOL
REMARK 923 INTER-LIGAND FREE ENERGY PREDICTED BY IDOCK:   -5.37 KCAL/MOL
REMARK 924 INTRA-LIGAND FREE ENERGY PREDICTED BY IDOCK:   -0.09 KCAL/MOL
REMARK 927      BINDING AFFINITY PREDICTED BY RF-SCORE:    0.00 PKD
ROOT
HETATM    1  C   UNL     1      -7.900   9.323  63.175  1.00  0.00    -0.135 C  
HETATM    2  C   UNL     1      -6.965   8.949  64.311  1.00  0.00    -0.089 C  
ENDROOT
BRANCH   2   3
HETATM    3  O   UNL     1      -7.752   8.745  65.489  1.00  0.00    -0.088 OA 
BRANCH   3   4
HETATM    4  C   UNL     1      -7.825   9.811  66.336  1.00  0.00    -0.106 C  
HETATM    5  O   UNL     1      -7.092  10.793  66.278  1.00  0.00    -0.126 OA 
BRANCH   4   6
HETATM    6  C   UNL     1      -8.951   9.698  67.264  1.00  0.00    -0.134 A  
HETATM    7  C   UNL     1      -9.453  10.692  68.090  1.00  0.00    -0.154 A  
HETATM    8  C   UNL     1      -8.974  12.055  68.415  1.00  0.00    -0.153 C  
HETATM    9  N   UNL     1      -9.943  13.004  67.908  1.00  0.00    -0.223 N  
HETATM   10  C   UNL     1      -9.455  14.154  67.167  1.00  0.00    -0.236 C  
HETATM   11  C   UNL     1     -11.256  13.062  68.353  1.00  0.00    -0.269 C  
HETATM   12  C   UNL     1     -11.681  12.192  69.480  1.00  0.00    -0.402 A  
HETATM   13  O   UNL     1     -12.073  13.867  67.907  1.00  0.00    -0.366 OA 
HETATM   14  C   UNL     1     -11.419  10.814  69.599  1.00  0.00    -0.305 A  
HETATM   15  C   UNL     1     -11.958  10.083  70.669  1.00  0.00    -0.401 A  
HETATM   16  N   UNL     1     -10.572  10.154  68.681  1.00  0.00    -0.200 NA 
HETATM   17  C   UNL     1     -10.654   8.849  68.265  1.00  0.00    -0.152 A  
HETATM   18  C   UNL     1     -12.702  10.742  71.651  1.00  0.00    -0.520 A  
HETATM   19  C   UNL     1     -12.947  12.104  71.536  1.00  0.00    -0.295 A  
HETATM   20  N   UNL     1      -9.708   8.545  67.409  1.00  0.00    -0.159 NA 
HETATM   21  C   UNL     1     -12.467  12.825  70.452  1.00  0.00    -0.231 A  
HETATM   22  F   UNL     1     -13.645  12.732  72.487  1.00  0.00    -0.623 F  
ENDBRANCH   4   6
ENDBRANCH   3   4
ENDBRANCH   2   3
TORSDOF 3
ENDMDL
MODEL       87
REMARK 921   NORMALIZED FREE ENERGY PREDICTED BY IDOCK:   -4.39 KCAL/MOL
REMARK 922        TOTAL FREE ENERGY PREDICTED BY IDOCK:   -5.45 KCAL/MOL
REMARK 923 INTER-LIGAND FREE ENERGY PREDICTED BY IDOCK:   -5.23 KCAL/MOL
REMARK 924 INTRA-LIGAND FREE ENERGY PREDICTED BY IDOCK:   -0.22 KCAL/MOL
REMARK 927      BINDING AFFINITY PREDICTED BY RF-SCORE:    0.00 PKD
ROOT
HETATM    1  C   UNL     1      -9.899  19.704  68.494  1.00  0.00    -0.519 C  
HETATM    2  C   UNL     1     -10.573  18.915  67.386  1.00  0.00    -0.460 C  
ENDROOT
BRANCH   2   3
HETATM    3  O   UNL     1     -10.640  17.543  67.792  1.00  0.00    -0.370 OA 
BRANCH   3   4
HETATM    4  C   UNL     1     -10.524  16.631  66.785  1.00  0.00    -0.261 C  
HETATM    5  O   UNL     1     -10.110  16.889  65.660  1.00  0.00    -0.546 OA 
BRANCH   4   6
HETATM    6  C   UNL     1     -10.855  15.277  67.232  1.00  0.00    -0.318 A  
HETATM    7  C   UNL     1     -10.028  14.163  67.202  1.00  0.00    -0.255 A  
HETATM    8  C   UNL     1      -8.690  13.932  66.613  1.00  0.00    -0.013 C  
HETATM    9  N   UNL     1      -7.761  13.683  67.696  1.00  0.00    -0.163 N  
HETATM   10  C   UNL     1      -6.484  14.374  67.679  1.00  0.00    -0.131 C  
HETATM   11  C   UNL     1      -7.871  12.603  68.561  1.00  0.00    -0.104 C  
HETATM   12  C   UNL     1      -8.920  11.580  68.316  1.00  0.00    -0.177 A  
HETATM   13  O   UNL     1      -7.081  12.407  69.484  1.00  0.00     0.064 OA 
HETATM   14  C   UNL     1     -10.276  11.841  68.041  1.00  0.00    -0.193 A  
HETATM   15  C   UNL     1     -11.189  10.783  67.921  1.00  0.00    -0.386 A  
HETATM   16  N   UNL     1     -10.731  13.162  67.828  1.00  0.00    -0.236 NA 
HETATM   17  C   UNL     1     -11.969  13.672  68.130  1.00  0.00    -0.355 A  
HETATM   18  C   UNL     1     -10.735   9.464  68.012  1.00  0.00    -0.246 A  
HETATM   19  C   UNL     1      -9.394   9.211  68.271  1.00  0.00    -0.135 A  
HETATM   20  N   UNL     1     -12.074  14.937  67.799  1.00  0.00    -0.166 NA 
HETATM   21  C   UNL     1      -8.493  10.252  68.448  1.00  0.00    -0.124 A  
HETATM   22  F   UNL     1      -8.962   7.948  68.341  1.00  0.00    -0.132 F  
ENDBRANCH   4   6
ENDBRANCH   3   4
ENDBRANCH   2   3
TORSDOF 3
ENDMDL
MODEL       88
REMARK 921   NORMALIZED FREE ENERGY PREDICTED BY IDOCK:   -4.38 KCAL/MOL
REMARK 922        TOTAL FREE ENERGY PREDICTED BY IDOCK:   -5.44 KCAL/MOL
REMARK 923 INTER-LIGAND FREE ENERGY PREDICTED BY IDOCK:   -5.28 KCAL/MOL
REMARK 924 INTRA-LIGAND FREE ENERGY PREDICTED BY IDOCK:   -0.16 KCAL/MOL
REMARK 927      BINDING AFFINITY PREDICTED BY RF-SCORE:    0.00 PKD
ROOT
HETATM    1  C   UNL     1     -13.444  14.973  71.299  1.00  0.00    -0.520 C  
HETATM    2  C   UNL     1     -12.734  14.881  69.960  1.00  0.00    -0.153 C  
ENDROOT
BRANCH   2   3
HETATM    3  O   UNL     1     -11.637  13.972  70.098  1.00  0.00    -0.262 OA 
BRANCH   3   4
HETATM    4  C   UNL     1     -11.029  13.611  68.932  1.00  0.00    -0.249 C  
HETATM    5  O   UNL     1     -10.833  12.451  68.583  1.00  0.00    -0.227 OA 
BRANCH   4   6
HETATM    6  C   UNL     1     -10.723  14.769  68.091  1.00  0.00    -0.247 A  
HETATM    7  C   UNL     1      -9.776  15.752  68.338  1.00  0.00    -0.203 A  
HETATM    8  C   UNL     1      -8.922  16.040  69.513  1.00  0.00    -0.071 C  
HETATM    9  N   UNL     1      -7.542  15.838  69.124  1.00  0.00    -0.197 N  
HETATM   10  C   UNL     1      -6.682  15.076  70.015  1.00  0.00    -0.147 C  
HETATM   11  C   UNL     1      -6.911  16.582  68.138  1.00  0.00    -0.144 C  
HETATM   12  C   UNL     1      -7.634  17.720  67.512  1.00  0.00    -0.214 A  
HETATM   13  O   UNL     1      -5.741  16.394  67.809  1.00  0.00    -0.113 OA 
HETATM   14  C   UNL     1      -8.952  17.687  67.021  1.00  0.00    -0.250 A  
HETATM   15  C   UNL     1      -9.490  18.805  66.365  1.00  0.00    -0.336 A  
HETATM   16  N   UNL     1      -9.774  16.554  67.223  1.00  0.00    -0.243 NA 
HETATM   17  C   UNL     1     -10.762  16.088  66.394  1.00  0.00    -0.232 A  
HETATM   18  C   UNL     1      -8.733  19.975  66.260  1.00  0.00    -0.346 A  
HETATM   19  C   UNL     1      -7.437  20.007  66.758  1.00  0.00    -0.256 A  
HETATM   20  N   UNL     1     -11.343  15.016  66.876  1.00  0.00    -0.331 NA 
HETATM   21  C   UNL     1      -6.875  18.888  67.357  1.00  0.00    -0.208 A  
HETATM   22  F   UNL     1      -6.723  21.134  66.669  1.00  0.00    -0.328 F  
ENDBRANCH   4   6
ENDBRANCH   3   4
ENDBRANCH   2   3
TORSDOF 3
ENDMDL
MODEL       89
REMARK 921   NORMALIZED FREE ENERGY PREDICTED BY IDOCK:   -4.38 KCAL/MOL
REMARK 922        TOTAL FREE ENERGY PREDICTED BY IDOCK:   -5.43 KCAL/MOL
REMARK 923 INTER-LIGAND FREE ENERGY PREDICTED BY IDOCK:   -5.36 KCAL/MOL
REMARK 924 INTRA-LIGAND FREE ENERGY PREDICTED BY IDOCK:   -0.08 KCAL/MOL
REMARK 927      BINDING AFFINITY PREDICTED BY RF-SCORE:    0.00 PKD
ROOT
HETATM    1  C   UNL     1     -11.381  16.138  68.790  1.00  0.00    -0.359 C  
HETATM    2  C   UNL     1     -11.767  14.959  67.915  1.00  0.00    -0.321 C  
ENDROOT
BRANCH   2   3
HETATM    3  O   UNL     1     -11.412  13.755  68.604  1.00  0.00    -0.259 OA 
BRANCH   3   4
HETATM    4  C   UNL     1     -11.692  12.598  67.941  1.00  0.00    -0.358 C  
HETATM    5  O   UNL     1     -11.914  12.525  66.736  1.00  0.00    -0.518 OA 
BRANCH   4   6
HETATM    6  C   UNL     1     -11.598  11.428  68.816  1.00  0.00    -0.313 A  
HETATM    7  C   UNL     1     -11.232  10.141  68.451  1.00  0.00    -0.177 A  
HETATM    8  C   UNL     1     -10.980   9.512  67.134  1.00  0.00     0.051 C  
HETATM    9  N   UNL     1      -9.581   9.141  67.075  1.00  0.00    -0.160 N  
HETATM   10  C   UNL     1      -8.832   9.473  65.875  1.00  0.00    -0.164 C  
HETATM   11  C   UNL     1      -9.001   8.220  67.934  1.00  0.00    -0.134 C  
HETATM   12  C   UNL     1      -9.859   7.484  68.899  1.00  0.00    -0.159 A  
HETATM   13  O   UNL     1      -7.809   7.920  67.881  1.00  0.00    -0.121 OA 
HETATM   14  C   UNL     1     -10.831   8.059  69.740  1.00  0.00    -0.194 A  
HETATM   15  C   UNL     1     -11.512   7.267  70.677  1.00  0.00    -0.322 A  
HETATM   16  N   UNL     1     -11.176   9.424  69.622  1.00  0.00    -0.139 NA 
HETATM   17  C   UNL     1     -11.589  10.265  70.625  1.00  0.00    -0.347 A  
HETATM   18  C   UNL     1     -11.269   5.892  70.727  1.00  0.00    -0.281 A  
HETATM   19  C   UNL     1     -10.318   5.327  69.886  1.00  0.00    -0.304 A  
HETATM   20  N   UNL     1     -11.838  11.474  70.181  1.00  0.00    -0.348 NA 
HETATM   21  C   UNL     1      -9.597   6.111  68.996  1.00  0.00    -0.144 A  
HETATM   22  F   UNL     1     -10.101   4.008  69.927  1.00  0.00    -0.286 F  
ENDBRANCH   4   6
ENDBRANCH   3   4
ENDBRANCH   2   3
TORSDOF 3
ENDMDL
MODEL       90
REMARK 921   NORMALIZED FREE ENERGY PREDICTED BY IDOCK:   -4.35 KCAL/MOL
REMARK 922        TOTAL FREE ENERGY PREDICTED BY IDOCK:   -5.40 KCAL/MOL
REMARK 923 INTER-LIGAND FREE ENERGY PREDICTED BY IDOCK:   -5.00 KCAL/MOL
REMARK 924 INTRA-LIGAND FREE ENERGY PREDICTED BY IDOCK:   -0.40 KCAL/MOL
REMARK 927      BINDING AFFINITY PREDICTED BY RF-SCORE:    0.00 PKD
ROOT
HETATM    1  C   UNL     1      -9.190  20.123  65.986  1.00  0.00    -0.271 C  
HETATM    2  C   UNL     1     -10.427  19.256  66.134  1.00  0.00    -0.488 C  
ENDROOT
BRANCH   2   3
HETATM    3  O   UNL     1     -10.935  19.424  67.463  1.00  0.00    -0.464 OA 
BRANCH   3   4
HETATM    4  C   UNL     1     -10.181  18.863  68.451  1.00  0.00    -0.373 C  
HETATM    5  O   UNL     1      -9.622  19.497  69.340  1.00  0.00    -0.304 OA 
BRANCH   4   6
HETATM    6  C   UNL     1     -10.197  17.401  68.389  1.00  0.00    -0.362 A  
HETATM    7  C   UNL     1      -9.100  16.559  68.283  1.00  0.00    -0.214 A  
HETATM    8  C   UNL     1      -7.660  16.822  68.056  1.00  0.00    -0.169 C  
HETATM    9  N   UNL     1      -6.938  16.413  69.242  1.00  0.00    -0.218 N  
HETATM   10  C   UNL     1      -5.933  17.314  69.780  1.00  0.00    -0.243 C  
HETATM   11  C   UNL     1      -6.908  15.104  69.703  1.00  0.00    -0.188 C  
HETATM   12  C   UNL     1      -7.551  14.035  68.896  1.00  0.00    -0.080 A  
HETATM   13  O   UNL     1      -6.298  14.770  70.718  1.00  0.00    -0.107 OA 
HETATM   14  C   UNL     1      -8.841  14.092  68.333  1.00  0.00    -0.180 A  
HETATM   15  C   UNL     1      -9.372  12.975  67.670  1.00  0.00    -0.202 A  
HETATM   16  N   UNL     1      -9.600  15.283  68.379  1.00  0.00    -0.202 NA 
HETATM   17  C   UNL     1     -10.966  15.394  68.450  1.00  0.00    -0.284 A  
HETATM   18  C   UNL     1      -8.590  11.828  67.513  1.00  0.00    -0.157 A  
HETATM   19  C   UNL     1      -7.313  11.781  68.059  1.00  0.00    -0.091 A  
HETATM   20  N   UNL     1     -11.357  16.646  68.470  1.00  0.00    -0.252 NA 
HETATM   21  C   UNL     1      -6.800  12.859  68.766  1.00  0.00    -0.099 A  
HETATM   22  F   UNL     1      -6.563  10.687  67.891  1.00  0.00    -0.058 F  
ENDBRANCH   4   6
ENDBRANCH   3   4
ENDBRANCH   2   3
TORSDOF 3
ENDMDL
MODEL       91
REMARK 921   NORMALIZED FREE ENERGY PREDICTED BY IDOCK:   -4.35 KCAL/MOL
REMARK 922        TOTAL FREE ENERGY PREDICTED BY IDOCK:   -5.40 KCAL/MOL
REMARK 923 INTER-LIGAND FREE ENERGY PREDICTED BY IDOCK:   -5.22 KCAL/MOL
REMARK 924 INTRA-LIGAND FREE ENERGY PREDICTED BY IDOCK:   -0.18 KCAL/MOL
REMARK 927      BINDING AFFINITY PREDICTED BY RF-SCORE:    0.00 PKD
ROOT
HETATM    1  C   UNL     1     -14.277  14.037  72.199  1.00  0.00    -0.628 C  
HETATM    2  C   UNL     1     -13.424  14.946  71.332  1.00  0.00    -0.426 C  
ENDROOT
BRANCH   2   3
HETATM    3  O   UNL     1     -12.259  14.217  70.931  1.00  0.00    -0.314 OA 
BRANCH   3   4
HETATM    4  C   UNL     1     -12.125  14.021  69.589  1.00  0.00    -0.355 C  
HETATM    5  O   UNL     1     -12.191  14.911  68.748  1.00  0.00    -0.209 OA 
BRANCH   4   6
HETATM    6  C   UNL     1     -11.791  12.632  69.269  1.00  0.00    -0.302 A  
HETATM    7  C   UNL     1     -10.920  12.190  68.284  1.00  0.00    -0.234 A  
HETATM    8  C   UNL     1     -10.202  12.896  67.199  1.00  0.00    -0.239 C  
HETATM    9  N   UNL     1      -8.782  12.805  67.468  1.00  0.00    -0.174 N  
HETATM   10  C   UNL     1      -7.981  14.011  67.344  1.00  0.00    -0.175 C  
HETATM   11  C   UNL     1      -8.091  11.604  67.518  1.00  0.00    -0.144 C  
HETATM   12  C   UNL     1      -8.799  10.343  67.173  1.00  0.00    -0.141 A  
HETATM   13  O   UNL     1      -6.886  11.539  67.757  1.00  0.00    -0.070 OA 
HETATM   14  C   UNL     1     -10.059   9.948  67.660  1.00  0.00    -0.197 A  
HETATM   15  C   UNL     1     -10.580   8.686  67.332  1.00  0.00    -0.298 A  
HETATM   16  N   UNL     1     -10.843  10.827  68.441  1.00  0.00    -0.213 NA 
HETATM   17  C   UNL     1     -11.722  10.490  69.440  1.00  0.00    -0.223 A  
HETATM   18  C   UNL     1      -9.871   7.851  66.465  1.00  0.00    -0.272 A  
HETATM   19  C   UNL     1      -8.633   8.251  65.976  1.00  0.00    -0.149 A  
HETATM   20  N   UNL     1     -12.298  11.545  69.965  1.00  0.00    -0.246 NA 
HETATM   21  C   UNL     1      -8.084   9.471  66.341  1.00  0.00    -0.111 A  
HETATM   22  F   UNL     1      -7.968   7.454  65.134  1.00  0.00    -0.100 F  
ENDBRANCH   4   6
ENDBRANCH   3   4
ENDBRANCH   2   3
TORSDOF 3
ENDMDL
MODEL       92
REMARK 921   NORMALIZED FREE ENERGY PREDICTED BY IDOCK:   -4.35 KCAL/MOL
REMARK 922        TOTAL FREE ENERGY PREDICTED BY IDOCK:   -5.40 KCAL/MOL
REMARK 923 INTER-LIGAND FREE ENERGY PREDICTED BY IDOCK:   -5.11 KCAL/MOL
REMARK 924 INTRA-LIGAND FREE ENERGY PREDICTED BY IDOCK:   -0.29 KCAL/MOL
REMARK 927      BINDING AFFINITY PREDICTED BY RF-SCORE:    0.00 PKD
ROOT
HETATM    1  C   UNL     1     -10.780   6.659  68.666  1.00  0.00    -0.303 C  
HETATM    2  C   UNL     1      -9.798   7.388  69.566  1.00  0.00    -0.165 C  
ENDROOT
BRANCH   2   3
HETATM    3  O   UNL     1      -9.714   8.747  69.126  1.00  0.00    -0.170 OA 
BRANCH   3   4
HETATM    4  C   UNL     1      -8.776   8.993  68.167  1.00  0.00    -0.130 C  
HETATM    5  O   UNL     1      -7.610   8.619  68.226  1.00  0.00    -0.094 OA 
BRANCH   4   6
HETATM    6  C   UNL     1      -9.348   9.673  67.003  1.00  0.00    -0.147 A  
HETATM    7  C   UNL     1      -9.863  10.960  66.959  1.00  0.00    -0.183 A  
HETATM    8  C   UNL     1     -10.138  11.960  68.017  1.00  0.00    -0.195 C  
HETATM    9  N   UNL     1      -9.259  13.091  67.803  1.00  0.00    -0.191 N  
HETATM   10  C   UNL     1      -8.550  13.635  68.949  1.00  0.00     0.177 C  
HETATM   11  C   UNL     1      -9.296  13.880  66.663  1.00  0.00    -0.268 C  
HETATM   12  C   UNL     1     -10.353  13.640  65.647  1.00  0.00    -0.309 A  
HETATM   13  O   UNL     1      -8.537  14.833  66.489  1.00  0.00    -0.198 OA 
HETATM   14  C   UNL     1     -10.715  12.387  65.117  1.00  0.00    -0.292 A  
HETATM   15  C   UNL     1     -11.668  12.303  64.090  1.00  0.00    -0.481 A  
HETATM   16  N   UNL     1     -10.170  11.193  65.640  1.00  0.00    -0.247 NA 
HETATM   17  C   UNL     1      -9.916  10.029  64.960  1.00  0.00    -0.250 A  
HETATM   18  C   UNL     1     -12.304  13.463  63.641  1.00  0.00    -0.422 A  
HETATM   19  C   UNL     1     -11.952  14.696  64.176  1.00  0.00    -0.292 A  
HETATM   20  N   UNL     1      -9.413   9.103  65.741  1.00  0.00    -0.255 NA 
HETATM   21  C   UNL     1     -10.970  14.796  65.151  1.00  0.00    -0.403 A  
HETATM   22  F   UNL     1     -12.576  15.801  63.754  1.00  0.00    -0.289 F  
ENDBRANCH   4   6
ENDBRANCH   3   4
ENDBRANCH   2   3
TORSDOF 3
ENDMDL
MODEL       93
REMARK 921   NORMALIZED FREE ENERGY PREDICTED BY IDOCK:   -4.35 KCAL/MOL
REMARK 922        TOTAL FREE ENERGY PREDICTED BY IDOCK:   -5.39 KCAL/MOL
REMARK 923 INTER-LIGAND FREE ENERGY PREDICTED BY IDOCK:   -5.22 KCAL/MOL
REMARK 924 INTRA-LIGAND FREE ENERGY PREDICTED BY IDOCK:   -0.17 KCAL/MOL
REMARK 927      BINDING AFFINITY PREDICTED BY RF-SCORE:    0.00 PKD
ROOT
HETATM    1  C   UNL     1      -5.555  20.440  64.349  1.00  0.00    -0.249 C  
HETATM    2  C   UNL     1      -6.446  20.422  65.579  1.00  0.00    -0.255 C  
ENDROOT
BRANCH   2   3
HETATM    3  O   UNL     1      -7.265  19.249  65.520  1.00  0.00    -0.416 OA 
BRANCH   3   4
HETATM    4  C   UNL     1      -8.424  19.310  66.234  1.00  0.00    -0.319 C  
HETATM    5  O   UNL     1      -8.715  20.217  67.007  1.00  0.00    -0.332 OA 
BRANCH   4   6
HETATM    6  C   UNL     1      -9.334  18.214  65.897  1.00  0.00     0.161 A  
HETATM    7  C   UNL     1      -9.089  16.856  66.033  1.00  0.00    -0.164 A  
HETATM    8  C   UNL     1      -7.870  16.093  66.387  1.00  0.00    -0.162 C  
HETATM    9  N   UNL     1      -8.108  15.432  67.653  1.00  0.00    -0.140 N  
HETATM   10  C   UNL     1      -7.075  15.509  68.673  1.00  0.00    -0.118 C  
HETATM   11  C   UNL     1      -9.094  14.474  67.839  1.00  0.00    -0.191 C  
HETATM   12  C   UNL     1      -9.885  14.009  66.671  1.00  0.00    -0.288 A  
HETATM   13  O   UNL     1      -9.293  13.926  68.923  1.00  0.00    -0.085 OA 
HETATM   14  C   UNL     1     -10.493  14.836  65.707  1.00  0.00    -0.334 A  
HETATM   15  C   UNL     1     -11.295  14.276  64.701  1.00  0.00    -0.375 A  
HETATM   16  N   UNL     1     -10.268  16.231  65.702  1.00  0.00    -0.469 NA 
HETATM   17  C   UNL     1     -11.141  17.211  65.302  1.00  0.00     0.168 A  
HETATM   18  C   UNL     1     -11.434  12.888  64.620  1.00  0.00    -0.369 A  
HETATM   19  C   UNL     1     -10.821  12.075  65.565  1.00  0.00    -0.292 A  
HETATM   20  N   UNL     1     -10.620  18.409  65.416  1.00  0.00    -0.502 NA 
HETATM   21  C   UNL     1     -10.074  12.622  66.598  1.00  0.00    -0.248 A  
HETATM   22  F   UNL     1     -10.944  10.747  65.473  1.00  0.00    -0.245 F  
ENDBRANCH   4   6
ENDBRANCH   3   4
ENDBRANCH   2   3
TORSDOF 3
ENDMDL
MODEL       94
REMARK 921   NORMALIZED FREE ENERGY PREDICTED BY IDOCK:   -4.34 KCAL/MOL
REMARK 922        TOTAL FREE ENERGY PREDICTED BY IDOCK:   -5.39 KCAL/MOL
REMARK 923 INTER-LIGAND FREE ENERGY PREDICTED BY IDOCK:   -5.10 KCAL/MOL
REMARK 924 INTRA-LIGAND FREE ENERGY PREDICTED BY IDOCK:   -0.29 KCAL/MOL
REMARK 927      BINDING AFFINITY PREDICTED BY RF-SCORE:    0.00 PKD
ROOT
HETATM    1  C   UNL     1      -9.826  13.236  68.646  1.00  0.00    -0.096 C  
HETATM    2  C   UNL     1      -9.275  11.826  68.765  1.00  0.00     0.001 C  
ENDROOT
BRANCH   2   3
HETATM    3  O   UNL     1      -9.937  11.004  67.798  1.00  0.00    -0.169 OA 
BRANCH   3   4
HETATM    4  C   UNL     1     -11.075  10.392  68.234  1.00  0.00    -0.281 C  
HETATM    5  O   UNL     1     -12.190  10.901  68.205  1.00  0.00    -0.526 OA 
BRANCH   4   6
HETATM    6  C   UNL     1     -10.829   9.010  68.649  1.00  0.00    -0.017 A  
HETATM    7  C   UNL     1     -10.989   8.481  69.921  1.00  0.00    -0.165 A  
HETATM    8  C   UNL     1     -11.288   9.105  71.230  1.00  0.00    -0.336 C  
HETATM    9  N   UNL     1     -12.585   8.633  71.666  1.00  0.00    -0.325 N  
HETATM   10  C   UNL     1     -13.535   9.608  72.177  1.00  0.00    -0.429 C  
HETATM   11  C   UNL     1     -12.862   7.300  71.929  1.00  0.00    -0.262 C  
HETATM   12  C   UNL     1     -11.761   6.304  71.874  1.00  0.00    -0.370 A  
HETATM   13  O   UNL     1     -13.972   6.909  72.290  1.00  0.00    -0.031 OA 
HETATM   14  C   UNL     1     -10.814   6.182  70.839  1.00  0.00    -0.281 A  
HETATM   15  C   UNL     1      -9.877   5.137  70.858  1.00  0.00    -0.266 A  
HETATM   16  N   UNL     1     -10.753   7.133  69.795  1.00  0.00    -0.234 NA 
HETATM   17  C   UNL     1     -10.380   6.913  68.493  1.00  0.00    -0.186 A  
HETATM   18  C   UNL     1      -9.847   4.256  71.942  1.00  0.00    -0.248 A  
HETATM   19  C   UNL     1     -10.775   4.388  72.967  1.00  0.00    -0.207 A  
HETATM   20  N   UNL     1     -10.425   8.011  67.777  1.00  0.00    -0.228 NA 
HETATM   21  C   UNL     1     -11.742   5.383  72.929  1.00  0.00    -0.232 A  
HETATM   22  F   UNL     1     -10.730   3.553  74.010  1.00  0.00    -0.212 F  
ENDBRANCH   4   6
ENDBRANCH   3   4
ENDBRANCH   2   3
TORSDOF 3
ENDMDL
MODEL       95
REMARK 921   NORMALIZED FREE ENERGY PREDICTED BY IDOCK:   -4.33 KCAL/MOL
REMARK 922        TOTAL FREE ENERGY PREDICTED BY IDOCK:   -5.38 KCAL/MOL
REMARK 923 INTER-LIGAND FREE ENERGY PREDICTED BY IDOCK:   -4.94 KCAL/MOL
REMARK 924 INTRA-LIGAND FREE ENERGY PREDICTED BY IDOCK:   -0.44 KCAL/MOL
REMARK 927      BINDING AFFINITY PREDICTED BY RF-SCORE:    0.00 PKD
ROOT
HETATM    1  C   UNL     1      -6.827   9.001  65.482  1.00  0.00    -0.073 C  
HETATM    2  C   UNL     1      -8.110   9.577  64.907  1.00  0.00    -0.131 C  
ENDROOT
BRANCH   2   3
HETATM    3  O   UNL     1      -8.465  10.731  65.676  1.00  0.00    -0.170 OA 
BRANCH   3   4
HETATM    4  C   UNL     1      -9.797  10.875  65.931  1.00  0.00    -0.236 C  
HETATM    5  O   UNL     1     -10.637  11.163  65.086  1.00  0.00    -0.284 OA 
BRANCH   4   6
HETATM    6  C   UNL     1     -10.128  10.544  67.318  1.00  0.00    -0.201 A  
HETATM    7  C   UNL     1     -10.426   9.289  67.828  1.00  0.00    -0.255 A  
HETATM    8  C   UNL     1     -10.651   7.978  67.179  1.00  0.00    -0.297 C  
HETATM    9  N   UNL     1      -9.587   7.086  67.590  1.00  0.00    -0.130 N  
HETATM   10  C   UNL     1      -8.927   6.287  66.571  1.00  0.00    -0.144 C  
HETATM   11  C   UNL     1      -9.377   6.707  68.908  1.00  0.00    -0.128 C  
HETATM   12  C   UNL     1     -10.345   7.137  69.951  1.00  0.00    -0.224 A  
HETATM   13  O   UNL     1      -8.464   5.956  69.247  1.00  0.00    -0.111 OA 
HETATM   14  C   UNL     1     -10.842   8.443  70.123  1.00  0.00    -0.236 A  
HETATM   15  C   UNL     1     -11.681   8.742  71.208  1.00  0.00    -0.356 A  
HETATM   16  N   UNL     1     -10.550   9.460  69.186  1.00  0.00    -0.220 NA 
HETATM   17  C   UNL     1     -10.412  10.802  69.434  1.00  0.00    -0.200 A  
HETATM   18  C   UNL     1     -12.075   7.723  72.078  1.00  0.00    -0.351 A  
HETATM   19  C   UNL     1     -11.593   6.433  71.896  1.00  0.00    -0.318 A  
HETATM   20  N   UNL     1     -10.147  11.479  68.343  1.00  0.00    -0.199 NA 
HETATM   21  C   UNL     1     -10.716   6.139  70.862  1.00  0.00    -0.316 A  
HETATM   22  F   UNL     1     -11.986   5.458  72.723  1.00  0.00    -0.355 F  
ENDBRANCH   4   6
ENDBRANCH   3   4
ENDBRANCH   2   3
TORSDOF 3
ENDMDL
MODEL       96
REMARK 921   NORMALIZED FREE ENERGY PREDICTED BY IDOCK:   -4.32 KCAL/MOL
REMARK 922        TOTAL FREE ENERGY PREDICTED BY IDOCK:   -5.37 KCAL/MOL
REMARK 923 INTER-LIGAND FREE ENERGY PREDICTED BY IDOCK:   -5.15 KCAL/MOL
REMARK 924 INTRA-LIGAND FREE ENERGY PREDICTED BY IDOCK:   -0.22 KCAL/MOL
REMARK 927      BINDING AFFINITY PREDICTED BY RF-SCORE:    0.00 PKD
ROOT
HETATM    1  C   UNL     1     -12.007  11.512  69.539  1.00  0.00    -0.402 C  
HETATM    2  C   UNL     1     -11.275  10.378  68.844  1.00  0.00    -0.235 C  
ENDROOT
BRANCH   2   3
HETATM    3  O   UNL     1     -11.405  10.561  67.430  1.00  0.00    -0.381 OA 
BRANCH   3   4
HETATM    4  C   UNL     1     -10.240  10.505  66.725  1.00  0.00    -0.234 C  
HETATM    5  O   UNL     1     -10.015   9.708  65.820  1.00  0.00    -0.293 OA 
BRANCH   4   6
HETATM    6  C   UNL     1      -9.319  11.578  67.103  1.00  0.00    -0.172 A  
HETATM    7  C   UNL     1      -9.351  12.896  66.670  1.00  0.00    -0.240 A  
HETATM    8  C   UNL     1     -10.161  13.587  65.642  1.00  0.00    -0.296 C  
HETATM    9  N   UNL     1     -11.005  14.555  66.311  1.00  0.00    -0.317 N  
HETATM   10  C   UNL     1     -12.409  14.615  65.940  1.00  0.00    -0.115 C  
HETATM   11  C   UNL     1     -10.507  15.628  67.035  1.00  0.00    -0.303 C  
HETATM   12  C   UNL     1      -9.043  15.881  67.047  1.00  0.00    -0.236 A  
HETATM   13  O   UNL     1     -11.234  16.438  67.609  1.00  0.00    -0.218 OA 
HETATM   14  C   UNL     1      -8.044  14.916  67.277  1.00  0.00    -0.208 A  
HETATM   15  C   UNL     1      -6.696  15.299  67.356  1.00  0.00    -0.157 A  
HETATM   16  N   UNL     1      -8.369  13.544  67.380  1.00  0.00    -0.186 NA 
HETATM   17  C   UNL     1      -7.732  12.595  68.139  1.00  0.00    -0.142 A  
HETATM   18  C   UNL     1      -6.343  16.634  67.139  1.00  0.00    -0.219 A  
HETATM   19  C   UNL     1      -7.332  17.580  66.900  1.00  0.00    -0.205 A  
HETATM   20  N   UNL     1      -8.280  11.411  68.007  1.00  0.00    -0.133 NA 
HETATM   21  C   UNL     1      -8.672  17.221  66.877  1.00  0.00    -0.261 A  
HETATM   22  F   UNL     1      -6.987  18.852  66.677  1.00  0.00    -0.197 F  
ENDBRANCH   4   6
ENDBRANCH   3   4
ENDBRANCH   2   3
TORSDOF 3
ENDMDL
MODEL       97
REMARK 921   NORMALIZED FREE ENERGY PREDICTED BY IDOCK:   -4.30 KCAL/MOL
REMARK 922        TOTAL FREE ENERGY PREDICTED BY IDOCK:   -5.34 KCAL/MOL
REMARK 923 INTER-LIGAND FREE ENERGY PREDICTED BY IDOCK:   -4.94 KCAL/MOL
REMARK 924 INTRA-LIGAND FREE ENERGY PREDICTED BY IDOCK:   -0.40 KCAL/MOL
REMARK 927      BINDING AFFINITY PREDICTED BY RF-SCORE:    0.00 PKD
ROOT
HETATM    1  C   UNL     1      -8.034   5.203  65.983  1.00  0.00    -0.107 C  
HETATM    2  C   UNL     1      -7.025   6.326  65.819  1.00  0.00    -0.057 C  
ENDROOT
BRANCH   2   3
HETATM    3  O   UNL     1      -7.352   7.360  66.753  1.00  0.00    -0.087 OA 
BRANCH   3   4
HETATM    4  C   UNL     1      -8.153   8.353  66.269  1.00  0.00    -0.105 C  
HETATM    5  O   UNL     1      -8.326   8.584  65.077  1.00  0.00    -0.153 OA 
BRANCH   4   6
HETATM    6  C   UNL     1      -8.866   9.052  67.339  1.00  0.00    -0.118 A  
HETATM    7  C   UNL     1      -9.896   8.550  68.121  1.00  0.00    -0.165 A  
HETATM    8  C   UNL     1     -10.678   7.294  68.052  1.00  0.00    -0.146 C  
HETATM    9  N   UNL     1     -10.383   6.517  69.237  1.00  0.00    -0.189 N  
HETATM   10  C   UNL     1     -10.093   5.102  69.076  1.00  0.00    -0.187 C  
HETATM   11  C   UNL     1     -10.671   6.949  70.523  1.00  0.00    -0.235 C  
HETATM   12  C   UNL     1     -11.418   8.219  70.713  1.00  0.00    -0.268 A  
HETATM   13  O   UNL     1     -10.406   6.283  71.524  1.00  0.00    -0.198 OA 
HETATM   14  C   UNL     1     -11.135   9.443  70.077  1.00  0.00    -0.221 A  
HETATM   15  C   UNL     1     -11.858  10.598  70.413  1.00  0.00    -0.441 A  
HETATM   16  N   UNL     1     -10.161   9.521  69.056  1.00  0.00    -0.186 NA 
HETATM   17  C   UNL     1      -9.356  10.592  68.758  1.00  0.00    -0.180 A  
HETATM   18  C   UNL     1     -12.905  10.514  71.335  1.00  0.00    -0.551 A  
HETATM   19  C   UNL     1     -13.189   9.302  71.951  1.00  0.00    -0.423 A  
HETATM   20  N   UNL     1      -8.561  10.342  67.745  1.00  0.00    -0.121 NA 
HETATM   21  C   UNL     1     -12.442   8.167  71.668  1.00  0.00    -0.349 A  
HETATM   22  F   UNL     1     -14.202   9.224  72.820  1.00  0.00    -0.452 F  
ENDBRANCH   4   6
ENDBRANCH   3   4
ENDBRANCH   2   3
TORSDOF 3
ENDMDL
MODEL       98
REMARK 921   NORMALIZED FREE ENERGY PREDICTED BY IDOCK:   -4.29 KCAL/MOL
REMARK 922        TOTAL FREE ENERGY PREDICTED BY IDOCK:   -5.33 KCAL/MOL
REMARK 923 INTER-LIGAND FREE ENERGY PREDICTED BY IDOCK:   -5.04 KCAL/MOL
REMARK 924 INTRA-LIGAND FREE ENERGY PREDICTED BY IDOCK:   -0.29 KCAL/MOL
REMARK 927      BINDING AFFINITY PREDICTED BY RF-SCORE:    0.00 PKD
ROOT
HETATM    1  C   UNL     1     -11.178  15.618  65.012  1.00  0.00    -0.335 C  
HETATM    2  C   UNL     1     -10.531  14.641  65.977  1.00  0.00    -0.305 C  
ENDROOT
BRANCH   2   3
HETATM    3  O   UNL     1     -10.634  13.327  65.419  1.00  0.00    -0.282 OA 
BRANCH   3   4
HETATM    4  C   UNL     1     -11.459  12.472  66.088  1.00  0.00    -0.377 C  
HETATM    5  O   UNL     1     -12.654  12.670  66.280  1.00  0.00    -0.358 OA 
BRANCH   4   6
HETATM    6  C   UNL     1     -10.776  11.234  66.465  1.00  0.00    -0.271 A  
HETATM    7  C   UNL     1     -10.415  10.837  67.745  1.00  0.00    -0.208 A  
HETATM    8  C   UNL     1     -10.449  11.534  69.050  1.00  0.00    -0.145 C  
HETATM    9  N   UNL     1     -11.403  10.851  69.899  1.00  0.00    -0.289 N  
HETATM   10  C   UNL     1     -12.360  11.654  70.641  1.00  0.00    -0.344 C  
HETATM   11  C   UNL     1     -11.259   9.530  70.297  1.00  0.00    -0.261 C  
HETATM   12  C   UNL     1     -10.019   8.793  69.938  1.00  0.00    -0.193 A  
HETATM   13  O   UNL     1     -12.082   8.957  71.010  1.00  0.00    -0.288 OA 
HETATM   14  C   UNL     1      -9.426   8.754  68.662  1.00  0.00    -0.141 A  
HETATM   15  C   UNL     1      -8.305   7.943  68.428  1.00  0.00    -0.124 A  
HETATM   16  N   UNL     1      -9.911   9.566  67.611  1.00  0.00    -0.169 NA 
HETATM   17  C   UNL     1      -9.904   9.278  66.270  1.00  0.00    -0.291 A  
HETATM   18  C   UNL     1      -7.740   7.224  69.485  1.00  0.00    -0.113 A  
HETATM   19  C   UNL     1      -8.322   7.276  70.746  1.00  0.00    -0.124 A  
HETATM   20  N   UNL     1     -10.424  10.247  65.556  1.00  0.00    -0.152 NA 
HETATM   21  C   UNL     1      -9.464   8.030  70.973  1.00  0.00    -0.179 A  
HETATM   22  F   UNL     1      -7.767   6.599  71.757  1.00  0.00    -0.092 F  
ENDBRANCH   4   6
ENDBRANCH   3   4
ENDBRANCH   2   3
TORSDOF 3
ENDMDL
MODEL       99
REMARK 921   NORMALIZED FREE ENERGY PREDICTED BY IDOCK:   -4.29 KCAL/MOL
REMARK 922        TOTAL FREE ENERGY PREDICTED BY IDOCK:   -5.33 KCAL/MOL
REMARK 923 INTER-LIGAND FREE ENERGY PREDICTED BY IDOCK:   -4.98 KCAL/MOL
REMARK 924 INTRA-LIGAND FREE ENERGY PREDICTED BY IDOCK:   -0.35 KCAL/MOL
REMARK 927      BINDING AFFINITY PREDICTED BY RF-SCORE:    0.00 PKD
ROOT
HETATM    1  C   UNL     1      -9.923   2.703  63.647  1.00  0.00    -0.145 C  
HETATM    2  C   UNL     1      -9.662   4.176  63.903  1.00  0.00    -0.124 C  
ENDROOT
BRANCH   2   3
HETATM    3  O   UNL     1      -8.426   4.293  64.617  1.00  0.00    -0.109 OA 
BRANCH   3   4
HETATM    4  C   UNL     1      -8.517   4.867  65.851  1.00  0.00    -0.119 C  
HETATM    5  O   UNL     1      -8.417   4.255  66.909  1.00  0.00    -0.104 OA 
BRANCH   4   6
HETATM    6  C   UNL     1      -8.645   6.323  65.769  1.00  0.00    -0.150 A  
HETATM    7  C   UNL     1      -9.622   7.108  66.364  1.00  0.00    -0.098 A  
HETATM    8  C   UNL     1     -10.862   6.769  67.099  1.00  0.00    -0.392 C  
HETATM    9  N   UNL     1     -10.707   7.212  68.468  1.00  0.00    -0.183 N  
HETATM   10  C   UNL     1     -11.085   6.299  69.533  1.00  0.00    -0.408 C  
HETATM   11  C   UNL     1     -10.532   8.542  68.824  1.00  0.00    -0.184 C  
HETATM   12  C   UNL     1     -10.615   9.592  67.775  1.00  0.00    -0.318 A  
HETATM   13  O   UNL     1     -10.392   8.906  69.991  1.00  0.00    -0.192 OA 
HETATM   14  C   UNL     1      -9.964   9.560  66.527  1.00  0.00    -0.261 A  
HETATM   15  C   UNL     1     -10.046  10.660  65.660  1.00  0.00    -0.335 A  
HETATM   16  N   UNL     1      -9.263   8.409  66.103  1.00  0.00    -0.202 NA 
HETATM   17  C   UNL     1      -8.152   8.363  65.300  1.00  0.00    -0.140 A  
HETATM   18  C   UNL     1     -10.832  11.761  66.012  1.00  0.00    -0.343 A  
HETATM   19  C   UNL     1     -11.483  11.782  67.239  1.00  0.00    -0.303 A  
HETATM   20  N   UNL     1      -7.748   7.133  65.089  1.00  0.00    -0.108 NA 
HETATM   21  C   UNL     1     -11.361  10.724  68.129  1.00  0.00    -0.377 A  
HETATM   22  F   UNL     1     -12.246  12.830  67.563  1.00  0.00    -0.384 F  
ENDBRANCH   4   6
ENDBRANCH   3   4
ENDBRANCH   2   3
TORSDOF 3
ENDMDL
MODEL      100
REMARK 921   NORMALIZED FREE ENERGY PREDICTED BY IDOCK:   -4.25 KCAL/MOL
REMARK 922        TOTAL FREE ENERGY PREDICTED BY IDOCK:   -5.28 KCAL/MOL
REMARK 923 INTER-LIGAND FREE ENERGY PREDICTED BY IDOCK:   -5.00 KCAL/MOL
REMARK 924 INTRA-LIGAND FREE ENERGY PREDICTED BY IDOCK:   -0.28 KCAL/MOL
REMARK 927      BINDING AFFINITY PREDICTED BY RF-SCORE:    0.00 PKD
ROOT
HETATM    1  C   UNL     1     -10.466  15.843  65.988  1.00  0.00    -0.357 C  
HETATM    2  C   UNL     1     -10.470  14.475  65.329  1.00  0.00    -0.390 C  
ENDROOT
BRANCH   2   3
HETATM    3  O   UNL     1     -10.071  13.507  66.306  1.00  0.00    -0.283 OA 
BRANCH   3   4
HETATM    4  C   UNL     1     -10.953  12.488  66.512  1.00  0.00    -0.266 C  
HETATM    5  O   UNL     1     -12.163  12.636  66.650  1.00  0.00    -0.517 OA 
BRANCH   4   6
HETATM    6  C   UNL     1     -10.302  11.179  66.449  1.00  0.00    -0.252 A  
HETATM    7  C   UNL     1      -9.870  10.410  67.520  1.00  0.00    -0.172 A  
HETATM    8  C   UNL     1      -9.779  10.687  68.972  1.00  0.00    -0.202 C  
HETATM    9  N   UNL     1     -10.700   9.803  69.655  1.00  0.00    -0.229 N  
HETATM   10  C   UNL     1     -11.564  10.369  70.677  1.00  0.00    -0.349 C  
HETATM   11  C   UNL     1     -10.589   8.420  69.632  1.00  0.00    -0.219 C  
HETATM   12  C   UNL     1      -9.413   7.797  68.971  1.00  0.00    -0.150 A  
HETATM   13  O   UNL     1     -11.385   7.679  70.208  1.00  0.00    -0.262 OA 
HETATM   14  C   UNL     1      -8.914   8.127  67.697  1.00  0.00    -0.132 A  
HETATM   15  C   UNL     1      -7.851   7.398  67.143  1.00  0.00    -0.117 A  
HETATM   16  N   UNL     1      -9.436   9.226  66.976  1.00  0.00    -0.153 NA 
HETATM   17  C   UNL     1      -9.537   9.351  65.614  1.00  0.00    -0.274 A  
HETATM   18  C   UNL     1      -7.246   6.384  67.890  1.00  0.00    -0.087 A  
HETATM   19  C   UNL     1      -7.733   6.070  69.152  1.00  0.00    -0.095 A  
HETATM   20  N   UNL     1     -10.062  10.501  65.263  1.00  0.00    -0.297 NA 
HETATM   21  C   UNL     1      -8.821   6.747  69.685  1.00  0.00    -0.144 A  
HETATM   22  F   UNL     1      -7.140   5.110  69.869  1.00  0.00    -0.051 F  
ENDBRANCH   4   6
ENDBRANCH   3   4
ENDBRANCH   2   3
TORSDOF 3
ENDMDL
MODEL      101
REMARK 921   NORMALIZED FREE ENERGY PREDICTED BY IDOCK:   -4.24 KCAL/MOL
REMARK 922        TOTAL FREE ENERGY PREDICTED BY IDOCK:   -5.27 KCAL/MOL
REMARK 923 INTER-LIGAND FREE ENERGY PREDICTED BY IDOCK:   -5.31 KCAL/MOL
REMARK 924 INTRA-LIGAND FREE ENERGY PREDICTED BY IDOCK:    0.04 KCAL/MOL
REMARK 927      BINDING AFFINITY PREDICTED BY RF-SCORE:    0.00 PKD
ROOT
HETATM    1  C   UNL     1      -9.459  20.817  66.970  1.00  0.00    -0.396 C  
HETATM    2  C   UNL     1     -10.568  19.795  66.790  1.00  0.00    -0.467 C  
ENDROOT
BRANCH   2   3
HETATM    3  O   UNL     1     -10.655  19.014  67.986  1.00  0.00    -0.376 OA 
BRANCH   3   4
HETATM    4  C   UNL     1      -9.494  18.416  68.379  1.00  0.00    -0.332 C  
HETATM    5  O   UNL     1      -8.711  18.891  69.195  1.00  0.00    -0.178 OA 
BRANCH   4   6
HETATM    6  C   UNL     1      -9.337  17.086  67.788  1.00  0.00    -0.237 A  
HETATM    7  C   UNL     1      -9.562  15.866  68.409  1.00  0.00    -0.208 A  
HETATM    8  C   UNL     1      -9.863  15.503  69.813  1.00  0.00    -0.262 C  
HETATM    9  N   UNL     1     -11.197  14.940  69.853  1.00  0.00    -0.268 N  
HETATM   10  C   UNL     1     -12.105  15.401  70.890  1.00  0.00    -0.364 C  
HETATM   11  C   UNL     1     -11.554  13.777  69.186  1.00  0.00    -0.317 C  
HETATM   12  C   UNL     1     -10.507  12.994  68.479  1.00  0.00    -0.261 A  
HETATM   13  O   UNL     1     -12.693  13.314  69.220  1.00  0.00     0.224 OA 
HETATM   14  C   UNL     1      -9.539  13.520  67.602  1.00  0.00    -0.222 A  
HETATM   15  C   UNL     1      -8.663  12.661  66.921  1.00  0.00    -0.175 A  
HETATM   16  N   UNL     1      -9.396  14.915  67.431  1.00  0.00    -0.196 NA 
HETATM   17  C   UNL     1      -8.999  15.575  66.296  1.00  0.00    -0.327 A  
HETATM   18  C   UNL     1      -8.711  11.286  67.168  1.00  0.00    -0.151 A  
HETATM   19  C   UNL     1      -9.660  10.774  68.044  1.00  0.00    -0.163 A  
HETATM   20  N   UNL     1      -8.963  16.875  66.470  1.00  0.00    -0.255 NA 
HETATM   21  C   UNL     1     -10.569  11.609  68.678  1.00  0.00    -0.236 A  
HETATM   22  F   UNL     1      -9.691   9.460  68.288  1.00  0.00    -0.143 F  
ENDBRANCH   4   6
ENDBRANCH   3   4
ENDBRANCH   2   3
TORSDOF 3
ENDMDL
MODEL      102
REMARK 921   NORMALIZED FREE ENERGY PREDICTED BY IDOCK:   -4.22 KCAL/MOL
REMARK 922        TOTAL FREE ENERGY PREDICTED BY IDOCK:   -5.24 KCAL/MOL
REMARK 923 INTER-LIGAND FREE ENERGY PREDICTED BY IDOCK:   -4.98 KCAL/MOL
REMARK 924 INTRA-LIGAND FREE ENERGY PREDICTED BY IDOCK:   -0.26 KCAL/MOL
REMARK 927      BINDING AFFINITY PREDICTED BY RF-SCORE:    0.00 PKD
ROOT
HETATM    1  C   UNL     1      -9.115   3.645  72.087  1.00  0.00    -0.151 C  
HETATM    2  C   UNL     1      -9.983   4.890  72.025  1.00  0.00    -0.187 C  
ENDROOT
BRANCH   2   3
HETATM    3  O   UNL     1      -9.126   6.024  71.857  1.00  0.00    -0.141 OA 
BRANCH   3   4
HETATM    4  C   UNL     1      -9.645   7.215  72.270  1.00  0.00    -0.142 C  
HETATM    5  O   UNL     1     -10.136   7.410  73.377  1.00  0.00    -0.275 OA 
BRANCH   4   6
HETATM    6  C   UNL     1      -9.459   8.269  71.272  1.00  0.00    -0.172 A  
HETATM    7  C   UNL     1     -10.453   8.966  70.599  1.00  0.00    -0.221 A  
HETATM    8  C   UNL     1     -11.923   8.796  70.540  1.00  0.00     0.044 C  
HETATM    9  N   UNL     1     -12.533   9.962  71.144  1.00  0.00    -0.342 N  
HETATM   10  C   UNL     1     -13.609   9.758  72.098  1.00  0.00    -0.344 C  
HETATM   11  C   UNL     1     -12.384  11.246  70.641  1.00  0.00    -0.383 C  
HETATM   12  C   UNL     1     -11.659  11.446  69.359  1.00  0.00    -0.391 A  
HETATM   13  O   UNL     1     -12.900  12.231  71.168  1.00  0.00    -0.319 OA 
HETATM   14  C   UNL     1     -10.415  10.880  69.021  1.00  0.00    -0.219 A  
HETATM   15  C   UNL     1      -9.788  11.222  67.813  1.00  0.00    -0.186 A  
HETATM   16  N   UNL     1      -9.801   9.924  69.862  1.00  0.00    -0.241 NA 
HETATM   17  C   UNL     1      -8.456   9.721  70.043  1.00  0.00    -0.206 A  
HETATM   18  C   UNL     1     -10.435  12.075  66.916  1.00  0.00    -0.251 A  
HETATM   19  C   UNL     1     -11.669  12.620  67.248  1.00  0.00    -0.370 A  
HETATM   20  N   UNL     1      -8.215   8.747  70.889  1.00  0.00    -0.144 NA 
HETATM   21  C   UNL     1     -12.271  12.334  68.465  1.00  0.00     0.092 A  
HETATM   22  F   UNL     1     -12.291  13.423  66.378  1.00  0.00    -0.428 F  
ENDBRANCH   4   6
ENDBRANCH   3   4
ENDBRANCH   2   3
TORSDOF 3
ENDMDL
MODEL      103
REMARK 921   NORMALIZED FREE ENERGY PREDICTED BY IDOCK:   -4.20 KCAL/MOL
REMARK 922        TOTAL FREE ENERGY PREDICTED BY IDOCK:   -5.22 KCAL/MOL
REMARK 923 INTER-LIGAND FREE ENERGY PREDICTED BY IDOCK:   -4.85 KCAL/MOL
REMARK 924 INTRA-LIGAND FREE ENERGY PREDICTED BY IDOCK:   -0.37 KCAL/MOL
REMARK 927      BINDING AFFINITY PREDICTED BY RF-SCORE:    0.00 PKD
ROOT
HETATM    1  C   UNL     1     -11.534  12.392  69.179  1.00  0.00    -0.358 C  
HETATM    2  C   UNL     1     -11.712  10.885  69.217  1.00  0.00    -0.324 C  
ENDROOT
BRANCH   2   3
HETATM    3  O   UNL     1     -11.228  10.411  70.478  1.00  0.00    -0.312 OA 
BRANCH   3   4
HETATM    4  C   UNL     1     -12.148   9.767  71.252  1.00  0.00    -0.382 C  
HETATM    5  O   UNL     1     -13.310  10.134  71.398  1.00  0.00    -0.367 OA 
BRANCH   4   6
HETATM    6  C   UNL     1     -11.619   8.524  71.814  1.00  0.00    -0.312 A  
HETATM    7  C   UNL     1     -11.192   7.406  71.110  1.00  0.00    -0.258 A  
HETATM    8  C   UNL     1     -11.262   7.046  69.676  1.00  0.00    -0.182 C  
HETATM    9  N   UNL     1      -9.910   6.978  69.165  1.00  0.00    -0.156 N  
HETATM   10  C   UNL     1      -9.620   7.629  67.898  1.00  0.00    -0.144 C  
HETATM   11  C   UNL     1      -8.964   6.075  69.629  1.00  0.00    -0.132 C  
HETATM   12  C   UNL     1      -9.367   5.045  70.621  1.00  0.00    -0.216 A  
HETATM   13  O   UNL     1      -7.814   6.034  69.193  1.00  0.00    -0.096 OA 
HETATM   14  C   UNL     1     -10.112   5.280  71.793  1.00  0.00    -0.200 A  
HETATM   15  C   UNL     1     -10.348   4.236  72.700  1.00  0.00    -0.243 A  
HETATM   16  N   UNL     1     -10.676   6.549  72.052  1.00  0.00    -0.217 NA 
HETATM   17  C   UNL     1     -10.885   7.130  73.278  1.00  0.00    -0.338 A  
HETATM   18  C   UNL     1      -9.898   2.946  72.403  1.00  0.00    -0.228 A  
HETATM   19  C   UNL     1      -9.175   2.717  71.239  1.00  0.00    -0.123 A  
HETATM   20  N   UNL     1     -11.435   8.316  73.172  1.00  0.00    -0.053 NA 
HETATM   21  C   UNL     1      -8.886   3.755  70.364  1.00  0.00    -0.144 A  
HETATM   22  F   UNL     1      -8.761   1.479  70.952  1.00  0.00    -0.062 F  
ENDBRANCH   4   6
ENDBRANCH   3   4
ENDBRANCH   2   3
TORSDOF 3
ENDMDL
MODEL      104
REMARK 921   NORMALIZED FREE ENERGY PREDICTED BY IDOCK:   -4.19 KCAL/MOL
REMARK 922        TOTAL FREE ENERGY PREDICTED BY IDOCK:   -5.21 KCAL/MOL
REMARK 923 INTER-LIGAND FREE ENERGY PREDICTED BY IDOCK:   -5.07 KCAL/MOL
REMARK 924 INTRA-LIGAND FREE ENERGY PREDICTED BY IDOCK:   -0.14 KCAL/MOL
REMARK 927      BINDING AFFINITY PREDICTED BY RF-SCORE:    0.00 PKD
ROOT
HETATM    1  C   UNL     1     -14.143  14.170  72.160  1.00  0.00    -0.643 C  
HETATM    2  C   UNL     1     -12.926  13.834  71.316  1.00  0.00    -0.334 C  
ENDROOT
BRANCH   2   3
HETATM    3  O   UNL     1     -12.960  12.434  71.020  1.00  0.00    -0.207 OA 
BRANCH   3   4
HETATM    4  C   UNL     1     -11.973  11.987  70.193  1.00  0.00    -0.321 C  
HETATM    5  O   UNL     1     -11.415  12.676  69.345  1.00  0.00    -0.276 OA 
BRANCH   4   6
HETATM    6  C   UNL     1     -11.579  10.612  70.502  1.00  0.00    -0.350 A  
HETATM    7  C   UNL     1     -10.998   9.697  69.637  1.00  0.00    -0.229 A  
HETATM    8  C   UNL     1     -10.736   9.731  68.180  1.00  0.00    -0.233 C  
HETATM    9  N   UNL     1      -9.302   9.723  67.982  1.00  0.00    -0.128 N  
HETATM   10  C   UNL     1      -8.733  10.667  67.035  1.00  0.00    -0.128 C  
HETATM   11  C   UNL     1      -8.483   8.677  68.384  1.00  0.00    -0.131 C  
HETATM   12  C   UNL     1      -9.098   7.447  68.947  1.00  0.00    -0.136 A  
HETATM   13  O   UNL     1      -7.263   8.687  68.219  1.00  0.00    -0.083 OA 
HETATM   14  C   UNL     1     -10.092   7.407  69.943  1.00  0.00    -0.195 A  
HETATM   15  C   UNL     1     -10.525   6.176  70.460  1.00  0.00    -0.291 A  
HETATM   16  N   UNL     1     -10.707   8.594  70.403  1.00  0.00    -0.220 NA 
HETATM   17  C   UNL     1     -11.193   8.842  71.661  1.00  0.00    -0.345 A  
HETATM   18  C   UNL     1     -10.012   4.987  69.934  1.00  0.00    -0.322 A  
HETATM   19  C   UNL     1      -9.041   5.032  68.942  1.00  0.00    -0.109 A  
HETATM   20  N   UNL     1     -11.711  10.043  71.760  1.00  0.00    -0.179 NA 
HETATM   21  C   UNL     1      -8.564   6.245  68.465  1.00  0.00    -0.114 A  
HETATM   22  F   UNL     1      -8.566   3.891  68.431  1.00  0.00    -0.092 F  
ENDBRANCH   4   6
ENDBRANCH   3   4
ENDBRANCH   2   3
TORSDOF 3
ENDMDL
MODEL      105
REMARK 921   NORMALIZED FREE ENERGY PREDICTED BY IDOCK:   -4.18 KCAL/MOL
REMARK 922        TOTAL FREE ENERGY PREDICTED BY IDOCK:   -5.20 KCAL/MOL
REMARK 923 INTER-LIGAND FREE ENERGY PREDICTED BY IDOCK:   -4.92 KCAL/MOL
REMARK 924 INTRA-LIGAND FREE ENERGY PREDICTED BY IDOCK:   -0.28 KCAL/MOL
REMARK 927      BINDING AFFINITY PREDICTED BY RF-SCORE:    0.00 PKD
ROOT
HETATM    1  C   UNL     1     -11.338  15.584  64.667  1.00  0.00    -0.363 C  
HETATM    2  C   UNL     1     -11.065  14.090  64.656  1.00  0.00    -0.382 C  
ENDROOT
BRANCH   2   3
HETATM    3  O   UNL     1     -11.195  13.602  65.995  1.00  0.00    -0.294 OA 
BRANCH   3   4
HETATM    4  C   UNL     1     -10.024  13.282  66.616  1.00  0.00    -0.272 C  
HETATM    5  O   UNL     1      -9.055  14.031  66.697  1.00  0.00    -0.250 OA 
BRANCH   4   6
HETATM    6  C   UNL     1     -10.088  11.973  67.267  1.00  0.00    -0.194 A  
HETATM    7  C   UNL     1     -10.090  10.732  66.647  1.00  0.00    -0.218 A  
HETATM    8  C   UNL     1     -10.179  10.329  65.224  1.00  0.00    -0.238 C  
HETATM    9  N   UNL     1      -8.930   9.694  64.860  1.00  0.00    -0.204 N  
HETATM   10  C   UNL     1      -8.297  10.087  63.612  1.00  0.00    -0.166 C  
HETATM   11  C   UNL     1      -8.470   8.525  65.448  1.00  0.00    -0.173 C  
HETATM   12  C   UNL     1      -9.335   7.812  66.424  1.00  0.00    -0.237 A  
HETATM   13  O   UNL     1      -7.401   7.999  65.137  1.00  0.00    -0.069 OA 
HETATM   14  C   UNL     1     -10.018   8.404  67.503  1.00  0.00    -0.200 A  
HETATM   15  C   UNL     1     -10.730   7.606  68.412  1.00  0.00    -0.098 A  
HETATM   16  N   UNL     1     -10.044   9.808  67.663  1.00  0.00    -0.178 NA 
HETATM   17  C   UNL     1     -10.103  10.508  68.841  1.00  0.00    -0.202 A  
HETATM   18  C   UNL     1     -10.814   6.227  68.202  1.00  0.00    -0.401 A  
HETATM   19  C   UNL     1     -10.149   5.649  67.128  1.00  0.00    -0.183 A  
HETATM   20  N   UNL     1     -10.119  11.805  68.643  1.00  0.00    -0.212 NA 
HETATM   21  C   UNL     1      -9.394   6.422  66.257  1.00  0.00    -0.149 A  
HETATM   22  F   UNL     1     -10.246   4.331  66.924  1.00  0.00    -0.238 F  
ENDBRANCH   4   6
ENDBRANCH   3   4
ENDBRANCH   2   3
TORSDOF 3
ENDMDL
MODEL      106
REMARK 921   NORMALIZED FREE ENERGY PREDICTED BY IDOCK:   -4.16 KCAL/MOL
REMARK 922        TOTAL FREE ENERGY PREDICTED BY IDOCK:   -5.18 KCAL/MOL
REMARK 923 INTER-LIGAND FREE ENERGY PREDICTED BY IDOCK:   -4.90 KCAL/MOL
REMARK 924 INTRA-LIGAND FREE ENERGY PREDICTED BY IDOCK:   -0.28 KCAL/MOL
REMARK 927      BINDING AFFINITY PREDICTED BY RF-SCORE:    0.00 PKD
ROOT
HETATM    1  C   UNL     1     -10.480   6.222  67.681  1.00  0.00    -0.288 C  
HETATM    2  C   UNL     1     -10.801   7.519  66.960  1.00  0.00    -0.194 C  
ENDROOT
BRANCH   2   3
HETATM    3  O   UNL     1     -10.047   8.570  67.574  1.00  0.00    -0.187 OA 
BRANCH   3   4
HETATM    4  C   UNL     1      -9.555   9.512  66.720  1.00  0.00    -0.176 C  
HETATM    5  O   UNL     1      -8.715   9.291  65.854  1.00  0.00    -0.139 OA 
BRANCH   4   6
HETATM    6  C   UNL     1     -10.221  10.804  66.887  1.00  0.00    -0.227 A  
HETATM    7  C   UNL     1      -9.729  11.916  67.556  1.00  0.00    -0.181 A  
HETATM    8  C   UNL     1      -8.529  12.121  68.398  1.00  0.00    -0.145 C  
HETATM    9  N   UNL     1      -7.658  13.055  67.717  1.00  0.00    -0.136 N  
HETATM   10  C   UNL     1      -6.242  12.738  67.631  1.00  0.00    -0.153 C  
HETATM   11  C   UNL     1      -8.019  14.364  67.431  1.00  0.00    -0.201 C  
HETATM   12  C   UNL     1      -9.315  14.887  67.935  1.00  0.00    -0.191 A  
HETATM   13  O   UNL     1      -7.273  15.146  66.843  1.00  0.00    -0.141 OA 
HETATM   14  C   UNL     1     -10.560  14.237  67.833  1.00  0.00    -0.240 A  
HETATM   15  C   UNL     1     -11.730  14.880  68.266  1.00  0.00    -0.342 A  
HETATM   16  N   UNL     1     -10.650  12.914  67.345  1.00  0.00    -0.232 NA 
HETATM   17  C   UNL     1     -11.689  12.357  66.643  1.00  0.00    -0.372 A  
HETATM   18  C   UNL     1     -11.646  16.142  68.859  1.00  0.00    -0.298 A  
HETATM   19  C   UNL     1     -10.414  16.774  68.970  1.00  0.00    -0.336 A  
HETATM   20  N   UNL     1     -11.462  11.101  66.343  1.00  0.00    -0.196 NA 
HETATM   21  C   UNL     1      -9.259  16.172  68.493  1.00  0.00    -0.210 A  
HETATM   22  F   UNL     1     -10.337  17.974  69.553  1.00  0.00    -0.313 F  
ENDBRANCH   4   6
ENDBRANCH   3   4
ENDBRANCH   2   3
TORSDOF 3
ENDMDL
MODEL      107
REMARK 921   NORMALIZED FREE ENERGY PREDICTED BY IDOCK:   -4.16 KCAL/MOL
REMARK 922        TOTAL FREE ENERGY PREDICTED BY IDOCK:   -5.17 KCAL/MOL
REMARK 923 INTER-LIGAND FREE ENERGY PREDICTED BY IDOCK:   -4.82 KCAL/MOL
REMARK 924 INTRA-LIGAND FREE ENERGY PREDICTED BY IDOCK:   -0.35 KCAL/MOL
REMARK 927      BINDING AFFINITY PREDICTED BY RF-SCORE:    0.00 PKD
ROOT
HETATM    1  C   UNL     1      -5.280  12.422  67.979  1.00  0.00    -0.073 C  
HETATM    2  C   UNL     1      -5.720  11.006  67.651  1.00  0.00    -0.043 C  
ENDROOT
BRANCH   2   3
HETATM    3  O   UNL     1      -6.684  10.600  68.628  1.00  0.00    -0.055 OA 
BRANCH   3   4
HETATM    4  C   UNL     1      -7.637   9.732  68.182  1.00  0.00    -0.082 C  
HETATM    5  O   UNL     1      -7.897   8.657  68.712  1.00  0.00    -0.102 OA 
BRANCH   4   6
HETATM    6  C   UNL     1      -8.389  10.278  67.052  1.00  0.00    -0.126 A  
HETATM    7  C   UNL     1      -9.120  11.457  67.028  1.00  0.00    -0.167 A  
HETATM    8  C   UNL     1      -9.497  12.417  68.090  1.00  0.00    -0.214 C  
HETATM    9  N   UNL     1      -8.841  13.677  67.808  1.00  0.00    -0.178 N  
HETATM   10  C   UNL     1      -8.166  14.360  68.899  1.00  0.00    -0.082 C  
HETATM   11  C   UNL     1      -9.085  14.424  66.665  1.00  0.00    -0.240 C  
HETATM   12  C   UNL     1     -10.146  13.984  65.722  1.00  0.00    -0.345 A  
HETATM   13  O   UNL     1      -8.514  15.488  66.431  1.00  0.00    -0.282 OA 
HETATM   14  C   UNL     1     -10.320  12.676  65.230  1.00  0.00    -0.289 A  
HETATM   15  C   UNL     1     -11.306  12.408  64.269  1.00  0.00    -0.420 A  
HETATM   16  N   UNL     1      -9.545  11.605  65.729  1.00  0.00    -0.230 NA 
HETATM   17  C   UNL     1      -9.137  10.487  65.046  1.00  0.00    -0.201 A  
HETATM   18  C   UNL     1     -12.160  13.432  63.850  1.00  0.00    -0.514 A  
HETATM   19  C   UNL     1     -11.993  14.718  64.348  1.00  0.00    -0.417 A  
HETATM   20  N   UNL     1      -8.434   9.678  65.802  1.00  0.00    -0.130 NA 
HETATM   21  C   UNL     1     -10.984  15.006  65.256  1.00  0.00    -0.391 A  
HETATM   22  F   UNL     1     -12.823  15.690  63.956  1.00  0.00    -0.245 F  
ENDBRANCH   4   6
ENDBRANCH   3   4
ENDBRANCH   2   3
TORSDOF 3
ENDMDL
MODEL      108
REMARK 921   NORMALIZED FREE ENERGY PREDICTED BY IDOCK:   -4.10 KCAL/MOL
REMARK 922        TOTAL FREE ENERGY PREDICTED BY IDOCK:   -5.11 KCAL/MOL
REMARK 923 INTER-LIGAND FREE ENERGY PREDICTED BY IDOCK:   -4.97 KCAL/MOL
REMARK 924 INTRA-LIGAND FREE ENERGY PREDICTED BY IDOCK:   -0.14 KCAL/MOL
REMARK 927      BINDING AFFINITY PREDICTED BY RF-SCORE:    0.00 PKD
ROOT
HETATM    1  C   UNL     1      -6.585   8.759  66.748  1.00  0.00    -0.061 C  
HETATM    2  C   UNL     1      -8.018   8.988  67.193  1.00  0.00    -0.102 C  
ENDROOT
BRANCH   2   3
HETATM    3  O   UNL     1      -8.401  10.310  66.801  1.00  0.00    -0.122 OA 
BRANCH   3   4
HETATM    4  C   UNL     1      -9.583  10.400  66.126  1.00  0.00    -0.196 C  
HETATM    5  O   UNL     1     -10.368   9.470  65.975  1.00  0.00    -0.220 OA 
BRANCH   4   6
HETATM    6  C   UNL     1      -9.858  11.768  65.683  1.00  0.00    -0.237 A  
HETATM    7  C   UNL     1      -9.643  12.935  66.401  1.00  0.00    -0.252 A  
HETATM    8  C   UNL     1      -9.241  13.183  67.804  1.00  0.00    -0.203 C  
HETATM    9  N   UNL     1      -7.940  13.817  67.792  1.00  0.00    -0.153 N  
HETATM   10  C   UNL     1      -6.923  13.316  68.702  1.00  0.00    -0.101 C  
HETATM   11  C   UNL     1      -7.701  15.056  67.217  1.00  0.00    -0.202 C  
HETATM   12  C   UNL     1      -8.843  15.839  66.676  1.00  0.00    -0.324 A  
HETATM   13  O   UNL     1      -6.588  15.581  67.204  1.00  0.00    -0.283 OA 
HETATM   14  C   UNL     1      -9.855  15.342  65.833  1.00  0.00    -0.354 A  
HETATM   15  C   UNL     1     -10.830  16.207  65.312  1.00  0.00    -0.349 A  
HETATM   16  N   UNL     1      -9.940  13.962  65.537  1.00  0.00    -0.283 NA 
HETATM   17  C   UNL     1     -10.400  13.389  64.378  1.00  0.00    -0.325 A  
HETATM   18  C   UNL     1     -10.830  17.553  65.688  1.00  0.00     0.013 A  
HETATM   19  C   UNL     1      -9.837  18.036  66.531  1.00  0.00    -0.353 A  
HETATM   20  N   UNL     1     -10.354  12.079  64.426  1.00  0.00    -0.288 NA 
HETATM   21  C   UNL     1      -8.836  17.201  67.005  1.00  0.00    -0.246 A  
HETATM   22  F   UNL     1      -9.852  19.321  66.900  1.00  0.00    -0.326 F  
ENDBRANCH   4   6
ENDBRANCH   3   4
ENDBRANCH   2   3
TORSDOF 3
ENDMDL
MODEL      109
REMARK 921   NORMALIZED FREE ENERGY PREDICTED BY IDOCK:   -4.08 KCAL/MOL
REMARK 922        TOTAL FREE ENERGY PREDICTED BY IDOCK:   -5.08 KCAL/MOL
REMARK 923 INTER-LIGAND FREE ENERGY PREDICTED BY IDOCK:   -4.80 KCAL/MOL
REMARK 924 INTRA-LIGAND FREE ENERGY PREDICTED BY IDOCK:   -0.28 KCAL/MOL
REMARK 927      BINDING AFFINITY PREDICTED BY RF-SCORE:    0.00 PKD
ROOT
HETATM    1  C   UNL     1      -5.815  10.191  63.255  1.00  0.00    -0.136 C  
HETATM    2  C   UNL     1      -6.942   9.608  64.088  1.00  0.00    -0.116 C  
ENDROOT
BRANCH   2   3
HETATM    3  O   UNL     1      -7.961  10.605  64.222  1.00  0.00    -0.058 OA 
BRANCH   3   4
HETATM    4  C   UNL     1      -9.117  10.184  64.809  1.00  0.00    -0.222 C  
HETATM    5  O   UNL     1      -9.431   9.008  64.957  1.00  0.00    -0.090 OA 
BRANCH   4   6
HETATM    6  C   UNL     1      -9.901  11.301  65.339  1.00  0.00    -0.237 A  
HETATM    7  C   UNL     1      -9.595  12.086  66.441  1.00  0.00    -0.228 A  
HETATM    8  C   UNL     1      -8.541  11.983  67.476  1.00  0.00    -0.167 C  
HETATM    9  N   UNL     1      -7.663  13.125  67.336  1.00  0.00    -0.162 N  
HETATM   10  C   UNL     1      -6.228  12.896  67.361  1.00  0.00    -0.103 C  
HETATM   11  C   UNL     1      -8.085  14.436  67.505  1.00  0.00    -0.190 C  
HETATM   12  C   UNL     1      -9.475  14.699  67.958  1.00  0.00    -0.207 A  
HETATM   13  O   UNL     1      -7.331  15.400  67.374  1.00  0.00    -0.180 OA 
HETATM   14  C   UNL     1     -10.639  14.109  67.428  1.00  0.00    -0.279 A  
HETATM   15  C   UNL     1     -11.904  14.513  67.880  1.00  0.00    -0.370 A  
HETATM   16  N   UNL     1     -10.555  13.069  66.475  1.00  0.00    -0.279 NA 
HETATM   17  C   UNL     1     -11.441  12.797  65.464  1.00  0.00    -0.337 A  
HETATM   18  C   UNL     1     -12.003  15.456  68.906  1.00  0.00    -0.298 A  
HETATM   19  C   UNL     1     -10.852  16.027  69.435  1.00  0.00    -0.300 A  
HETATM   20  N   UNL     1     -11.075  11.754  64.757  1.00  0.00    -0.310 NA 
HETATM   21  C   UNL     1      -9.598  15.677  68.954  1.00  0.00    -0.224 A  
HETATM   22  F   UNL     1     -10.952  16.917  70.427  1.00  0.00    -0.305 F  
ENDBRANCH   4   6
ENDBRANCH   3   4
ENDBRANCH   2   3
TORSDOF 3
ENDMDL
MODEL      110
REMARK 921   NORMALIZED FREE ENERGY PREDICTED BY IDOCK:   -4.07 KCAL/MOL
REMARK 922        TOTAL FREE ENERGY PREDICTED BY IDOCK:   -5.07 KCAL/MOL
REMARK 923 INTER-LIGAND FREE ENERGY PREDICTED BY IDOCK:   -4.79 KCAL/MOL
REMARK 924 INTRA-LIGAND FREE ENERGY PREDICTED BY IDOCK:   -0.28 KCAL/MOL
REMARK 927      BINDING AFFINITY PREDICTED BY RF-SCORE:    0.00 PKD
ROOT
HETATM    1  C   UNL     1      -7.337   9.606  63.420  1.00  0.00    -0.119 C  
HETATM    2  C   UNL     1      -8.842   9.801  63.451  1.00  0.00    -0.241 C  
ENDROOT
BRANCH   2   3
HETATM    3  O   UNL     1      -9.120  11.020  64.149  1.00  0.00    -0.176 OA 
BRANCH   3   4
HETATM    4  C   UNL     1      -9.525  10.873  65.442  1.00  0.00    -0.214 C  
HETATM    5  O   UNL     1     -10.174   9.921  65.861  1.00  0.00    -0.261 OA 
BRANCH   4   6
HETATM    6  C   UNL     1      -9.008  11.938  66.303  1.00  0.00    -0.157 A  
HETATM    7  C   UNL     1      -9.431  13.259  66.341  1.00  0.00    -0.217 A  
HETATM    8  C   UNL     1     -10.366  14.030  65.491  1.00  0.00    -0.339 C  
HETATM    9  N   UNL     1     -11.503  14.408  66.304  1.00  0.00    -0.351 N  
HETATM   10  C   UNL     1     -12.835  14.214  65.755  1.00  0.00    -0.329 C  
HETATM   11  C   UNL     1     -11.405  15.230  67.417  1.00  0.00    -0.284 C  
HETATM   12  C   UNL     1     -10.096  15.852  67.748  1.00  0.00    -0.244 A  
HETATM   13  O   UNL     1     -12.377  15.536  68.106  1.00  0.00     0.177 OA 
HETATM   14  C   UNL     1      -8.857  15.185  67.796  1.00  0.00    -0.170 A  
HETATM   15  C   UNL     1      -7.704  15.867  68.214  1.00  0.00    -0.137 A  
HETATM   16  N   UNL     1      -8.740  13.841  67.376  1.00  0.00    -0.196 NA 
HETATM   17  C   UNL     1      -7.875  12.893  67.861  1.00  0.00    -0.151 A  
HETATM   18  C   UNL     1      -7.778  17.228  68.520  1.00  0.00    -0.261 A  
HETATM   19  C   UNL     1      -9.001  17.885  68.459  1.00  0.00    -0.286 A  
HETATM   20  N   UNL     1      -8.015  11.740  67.251  1.00  0.00    -0.153 NA 
HETATM   21  C   UNL     1     -10.158  17.206  68.102  1.00  0.00    -0.311 A  
HETATM   22  F   UNL     1      -9.063  19.191  68.738  1.00  0.00    -0.370 F  
ENDBRANCH   4   6
ENDBRANCH   3   4
ENDBRANCH   2   3
TORSDOF 3
ENDMDL
MODEL      111
REMARK 921   NORMALIZED FREE ENERGY PREDICTED BY IDOCK:   -4.07 KCAL/MOL
REMARK 922        TOTAL FREE ENERGY PREDICTED BY IDOCK:   -5.07 KCAL/MOL
REMARK 923 INTER-LIGAND FREE ENERGY PREDICTED BY IDOCK:   -4.74 KCAL/MOL
REMARK 924 INTRA-LIGAND FREE ENERGY PREDICTED BY IDOCK:   -0.33 KCAL/MOL
REMARK 927      BINDING AFFINITY PREDICTED BY RF-SCORE:    0.00 PKD
ROOT
HETATM    1  C   UNL     1      -7.585   9.672  66.043  1.00  0.00    -0.102 C  
HETATM    2  C   UNL     1      -7.908  11.053  66.585  1.00  0.00    -0.153 C  
ENDROOT
BRANCH   2   3
HETATM    3  O   UNL     1      -9.304  11.094  66.899  1.00  0.00    -0.171 OA 
BRANCH   3   4
HETATM    4  C   UNL     1      -9.620  11.715  68.071  1.00  0.00    -0.184 C  
HETATM    5  O   UNL     1      -9.352  12.884  68.330  1.00  0.00    -0.204 OA 
BRANCH   4   6
HETATM    6  C   UNL     1     -10.412  10.855  68.952  1.00  0.00    -0.203 A  
HETATM    7  C   UNL     1      -9.984   9.704  69.598  1.00  0.00    -0.221 A  
HETATM    8  C   UNL     1      -8.732   8.919  69.509  1.00  0.00    -0.142 C  
HETATM    9  N   UNL     1      -8.056   9.008  70.787  1.00  0.00    -0.151 N  
HETATM   10  C   UNL     1      -6.631   9.292  70.792  1.00  0.00    -0.084 C  
HETATM   11  C   UNL     1      -8.597   8.528  71.970  1.00  0.00    -0.183 C  
HETATM   12  C   UNL     1      -9.884   7.784  71.932  1.00  0.00    -0.217 A  
HETATM   13  O   UNL     1      -8.018   8.618  73.052  1.00  0.00    -0.387 OA 
HETATM   14  C   UNL     1     -11.047   8.188  71.249  1.00  0.00    -0.248 A  
HETATM   15  C   UNL     1     -12.231   7.443  71.368  1.00  0.00    -0.374 A  
HETATM   16  N   UNL     1     -11.033   9.314  70.395  1.00  0.00    -0.242 NA 
HETATM   17  C   UNL     1     -12.070  10.176  70.141  1.00  0.00    -0.149 A  
HETATM   18  C   UNL     1     -12.231   6.262  72.115  1.00  0.00    -0.255 A  
HETATM   19  C   UNL     1     -11.077   5.861  72.777  1.00  0.00    -0.281 A  
HETATM   20  N   UNL     1     -11.731  11.116  69.292  1.00  0.00    -0.303 NA 
HETATM   21  C   UNL     1      -9.918   6.621  72.712  1.00  0.00    -0.187 A  
HETATM   22  F   UNL     1     -11.080   4.722  73.476  1.00  0.00    -0.292 F  
ENDBRANCH   4   6
ENDBRANCH   3   4
ENDBRANCH   2   3
TORSDOF 3
ENDMDL
MODEL      112
REMARK 921   NORMALIZED FREE ENERGY PREDICTED BY IDOCK:   -4.06 KCAL/MOL
REMARK 922        TOTAL FREE ENERGY PREDICTED BY IDOCK:   -5.05 KCAL/MOL
REMARK 923 INTER-LIGAND FREE ENERGY PREDICTED BY IDOCK:   -5.11 KCAL/MOL
REMARK 924 INTRA-LIGAND FREE ENERGY PREDICTED BY IDOCK:    0.05 KCAL/MOL
REMARK 927      BINDING AFFINITY PREDICTED BY RF-SCORE:    0.00 PKD
ROOT
HETATM    1  C   UNL     1      -9.019   6.884  66.110  1.00  0.00    -0.157 C  
HETATM    2  C   UNL     1      -7.874   7.041  65.125  1.00  0.00    -0.124 C  
ENDROOT
BRANCH   2   3
HETATM    3  O   UNL     1      -7.653   8.440  64.917  1.00  0.00    -0.090 OA 
BRANCH   3   4
HETATM    4  C   UNL     1      -8.111   8.933  63.731  1.00  0.00    -0.163 C  
HETATM    5  O   UNL     1      -7.858   8.446  62.634  1.00  0.00    -0.124 OA 
BRANCH   4   6
HETATM    6  C   UNL     1      -9.028  10.057  63.922  1.00  0.00    -0.242 A  
HETATM    7  C   UNL     1      -9.274  10.741  65.104  1.00  0.00    -0.209 A  
HETATM    8  C   UNL     1      -8.851  10.497  66.502  1.00  0.00    -0.144 C  
HETATM    9  N   UNL     1      -7.990  11.588  66.907  1.00  0.00    -0.160 N  
HETATM   10  C   UNL     1      -6.750  11.266  67.592  1.00  0.00    -0.073 C  
HETATM   11  C   UNL     1      -8.411  12.908  66.974  1.00  0.00    -0.142 C  
HETATM   12  C   UNL     1      -9.842  13.227  66.729  1.00  0.00    -0.264 A  
HETATM   13  O   UNL     1      -7.667  13.828  67.309  1.00  0.00    -0.157 OA 
HETATM   14  C   UNL     1     -10.619  12.752  65.656  1.00  0.00    -0.275 A  
HETATM   15  C   UNL     1     -11.937  13.203  65.483  1.00  0.00    -0.457 A  
HETATM   16  N   UNL     1     -10.110  11.778  64.767  1.00  0.00    -0.257 NA 
HETATM   17  C   UNL     1     -10.404  11.636  63.434  1.00  0.00    -0.435 A  
HETATM   18  C   UNL     1     -12.497  14.076  66.419  1.00  0.00    -0.395 A  
HETATM   19  C   UNL     1     -11.730  14.532  67.484  1.00  0.00    -0.386 A  
HETATM   20  N   UNL     1      -9.767  10.625  62.895  1.00  0.00    -0.322 NA 
HETATM   21  C   UNL     1     -10.408  14.137  67.632  1.00  0.00    -0.241 A  
HETATM   22  F   UNL     1     -12.277  15.354  68.386  1.00  0.00    -0.289 F  
ENDBRANCH   4   6
ENDBRANCH   3   4
ENDBRANCH   2   3
TORSDOF 3
ENDMDL
MODEL      113
REMARK 921   NORMALIZED FREE ENERGY PREDICTED BY IDOCK:   -4.04 KCAL/MOL
REMARK 922        TOTAL FREE ENERGY PREDICTED BY IDOCK:   -5.04 KCAL/MOL
REMARK 923 INTER-LIGAND FREE ENERGY PREDICTED BY IDOCK:   -4.71 KCAL/MOL
REMARK 924 INTRA-LIGAND FREE ENERGY PREDICTED BY IDOCK:   -0.32 KCAL/MOL
REMARK 927      BINDING AFFINITY PREDICTED BY RF-SCORE:    0.00 PKD
ROOT
HETATM    1  C   UNL     1      -8.271   8.663  67.729  1.00  0.00    -0.118 C  
HETATM    2  C   UNL     1      -9.346   9.734  67.700  1.00  0.00    -0.140 C  
ENDROOT
BRANCH   2   3
HETATM    3  O   UNL     1     -10.587   9.131  68.082  1.00  0.00    -0.219 OA 
BRANCH   3   4
HETATM    4  C   UNL     1     -11.161   9.641  69.209  1.00  0.00    -0.047 C  
HETATM    5  O   UNL     1     -11.883  10.632  69.232  1.00  0.00    -0.282 OA 
BRANCH   4   6
HETATM    6  C   UNL     1     -10.900   8.805  70.382  1.00  0.00    -0.228 A  
HETATM    7  C   UNL     1     -11.005   7.425  70.463  1.00  0.00    -0.253 A  
HETATM    8  C   UNL     1     -11.525   6.408  69.520  1.00  0.00    -0.343 C  
HETATM    9  N   UNL     1     -10.419   5.567  69.113  1.00  0.00    -0.250 N  
HETATM   10  C   UNL     1     -10.269   5.266  67.699  1.00  0.00    -0.170 C  
HETATM   11  C   UNL     1      -9.696   4.778  69.996  1.00  0.00    -0.210 C  
HETATM   12  C   UNL     1     -10.129   4.691  71.415  1.00  0.00    -0.248 A  
HETATM   13  O   UNL     1      -8.751   4.075  69.639  1.00  0.00    -0.073 OA 
HETATM   14  C   UNL     1     -10.463   5.781  72.241  1.00  0.00    -0.209 A  
HETATM   15  C   UNL     1     -10.767   5.573  73.595  1.00  0.00    -0.321 A  
HETATM   16  N   UNL     1     -10.550   7.090  71.715  1.00  0.00    -0.210 NA 
HETATM   17  C   UNL     1     -10.273   8.265  72.367  1.00  0.00    -0.327 A  
HETATM   18  C   UNL     1     -10.802   4.273  74.104  1.00  0.00    -0.264 A  
HETATM   19  C   UNL     1     -10.484   3.199  73.282  1.00  0.00    -0.165 A  
HETATM   20  N   UNL     1     -10.460   9.310  71.597  1.00  0.00    -0.330 NA 
HETATM   21  C   UNL     1     -10.126   3.399  71.956  1.00  0.00    -0.179 A  
HETATM   22  F   UNL     1     -10.534   1.956  73.770  1.00  0.00    -0.127 F  
ENDBRANCH   4   6
ENDBRANCH   3   4
ENDBRANCH   2   3
TORSDOF 3
ENDMDL
MODEL      114
REMARK 921   NORMALIZED FREE ENERGY PREDICTED BY IDOCK:   -4.02 KCAL/MOL
REMARK 922        TOTAL FREE ENERGY PREDICTED BY IDOCK:   -5.01 KCAL/MOL
REMARK 923 INTER-LIGAND FREE ENERGY PREDICTED BY IDOCK:   -4.92 KCAL/MOL
REMARK 924 INTRA-LIGAND FREE ENERGY PREDICTED BY IDOCK:   -0.09 KCAL/MOL
REMARK 927      BINDING AFFINITY PREDICTED BY RF-SCORE:    0.00 PKD
ROOT
HETATM    1  C   UNL     1     -11.866  15.530  71.200  1.00  0.00    -0.435 C  
HETATM    2  C   UNL     1     -12.488  15.318  69.831  1.00  0.00    -0.240 C  
ENDROOT
BRANCH   2   3
HETATM    3  O   UNL     1     -11.462  14.872  68.938  1.00  0.00    -0.269 OA 
BRANCH   3   4
HETATM    4  C   UNL     1     -11.866  13.994  67.976  1.00  0.00    -0.368 C  
HETATM    5  O   UNL     1     -12.515  14.306  66.982  1.00  0.00    -0.304 OA 
BRANCH   4   6
HETATM    6  C   UNL     1     -11.348  12.646  68.211  1.00  0.00    -0.295 A  
HETATM    7  C   UNL     1     -11.093  11.672  67.256  1.00  0.00    -0.290 A  
HETATM    8  C   UNL     1     -11.376  11.602  65.805  1.00  0.00    -0.182 C  
HETATM    9  N   UNL     1     -10.111  11.584  65.101  1.00  0.00    -0.256 N  
HETATM   10  C   UNL     1      -9.951  12.459  63.952  1.00  0.00    -0.235 C  
HETATM   11  C   UNL     1      -9.172  10.573  65.247  1.00  0.00    -0.200 C  
HETATM   12  C   UNL     1      -9.506   9.385  66.075  1.00  0.00    -0.304 A  
HETATM   13  O   UNL     1      -8.096  10.573  64.651  1.00  0.00    -0.148 OA 
HETATM   14  C   UNL     1     -10.071   9.414  67.364  1.00  0.00    -0.215 A  
HETATM   15  C   UNL     1     -10.252   8.222  68.083  1.00  0.00    -0.255 A  
HETATM   16  N   UNL     1     -10.512  10.628  67.936  1.00  0.00    -0.194 NA 
HETATM   17  C   UNL     1     -10.518  10.966  69.266  1.00  0.00    -0.202 A  
HETATM   18  C   UNL     1      -9.930   7.000  67.487  1.00  0.00    -0.201 A  
HETATM   19  C   UNL     1      -9.385   6.975  66.210  1.00  0.00    -0.098 A  
HETATM   20  N   UNL     1     -10.999  12.170  69.466  1.00  0.00    -0.052 NA 
HETATM   21  C   UNL     1      -9.148   8.152  65.513  1.00  0.00    -0.021 A  
HETATM   22  F   UNL     1      -9.094   5.802  65.639  1.00  0.00    -0.158 F  
ENDBRANCH   4   6
ENDBRANCH   3   4
ENDBRANCH   2   3
TORSDOF 3
ENDMDL
MODEL      115
REMARK 921   NORMALIZED FREE ENERGY PREDICTED BY IDOCK:   -4.00 KCAL/MOL
REMARK 922        TOTAL FREE ENERGY PREDICTED BY IDOCK:   -4.99 KCAL/MOL
REMARK 923 INTER-LIGAND FREE ENERGY PREDICTED BY IDOCK:   -4.66 KCAL/MOL
REMARK 924 INTRA-LIGAND FREE ENERGY PREDICTED BY IDOCK:   -0.33 KCAL/MOL
REMARK 927      BINDING AFFINITY PREDICTED BY RF-SCORE:    0.00 PKD
ROOT
HETATM    1  C   UNL     1     -11.742  13.356  68.680  1.00  0.00    -0.384 C  
HETATM    2  C   UNL     1     -11.566  12.777  67.288  1.00  0.00    -0.360 C  
ENDROOT
BRANCH   2   3
HETATM    3  O   UNL     1     -11.164  11.410  67.420  1.00  0.00    -0.278 OA 
BRANCH   3   4
HETATM    4  C   UNL     1      -9.826  11.179  67.287  1.00  0.00    -0.175 C  
HETATM    5  O   UNL     1      -9.011  12.020  66.921  1.00  0.00    -0.187 OA 
BRANCH   4   6
HETATM    6  C   UNL     1      -9.456   9.834  67.730  1.00  0.00    -0.133 A  
HETATM    7  C   UNL     1      -9.657   9.286  68.988  1.00  0.00    -0.159 A  
HETATM    8  C   UNL     1     -10.133   9.867  70.264  1.00  0.00    -0.237 C  
HETATM    9  N   UNL     1     -11.398   9.245  70.595  1.00  0.00    -0.264 N  
HETATM   10  C   UNL     1     -12.494  10.100  71.019  1.00  0.00    -0.375 C  
HETATM   11  C   UNL     1     -11.538   7.888  70.843  1.00  0.00    -0.273 C  
HETATM   12  C   UNL     1     -10.327   7.028  70.884  1.00  0.00    -0.214 A  
HETATM   13  O   UNL     1     -12.621   7.369  71.113  1.00  0.00    -0.335 OA 
HETATM   14  C   UNL     1      -9.290   7.021  69.932  1.00  0.00    -0.150 A  
HETATM   15  C   UNL     1      -8.243   6.092  70.034  1.00  0.00    -0.124 A  
HETATM   16  N   UNL     1      -9.255   7.975  68.890  1.00  0.00    -0.147 NA 
HETATM   17  C   UNL     1      -8.753   7.805  67.625  1.00  0.00    -0.126 A  
HETATM   18  C   UNL     1      -8.199   5.218  71.123  1.00  0.00    -0.118 A  
HETATM   19  C   UNL     1      -9.218   5.237  72.068  1.00  0.00    -0.137 A  
HETATM   20  N   UNL     1      -8.867   8.892  66.900  1.00  0.00    -0.125 NA 
HETATM   21  C   UNL     1     -10.287   6.112  71.944  1.00  0.00    -0.244 A  
HETATM   22  F   UNL     1      -9.162   4.409  73.116  1.00  0.00    -0.115 F  
ENDBRANCH   4   6
ENDBRANCH   3   4
ENDBRANCH   2   3
TORSDOF 3
ENDMDL
MODEL      116
REMARK 921   NORMALIZED FREE ENERGY PREDICTED BY IDOCK:   -4.00 KCAL/MOL
REMARK 922        TOTAL FREE ENERGY PREDICTED BY IDOCK:   -4.99 KCAL/MOL
REMARK 923 INTER-LIGAND FREE ENERGY PREDICTED BY IDOCK:   -4.80 KCAL/MOL
REMARK 924 INTRA-LIGAND FREE ENERGY PREDICTED BY IDOCK:   -0.19 KCAL/MOL
REMARK 927      BINDING AFFINITY PREDICTED BY RF-SCORE:    0.00 PKD
ROOT
HETATM    1  C   UNL     1     -13.814   9.293  72.430  1.00  0.00    -0.484 C  
HETATM    2  C   UNL     1     -12.599   8.777  71.681  1.00  0.00    -0.345 C  
ENDROOT
BRANCH   2   3
HETATM    3  O   UNL     1     -12.223   7.519  72.252  1.00  0.00    -0.274 OA 
BRANCH   3   4
HETATM    4  C   UNL     1     -10.891   7.367  72.504  1.00  0.00    -0.283 C  
HETATM    5  O   UNL     1     -10.228   8.126  73.203  1.00  0.00    -0.293 OA 
BRANCH   4   6
HETATM    6  C   UNL     1     -10.362   6.132  71.926  1.00  0.00    -0.208 A  
HETATM    7  C   UNL     1     -10.440   5.731  70.600  1.00  0.00    -0.264 A  
HETATM    8  C   UNL     1     -11.162   6.287  69.433  1.00  0.00    -0.420 C  
HETATM    9  N   UNL     1     -10.178   6.742  68.473  1.00  0.00    -0.166 N  
HETATM   10  C   UNL     1     -10.359   8.053  67.872  1.00  0.00    -0.222 C  
HETATM   11  C   UNL     1      -9.267   5.897  67.856  1.00  0.00    -0.108 C  
HETATM   12  C   UNL     1      -9.359   4.433  68.092  1.00  0.00    -0.195 A  
HETATM   13  O   UNL     1      -8.429   6.297  67.049  1.00  0.00    -0.109 OA 
HETATM   14  C   UNL     1      -9.495   3.809  69.347  1.00  0.00    -0.187 A  
HETATM   15  C   UNL     1      -9.476   2.409  69.446  1.00  0.00    -0.126 A  
HETATM   16  N   UNL     1      -9.706   4.573  70.518  1.00  0.00    -0.203 NA 
HETATM   17  C   UNL     1      -9.289   4.272  71.790  1.00  0.00    -0.137 A  
HETATM   18  C   UNL     1      -9.386   1.636  68.286  1.00  0.00    -0.242 A  
HETATM   19  C   UNL     1      -9.265   2.255  67.049  1.00  0.00    -0.058 A  
HETATM   20  N   UNL     1      -9.654   5.188  72.656  1.00  0.00    -0.147 NA 
HETATM   21  C   UNL     1      -9.225   3.639  66.946  1.00  0.00    -0.204 A  
HETATM   22  F   UNL     1      -9.196   1.510  65.941  1.00  0.00    -0.123 F  
ENDBRANCH   4   6
ENDBRANCH   3   4
ENDBRANCH   2   3
TORSDOF 3
ENDMDL
MODEL      117
REMARK 921   NORMALIZED FREE ENERGY PREDICTED BY IDOCK:   -3.96 KCAL/MOL
REMARK 922        TOTAL FREE ENERGY PREDICTED BY IDOCK:   -4.94 KCAL/MOL
REMARK 923 INTER-LIGAND FREE ENERGY PREDICTED BY IDOCK:   -4.64 KCAL/MOL
REMARK 924 INTRA-LIGAND FREE ENERGY PREDICTED BY IDOCK:   -0.30 KCAL/MOL
REMARK 927      BINDING AFFINITY PREDICTED BY RF-SCORE:    0.00 PKD
ROOT
HETATM    1  C   UNL     1      -7.830   5.497  65.391  1.00  0.00    -0.100 C  
HETATM    2  C   UNL     1      -8.770   6.670  65.613  1.00  0.00    -0.082 C  
ENDROOT
BRANCH   2   3
HETATM    3  O   UNL     1      -8.549   7.175  66.934  1.00  0.00    -0.119 OA 
BRANCH   3   4
HETATM    4  C   UNL     1      -7.746   8.274  67.012  1.00  0.00    -0.096 C  
HETATM    5  O   UNL     1      -6.532   8.260  66.836  1.00  0.00    -0.055 OA 
BRANCH   4   6
HETATM    6  C   UNL     1      -8.516   9.500  67.231  1.00  0.00    -0.128 A  
HETATM    7  C   UNL     1      -8.756  10.509  66.311  1.00  0.00    -0.151 A  
HETATM    8  C   UNL     1      -8.234  10.760  64.948  1.00  0.00     0.022 C  
HETATM    9  N   UNL     1      -9.339  10.652  64.019  1.00  0.00    -0.243 N  
HETATM   10  C   UNL     1      -9.142   9.877  62.806  1.00  0.00    -0.284 C  
HETATM   11  C   UNL     1     -10.444  11.490  64.047  1.00  0.00    -0.370 C  
HETATM   12  C   UNL     1     -10.466  12.631  65.000  1.00  0.00    -0.331 A  
HETATM   13  O   UNL     1     -11.381  11.382  63.258  1.00  0.00    -0.269 OA 
HETATM   14  C   UNL     1     -10.144  12.566  66.369  1.00  0.00    -0.243 A  
HETATM   15  C   UNL     1     -10.296  13.697  67.185  1.00  0.00    -0.250 A  
HETATM   16  N   UNL     1      -9.614  11.383  66.934  1.00  0.00    -0.183 NA 
HETATM   17  C   UNL     1      -9.790  10.926  68.215  1.00  0.00    -0.170 A  
HETATM   18  C   UNL     1     -10.706  14.907  66.620  1.00  0.00    -0.312 A  
HETATM   19  C   UNL     1     -11.011  14.970  65.266  1.00  0.00    -0.382 A  
HETATM   20  N   UNL     1      -9.157   9.796  68.425  1.00  0.00    -0.123 NA 
HETATM   21  C   UNL     1     -10.920  13.843  64.462  1.00  0.00    -0.379 A  
HETATM   22  F   UNL     1     -11.387  16.134  64.727  1.00  0.00    -0.387 F  
ENDBRANCH   4   6
ENDBRANCH   3   4
ENDBRANCH   2   3
TORSDOF 3
ENDMDL
MODEL      118
REMARK 921   NORMALIZED FREE ENERGY PREDICTED BY IDOCK:   -3.95 KCAL/MOL
REMARK 922        TOTAL FREE ENERGY PREDICTED BY IDOCK:   -4.93 KCAL/MOL
REMARK 923 INTER-LIGAND FREE ENERGY PREDICTED BY IDOCK:   -4.80 KCAL/MOL
REMARK 924 INTRA-LIGAND FREE ENERGY PREDICTED BY IDOCK:   -0.13 KCAL/MOL
REMARK 927      BINDING AFFINITY PREDICTED BY RF-SCORE:    0.00 PKD
ROOT
HETATM    1  C   UNL     1      -9.461  18.738  66.330  1.00  0.00    -0.336 C  
HETATM    2  C   UNL     1      -8.226  17.863  66.214  1.00  0.00    -0.211 C  
ENDROOT
BRANCH   2   3
HETATM    3  O   UNL     1      -8.447  16.674  66.980  1.00  0.00    -0.178 OA 
BRANCH   3   4
HETATM    4  C   UNL     1      -9.414  15.841  66.500  1.00  0.00    -0.272 C  
HETATM    5  O   UNL     1      -9.678  15.699  65.310  1.00  0.00    -0.320 OA 
BRANCH   4   6
HETATM    6  C   UNL     1     -10.037  15.054  67.564  1.00  0.00    -0.228 A  
HETATM    7  C   UNL     1     -10.136  13.672  67.631  1.00  0.00    -0.242 A  
HETATM    8  C   UNL     1      -9.814  12.602  66.659  1.00  0.00    -0.244 C  
HETATM    9  N   UNL     1      -8.724  11.818  67.200  1.00  0.00    -0.162 N  
HETATM   10  C   UNL     1      -7.613  11.490  66.323  1.00  0.00     0.098 C  
HETATM   11  C   UNL     1      -8.817  11.096  68.381  1.00  0.00    -0.157 C  
HETATM   12  C   UNL     1     -10.124  11.020  69.085  1.00  0.00    -0.167 A  
HETATM   13  O   UNL     1      -7.880  10.441  68.836  1.00  0.00    -0.098 OA 
HETATM   14  C   UNL     1     -10.969  12.109  69.369  1.00  0.00    -0.046 A  
HETATM   15  C   UNL     1     -12.136  11.920  70.126  1.00  0.00    -0.382 A  
HETATM   16  N   UNL     1     -10.690  13.397  68.858  1.00  0.00    -0.225 NA 
HETATM   17  C   UNL     1     -10.983  14.603  69.443  1.00  0.00    -0.257 A  
HETATM   18  C   UNL     1     -12.489  10.633  70.540  1.00  0.00    -0.445 A  
HETATM   19  C   UNL     1     -11.658   9.559  70.246  1.00  0.00    -0.169 A  
HETATM   20  N   UNL     1     -10.596  15.615  68.703  1.00  0.00    -0.235 NA 
HETATM   21  C   UNL     1     -10.473   9.745  69.549  1.00  0.00    -0.250 A  
HETATM   22  F   UNL     1     -12.009   8.328  70.631  1.00  0.00    -0.273 F  
ENDBRANCH   4   6
ENDBRANCH   3   4
ENDBRANCH   2   3
TORSDOF 3
ENDMDL
MODEL      119
REMARK 921   NORMALIZED FREE ENERGY PREDICTED BY IDOCK:   -3.93 KCAL/MOL
REMARK 922        TOTAL FREE ENERGY PREDICTED BY IDOCK:   -4.90 KCAL/MOL
REMARK 923 INTER-LIGAND FREE ENERGY PREDICTED BY IDOCK:   -4.53 KCAL/MOL
REMARK 924 INTRA-LIGAND FREE ENERGY PREDICTED BY IDOCK:   -0.38 KCAL/MOL
REMARK 927      BINDING AFFINITY PREDICTED BY RF-SCORE:    0.00 PKD
ROOT
HETATM    1  C   UNL     1     -10.791   5.855  71.073  1.00  0.00    -0.339 C  
HETATM    2  C   UNL     1     -11.920   6.832  70.799  1.00  0.00    -0.378 C  
ENDROOT
BRANCH   2   3
HETATM    3  O   UNL     1     -11.804   7.920  71.721  1.00  0.00    -0.270 OA 
BRANCH   3   4
HETATM    4  C   UNL     1     -10.830   8.830  71.431  1.00  0.00    -0.289 C  
HETATM    5  O   UNL     1      -9.853   9.049  72.139  1.00  0.00    -0.273 OA 
BRANCH   4   6
HETATM    6  C   UNL     1     -11.031   9.448  70.120  1.00  0.00    -0.246 A  
HETATM    7  C   UNL     1     -10.187   9.367  69.022  1.00  0.00    -0.205 A  
HETATM    8  C   UNL     1      -8.827   8.807  68.849  1.00  0.00    -0.137 C  
HETATM    9  N   UNL     1      -8.917   7.683  67.942  1.00  0.00    -0.129 N  
HETATM   10  C   UNL     1      -8.230   6.454  68.300  1.00  0.00    -0.116 C  
HETATM   11  C   UNL     1      -9.335   7.799  66.624  1.00  0.00    -0.188 C  
HETATM   12  C   UNL     1      -9.603   9.149  66.063  1.00  0.00    -0.342 A  
HETATM   13  O   UNL     1      -9.417   6.834  65.864  1.00  0.00    -0.003 OA 
HETATM   14  C   UNL     1     -10.370  10.157  66.677  1.00  0.00    -0.208 A  
HETATM   15  C   UNL     1     -10.629  11.359  66.000  1.00  0.00    -0.319 A  
HETATM   16  N   UNL     1     -10.848  10.002  67.998  1.00  0.00    -0.260 NA 
HETATM   17  C   UNL     1     -12.007  10.512  68.526  1.00  0.00     0.236 A  
HETATM   18  C   UNL     1     -10.066  11.577  64.739  1.00  0.00    -0.316 A  
HETATM   19  C   UNL     1      -9.299  10.584  64.143  1.00  0.00    -0.267 A  
HETATM   20  N   UNL     1     -12.155  10.190  69.789  1.00  0.00    -0.057 NA 
HETATM   21  C   UNL     1      -9.086   9.369  64.779  1.00  0.00    -0.248 A  
HETATM   22  F   UNL     1      -8.750  10.805  62.944  1.00  0.00    -0.175 F  
ENDBRANCH   4   6
ENDBRANCH   3   4
ENDBRANCH   2   3
TORSDOF 3
ENDMDL
MODEL      120
REMARK 921   NORMALIZED FREE ENERGY PREDICTED BY IDOCK:   -3.89 KCAL/MOL
REMARK 922        TOTAL FREE ENERGY PREDICTED BY IDOCK:   -4.86 KCAL/MOL
REMARK 923 INTER-LIGAND FREE ENERGY PREDICTED BY IDOCK:   -4.58 KCAL/MOL
REMARK 924 INTRA-LIGAND FREE ENERGY PREDICTED BY IDOCK:   -0.27 KCAL/MOL
REMARK 927      BINDING AFFINITY PREDICTED BY RF-SCORE:    0.00 PKD
ROOT
HETATM    1  C   UNL     1     -13.272  10.828  71.766  1.00  0.00    -0.523 C  
HETATM    2  C   UNL     1     -12.088  10.290  70.983  1.00  0.00    -0.386 C  
ENDROOT
BRANCH   2   3
HETATM    3  O   UNL     1     -12.179   8.862  70.961  1.00  0.00    -0.282 OA 
BRANCH   3   4
HETATM    4  C   UNL     1     -11.052   8.199  71.349  1.00  0.00    -0.247 C  
HETATM    5  O   UNL     1     -10.438   8.424  72.387  1.00  0.00    -0.310 OA 
BRANCH   4   6
HETATM    6  C   UNL     1     -10.712   7.112  70.430  1.00  0.00    -0.235 A  
HETATM    7  C   UNL     1     -10.350   7.230  69.096  1.00  0.00    -0.205 A  
HETATM    8  C   UNL     1     -10.332   8.383  68.167  1.00  0.00    -0.204 C  
HETATM    9  N   UNL     1      -8.955   8.646  67.806  1.00  0.00    -0.136 N  
HETATM   10  C   UNL     1      -8.487  10.021  67.840  1.00  0.00    -0.118 C  
HETATM   11  C   UNL     1      -8.158   7.736  67.128  1.00  0.00    -0.118 C  
HETATM   12  C   UNL     1      -8.756   6.465  66.642  1.00  0.00    -0.127 A  
HETATM   13  O   UNL     1      -6.985   7.967  66.835  1.00  0.00    -0.071 OA 
HETATM   14  C   UNL     1      -9.571   5.599  67.396  1.00  0.00    -0.118 A  
HETATM   15  C   UNL     1      -9.998   4.379  66.851  1.00  0.00    -0.210 A  
HETATM   16  N   UNL     1     -10.015   5.961  68.688  1.00  0.00    -0.139 NA 
HETATM   17  C   UNL     1     -10.265   5.123  69.744  1.00  0.00    -0.287 A  
HETATM   18  C   UNL     1      -9.667   4.057  65.532  1.00  0.00    -0.194 A  
HETATM   19  C   UNL     1      -8.874   4.921  64.788  1.00  0.00    -0.147 A  
HETATM   20  N   UNL     1     -10.672   5.777  70.806  1.00  0.00    -0.271 NA 
HETATM   21  C   UNL     1      -8.398   6.103  65.337  1.00  0.00    -0.150 A  
HETATM   22  F   UNL     1      -8.573   4.615  63.521  1.00  0.00    -0.107 F  
ENDBRANCH   4   6
ENDBRANCH   3   4
ENDBRANCH   2   3
TORSDOF 3
ENDMDL
MODEL      121
REMARK 921   NORMALIZED FREE ENERGY PREDICTED BY IDOCK:   -3.84 KCAL/MOL
REMARK 922        TOTAL FREE ENERGY PREDICTED BY IDOCK:   -4.80 KCAL/MOL
REMARK 923 INTER-LIGAND FREE ENERGY PREDICTED BY IDOCK:   -4.47 KCAL/MOL
REMARK 924 INTRA-LIGAND FREE ENERGY PREDICTED BY IDOCK:   -0.33 KCAL/MOL
REMARK 927      BINDING AFFINITY PREDICTED BY RF-SCORE:    0.00 PKD
ROOT
HETATM    1  C   UNL     1      -7.245   6.653  65.149  1.00  0.00    -0.074 C  
HETATM    2  C   UNL     1      -6.186   6.339  66.191  1.00  0.00    -0.037 C  
ENDROOT
BRANCH   2   3
HETATM    3  O   UNL     1      -6.643   6.831  67.455  1.00  0.00    -0.049 OA 
BRANCH   3   4
HETATM    4  C   UNL     1      -6.960   5.875  68.374  1.00  0.00    -0.072 C  
HETATM    5  O   UNL     1      -6.161   5.070  68.841  1.00  0.00    -0.027 OA 
BRANCH   4   6
HETATM    6  C   UNL     1      -8.350   5.983  68.820  1.00  0.00    -0.106 A  
HETATM    7  C   UNL     1      -8.905   7.002  69.580  1.00  0.00    -0.141 A  
HETATM    8  C   UNL     1      -8.307   8.160  70.283  1.00  0.00    -0.124 C  
HETATM    9  N   UNL     1      -8.787   9.368  69.645  1.00  0.00    -0.158 N  
HETATM   10  C   UNL     1      -7.823  10.409  69.330  1.00  0.00    -0.161 C  
HETATM   11  C   UNL     1     -10.126   9.731  69.609  1.00  0.00    -0.229 C  
HETATM   12  C   UNL     1     -11.121   8.911  70.350  1.00  0.00    -0.270 A  
HETATM   13  O   UNL     1     -10.523  10.755  69.055  1.00  0.00    -0.194 OA 
HETATM   14  C   UNL     1     -11.222   7.508  70.311  1.00  0.00    -0.236 A  
HETATM   15  C   UNL     1     -12.268   6.856  70.983  1.00  0.00    -0.427 A  
HETATM   16  N   UNL     1     -10.250   6.728  69.644  1.00  0.00    -0.182 NA 
HETATM   17  C   UNL     1     -10.444   5.529  69.005  1.00  0.00    -0.226 A  
HETATM   18  C   UNL     1     -13.170   7.603  71.746  1.00  0.00    -0.360 A  
HETATM   19  C   UNL     1     -13.058   8.987  71.791  1.00  0.00    -0.381 A  
HETATM   20  N   UNL     1      -9.332   5.061  68.491  1.00  0.00    -0.120 NA 
HETATM   21  C   UNL     1     -12.063   9.645  71.083  1.00  0.00    -0.448 A  
HETATM   22  F   UNL     1     -13.914   9.694  72.535  1.00  0.00    -0.446 F  
ENDBRANCH   4   6
ENDBRANCH   3   4
ENDBRANCH   2   3
TORSDOF 3
ENDMDL
MODEL      122
REMARK 921   NORMALIZED FREE ENERGY PREDICTED BY IDOCK:   -3.84 KCAL/MOL
REMARK 922        TOTAL FREE ENERGY PREDICTED BY IDOCK:   -4.80 KCAL/MOL
REMARK 923 INTER-LIGAND FREE ENERGY PREDICTED BY IDOCK:   -4.52 KCAL/MOL
REMARK 924 INTRA-LIGAND FREE ENERGY PREDICTED BY IDOCK:   -0.29 KCAL/MOL
REMARK 927      BINDING AFFINITY PREDICTED BY RF-SCORE:    0.00 PKD
ROOT
HETATM    1  C   UNL     1      -7.815  17.524  68.658  1.00  0.00    -0.272 C  
HETATM    2  C   UNL     1      -8.872  16.442  68.790  1.00  0.00    -0.246 C  
ENDROOT
BRANCH   2   3
HETATM    3  O   UNL     1      -8.405  15.275  68.105  1.00  0.00    -0.144 OA 
BRANCH   3   4
HETATM    4  C   UNL     1      -9.076  14.961  66.961  1.00  0.00    -0.237 C  
HETATM    5  O   UNL     1      -9.084  15.655  65.950  1.00  0.00    -0.335 OA 
BRANCH   4   6
HETATM    6  C   UNL     1      -9.709  13.644  67.041  1.00  0.00    -0.251 A  
HETATM    7  C   UNL     1      -9.081  12.430  67.273  1.00  0.00    -0.187 A  
HETATM    8  C   UNL     1      -7.653  12.047  67.358  1.00  0.00    -0.151 C  
HETATM    9  N   UNL     1      -7.386  11.611  68.713  1.00  0.00    -0.114 N  
HETATM   10  C   UNL     1      -6.196  12.118  69.376  1.00  0.00    -0.106 C  
HETATM   11  C   UNL     1      -7.999  10.511  69.294  1.00  0.00    -0.154 C  
HETATM   12  C   UNL     1      -8.895   9.659  68.470  1.00  0.00    -0.124 A  
HETATM   13  O   UNL     1      -7.772  10.156  70.450  1.00  0.00    -0.230 OA 
HETATM   14  C   UNL     1      -9.921  10.121  67.623  1.00  0.00    -0.181 A  
HETATM   15  C   UNL     1     -10.762   9.208  66.968  1.00  0.00    -0.189 A  
HETATM   16  N   UNL     1     -10.090  11.502  67.376  1.00  0.00    -0.189 NA 
HETATM   17  C   UNL     1     -11.265  12.162  67.120  1.00  0.00    -0.314 A  
HETATM   18  C   UNL     1     -10.535   7.837  67.108  1.00  0.00    -0.413 A  
HETATM   19  C   UNL     1      -9.514   7.385  67.935  1.00  0.00    -0.140 A  
HETATM   20  N   UNL     1     -11.077  13.445  66.927  1.00  0.00    -0.287 NA 
HETATM   21  C   UNL     1      -8.713   8.279  68.632  1.00  0.00    -0.133 A  
HETATM   22  F   UNL     1      -9.291   6.072  68.052  1.00  0.00    -0.118 F  
ENDBRANCH   4   6
ENDBRANCH   3   4
ENDBRANCH   2   3
TORSDOF 3
ENDMDL
MODEL      123
REMARK 921   NORMALIZED FREE ENERGY PREDICTED BY IDOCK:   -3.83 KCAL/MOL
REMARK 922        TOTAL FREE ENERGY PREDICTED BY IDOCK:   -4.79 KCAL/MOL
REMARK 923 INTER-LIGAND FREE ENERGY PREDICTED BY IDOCK:   -4.73 KCAL/MOL
REMARK 924 INTRA-LIGAND FREE ENERGY PREDICTED BY IDOCK:   -0.06 KCAL/MOL
REMARK 927      BINDING AFFINITY PREDICTED BY RF-SCORE:    0.00 PKD
ROOT
HETATM    1  C   UNL     1      -7.701   8.968  63.965  1.00  0.00    -0.125 C  
HETATM    2  C   UNL     1      -6.297   8.835  64.525  1.00  0.00    -0.067 C  
ENDROOT
BRANCH   2   3
HETATM    3  O   UNL     1      -6.398   8.444  65.898  1.00  0.00    -0.051 OA 
BRANCH   3   4
HETATM    4  C   UNL     1      -7.000   9.351  66.720  1.00  0.00    -0.081 C  
HETATM    5  O   UNL     1      -6.771  10.556  66.708  1.00  0.00    -0.080 OA 
BRANCH   4   6
HETATM    6  C   UNL     1      -8.031   8.733  67.556  1.00  0.00    -0.102 A  
HETATM    7  C   UNL     1      -8.799   9.356  68.529  1.00  0.00    -0.128 A  
HETATM    8  C   UNL     1      -8.745  10.710  69.125  1.00  0.00    -0.126 C  
HETATM    9  N   UNL     1      -9.959  11.410  68.759  1.00  0.00    -0.201 N  
HETATM   10  C   UNL     1      -9.845  12.773  68.270  1.00  0.00    -0.224 C  
HETATM   11  C   UNL     1     -11.224  10.991  69.144  1.00  0.00    -0.255 C  
HETATM   12  C   UNL     1     -11.358   9.834  70.067  1.00  0.00    -0.269 A  
HETATM   13  O   UNL     1     -12.250  11.588  68.818  1.00  0.00    -0.457 OA 
HETATM   14  C   UNL     1     -10.695   8.599  69.939  1.00  0.00    -0.225 A  
HETATM   15  C   UNL     1     -10.979   7.549  70.826  1.00  0.00    -0.265 A  
HETATM   16  N   UNL     1      -9.699   8.409  68.955  1.00  0.00    -0.164 NA 
HETATM   17  C   UNL     1      -9.391   7.243  68.299  1.00  0.00    -0.135 A  
HETATM   18  C   UNL     1     -11.875   7.757  71.878  1.00  0.00    -0.338 A  
HETATM   19  C   UNL     1     -12.518   8.982  72.007  1.00  0.00    -0.390 A  
HETATM   20  N   UNL     1      -8.407   7.403  67.447  1.00  0.00    -0.115 NA 
HETATM   21  C   UNL     1     -12.287  10.007  71.101  1.00  0.00    -0.477 A  
HETATM   22  F   UNL     1     -13.362   9.180  73.025  1.00  0.00    -0.454 F  
ENDBRANCH   4   6
ENDBRANCH   3   4
ENDBRANCH   2   3
TORSDOF 3
ENDMDL
MODEL      124
REMARK 921   NORMALIZED FREE ENERGY PREDICTED BY IDOCK:   -3.82 KCAL/MOL
REMARK 922        TOTAL FREE ENERGY PREDICTED BY IDOCK:   -4.78 KCAL/MOL
REMARK 923 INTER-LIGAND FREE ENERGY PREDICTED BY IDOCK:   -4.50 KCAL/MOL
REMARK 924 INTRA-LIGAND FREE ENERGY PREDICTED BY IDOCK:   -0.28 KCAL/MOL
REMARK 927      BINDING AFFINITY PREDICTED BY RF-SCORE:    0.00 PKD
ROOT
HETATM    1  C   UNL     1      -7.371   8.375  64.264  1.00  0.00    -0.096 C  
HETATM    2  C   UNL     1      -7.940   9.578  63.534  1.00  0.00    -0.139 C  
ENDROOT
BRANCH   2   3
HETATM    3  O   UNL     1      -8.281  10.571  64.507  1.00  0.00    -0.154 OA 
BRANCH   3   4
HETATM    4  C   UNL     1      -9.525  11.113  64.377  1.00  0.00    -0.220 C  
HETATM    5  O   UNL     1     -10.235  10.988  63.385  1.00  0.00    -0.339 OA 
BRANCH   4   6
HETATM    6  C   UNL     1      -9.963  11.779  65.604  1.00  0.00    -0.240 A  
HETATM    7  C   UNL     1     -10.670  11.212  66.655  1.00  0.00    -0.269 A  
HETATM    8  C   UNL     1     -11.314   9.889  66.823  1.00  0.00     0.849 C  
HETATM    9  N   UNL     1     -10.615   9.182  67.875  1.00  0.00    -0.236 N  
HETATM   10  C   UNL     1     -10.249   7.794  67.645  1.00  0.00    -0.219 C  
HETATM   11  C   UNL     1     -10.559   9.629  69.187  1.00  0.00    -0.220 C  
HETATM   12  C   UNL     1     -11.339  10.832  69.579  1.00  0.00    -0.355 A  
HETATM   13  O   UNL     1      -9.954   9.024  70.071  1.00  0.00    -0.174 OA 
HETATM   14  C   UNL     1     -11.372  12.054  68.881  1.00  0.00    -0.278 A  
HETATM   15  C   UNL     1     -12.075  13.149  69.406  1.00  0.00    -0.285 A  
HETATM   16  N   UNL     1     -10.746  12.186  67.621  1.00  0.00    -0.214 NA 
HETATM   17  C   UNL     1     -10.169  13.315  67.096  1.00  0.00    -0.246 A  
HETATM   18  C   UNL     1     -12.797  13.001  70.593  1.00  0.00    -0.081 A  
HETATM   19  C   UNL     1     -12.773  11.789  71.272  1.00  0.00    -0.316 A  
HETATM   20  N   UNL     1      -9.680  13.105  65.896  1.00  0.00    -0.226 NA 
HETATM   21  C   UNL     1     -12.033  10.718  70.791  1.00  0.00    -0.464 A  
HETATM   22  F   UNL     1     -13.479  11.649  72.398  1.00  0.00    -0.581 F  
ENDBRANCH   4   6
ENDBRANCH   3   4
ENDBRANCH   2   3
TORSDOF 3
ENDMDL
MODEL      125
REMARK 921   NORMALIZED FREE ENERGY PREDICTED BY IDOCK:   -3.81 KCAL/MOL
REMARK 922        TOTAL FREE ENERGY PREDICTED BY IDOCK:   -4.76 KCAL/MOL
REMARK 923 INTER-LIGAND FREE ENERGY PREDICTED BY IDOCK:   -4.53 KCAL/MOL
REMARK 924 INTRA-LIGAND FREE ENERGY PREDICTED BY IDOCK:   -0.24 KCAL/MOL
REMARK 927      BINDING AFFINITY PREDICTED BY RF-SCORE:    0.00 PKD
ROOT
HETATM    1  C   UNL     1      -6.786  10.941  69.803  1.00  0.00    -0.134 C  
HETATM    2  C   UNL     1      -7.826  10.658  68.733  1.00  0.00    -0.125 C  
ENDROOT
BRANCH   2   3
HETATM    3  O   UNL     1      -7.573  11.528  67.624  1.00  0.00    -0.103 OA 
BRANCH   3   4
HETATM    4  C   UNL     1      -8.311  12.674  67.601  1.00  0.00    -0.174 C  
HETATM    5  O   UNL     1      -9.520  12.724  67.802  1.00  0.00    -0.191 OA 
BRANCH   4   6
HETATM    6  C   UNL     1      -7.475  13.860  67.407  1.00  0.00    -0.128 A  
HETATM    7  C   UNL     1      -7.887  15.107  66.961  1.00  0.00    -0.162 A  
HETATM    8  C   UNL     1      -9.176  15.595  66.420  1.00  0.00    -0.311 C  
HETATM    9  N   UNL     1      -9.716  16.562  67.353  1.00  0.00    -0.243 N  
HETATM   10  C   UNL     1     -11.119  16.457  67.717  1.00  0.00    -0.199 C  
HETATM   11  C   UNL     1      -9.081  17.755  67.668  1.00  0.00    -0.246 C  
HETATM   12  C   UNL     1      -7.840  18.130  66.942  1.00  0.00    -0.249 A  
HETATM   13  O   UNL     1      -9.545  18.564  68.470  1.00  0.00    -0.327 OA 
HETATM   14  C   UNL     1      -6.734  17.290  66.714  1.00  0.00    -0.214 A  
HETATM   15  C   UNL     1      -5.579  17.793  66.095  1.00  0.00    -0.244 A  
HETATM   16  N   UNL     1      -6.783  15.919  67.053  1.00  0.00    -0.279 NA 
HETATM   17  C   UNL     1      -5.739  15.127  67.461  1.00  0.00     0.064 A  
HETATM   18  C   UNL     1      -5.557  19.117  65.647  1.00  0.00    -0.192 A  
HETATM   19  C   UNL     1      -6.656  19.939  65.862  1.00  0.00    -0.231 A  
HETATM   20  N   UNL     1      -6.118  13.893  67.692  1.00  0.00    -0.306 NA 
HETATM   21  C   UNL     1      -7.780  19.467  66.525  1.00  0.00    -0.290 A  
HETATM   22  F   UNL     1      -6.635  21.199  65.417  1.00  0.00    -0.243 F  
ENDBRANCH   4   6
ENDBRANCH   3   4
ENDBRANCH   2   3
TORSDOF 3
ENDMDL
MODEL      126
REMARK 921   NORMALIZED FREE ENERGY PREDICTED BY IDOCK:   -3.77 KCAL/MOL
REMARK 922        TOTAL FREE ENERGY PREDICTED BY IDOCK:   -4.71 KCAL/MOL
REMARK 923 INTER-LIGAND FREE ENERGY PREDICTED BY IDOCK:   -4.83 KCAL/MOL
REMARK 924 INTRA-LIGAND FREE ENERGY PREDICTED BY IDOCK:    0.11 KCAL/MOL
REMARK 927      BINDING AFFINITY PREDICTED BY RF-SCORE:    0.00 PKD
ROOT
HETATM    1  C   UNL     1     -10.216  20.155  67.282  1.00  0.00    -0.540 C  
HETATM    2  C   UNL     1      -9.661  19.045  66.408  1.00  0.00    -0.353 C  
ENDROOT
BRANCH   2   3
HETATM    3  O   UNL     1     -10.589  17.956  66.426  1.00  0.00    -0.327 OA 
BRANCH   3   4
HETATM    4  C   UNL     1     -10.187  16.835  65.761  1.00  0.00    -0.291 C  
HETATM    5  O   UNL     1     -10.721  16.404  64.744  1.00  0.00    -0.700 OA 
BRANCH   4   6
HETATM    6  C   UNL     1      -8.976  16.257  66.344  1.00  0.00    -0.308 A  
HETATM    7  C   UNL     1      -8.890  15.113  67.125  1.00  0.00    -0.216 A  
HETATM    8  C   UNL     1      -9.922  14.236  67.724  1.00  0.00    -0.227 C  
HETATM    9  N   UNL     1      -9.820  12.934  67.101  1.00  0.00    -0.221 N  
HETATM   10  C   UNL     1     -11.043  12.287  66.655  1.00  0.00    -0.297 C  
HETATM   11  C   UNL     1      -8.692  12.131  67.192  1.00  0.00    -0.190 C  
HETATM   12  C   UNL     1      -7.562  12.561  68.058  1.00  0.00    -0.127 A  
HETATM   13  O   UNL     1      -8.613  11.030  66.650  1.00  0.00    -0.146 OA 
HETATM   14  C   UNL     1      -6.982  13.844  68.075  1.00  0.00    -0.141 A  
HETATM   15  C   UNL     1      -5.855  14.099  68.872  1.00  0.00    -0.086 A  
HETATM   16  N   UNL     1      -7.548  14.907  67.336  1.00  0.00    -0.195 NA 
HETATM   17  C   UNL     1      -6.887  15.962  66.760  1.00  0.00     0.173 A  
HETATM   18  C   UNL     1      -5.352  13.091  69.700  1.00  0.00    -0.086 A  
HETATM   19  C   UNL     1      -5.937  11.831  69.689  1.00  0.00    -0.112 A  
HETATM   20  N   UNL     1      -7.708  16.782  66.149  1.00  0.00    -0.271 NA 
HETATM   21  C   UNL     1      -7.015  11.552  68.861  1.00  0.00    -0.100 A  
HETATM   22  F   UNL     1      -5.461  10.876  70.495  1.00  0.00    -0.064 F  
ENDBRANCH   4   6
ENDBRANCH   3   4
ENDBRANCH   2   3
TORSDOF 3
ENDMDL
MODEL      127
REMARK 921   NORMALIZED FREE ENERGY PREDICTED BY IDOCK:   -3.71 KCAL/MOL
REMARK 922        TOTAL FREE ENERGY PREDICTED BY IDOCK:   -4.65 KCAL/MOL
REMARK 923 INTER-LIGAND FREE ENERGY PREDICTED BY IDOCK:   -4.51 KCAL/MOL
REMARK 924 INTRA-LIGAND FREE ENERGY PREDICTED BY IDOCK:   -0.14 KCAL/MOL
REMARK 927      BINDING AFFINITY PREDICTED BY RF-SCORE:    0.00 PKD
ROOT
HETATM    1  C   UNL     1      -5.981   7.898  66.759  1.00  0.00    -0.048 C  
HETATM    2  C   UNL     1      -7.073   8.191  67.773  1.00  0.00    -0.087 C  
ENDROOT
BRANCH   2   3
HETATM    3  O   UNL     1      -7.167   9.611  67.930  1.00  0.00    -0.080 OA 
BRANCH   3   4
HETATM    4  C   UNL     1      -8.002  10.241  67.056  1.00  0.00    -0.111 C  
HETATM    5  O   UNL     1      -8.822   9.669  66.345  1.00  0.00    -0.144 OA 
BRANCH   4   6
HETATM    6  C   UNL     1      -7.880  11.698  67.135  1.00  0.00    -0.163 A  
HETATM    7  C   UNL     1      -8.915  12.619  67.196  1.00  0.00    -0.205 A  
HETATM    8  C   UNL     1     -10.383  12.480  67.057  1.00  0.00    -0.224 C  
HETATM    9  N   UNL     1     -10.987  12.814  68.329  1.00  0.00    -0.240 N  
HETATM   10  C   UNL     1     -12.017  11.933  68.853  1.00  0.00    -0.254 C  
HETATM   11  C   UNL     1     -10.885  14.068  68.915  1.00  0.00    -0.258 C  
HETATM   12  C   UNL     1     -10.221  15.168  68.168  1.00  0.00    -0.227 A  
HETATM   13  O   UNL     1     -11.395  14.337  70.002  1.00  0.00    -0.241 OA 
HETATM   14  C   UNL     1      -8.983  15.080  67.505  1.00  0.00    -0.183 A  
HETATM   15  C   UNL     1      -8.416  16.220  66.913  1.00  0.00    -0.257 A  
HETATM   16  N   UNL     1      -8.314  13.842  67.376  1.00  0.00    -0.185 NA 
HETATM   17  C   UNL     1      -6.959  13.631  67.330  1.00  0.00    -0.057 A  
HETATM   18  C   UNL     1      -9.118  17.428  66.929  1.00  0.00    -0.258 A  
HETATM   19  C   UNL     1     -10.346  17.506  67.574  1.00  0.00    -0.356 A  
HETATM   20  N   UNL     1      -6.663  12.360  67.198  1.00  0.00    -0.126 NA 
HETATM   21  C   UNL     1     -10.888  16.399  68.211  1.00  0.00    -0.347 A  
HETATM   22  F   UNL     1     -11.021  18.660  67.571  1.00  0.00    -0.462 F  
ENDBRANCH   4   6
ENDBRANCH   3   4
ENDBRANCH   2   3
TORSDOF 3
ENDMDL
MODEL      128
REMARK 921   NORMALIZED FREE ENERGY PREDICTED BY IDOCK:   -3.70 KCAL/MOL
REMARK 922        TOTAL FREE ENERGY PREDICTED BY IDOCK:   -4.63 KCAL/MOL
REMARK 923 INTER-LIGAND FREE ENERGY PREDICTED BY IDOCK:   -4.34 KCAL/MOL
REMARK 924 INTRA-LIGAND FREE ENERGY PREDICTED BY IDOCK:   -0.30 KCAL/MOL
REMARK 927      BINDING AFFINITY PREDICTED BY RF-SCORE:    0.00 PKD
ROOT
HETATM    1  C   UNL     1     -10.416  16.607  66.866  1.00  0.00    -0.271 C  
HETATM    2  C   UNL     1     -11.072  15.412  66.195  1.00  0.00    -0.230 C  
ENDROOT
BRANCH   2   3
HETATM    3  O   UNL     1     -11.735  14.642  67.203  1.00  0.00    -0.378 OA 
BRANCH   3   4
HETATM    4  C   UNL     1     -12.185  13.419  66.802  1.00  0.00    -0.312 C  
HETATM    5  O   UNL     1     -12.969  13.239  65.877  1.00  0.00    -0.288 OA 
BRANCH   4   6
HETATM    6  C   UNL     1     -11.544  12.330  67.541  1.00  0.00    -0.353 A  
HETATM    7  C   UNL     1     -10.192  12.022  67.565  1.00  0.00    -0.198 A  
HETATM    8  C   UNL     1      -9.038  12.539  66.795  1.00  0.00    -0.214 C  
HETATM    9  N   UNL     1      -8.151  13.216  67.718  1.00  0.00    -0.150 N  
HETATM   10  C   UNL     1      -7.635  14.521  67.342  1.00  0.00    -0.184 C  
HETATM   11  C   UNL     1      -7.513  12.575  68.770  1.00  0.00    -0.049 C  
HETATM   12  C   UNL     1      -7.645  11.102  68.911  1.00  0.00    -0.133 A  
HETATM   13  O   UNL     1      -6.769  13.163  69.554  1.00  0.00    -0.077 OA 
HETATM   14  C   UNL     1      -8.848  10.373  68.843  1.00  0.00    -0.161 A  
HETATM   15  C   UNL     1      -8.852   8.991  69.087  1.00  0.00    -0.142 A  
HETATM   16  N   UNL     1     -10.059  11.005  68.480  1.00  0.00    -0.183 NA 
HETATM   17  C   UNL     1     -11.323  10.682  68.904  1.00  0.00    -0.274 A  
HETATM   18  C   UNL     1      -7.646   8.330  69.332  1.00  0.00    -0.096 A  
HETATM   19  C   UNL     1      -6.459   9.051  69.385  1.00  0.00    -0.044 A  
HETATM   20  N   UNL     1     -12.234  11.461  68.373  1.00  0.00    -0.522 NA 
HETATM   21  C   UNL     1      -6.452  10.426  69.203  1.00  0.00    -0.048 A  
HETATM   22  F   UNL     1      -5.307   8.410  69.604  1.00  0.00    -0.028 F  
ENDBRANCH   4   6
ENDBRANCH   3   4
ENDBRANCH   2   3
TORSDOF 3
ENDMDL
MODEL      129
REMARK 921   NORMALIZED FREE ENERGY PREDICTED BY IDOCK:   -3.69 KCAL/MOL
REMARK 922        TOTAL FREE ENERGY PREDICTED BY IDOCK:   -4.62 KCAL/MOL
REMARK 923 INTER-LIGAND FREE ENERGY PREDICTED BY IDOCK:   -4.35 KCAL/MOL
REMARK 924 INTRA-LIGAND FREE ENERGY PREDICTED BY IDOCK:   -0.27 KCAL/MOL
REMARK 927      BINDING AFFINITY PREDICTED BY RF-SCORE:    0.00 PKD
ROOT
HETATM    1  C   UNL     1     -12.321  11.981  63.481  1.00  0.00    -0.661 C  
HETATM    2  C   UNL     1     -12.103  13.280  64.235  1.00  0.00    -0.416 C  
ENDROOT
BRANCH   2   3
HETATM    3  O   UNL     1     -10.902  13.155  65.004  1.00  0.00    -0.292 OA 
BRANCH   3   4
HETATM    4  C   UNL     1     -10.782  14.026  66.046  1.00  0.00    -0.294 C  
HETATM    5  O   UNL     1     -11.651  14.822  66.387  1.00  0.00    -0.356 OA 
BRANCH   4   6
HETATM    6  C   UNL     1      -9.531  13.832  66.781  1.00  0.00    -0.275 A  
HETATM    7  C   UNL     1      -9.214  12.778  67.624  1.00  0.00    -0.192 A  
HETATM    8  C   UNL     1     -10.016  11.653  68.158  1.00  0.00    -0.195 C  
HETATM    9  N   UNL     1      -9.478  10.423  67.616  1.00  0.00    -0.148 N  
HETATM   10  C   UNL     1     -10.407   9.443  67.080  1.00  0.00    -0.258 C  
HETATM   11  C   UNL     1      -8.186   9.981  67.865  1.00  0.00    -0.113 C  
HETATM   12  C   UNL     1      -7.332  10.735  68.820  1.00  0.00    -0.104 A  
HETATM   13  O   UNL     1      -7.737   8.938  67.392  1.00  0.00    -0.095 OA 
HETATM   14  C   UNL     1      -7.145  12.130  68.831  1.00  0.00    -0.098 A  
HETATM   15  C   UNL     1      -6.235  12.714  69.726  1.00  0.00    -0.111 A  
HETATM   16  N   UNL     1      -7.902  12.970  67.983  1.00  0.00    -0.133 NA 
HETATM   17  C   UNL     1      -7.506  14.160  67.425  1.00  0.00    -0.134 A  
HETATM   18  C   UNL     1      -5.565  11.910  70.652  1.00  0.00    -0.149 A  
HETATM   19  C   UNL     1      -5.762  10.535  70.646  1.00  0.00    -0.101 A  
HETATM   20  N   UNL     1      -8.451  14.697  66.691  1.00  0.00    -0.114 NA 
HETATM   21  C   UNL     1      -6.615   9.942  69.726  1.00  0.00    -0.066 A  
HETATM   22  F   UNL     1      -5.130   9.774  71.544  1.00  0.00    -0.046 F  
ENDBRANCH   4   6
ENDBRANCH   3   4
ENDBRANCH   2   3
TORSDOF 3
ENDMDL
MODEL      130
REMARK 921   NORMALIZED FREE ENERGY PREDICTED BY IDOCK:   -3.67 KCAL/MOL
REMARK 922        TOTAL FREE ENERGY PREDICTED BY IDOCK:   -4.60 KCAL/MOL
REMARK 923 INTER-LIGAND FREE ENERGY PREDICTED BY IDOCK:   -4.51 KCAL/MOL
REMARK 924 INTRA-LIGAND FREE ENERGY PREDICTED BY IDOCK:   -0.09 KCAL/MOL
REMARK 927      BINDING AFFINITY PREDICTED BY RF-SCORE:    0.00 PKD
ROOT
HETATM    1  C   UNL     1      -9.896  16.726  68.954  1.00  0.00    -0.264 C  
HETATM    2  C   UNL     1      -8.545  16.033  68.919  1.00  0.00    -0.229 C  
ENDROOT
BRANCH   2   3
HETATM    3  O   UNL     1      -8.615  14.964  67.970  1.00  0.00    -0.152 OA 
BRANCH   3   4
HETATM    4  C   UNL     1      -7.453  14.277  67.777  1.00  0.00    -0.164 C  
HETATM    5  O   UNL     1      -6.397  14.787  67.419  1.00  0.00    -0.320 OA 
BRANCH   4   6
HETATM    6  C   UNL     1      -7.584  12.867  68.147  1.00  0.00    -0.135 A  
HETATM    7  C   UNL     1      -8.602  11.999  67.781  1.00  0.00    -0.157 A  
HETATM    8  C   UNL     1      -9.888  12.212  67.078  1.00  0.00    -0.203 C  
HETATM    9  N   UNL     1      -9.828  11.510  65.813  1.00  0.00    -0.225 N  
HETATM   10  C   UNL     1     -10.274  12.208  64.619  1.00  0.00    -0.284 C  
HETATM   11  C   UNL     1      -9.685  10.134  65.711  1.00  0.00    -0.245 C  
HETATM   12  C   UNL     1      -9.701   9.308  66.946  1.00  0.00    -0.248 A  
HETATM   13  O   UNL     1      -9.626   9.550  64.630  1.00  0.00    -0.182 OA 
HETATM   14  C   UNL     1      -8.967   9.568  68.119  1.00  0.00    -0.123 A  
HETATM   15  C   UNL     1      -8.995   8.658  69.187  1.00  0.00    -0.142 A  
HETATM   16  N   UNL     1      -8.233  10.767  68.265  1.00  0.00    -0.118 NA 
HETATM   17  C   UNL     1      -7.069  10.947  68.969  1.00  0.00    -0.095 A  
HETATM   18  C   UNL     1      -9.808   7.524  69.107  1.00  0.00    -0.170 A  
HETATM   19  C   UNL     1     -10.541   7.278  67.952  1.00  0.00    -0.202 A  
HETATM   20  N   UNL     1      -6.646  12.187  68.911  1.00  0.00    -0.084 NA 
HETATM   21  C   UNL     1     -10.475   8.143  66.869  1.00  0.00    -0.379 A  
HETATM   22  F   UNL     1     -11.330   6.201  67.888  1.00  0.00    -0.388 F  
ENDBRANCH   4   6
ENDBRANCH   3   4
ENDBRANCH   2   3
TORSDOF 3
ENDMDL
MODEL      131
REMARK 921   NORMALIZED FREE ENERGY PREDICTED BY IDOCK:   -3.62 KCAL/MOL
REMARK 922        TOTAL FREE ENERGY PREDICTED BY IDOCK:   -4.55 KCAL/MOL
REMARK 923 INTER-LIGAND FREE ENERGY PREDICTED BY IDOCK:   -4.86 KCAL/MOL
REMARK 924 INTRA-LIGAND FREE ENERGY PREDICTED BY IDOCK:    0.32 KCAL/MOL
REMARK 927      BINDING AFFINITY PREDICTED BY RF-SCORE:    0.00 PKD
ROOT
HETATM    1  C   UNL     1      -6.626   5.362  64.771  1.00  0.00    -0.043 C  
HETATM    2  C   UNL     1      -7.244   4.941  66.093  1.00  0.00    -0.077 C  
ENDROOT
BRANCH   2   3
HETATM    3  O   UNL     1      -7.459   6.117  66.880  1.00  0.00    -0.084 OA 
BRANCH   3   4
HETATM    4  C   UNL     1      -8.422   6.963  66.415  1.00  0.00    -0.130 C  
HETATM    5  O   UNL     1      -8.555   7.282  65.238  1.00  0.00    -0.097 OA 
BRANCH   4   6
HETATM    6  C   UNL     1      -9.348   7.373  67.471  1.00  0.00    -0.130 A  
HETATM    7  C   UNL     1      -9.633   8.669  67.874  1.00  0.00    -0.149 A  
HETATM    8  C   UNL     1      -9.036   9.977  67.518  1.00  0.00    -0.134 C  
HETATM    9  N   UNL     1     -10.040  10.754  66.822  1.00  0.00    -0.214 N  
HETATM   10  C   UNL     1      -9.654  11.439  65.601  1.00  0.00    -0.231 C  
HETATM   11  C   UNL     1     -11.237  11.148  67.404  1.00  0.00    -0.294 C  
HETATM   12  C   UNL     1     -11.474  10.864  68.843  1.00  0.00    -0.369 A  
HETATM   13  O   UNL     1     -12.087  11.799  66.799  1.00  0.00    -0.547 OA 
HETATM   14  C   UNL     1     -11.258   9.630  69.485  1.00  0.00    -0.109 A  
HETATM   15  C   UNL     1     -11.610   9.463  70.833  1.00  0.00    -0.380 A  
HETATM   16  N   UNL     1     -10.638   8.557  68.805  1.00  0.00    -0.179 NA 
HETATM   17  C   UNL     1     -10.861   7.217  68.992  1.00  0.00    -0.146 A  
HETATM   18  C   UNL     1     -12.116  10.548  71.554  1.00  0.00    -0.316 A  
HETATM   19  C   UNL     1     -12.315  11.768  70.920  1.00  0.00    -0.320 A  
HETATM   20  N   UNL     1     -10.116   6.479  68.203  1.00  0.00    -0.145 NA 
HETATM   21  C   UNL     1     -12.024  11.927  69.573  1.00  0.00    -0.355 A  
HETATM   22  F   UNL     1     -12.784  12.807  71.619  1.00  0.00    -0.415 F  
ENDBRANCH   4   6
ENDBRANCH   3   4
ENDBRANCH   2   3
TORSDOF 3
ENDMDL
MODEL      132
REMARK 921   NORMALIZED FREE ENERGY PREDICTED BY IDOCK:   -3.62 KCAL/MOL
REMARK 922        TOTAL FREE ENERGY PREDICTED BY IDOCK:   -4.54 KCAL/MOL
REMARK 923 INTER-LIGAND FREE ENERGY PREDICTED BY IDOCK:   -4.32 KCAL/MOL
REMARK 924 INTRA-LIGAND FREE ENERGY PREDICTED BY IDOCK:   -0.23 KCAL/MOL
REMARK 927      BINDING AFFINITY PREDICTED BY RF-SCORE:    0.00 PKD
ROOT
HETATM    1  C   UNL     1      -5.265  15.607  71.032  1.00  0.00    -0.120 C  
HETATM    2  C   UNL     1      -5.563  15.980  69.590  1.00  0.00    -0.130 C  
ENDROOT
BRANCH   2   3
HETATM    3  O   UNL     1      -6.587  15.104  69.105  1.00  0.00    -0.114 OA 
BRANCH   3   4
HETATM    4  C   UNL     1      -6.548  14.845  67.767  1.00  0.00    -0.168 C  
HETATM    5  O   UNL     1      -6.298  15.683  66.906  1.00  0.00    -0.250 OA 
BRANCH   4   6
HETATM    6  C   UNL     1      -6.740  13.424  67.478  1.00  0.00    -0.140 A  
HETATM    7  C   UNL     1      -7.911  12.694  67.626  1.00  0.00    -0.162 A  
HETATM    8  C   UNL     1      -9.224  13.026  68.224  1.00  0.00    -0.191 C  
HETATM    9  N   UNL     1     -10.213  13.013  67.167  1.00  0.00    -0.241 N  
HETATM   10  C   UNL     1     -11.155  14.117  67.094  1.00  0.00    -0.307 C  
HETATM   11  C   UNL     1     -10.527  11.880  66.430  1.00  0.00    -0.223 C  
HETATM   12  C   UNL     1      -9.909  10.580  66.798  1.00  0.00    -0.237 A  
HETATM   13  O   UNL     1     -11.363  11.884  65.527  1.00  0.00    -0.322 OA 
HETATM   14  C   UNL     1      -8.542  10.362  67.056  1.00  0.00    -0.130 A  
HETATM   15  C   UNL     1      -8.067   9.065  67.302  1.00  0.00    -0.103 A  
HETATM   16  N   UNL     1      -7.635  11.445  67.123  1.00  0.00    -0.137 NA 
HETATM   17  C   UNL     1      -6.308  11.437  66.777  1.00  0.00    -0.142 A  
HETATM   18  C   UNL     1      -8.968   7.998  67.356  1.00  0.00    -0.141 A  
HETATM   19  C   UNL     1     -10.318   8.220  67.114  1.00  0.00    -0.317 A  
HETATM   20  N   UNL     1      -5.744  12.607  66.965  1.00  0.00    -0.310 NA 
HETATM   21  C   UNL     1     -10.789   9.490  66.812  1.00  0.00    -0.031 A  
HETATM   22  F   UNL     1     -11.177   7.198  67.183  1.00  0.00    -0.399 F  
ENDBRANCH   4   6
ENDBRANCH   3   4
ENDBRANCH   2   3
TORSDOF 3
ENDMDL
MODEL      133
REMARK 921   NORMALIZED FREE ENERGY PREDICTED BY IDOCK:   -3.60 KCAL/MOL
REMARK 922        TOTAL FREE ENERGY PREDICTED BY IDOCK:   -4.52 KCAL/MOL
REMARK 923 INTER-LIGAND FREE ENERGY PREDICTED BY IDOCK:   -4.41 KCAL/MOL
REMARK 924 INTRA-LIGAND FREE ENERGY PREDICTED BY IDOCK:   -0.11 KCAL/MOL
REMARK 927      BINDING AFFINITY PREDICTED BY RF-SCORE:    0.00 PKD
ROOT
HETATM    1  C   UNL     1      -9.244   8.381  67.490  1.00  0.00    -0.158 C  
HETATM    2  C   UNL     1     -10.551   9.140  67.350  1.00  0.00    -0.244 C  
ENDROOT
BRANCH   2   3
HETATM    3  O   UNL     1     -10.319  10.277  66.511  1.00  0.00    -0.232 OA 
BRANCH   3   4
HETATM    4  C   UNL     1     -10.926  11.431  66.910  1.00  0.00    -0.299 C  
HETATM    5  O   UNL     1     -12.127  11.540  67.136  1.00  0.00    -0.494 OA 
BRANCH   4   6
HETATM    6  C   UNL     1      -9.961  12.507  67.138  1.00  0.00    -0.216 A  
HETATM    7  C   UNL     1     -10.236  13.797  67.568  1.00  0.00    -0.241 A  
HETATM    8  C   UNL     1     -11.507  14.527  67.779  1.00  0.00    -0.340 C  
HETATM    9  N   UNL     1     -11.629  14.814  69.193  1.00  0.00    -0.286 N  
HETATM   10  C   UNL     1     -12.902  14.548  69.841  1.00  0.00     0.056 C  
HETATM   11  C   UNL     1     -10.735  15.615  69.887  1.00  0.00    -0.322 C  
HETATM   12  C   UNL     1      -9.653  16.311  69.143  1.00  0.00    -0.251 A  
HETATM   13  O   UNL     1     -10.843  15.844  71.091  1.00  0.00    -0.153 OA 
HETATM   14  C   UNL     1      -8.801  15.724  68.189  1.00  0.00    -0.178 A  
HETATM   15  C   UNL     1      -7.754  16.467  67.623  1.00  0.00    -0.167 A  
HETATM   16  N   UNL     1      -9.014  14.399  67.745  1.00  0.00    -0.185 NA 
HETATM   17  C   UNL     1      -8.062  13.497  67.340  1.00  0.00    -0.176 A  
HETATM   18  C   UNL     1      -7.601  17.814  67.963  1.00  0.00    -0.236 A  
HETATM   19  C   UNL     1      -8.452  18.393  68.896  1.00  0.00    -0.147 A  
HETATM   20  N   UNL     1      -8.592  12.351  66.981  1.00  0.00    -0.193 NA 
HETATM   21  C   UNL     1      -9.454  17.651  69.503  1.00  0.00     0.436 A  
HETATM   22  F   UNL     1      -8.311  19.686  69.204  1.00  0.00    -0.379 F  
ENDBRANCH   4   6
ENDBRANCH   3   4
ENDBRANCH   2   3
TORSDOF 3
ENDMDL
MODEL      134
REMARK 921   NORMALIZED FREE ENERGY PREDICTED BY IDOCK:   -3.59 KCAL/MOL
REMARK 922        TOTAL FREE ENERGY PREDICTED BY IDOCK:   -4.50 KCAL/MOL
REMARK 923 INTER-LIGAND FREE ENERGY PREDICTED BY IDOCK:   -4.26 KCAL/MOL
REMARK 924 INTRA-LIGAND FREE ENERGY PREDICTED BY IDOCK:   -0.24 KCAL/MOL
REMARK 927      BINDING AFFINITY PREDICTED BY RF-SCORE:    0.00 PKD
ROOT
HETATM    1  C   UNL     1     -11.407  11.960  66.683  1.00  0.00    -0.400 C  
HETATM    2  C   UNL     1     -10.311  11.089  67.271  1.00  0.00    -0.211 C  
ENDROOT
BRANCH   2   3
HETATM    3  O   UNL     1     -10.661  10.784  68.625  1.00  0.00    -0.181 OA 
BRANCH   3   4
HETATM    4  C   UNL     1      -9.671  10.215  69.371  1.00  0.00    -0.229 C  
HETATM    5  O   UNL     1      -8.485  10.516  69.292  1.00  0.00    -0.157 OA 
BRANCH   4   6
HETATM    6  C   UNL     1     -10.200   9.269  70.354  1.00  0.00    -0.233 A  
HETATM    7  C   UNL     1      -9.856   7.932  70.494  1.00  0.00    -0.186 A  
HETATM    8  C   UNL     1      -9.022   7.027  69.672  1.00  0.00    -0.141 C  
HETATM    9  N   UNL     1      -7.864   6.650  70.455  1.00  0.00    -0.104 N  
HETATM   10  C   UNL     1      -6.558   6.706  69.821  1.00  0.00    -0.048 C  
HETATM   11  C   UNL     1      -7.946   5.942  71.645  1.00  0.00    -0.113 C  
HETATM   12  C   UNL     1      -9.268   5.439  72.102  1.00  0.00    -0.157 A  
HETATM   13  O   UNL     1      -6.955   5.636  72.307  1.00  0.00    -0.077 OA 
HETATM   14  C   UNL     1     -10.460   6.188  72.152  1.00  0.00    -0.202 A  
HETATM   15  C   UNL     1     -11.625   5.625  72.694  1.00  0.00    -0.307 A  
HETATM   16  N   UNL     1     -10.520   7.493  71.615  1.00  0.00    -0.200 NA 
HETATM   17  C   UNL     1     -11.295   8.536  72.054  1.00  0.00    -0.355 A  
HETATM   18  C   UNL     1     -11.615   4.295  73.123  1.00  0.00    -0.129 A  
HETATM   19  C   UNL     1     -10.440   3.556  73.059  1.00  0.00    -0.166 A  
HETATM   20  N   UNL     1     -11.121   9.617  71.331  1.00  0.00    -0.365 NA 
HETATM   21  C   UNL     1      -9.268   4.122  72.579  1.00  0.00    -0.146 A  
HETATM   22  F   UNL     1     -10.441   2.279  73.456  1.00  0.00    -0.152 F  
ENDBRANCH   4   6
ENDBRANCH   3   4
ENDBRANCH   2   3
TORSDOF 3
ENDMDL
MODEL      135
REMARK 921   NORMALIZED FREE ENERGY PREDICTED BY IDOCK:   -3.59 KCAL/MOL
REMARK 922        TOTAL FREE ENERGY PREDICTED BY IDOCK:   -4.50 KCAL/MOL
REMARK 923 INTER-LIGAND FREE ENERGY PREDICTED BY IDOCK:   -4.36 KCAL/MOL
REMARK 924 INTRA-LIGAND FREE ENERGY PREDICTED BY IDOCK:   -0.14 KCAL/MOL
REMARK 927      BINDING AFFINITY PREDICTED BY RF-SCORE:    0.00 PKD
ROOT
HETATM    1  C   UNL     1     -12.120   7.630  71.424  1.00  0.00    -0.342 C  
HETATM    2  C   UNL     1     -11.523   8.959  71.851  1.00  0.00    -0.372 C  
ENDROOT
BRANCH   2   3
HETATM    3  O   UNL     1     -11.219   9.712  70.672  1.00  0.00    -0.269 OA 
BRANCH   3   4
HETATM    4  C   UNL     1     -11.940  10.857  70.509  1.00  0.00    -0.371 C  
HETATM    5  O   UNL     1     -12.434  11.503  71.428  1.00  0.00    -0.316 OA 
BRANCH   4   6
HETATM    6  C   UNL     1     -11.974  11.289  69.111  1.00  0.00    -0.336 A  
HETATM    7  C   UNL     1     -11.920  12.592  68.639  1.00  0.00    -0.223 A  
HETATM    8  C   UNL     1     -11.964  13.903  69.326  1.00  0.00    -0.357 C  
HETATM    9  N   UNL     1     -10.687  14.555  69.129  1.00  0.00    -0.253 N  
HETATM   10  C   UNL     1     -10.041  15.165  70.279  1.00  0.00     0.076 C  
HETATM   11  C   UNL     1     -10.200  14.916  67.881  1.00  0.00    -0.228 C  
HETATM   12  C   UNL     1     -11.061  14.733  66.684  1.00  0.00    -0.333 A  
HETATM   13  O   UNL     1      -9.108  15.461  67.725  1.00  0.00    -0.177 OA 
HETATM   14  C   UNL     1     -11.787  13.571  66.363  1.00  0.00    -0.394 A  
HETATM   15  C   UNL     1     -12.491  13.489  65.151  1.00  0.00    -0.495 A  
HETATM   16  N   UNL     1     -11.864  12.490  67.270  1.00  0.00    -0.475 NA 
HETATM   17  C   UNL     1     -11.973  11.157  66.965  1.00  0.00     0.896 A  
HETATM   18  C   UNL     1     -12.523  14.593  64.295  1.00  0.00    -0.267 A  
HETATM   19  C   UNL     1     -11.815  15.743  64.622  1.00  0.00    -0.071 A  
HETATM   20  N   UNL     1     -12.029  10.409  68.041  1.00  0.00     0.005 NA 
HETATM   21  C   UNL     1     -11.069  15.813  65.790  1.00  0.00    -0.124 A  
HETATM   22  F   UNL     1     -11.862  16.802  63.807  1.00  0.00     0.066 F  
ENDBRANCH   4   6
ENDBRANCH   3   4
ENDBRANCH   2   3
TORSDOF 3
ENDMDL
MODEL      136
REMARK 921   NORMALIZED FREE ENERGY PREDICTED BY IDOCK:   -3.59 KCAL/MOL
REMARK 922        TOTAL FREE ENERGY PREDICTED BY IDOCK:   -4.50 KCAL/MOL
REMARK 923 INTER-LIGAND FREE ENERGY PREDICTED BY IDOCK:   -4.22 KCAL/MOL
REMARK 924 INTRA-LIGAND FREE ENERGY PREDICTED BY IDOCK:   -0.28 KCAL/MOL
REMARK 927      BINDING AFFINITY PREDICTED BY RF-SCORE:    0.00 PKD
ROOT
HETATM    1  C   UNL     1     -11.013  16.312  69.913  1.00  0.00    -0.365 C  
HETATM    2  C   UNL     1     -11.246  16.348  68.413  1.00  0.00    -0.324 C  
ENDROOT
BRANCH   2   3
HETATM    3  O   UNL     1     -11.453  15.005  67.961  1.00  0.00    -0.321 OA 
BRANCH   3   4
HETATM    4  C   UNL     1     -11.271  14.804  66.625  1.00  0.00    -0.346 C  
HETATM    5  O   UNL     1     -11.256  15.699  65.785  1.00  0.00    -0.224 OA 
BRANCH   4   6
HETATM    6  C   UNL     1     -10.994  13.401  66.314  1.00  0.00    -0.288 A  
HETATM    7  C   UNL     1      -9.789  12.733  66.479  1.00  0.00    -0.258 A  
HETATM    8  C   UNL     1      -8.433  13.200  66.847  1.00  0.00    -0.070 C  
HETATM    9  N   UNL     1      -8.091  12.618  68.128  1.00  0.00    -0.156 N  
HETATM   10  C   UNL     1      -7.514  13.483  69.143  1.00  0.00     0.125 C  
HETATM   11  C   UNL     1      -7.977  11.252  68.339  1.00  0.00    -0.140 C  
HETATM   12  C   UNL     1      -8.100  10.326  67.182  1.00  0.00    -0.121 A  
HETATM   13  O   UNL     1      -7.696  10.768  69.434  1.00  0.00    -0.142 OA 
HETATM   14  C   UNL     1      -9.110  10.363  66.202  1.00  0.00    -0.160 A  
HETATM   15  C   UNL     1      -9.169   9.371  65.211  1.00  0.00    -0.299 A  
HETATM   16  N   UNL     1     -10.047  11.420  66.166  1.00  0.00    -0.223 NA 
HETATM   17  C   UNL     1     -11.352  11.358  65.746  1.00  0.00    -0.008 A  
HETATM   18  C   UNL     1      -8.181   8.384  65.161  1.00  0.00    -0.158 A  
HETATM   19  C   UNL     1      -7.179   8.359  66.123  1.00  0.00    -0.077 A  
HETATM   20  N   UNL     1     -11.952  12.521  65.832  1.00  0.00    -0.544 NA 
HETATM   21  C   UNL     1      -7.145   9.301  67.141  1.00  0.00    -0.086 A  
HETATM   22  F   UNL     1      -6.227   7.422  66.060  1.00  0.00    -0.037 F  
ENDBRANCH   4   6
ENDBRANCH   3   4
ENDBRANCH   2   3
TORSDOF 3
ENDMDL
MODEL      137
REMARK 921   NORMALIZED FREE ENERGY PREDICTED BY IDOCK:   -3.55 KCAL/MOL
REMARK 922        TOTAL FREE ENERGY PREDICTED BY IDOCK:   -4.46 KCAL/MOL
REMARK 923 INTER-LIGAND FREE ENERGY PREDICTED BY IDOCK:   -4.46 KCAL/MOL
REMARK 924 INTRA-LIGAND FREE ENERGY PREDICTED BY IDOCK:    0.01 KCAL/MOL
REMARK 927      BINDING AFFINITY PREDICTED BY RF-SCORE:    0.00 PKD
ROOT
HETATM    1  C   UNL     1      -8.333  10.950  65.223  1.00  0.00    -0.025 C  
HETATM    2  C   UNL     1      -9.233   9.912  65.870  1.00  0.00    -0.176 C  
ENDROOT
BRANCH   2   3
HETATM    3  O   UNL     1     -10.034  10.569  66.858  1.00  0.00    -0.186 OA 
BRANCH   3   4
HETATM    4  C   UNL     1     -10.774   9.744  67.652  1.00  0.00    -0.274 C  
HETATM    5  O   UNL     1     -10.754   8.519  67.588  1.00  0.00    -0.219 OA 
BRANCH   4   6
HETATM    6  C   UNL     1     -11.525  10.487  68.665  1.00  0.00    -0.223 A  
HETATM    7  C   UNL     1     -11.226  11.744  69.168  1.00  0.00    -0.264 A  
HETATM    8  C   UNL     1     -10.058  12.637  68.991  1.00  0.00     0.186 C  
HETATM    9  N   UNL     1     -10.504  13.826  68.296  1.00  0.00    -0.241 N  
HETATM   10  C   UNL     1      -9.706  14.310  67.182  1.00  0.00    -0.254 C  
HETATM   11  C   UNL     1     -11.444  14.705  68.814  1.00  0.00    -0.296 C  
HETATM   12  C   UNL     1     -11.951  14.495  70.195  1.00  0.00    -0.377 A  
HETATM   13  O   UNL     1     -11.823  15.707  68.209  1.00  0.00    -0.318 OA 
HETATM   14  C   UNL     1     -12.404  13.273  70.729  1.00  0.00    -0.344 A  
HETATM   15  C   UNL     1     -12.948  13.225  72.021  1.00  0.00    -0.401 A  
HETATM   16  N   UNL     1     -12.271  12.070  69.999  1.00  0.00    -0.245 NA 
HETATM   17  C   UNL     1     -13.106  10.981  70.036  1.00  0.00     0.303 A  
HETATM   18  C   UNL     1     -12.979  14.384  72.801  1.00  0.00    -0.555 A  
HETATM   19  C   UNL     1     -12.520  15.585  72.275  1.00  0.00    -0.393 A  
HETATM   20  N   UNL     1     -12.697  10.021  69.242  1.00  0.00     0.713 NA 
HETATM   21  C   UNL     1     -12.033  15.654  70.978  1.00  0.00    -0.445 A  
HETATM   22  F   UNL     1     -12.537  16.686  73.032  1.00  0.00    -0.429 F  
ENDBRANCH   4   6
ENDBRANCH   3   4
ENDBRANCH   2   3
TORSDOF 3
ENDMDL
MODEL      138
REMARK 921   NORMALIZED FREE ENERGY PREDICTED BY IDOCK:   -3.54 KCAL/MOL
REMARK 922        TOTAL FREE ENERGY PREDICTED BY IDOCK:   -4.45 KCAL/MOL
REMARK 923 INTER-LIGAND FREE ENERGY PREDICTED BY IDOCK:   -4.38 KCAL/MOL
REMARK 924 INTRA-LIGAND FREE ENERGY PREDICTED BY IDOCK:   -0.06 KCAL/MOL
REMARK 927      BINDING AFFINITY PREDICTED BY RF-SCORE:    0.00 PKD
ROOT
HETATM    1  C   UNL     1     -12.281  12.232  63.672  1.00  0.00    -0.665 C  
HETATM    2  C   UNL     1     -11.552  12.977  64.775  1.00  0.00    -0.329 C  
ENDROOT
BRANCH   2   3
HETATM    3  O   UNL     1     -10.947  12.012  65.643  1.00  0.00    -0.279 OA 
BRANCH   3   4
HETATM    4  C   UNL     1     -11.415  12.003  66.923  1.00  0.00    -0.337 C  
HETATM    5  O   UNL     1     -12.400  12.627  67.305  1.00  0.00    -0.352 OA 
BRANCH   4   6
HETATM    6  C   UNL     1     -10.666  11.077  67.774  1.00  0.00    -0.227 A  
HETATM    7  C   UNL     1     -10.047   9.899  67.382  1.00  0.00    -0.205 A  
HETATM    8  C   UNL     1     -10.057   9.145  66.107  1.00  0.00    -0.208 C  
HETATM    9  N   UNL     1      -8.716   9.173  65.561  1.00  0.00    -0.169 N  
HETATM   10  C   UNL     1      -8.555   9.484  64.151  1.00  0.00    -0.201 C  
HETATM   11  C   UNL     1      -7.620   8.614  66.202  1.00  0.00    -0.093 C  
HETATM   12  C   UNL     1      -7.826   7.849  67.459  1.00  0.00    -0.122 A  
HETATM   13  O   UNL     1      -6.484   8.652  65.732  1.00  0.00    -0.055 OA 
HETATM   14  C   UNL     1      -8.596   8.269  68.561  1.00  0.00    -0.133 A  
HETATM   15  C   UNL     1      -8.635   7.495  69.731  1.00  0.00    -0.140 A  
HETATM   16  N   UNL     1      -9.380   9.442  68.493  1.00  0.00    -0.137 NA 
HETATM   17  C   UNL     1      -9.685  10.297  69.521  1.00  0.00    -0.211 A  
HETATM   18  C   UNL     1      -7.959   6.273  69.775  1.00  0.00    -0.118 A  
HETATM   19  C   UNL     1      -7.212   5.856  68.680  1.00  0.00    -0.083 A  
HETATM   20  N   UNL     1     -10.443  11.292  69.126  1.00  0.00    -0.195 NA 
HETATM   21  C   UNL     1      -7.119   6.641  67.540  1.00  0.00    -0.084 A  
HETATM   22  F   UNL     1      -6.581   4.678  68.721  1.00  0.00    -0.039 F  
ENDBRANCH   4   6
ENDBRANCH   3   4
ENDBRANCH   2   3
TORSDOF 3
ENDMDL
MODEL      139
REMARK 921   NORMALIZED FREE ENERGY PREDICTED BY IDOCK:   -3.51 KCAL/MOL
REMARK 922        TOTAL FREE ENERGY PREDICTED BY IDOCK:   -4.41 KCAL/MOL
REMARK 923 INTER-LIGAND FREE ENERGY PREDICTED BY IDOCK:   -4.07 KCAL/MOL
REMARK 924 INTRA-LIGAND FREE ENERGY PREDICTED BY IDOCK:   -0.33 KCAL/MOL
REMARK 927      BINDING AFFINITY PREDICTED BY RF-SCORE:    0.00 PKD
ROOT
HETATM    1  C   UNL     1      -6.324  14.828  70.192  1.00  0.00    -0.169 C  
HETATM    2  C   UNL     1      -5.674  14.407  68.885  1.00  0.00    -0.082 C  
ENDROOT
BRANCH   2   3
HETATM    3  O   UNL     1      -6.645  13.691  68.114  1.00  0.00    -0.094 OA 
BRANCH   3   4
HETATM    4  C   UNL     1      -6.282  12.430  67.745  1.00  0.00    -0.111 C  
HETATM    5  O   UNL     1      -5.616  12.164  66.750  1.00  0.00    -0.301 OA 
BRANCH   4   6
HETATM    6  C   UNL     1      -6.694  11.430  68.731  1.00  0.00    -0.073 A  
HETATM    7  C   UNL     1      -7.980  10.958  68.952  1.00  0.00    -0.146 A  
HETATM    8  C   UNL     1      -9.299  11.375  68.424  1.00  0.00    -0.194 C  
HETATM    9  N   UNL     1      -9.825  10.289  67.624  1.00  0.00    -0.167 N  
HETATM   10  C   UNL     1     -10.387  10.604  66.322  1.00  0.00    -0.234 C  
HETATM   11  C   UNL     1     -10.120   9.035  68.141  1.00  0.00    -0.191 C  
HETATM   12  C   UNL     1     -10.002   8.806  69.604  1.00  0.00    -0.191 A  
HETATM   13  O   UNL     1     -10.557   8.117  67.449  1.00  0.00    -0.279 OA 
HETATM   14  C   UNL     1      -8.908   9.177  70.409  1.00  0.00    -0.220 A  
HETATM   15  C   UNL     1      -8.875   8.819  71.766  1.00  0.00    -0.256 A  
HETATM   16  N   UNL     1      -7.852   9.957  69.885  1.00  0.00    -0.160 NA 
HETATM   17  C   UNL     1      -6.531   9.919  70.252  1.00  0.00    -0.103 A  
HETATM   18  C   UNL     1      -9.965   8.150  72.330  1.00  0.00    -0.332 A  
HETATM   19  C   UNL     1     -11.048   7.797  71.534  1.00  0.00    -0.236 A  
HETATM   20  N   UNL     1      -5.807  10.778  69.574  1.00  0.00    -0.040 NA 
HETATM   21  C   UNL     1     -11.064   8.095  70.179  1.00  0.00    -0.187 A  
HETATM   22  F   UNL     1     -12.094   7.171  72.083  1.00  0.00    -0.307 F  
ENDBRANCH   4   6
ENDBRANCH   3   4
ENDBRANCH   2   3
TORSDOF 3
ENDMDL
MODEL      140
REMARK 921   NORMALIZED FREE ENERGY PREDICTED BY IDOCK:   -3.50 KCAL/MOL
REMARK 922        TOTAL FREE ENERGY PREDICTED BY IDOCK:   -4.40 KCAL/MOL
REMARK 923 INTER-LIGAND FREE ENERGY PREDICTED BY IDOCK:   -4.14 KCAL/MOL
REMARK 924 INTRA-LIGAND FREE ENERGY PREDICTED BY IDOCK:   -0.27 KCAL/MOL
REMARK 927      BINDING AFFINITY PREDICTED BY RF-SCORE:    0.00 PKD
ROOT
HETATM    1  C   UNL     1      -8.766   2.626  70.637  1.00  0.00    -0.124 C  
HETATM    2  C   UNL     1      -9.153   4.085  70.799  1.00  0.00    -0.110 C  
ENDROOT
BRANCH   2   3
HETATM    3  O   UNL     1      -8.206   4.881  70.078  1.00  0.00    -0.072 OA 
BRANCH   3   4
HETATM    4  C   UNL     1      -8.126   6.186  70.465  1.00  0.00    -0.113 C  
HETATM    5  O   UNL     1      -7.987   6.558  71.626  1.00  0.00    -0.103 OA 
BRANCH   4   6
HETATM    6  C   UNL     1      -8.120   7.098  69.320  1.00  0.00    -0.120 A  
HETATM    7  C   UNL     1      -9.182   7.862  68.857  1.00  0.00    -0.144 A  
HETATM    8  C   UNL     1     -10.615   7.903  69.228  1.00  0.00    -0.188 C  
HETATM    9  N   UNL     1     -10.890   9.200  69.810  1.00  0.00    -0.227 N  
HETATM   10  C   UNL     1     -11.659   9.251  71.042  1.00  0.00    -0.313 C  
HETATM   11  C   UNL     1     -10.751  10.393  69.115  1.00  0.00    -0.234 C  
HETATM   12  C   UNL     1     -10.412  10.356  67.669  1.00  0.00    -0.277 A  
HETATM   13  O   UNL     1     -10.978  11.490  69.624  1.00  0.00    -0.181 OA 
HETATM   14  C   UNL     1      -9.390   9.584  67.083  1.00  0.00    -0.143 A  
HETATM   15  C   UNL     1      -9.107   9.709  65.714  1.00  0.00    -0.230 A  
HETATM   16  N   UNL     1      -8.669   8.637  67.845  1.00  0.00    -0.137 NA 
HETATM   17  C   UNL     1      -7.361   8.258  67.676  1.00  0.00    -0.093 A  
HETATM   18  C   UNL     1      -9.887  10.554  64.921  1.00  0.00    -0.379 A  
HETATM   19  C   UNL     1     -10.903  11.304  65.501  1.00  0.00    -0.179 A  
HETATM   20  N   UNL     1      -6.996   7.349  68.548  1.00  0.00    -0.076 NA 
HETATM   21  C   UNL     1     -11.153  11.231  66.864  1.00  0.00    -0.339 A  
HETATM   22  F   UNL     1     -11.657  12.098  64.735  1.00  0.00    -0.357 F  
ENDBRANCH   4   6
ENDBRANCH   3   4
ENDBRANCH   2   3
TORSDOF 3
ENDMDL
MODEL      141
REMARK 921   NORMALIZED FREE ENERGY PREDICTED BY IDOCK:   -3.50 KCAL/MOL
REMARK 922        TOTAL FREE ENERGY PREDICTED BY IDOCK:   -4.40 KCAL/MOL
REMARK 923 INTER-LIGAND FREE ENERGY PREDICTED BY IDOCK:   -4.37 KCAL/MOL
REMARK 924 INTRA-LIGAND FREE ENERGY PREDICTED BY IDOCK:   -0.03 KCAL/MOL
REMARK 927      BINDING AFFINITY PREDICTED BY RF-SCORE:    0.00 PKD
ROOT
HETATM    1  C   UNL     1      -5.933  14.669  71.096  1.00  0.00    -0.028 C  
HETATM    2  C   UNL     1      -6.597  15.715  70.218  1.00  0.00     0.123 C  
ENDROOT
BRANCH   2   3
HETATM    3  O   UNL     1      -7.791  15.146  69.670  1.00  0.00    -0.213 OA 
BRANCH   3   4
HETATM    4  C   UNL     1      -8.628  16.027  69.053  1.00  0.00    -0.244 C  
HETATM    5  O   UNL     1      -8.697  17.222  69.321  1.00  0.00    -0.033 OA 
BRANCH   4   6
HETATM    6  C   UNL     1      -9.369  15.402  67.956  1.00  0.00    -0.196 A  
HETATM    7  C   UNL     1      -9.000  14.276  67.236  1.00  0.00    -0.213 A  
HETATM    8  C   UNL     1      -7.759  13.467  67.217  1.00  0.00    -0.077 C  
HETATM    9  N   UNL     1      -8.078  12.146  67.716  1.00  0.00    -0.141 N  
HETATM   10  C   UNL     1      -7.191  11.552  68.702  1.00  0.00    -0.102 C  
HETATM   11  C   UNL     1      -8.972  11.290  67.090  1.00  0.00    -0.155 C  
HETATM   12  C   UNL     1      -9.562  11.683  65.783  1.00  0.00    -0.255 A  
HETATM   13  O   UNL     1      -9.242  10.173  67.529  1.00  0.00    -0.137 OA 
HETATM   14  C   UNL     1     -10.132  12.934  65.482  1.00  0.00    -0.257 A  
HETATM   15  C   UNL     1     -10.742  13.151  64.236  1.00  0.00    -0.431 A  
HETATM   16  N   UNL     1     -10.057  14.006  66.399  1.00  0.00    -0.286 NA 
HETATM   17  C   UNL     1     -10.973  15.012  66.578  1.00  0.00    -0.327 A  
HETATM   18  C   UNL     1     -10.722  12.140  63.272  1.00  0.00    -0.373 A  
HETATM   19  C   UNL     1     -10.147  10.911  63.570  1.00  0.00    -0.347 A  
HETATM   20  N   UNL     1     -10.600  15.858  67.508  1.00  0.00    -0.309 NA 
HETATM   21  C   UNL     1      -9.592  10.668  64.818  1.00  0.00    -0.334 A  
HETATM   22  F   UNL     1     -10.116   9.953  62.638  1.00  0.00    -0.034 F  
ENDBRANCH   4   6
ENDBRANCH   3   4
ENDBRANCH   2   3
TORSDOF 3
ENDMDL
MODEL      142
REMARK 921   NORMALIZED FREE ENERGY PREDICTED BY IDOCK:   -3.48 KCAL/MOL
REMARK 922        TOTAL FREE ENERGY PREDICTED BY IDOCK:   -4.38 KCAL/MOL
REMARK 923 INTER-LIGAND FREE ENERGY PREDICTED BY IDOCK:   -4.29 KCAL/MOL
REMARK 924 INTRA-LIGAND FREE ENERGY PREDICTED BY IDOCK:   -0.09 KCAL/MOL
REMARK 927      BINDING AFFINITY PREDICTED BY RF-SCORE:    0.00 PKD
ROOT
HETATM    1  C   UNL     1      -9.658  10.559  63.126  1.00  0.00    -0.375 C  
HETATM    2  C   UNL     1      -9.012  10.576  64.500  1.00  0.00    -0.209 C  
ENDROOT
BRANCH   2   3
HETATM    3  O   UNL     1      -9.268   9.316  65.130  1.00  0.00    -0.234 OA 
BRANCH   3   4
HETATM    4  C   UNL     1      -8.800   9.195  66.405  1.00  0.00    -0.141 C  
HETATM    5  O   UNL     1      -8.392  10.130  67.085  1.00  0.00    -0.124 OA 
BRANCH   4   6
HETATM    6  C   UNL     1      -8.935   7.827  66.910  1.00  0.00    -0.134 A  
HETATM    7  C   UNL     1      -9.197   7.443  68.217  1.00  0.00    -0.137 A  
HETATM    8  C   UNL     1      -9.271   8.206  69.484  1.00  0.00    -0.158 C  
HETATM    9  N   UNL     1     -10.634   8.143  69.966  1.00  0.00    -0.236 N  
HETATM   10  C   UNL     1     -11.260   9.373  70.421  1.00  0.00    -0.262 C  
HETATM   11  C   UNL     1     -11.262   6.958  70.322  1.00  0.00    -0.316 C  
HETATM   12  C   UNL     1     -10.482   5.693  70.321  1.00  0.00    -0.363 A  
HETATM   13  O   UNL     1     -12.425   6.916  70.722  1.00  0.00    -0.356 OA 
HETATM   14  C   UNL     1      -9.638   5.248  69.286  1.00  0.00    -0.155 A  
HETATM   15  C   UNL     1      -9.029   3.987  69.365  1.00  0.00    -0.167 A  
HETATM   16  N   UNL     1      -9.348   6.078  68.180  1.00  0.00    -0.115 NA 
HETATM   17  C   UNL     1      -9.090   5.683  66.891  1.00  0.00    -0.116 A  
HETATM   18  C   UNL     1      -9.210   3.201  70.506  1.00  0.00    -0.210 A  
HETATM   19  C   UNL     1     -10.034   3.650  71.531  1.00  0.00    -0.111 A  
HETATM   20  N   UNL     1      -8.851   6.703  66.102  1.00  0.00    -0.150 NA 
HETATM   21  C   UNL     1     -10.687   4.871  71.437  1.00  0.00    -0.028 A  
HETATM   22  F   UNL     1     -10.191   2.902  72.627  1.00  0.00    -0.194 F  
ENDBRANCH   4   6
ENDBRANCH   3   4
ENDBRANCH   2   3
TORSDOF 3
ENDMDL
MODEL      143
REMARK 921   NORMALIZED FREE ENERGY PREDICTED BY IDOCK:   -3.41 KCAL/MOL
REMARK 922        TOTAL FREE ENERGY PREDICTED BY IDOCK:   -4.30 KCAL/MOL
REMARK 923 INTER-LIGAND FREE ENERGY PREDICTED BY IDOCK:   -4.52 KCAL/MOL
REMARK 924 INTRA-LIGAND FREE ENERGY PREDICTED BY IDOCK:    0.23 KCAL/MOL
REMARK 927      BINDING AFFINITY PREDICTED BY RF-SCORE:    0.00 PKD
ROOT
HETATM    1  C   UNL     1     -10.483  11.871  66.699  1.00  0.00    -0.250 C  
HETATM    2  C   UNL     1     -11.066  13.099  67.376  1.00  0.00    -0.275 C  
ENDROOT
BRANCH   2   3
HETATM    3  O   UNL     1     -11.518  12.717  68.680  1.00  0.00    -0.257 OA 
BRANCH   3   4
HETATM    4  C   UNL     1     -11.509  13.710  69.614  1.00  0.00    -0.221 C  
HETATM    5  O   UNL     1     -11.806  13.554  70.794  1.00  0.00    -0.237 OA 
BRANCH   4   6
HETATM    6  C   UNL     1     -11.005  14.972  69.069  1.00  0.00    -0.249 A  
HETATM    7  C   UNL     1      -9.698  15.434  69.109  1.00  0.00    -0.252 A  
HETATM    8  C   UNL     1      -8.485  14.934  69.796  1.00  0.00     0.193 C  
HETATM    9  N   UNL     1      -7.534  14.524  68.784  1.00  0.00    -0.126 N  
HETATM   10  C   UNL     1      -6.867  13.244  68.947  1.00  0.00    -0.103 C  
HETATM   11  C   UNL     1      -6.984  15.397  67.857  1.00  0.00    -0.145 C  
HETATM   12  C   UNL     1      -7.287  16.849  67.956  1.00  0.00    -0.175 A  
HETATM   13  O   UNL     1      -6.184  15.035  66.995  1.00  0.00    -0.169 OA 
HETATM   14  C   UNL     1      -8.565  17.413  68.130  1.00  0.00    -0.248 A  
HETATM   15  C   UNL     1      -8.731  18.806  68.114  1.00  0.00    -0.335 A  
HETATM   16  N   UNL     1      -9.692  16.595  68.373  1.00  0.00    -0.235 NA 
HETATM   17  C   UNL     1     -10.988  16.834  67.995  1.00  0.00    -0.296 A  
HETATM   18  C   UNL     1      -7.611  19.633  67.992  1.00  0.00    -0.334 A  
HETATM   19  C   UNL     1      -6.350  19.073  67.834  1.00  0.00    -0.211 A  
HETATM   20  N   UNL     1     -11.799  15.879  68.383  1.00  0.00    -0.246 NA 
HETATM   21  C   UNL     1      -6.183  17.696  67.790  1.00  0.00    -0.176 A  
HETATM   22  F   UNL     1      -5.281  19.869  67.734  1.00  0.00    -0.176 F  
ENDBRANCH   4   6
ENDBRANCH   3   4
ENDBRANCH   2   3
TORSDOF 3
ENDMDL
MODEL      144
REMARK 921   NORMALIZED FREE ENERGY PREDICTED BY IDOCK:   -3.41 KCAL/MOL
REMARK 922        TOTAL FREE ENERGY PREDICTED BY IDOCK:   -4.29 KCAL/MOL
REMARK 923 INTER-LIGAND FREE ENERGY PREDICTED BY IDOCK:   -3.94 KCAL/MOL
REMARK 924 INTRA-LIGAND FREE ENERGY PREDICTED BY IDOCK:   -0.35 KCAL/MOL
REMARK 927      BINDING AFFINITY PREDICTED BY RF-SCORE:    0.00 PKD
ROOT
HETATM    1  C   UNL     1     -10.457  11.364  63.263  1.00  0.00    -0.397 C  
HETATM    2  C   UNL     1      -9.273  10.438  63.048  1.00  0.00    -0.295 C  
ENDROOT
BRANCH   2   3
HETATM    3  O   UNL     1      -9.333   9.400  64.032  1.00  0.00    -0.089 OA 
BRANCH   3   4
HETATM    4  C   UNL     1      -8.614   9.629  65.167  1.00  0.00    -0.157 C  
HETATM    5  O   UNL     1      -7.493  10.126  65.189  1.00  0.00    -0.134 OA 
BRANCH   4   6
HETATM    6  C   UNL     1      -9.377   9.305  66.374  1.00  0.00    -0.192 A  
HETATM    7  C   UNL     1      -9.217   8.194  67.189  1.00  0.00    -0.145 A  
HETATM    8  C   UNL     1      -8.396   6.969  67.053  1.00  0.00    -0.121 C  
HETATM    9  N   UNL     1      -7.404   6.975  68.107  1.00  0.00    -0.094 N  
HETATM   10  C   UNL     1      -6.029   6.660  67.759  1.00  0.00    -0.024 C  
HETATM   11  C   UNL     1      -7.726   6.941  69.457  1.00  0.00    -0.104 C  
HETATM   12  C   UNL     1      -9.147   6.781  69.861  1.00  0.00    -0.144 A  
HETATM   13  O   UNL     1      -6.874   6.956  70.344  1.00  0.00    -0.055 OA 
HETATM   14  C   UNL     1     -10.237   7.507  69.344  1.00  0.00    -0.204 A  
HETATM   15  C   UNL     1     -11.522   7.328  69.878  1.00  0.00    -0.085 A  
HETATM   16  N   UNL     1     -10.069   8.386  68.250  1.00  0.00    -0.192 NA 
HETATM   17  C   UNL     1     -10.765   9.541  67.999  1.00  0.00    -0.212 A  
HETATM   18  C   UNL     1     -11.728   6.377  70.881  1.00  0.00    -0.366 A  
HETATM   19  C   UNL     1     -10.652   5.653  71.379  1.00  0.00    -0.253 A  
HETATM   20  N   UNL     1     -10.370  10.123  66.893  1.00  0.00    -0.235 NA 
HETATM   21  C   UNL     1      -9.367   5.864  70.898  1.00  0.00    -0.180 A  
HETATM   22  F   UNL     1     -10.857   4.734  72.327  1.00  0.00    -0.265 F  
ENDBRANCH   4   6
ENDBRANCH   3   4
ENDBRANCH   2   3
TORSDOF 3
ENDMDL
MODEL      145
REMARK 921   NORMALIZED FREE ENERGY PREDICTED BY IDOCK:   -3.40 KCAL/MOL
REMARK 922        TOTAL FREE ENERGY PREDICTED BY IDOCK:   -4.28 KCAL/MOL
REMARK 923 INTER-LIGAND FREE ENERGY PREDICTED BY IDOCK:   -4.01 KCAL/MOL
REMARK 924 INTRA-LIGAND FREE ENERGY PREDICTED BY IDOCK:   -0.26 KCAL/MOL
REMARK 927      BINDING AFFINITY PREDICTED BY RF-SCORE:    0.00 PKD
ROOT
HETATM    1  C   UNL     1      -7.957   6.549  66.045  1.00  0.00    -0.112 C  
HETATM    2  C   UNL     1      -9.042   7.371  66.718  1.00  0.00    -0.151 C  
ENDROOT
BRANCH   2   3
HETATM    3  O   UNL     1      -8.868   8.739  66.334  1.00  0.00    -0.133 OA 
BRANCH   3   4
HETATM    4  C   UNL     1      -9.637   9.639  67.011  1.00  0.00    -0.173 C  
HETATM    5  O   UNL     1     -10.845   9.521  67.191  1.00  0.00    -0.224 OA 
BRANCH   4   6
HETATM    6  C   UNL     1      -8.836  10.717  67.592  1.00  0.00    -0.132 A  
HETATM    7  C   UNL     1      -9.026  12.081  67.423  1.00  0.00    -0.176 A  
HETATM    8  C   UNL     1      -9.930  12.860  66.547  1.00  0.00    -0.259 C  
HETATM    9  N   UNL     1     -10.864  13.576  67.390  1.00  0.00    -0.266 N  
HETATM   10  C   UNL     1     -12.273  13.545  67.036  1.00  0.00    -0.303 C  
HETATM   11  C   UNL     1     -10.477  14.540  68.310  1.00  0.00    -0.242 C  
HETATM   12  C   UNL     1      -9.050  14.952  68.372  1.00  0.00    -0.185 A  
HETATM   13  O   UNL     1     -11.279  15.135  69.028  1.00  0.00    -0.244 OA 
HETATM   14  C   UNL     1      -7.944  14.082  68.413  1.00  0.00    -0.143 A  
HETATM   15  C   UNL     1      -6.647  14.596  68.567  1.00  0.00    -0.095 A  
HETATM   16  N   UNL     1      -8.110  12.689  68.247  1.00  0.00    -0.158 NA 
HETATM   17  C   UNL     1      -7.354  11.691  68.808  1.00  0.00    -0.118 A  
HETATM   18  C   UNL     1      -6.452  15.979  68.614  1.00  0.00    -0.118 A  
HETATM   19  C   UNL     1      -7.546  16.834  68.561  1.00  0.00    -0.217 A  
HETATM   20  N   UNL     1      -7.767  10.499  68.448  1.00  0.00    -0.099 NA 
HETATM   21  C   UNL     1      -8.837  16.334  68.466  1.00  0.00    -0.219 A  
HETATM   22  F   UNL     1      -7.353  18.156  68.589  1.00  0.00    -0.247 F  
ENDBRANCH   4   6
ENDBRANCH   3   4
ENDBRANCH   2   3
TORSDOF 3
ENDMDL
MODEL      146
REMARK 921   NORMALIZED FREE ENERGY PREDICTED BY IDOCK:   -3.37 KCAL/MOL
REMARK 922        TOTAL FREE ENERGY PREDICTED BY IDOCK:   -4.25 KCAL/MOL
REMARK 923 INTER-LIGAND FREE ENERGY PREDICTED BY IDOCK:   -4.07 KCAL/MOL
REMARK 924 INTRA-LIGAND FREE ENERGY PREDICTED BY IDOCK:   -0.18 KCAL/MOL
REMARK 927      BINDING AFFINITY PREDICTED BY RF-SCORE:    0.00 PKD
ROOT
HETATM    1  C   UNL     1      -7.294  13.339  68.754  1.00  0.00    -0.070 C  
HETATM    2  C   UNL     1      -8.214  13.027  67.588  1.00  0.00    -0.171 C  
ENDROOT
BRANCH   2   3
HETATM    3  O   UNL     1      -9.514  13.544  67.894  1.00  0.00    -0.200 OA 
BRANCH   3   4
HETATM    4  C   UNL     1     -10.393  12.643  68.416  1.00  0.00    -0.235 C  
HETATM    5  O   UNL     1     -11.198  12.896  69.306  1.00  0.00    -0.243 OA 
BRANCH   4   6
HETATM    6  C   UNL     1     -10.338  11.357  67.720  1.00  0.00    -0.182 A  
HETATM    7  C   UNL     1     -10.041  10.120  68.274  1.00  0.00    -0.156 A  
HETATM    8  C   UNL     1      -9.562   9.720  69.617  1.00  0.00    -0.221 C  
HETATM    9  N   UNL     1     -10.601   8.934  70.248  1.00  0.00    -0.210 N  
HETATM   10  C   UNL     1     -10.951   9.237  71.626  1.00  0.00    -0.363 C  
HETATM   11  C   UNL     1     -11.052   7.723  69.745  1.00  0.00    -0.089 C  
HETATM   12  C   UNL     1     -10.374   7.129  68.563  1.00  0.00    -0.203 A  
HETATM   13  O   UNL     1     -11.943   7.069  70.285  1.00  0.00    -0.251 OA 
HETATM   14  C   UNL     1     -10.049   7.808  67.374  1.00  0.00    -0.222 A  
HETATM   15  C   UNL     1      -9.493   7.110  66.291  1.00  0.00    -0.125 A  
HETATM   16  N   UNL     1     -10.227   9.206  67.266  1.00  0.00    -0.234 NA 
HETATM   17  C   UNL     1     -10.539   9.917  66.135  1.00  0.00     0.020 A  
HETATM   18  C   UNL     1      -9.202   5.750  66.422  1.00  0.00    -0.160 A  
HETATM   19  C   UNL     1      -9.512   5.086  67.602  1.00  0.00    -0.132 A  
HETATM   20  N   UNL     1     -10.625  11.205  66.372  1.00  0.00    -0.260 NA 
HETATM   21  C   UNL     1     -10.115   5.755  68.658  1.00  0.00    -0.227 A  
HETATM   22  F   UNL     1      -9.216   3.789  67.728  1.00  0.00    -0.139 F  
ENDBRANCH   4   6
ENDBRANCH   3   4
ENDBRANCH   2   3
TORSDOF 3
ENDMDL
MODEL      147
REMARK 921   NORMALIZED FREE ENERGY PREDICTED BY IDOCK:   -3.36 KCAL/MOL
REMARK 922        TOTAL FREE ENERGY PREDICTED BY IDOCK:   -4.24 KCAL/MOL
REMARK 923 INTER-LIGAND FREE ENERGY PREDICTED BY IDOCK:   -4.19 KCAL/MOL
REMARK 924 INTRA-LIGAND FREE ENERGY PREDICTED BY IDOCK:   -0.05 KCAL/MOL
REMARK 927      BINDING AFFINITY PREDICTED BY RF-SCORE:    0.00 PKD
ROOT
HETATM    1  C   UNL     1     -10.140   6.346  74.208  1.00  0.00    -0.365 C  
HETATM    2  C   UNL     1     -10.818   6.781  72.921  1.00  0.00    -0.272 C  
ENDROOT
BRANCH   2   3
HETATM    3  O   UNL     1      -9.810   7.259  72.024  1.00  0.00    -0.162 OA 
BRANCH   3   4
HETATM    4  C   UNL     1      -9.653   6.534  70.880  1.00  0.00    -0.175 C  
HETATM    5  O   UNL     1      -9.371   5.340  70.850  1.00  0.00    -0.145 OA 
BRANCH   4   6
HETATM    6  C   UNL     1      -9.962   7.321  69.686  1.00  0.00    -0.176 A  
HETATM    7  C   UNL     1      -9.625   8.646  69.450  1.00  0.00    -0.166 A  
HETATM    8  C   UNL     1      -9.025   9.690  70.312  1.00  0.00    -0.219 C  
HETATM    9  N   UNL     1      -7.726  10.027  69.769  1.00  0.00    -0.153 N  
HETATM   10  C   UNL     1      -6.602  10.120  70.685  1.00  0.00    -0.064 C  
HETATM   11  C   UNL     1      -7.546  10.577  68.508  1.00  0.00    -0.097 C  
HETATM   12  C   UNL     1      -8.738  10.947  67.701  1.00  0.00    -0.127 A  
HETATM   13  O   UNL     1      -6.436  10.850  68.054  1.00  0.00    -0.057 OA 
HETATM   14  C   UNL     1      -9.868  10.136  67.481  1.00  0.00    -0.177 A  
HETATM   15  C   UNL     1     -10.888  10.565  66.619  1.00  0.00    -0.166 A  
HETATM   16  N   UNL     1     -10.020   8.906  68.160  1.00  0.00    -0.169 NA 
HETATM   17  C   UNL     1     -10.649   7.777  67.700  1.00  0.00    -0.213 A  
HETATM   18  C   UNL     1     -10.810  11.830  66.031  1.00  0.00    -0.343 A  
HETATM   19  C   UNL     1      -9.699  12.632  66.260  1.00  0.00    -0.259 A  
HETATM   20  N   UNL     1     -10.623   6.806  68.581  1.00  0.00    -0.211 NA 
HETATM   21  C   UNL     1      -8.657  12.194  67.065  1.00  0.00    -0.191 A  
HETATM   22  F   UNL     1      -9.637  13.848  65.708  1.00  0.00    -0.278 F  
ENDBRANCH   4   6
ENDBRANCH   3   4
ENDBRANCH   2   3
TORSDOF 3
ENDMDL
MODEL      148
REMARK 921   NORMALIZED FREE ENERGY PREDICTED BY IDOCK:   -3.31 KCAL/MOL
REMARK 922        TOTAL FREE ENERGY PREDICTED BY IDOCK:   -4.17 KCAL/MOL
REMARK 923 INTER-LIGAND FREE ENERGY PREDICTED BY IDOCK:   -4.05 KCAL/MOL
REMARK 924 INTRA-LIGAND FREE ENERGY PREDICTED BY IDOCK:   -0.12 KCAL/MOL
REMARK 927      BINDING AFFINITY PREDICTED BY RF-SCORE:    0.00 PKD
ROOT
HETATM    1  C   UNL     1      -5.946   6.371  63.042  1.00  0.00    -0.026 C  
HETATM    2  C   UNL     1      -7.232   7.141  62.800  1.00  0.00    -0.068 C  
ENDROOT
BRANCH   2   3
HETATM    3  O   UNL     1      -7.123   8.411  63.451  1.00  0.00    -0.087 OA 
BRANCH   3   4
HETATM    4  C   UNL     1      -8.230   9.203  63.375  1.00  0.00    -0.178 C  
HETATM    5  O   UNL     1      -9.022   9.200  62.439  1.00  0.00    -0.237 OA 
BRANCH   4   6
HETATM    6  C   UNL     1      -8.424   9.991  64.594  1.00  0.00    -0.176 A  
HETATM    7  C   UNL     1      -9.177  11.148  64.727  1.00  0.00    -0.138 A  
HETATM    8  C   UNL     1      -9.864  12.009  63.738  1.00  0.00    -0.269 C  
HETATM    9  N   UNL     1     -11.288  11.928  63.986  1.00  0.00    -0.376 N  
HETATM   10  C   UNL     1     -12.173  11.731  62.850  1.00  0.00     0.329 C  
HETATM   11  C   UNL     1     -11.881  12.344  65.169  1.00  0.00    -0.388 C  
HETATM   12  C   UNL     1     -11.048  13.009  66.205  1.00  0.00    -0.311 A  
HETATM   13  O   UNL     1     -13.091  12.260  65.372  1.00  0.00     0.020 OA 
HETATM   14  C   UNL     1      -9.801  12.554  66.675  1.00  0.00    -0.241 A  
HETATM   15  C   UNL     1      -9.155  13.222  67.726  1.00  0.00    -0.202 A  
HETATM   16  N   UNL     1      -9.154  11.454  66.067  1.00  0.00    -0.209 NA 
HETATM   17  C   UNL     1      -8.331  10.537  66.671  1.00  0.00    -0.131 A  
HETATM   18  C   UNL     1      -9.724  14.381  68.261  1.00  0.00    -0.222 A  
HETATM   19  C   UNL     1     -10.949  14.834  67.785  1.00  0.00    -0.291 A  
HETATM   20  N   UNL     1      -7.886   9.641  65.823  1.00  0.00    -0.104 NA 
HETATM   21  C   UNL     1     -11.623  14.147  66.785  1.00  0.00    -0.409 A  
HETATM   22  F   UNL     1     -11.480  15.952  68.289  1.00  0.00    -0.335 F  
ENDBRANCH   4   6
ENDBRANCH   3   4
ENDBRANCH   2   3
TORSDOF 3
ENDMDL
MODEL      149
REMARK 921   NORMALIZED FREE ENERGY PREDICTED BY IDOCK:   -3.25 KCAL/MOL
REMARK 922        TOTAL FREE ENERGY PREDICTED BY IDOCK:   -4.10 KCAL/MOL
REMARK 923 INTER-LIGAND FREE ENERGY PREDICTED BY IDOCK:   -3.85 KCAL/MOL
REMARK 924 INTRA-LIGAND FREE ENERGY PREDICTED BY IDOCK:   -0.25 KCAL/MOL
REMARK 927      BINDING AFFINITY PREDICTED BY RF-SCORE:    0.00 PKD
ROOT
HETATM    1  C   UNL     1     -11.832  15.398  72.322  1.00  0.00    -0.551 C  
HETATM    2  C   UNL     1     -11.759  15.622  70.822  1.00  0.00    -0.375 C  
ENDROOT
BRANCH   2   3
HETATM    3  O   UNL     1     -10.387  15.535  70.423  1.00  0.00    -0.293 OA 
BRANCH   3   4
HETATM    4  C   UNL     1     -10.177  15.371  69.086  1.00  0.00    -0.239 C  
HETATM    5  O   UNL     1     -10.837  15.918  68.208  1.00  0.00    -0.287 OA 
BRANCH   4   6
HETATM    6  C   UNL     1      -9.003  14.542  68.813  1.00  0.00    -0.157 A  
HETATM    7  C   UNL     1      -8.990  13.273  68.254  1.00  0.00    -0.176 A  
HETATM    8  C   UNL     1     -10.074  12.325  67.909  1.00  0.00    -0.200 C  
HETATM    9  N   UNL     1     -10.085  12.161  66.470  1.00  0.00    -0.206 N  
HETATM   10  C   UNL     1     -11.363  12.227  65.782  1.00  0.00    -0.355 C  
HETATM   11  C   UNL     1      -9.021  11.633  65.754  1.00  0.00    -0.064 C  
HETATM   12  C   UNL     1      -7.844  11.100  66.489  1.00  0.00    -0.151 A  
HETATM   13  O   UNL     1      -9.038  11.508  64.531  1.00  0.00    -0.010 OA 
HETATM   14  C   UNL     1      -7.166  11.750  67.538  1.00  0.00    -0.123 A  
HETATM   15  C   UNL     1      -6.007  11.182  68.089  1.00  0.00    -0.045 A  
HETATM   16  N   UNL     1      -7.663  12.953  68.088  1.00  0.00    -0.127 NA 
HETATM   17  C   UNL     1      -6.934  13.984  68.624  1.00  0.00    -0.106 A  
HETATM   18  C   UNL     1      -5.566   9.935  67.637  1.00  0.00    -0.039 A  
HETATM   19  C   UNL     1      -6.246   9.291  66.611  1.00  0.00    -0.065 A  
HETATM   20  N   UNL     1      -7.702  14.956  69.057  1.00  0.00    -0.144 NA 
HETATM   21  C   UNL     1      -7.360   9.872  66.020  1.00  0.00    -0.106 A  
HETATM   22  F   UNL     1      -5.830   8.092  66.194  1.00  0.00    -0.037 F  
ENDBRANCH   4   6
ENDBRANCH   3   4
ENDBRANCH   2   3
TORSDOF 3
ENDMDL
MODEL      150
REMARK 921   NORMALIZED FREE ENERGY PREDICTED BY IDOCK:   -3.21 KCAL/MOL
REMARK 922        TOTAL FREE ENERGY PREDICTED BY IDOCK:   -4.06 KCAL/MOL
REMARK 923 INTER-LIGAND FREE ENERGY PREDICTED BY IDOCK:   -4.79 KCAL/MOL
REMARK 924 INTRA-LIGAND FREE ENERGY PREDICTED BY IDOCK:    0.73 KCAL/MOL
REMARK 927      BINDING AFFINITY PREDICTED BY RF-SCORE:    0.00 PKD
ROOT
HETATM    1  C   UNL     1      -5.554  19.458  64.681  1.00  0.00    -0.266 C  
HETATM    2  C   UNL     1      -5.186  19.268  66.142  1.00  0.00    -0.151 C  
ENDROOT
BRANCH   2   3
HETATM    3  O   UNL     1      -6.383  19.366  66.921  1.00  0.00    -0.186 OA 
BRANCH   3   4
HETATM    4  C   UNL     1      -7.422  18.593  66.493  1.00  0.00    -0.244 C  
HETATM    5  O   UNL     1      -7.870  18.603  65.352  1.00  0.00    -0.266 OA 
BRANCH   4   6
HETATM    6  C   UNL     1      -7.880  17.668  67.531  1.00  0.00    -0.202 A  
HETATM    7  C   UNL     1      -9.147  17.117  67.657  1.00  0.00    -0.227 A  
HETATM    8  C   UNL     1     -10.418  17.368  66.941  1.00  0.00    -0.279 C  
HETATM    9  N   UNL     1     -10.767  16.167  66.212  1.00  0.00    -0.261 N  
HETATM   10  C   UNL     1     -11.188  16.301  64.828  1.00  0.00    -0.259 C  
HETATM   11  C   UNL     1     -11.034  14.953  66.827  1.00  0.00    -0.326 C  
HETATM   12  C   UNL     1     -11.079  14.884  68.311  1.00  0.00    -0.290 A  
HETATM   13  O   UNL     1     -11.320  13.936  66.197  1.00  0.00    -0.310 OA 
HETATM   14  C   UNL     1     -10.119  15.424  69.189  1.00  0.00    -0.235 A  
HETATM   15  C   UNL     1     -10.226  15.210  70.571  1.00  0.00     0.163 A  
HETATM   16  N   UNL     1      -9.064  16.230  68.703  1.00  0.00    -0.218 NA 
HETATM   17  C   UNL     1      -7.798  16.338  69.219  1.00  0.00    -0.179 A  
HETATM   18  C   UNL     1     -11.326  14.515  71.080  1.00  0.00    -0.034 A  
HETATM   19  C   UNL     1     -12.278  13.995  70.211  1.00  0.00    -0.361 A  
HETATM   20  N   UNL     1      -7.059  17.180  68.537  1.00  0.00    -0.202 NA 
HETATM   21  C   UNL     1     -12.151  14.151  68.838  1.00  0.00    -0.339 A  
HETATM   22  F   UNL     1     -13.337  13.345  70.704  1.00  0.00    -0.119 F  
ENDBRANCH   4   6
ENDBRANCH   3   4
ENDBRANCH   2   3
TORSDOF 3
ENDMDL
MODEL      151
REMARK 921   NORMALIZED FREE ENERGY PREDICTED BY IDOCK:   -3.19 KCAL/MOL
REMARK 922        TOTAL FREE ENERGY PREDICTED BY IDOCK:   -4.03 KCAL/MOL
REMARK 923 INTER-LIGAND FREE ENERGY PREDICTED BY IDOCK:   -3.71 KCAL/MOL
REMARK 924 INTRA-LIGAND FREE ENERGY PREDICTED BY IDOCK:   -0.32 KCAL/MOL
REMARK 927      BINDING AFFINITY PREDICTED BY RF-SCORE:    0.00 PKD
ROOT
HETATM    1  C   UNL     1     -12.785  14.034  65.218  1.00  0.00    -0.468 C  
HETATM    2  C   UNL     1     -11.994  12.748  65.383  1.00  0.00    -0.436 C  
ENDROOT
BRANCH   2   3
HETATM    3  O   UNL     1     -12.047  12.365  66.762  1.00  0.00    -0.578 OA 
BRANCH   3   4
HETATM    4  C   UNL     1     -10.845  12.059  67.329  1.00  0.00    -0.246 C  
HETATM    5  O   UNL     1     -10.137  12.861  67.928  1.00  0.00    -0.219 OA 
BRANCH   4   6
HETATM    6  C   UNL     1     -10.540  10.631  67.229  1.00  0.00    -0.263 A  
HETATM    7  C   UNL     1      -9.415  10.056  66.656  1.00  0.00    -0.171 A  
HETATM    8  C   UNL     1      -8.296  10.625  65.871  1.00  0.00    -0.161 C  
HETATM    9  N   UNL     1      -7.082  10.470  66.644  1.00  0.00    -0.111 N  
HETATM   10  C   UNL     1      -6.189  11.611  66.756  1.00  0.00    -0.123 C  
HETATM   11  C   UNL     1      -6.562   9.237  67.008  1.00  0.00    -0.068 C  
HETATM   12  C   UNL     1      -7.205   7.998  66.498  1.00  0.00    -0.080 A  
HETATM   13  O   UNL     1      -5.534   9.118  67.674  1.00  0.00    -0.034 OA 
HETATM   14  C   UNL     1      -8.586   7.722  66.512  1.00  0.00    -0.143 A  
HETATM   15  C   UNL     1      -9.061   6.472  66.086  1.00  0.00    -0.146 A  
HETATM   16  N   UNL     1      -9.519   8.708  66.904  1.00  0.00    -0.167 NA 
HETATM   17  C   UNL     1     -10.723   8.509  67.530  1.00  0.00    -0.141 A  
HETATM   18  C   UNL     1      -8.163   5.526  65.585  1.00  0.00    -0.127 A  
HETATM   19  C   UNL     1      -6.803   5.808  65.560  1.00  0.00    -0.059 A  
HETATM   20  N   UNL     1     -11.355   9.637  67.750  1.00  0.00     0.099 NA 
HETATM   21  C   UNL     1      -6.317   7.018  66.033  1.00  0.00    -0.046 A  
HETATM   22  F   UNL     1      -5.951   4.905  65.064  1.00  0.00    -0.019 F  
ENDBRANCH   4   6
ENDBRANCH   3   4
ENDBRANCH   2   3
TORSDOF 3
ENDMDL
MODEL      152
REMARK 921   NORMALIZED FREE ENERGY PREDICTED BY IDOCK:   -3.12 KCAL/MOL
REMARK 922        TOTAL FREE ENERGY PREDICTED BY IDOCK:   -3.96 KCAL/MOL
REMARK 923 INTER-LIGAND FREE ENERGY PREDICTED BY IDOCK:   -3.74 KCAL/MOL
REMARK 924 INTRA-LIGAND FREE ENERGY PREDICTED BY IDOCK:   -0.21 KCAL/MOL
REMARK 927      BINDING AFFINITY PREDICTED BY RF-SCORE:    0.00 PKD
ROOT
HETATM    1  C   UNL     1     -10.101   6.609  74.281  1.00  0.00    -0.378 C  
HETATM    2  C   UNL     1     -10.955   7.326  73.251  1.00  0.00    -0.311 C  
ENDROOT
BRANCH   2   3
HETATM    3  O   UNL     1     -10.093   7.814  72.218  1.00  0.00    -0.194 OA 
BRANCH   3   4
HETATM    4  C   UNL     1     -10.091   7.085  71.066  1.00  0.00    -0.195 C  
HETATM    5  O   UNL     1     -10.164   5.862  71.019  1.00  0.00    -0.195 OA 
BRANCH   4   6
HETATM    6  C   UNL     1     -10.095   7.940  69.877  1.00  0.00    -0.197 A  
HETATM    7  C   UNL     1      -9.296   7.805  68.751  1.00  0.00    -0.146 A  
HETATM    8  C   UNL     1      -8.147   6.923  68.445  1.00  0.00    -0.120 C  
HETATM    9  N   UNL     1      -8.539   6.032  67.373  1.00  0.00    -0.104 N  
HETATM   10  C   UNL     1      -8.230   4.618  67.507  1.00  0.00    -0.101 C  
HETATM   11  C   UNL     1      -8.892   6.473  66.106  1.00  0.00    -0.150 C  
HETATM   12  C   UNL     1      -8.763   7.916  65.777  1.00  0.00    -0.163 A  
HETATM   13  O   UNL     1      -9.234   5.706  65.206  1.00  0.00    -0.048 OA 
HETATM   14  C   UNL     1      -9.221   8.985  66.570  1.00  0.00    -0.179 A  
HETATM   15  C   UNL     1      -9.123  10.305  66.102  1.00  0.00    -0.181 A  
HETATM   16  N   UNL     1      -9.738   8.758  67.865  1.00  0.00    -0.152 NA 
HETATM   17  C   UNL     1     -10.713   9.478  68.508  1.00  0.00    -0.182 A  
HETATM   18  C   UNL     1      -8.508  10.558  64.874  1.00  0.00    -0.161 A  
HETATM   19  C   UNL     1      -8.045   9.501  64.100  1.00  0.00    -0.147 A  
HETATM   20  N   UNL     1     -10.960   9.010  69.708  1.00  0.00    -0.207 NA 
HETATM   21  C   UNL     1      -8.189   8.189  64.528  1.00  0.00    -0.118 A  
HETATM   22  F   UNL     1      -7.442   9.751  62.933  1.00  0.00    -0.113 F  
ENDBRANCH   4   6
ENDBRANCH   3   4
ENDBRANCH   2   3
TORSDOF 3
ENDMDL
MODEL      153
REMARK 921   NORMALIZED FREE ENERGY PREDICTED BY IDOCK:   -3.11 KCAL/MOL
REMARK 922        TOTAL FREE ENERGY PREDICTED BY IDOCK:   -3.94 KCAL/MOL
REMARK 923 INTER-LIGAND FREE ENERGY PREDICTED BY IDOCK:   -3.92 KCAL/MOL
REMARK 924 INTRA-LIGAND FREE ENERGY PREDICTED BY IDOCK:   -0.02 KCAL/MOL
REMARK 927      BINDING AFFINITY PREDICTED BY RF-SCORE:    0.00 PKD
ROOT
HETATM    1  C   UNL     1     -12.811   8.899  71.740  1.00  0.00    -0.419 C  
HETATM    2  C   UNL     1     -13.030   7.404  71.588  1.00  0.00    -0.366 C  
ENDROOT
BRANCH   2   3
HETATM    3  O   UNL     1     -11.924   6.863  70.858  1.00  0.00    -0.352 OA 
BRANCH   3   4
HETATM    4  C   UNL     1     -10.710   6.973  71.470  1.00  0.00    -0.221 C  
HETATM    5  O   UNL     1     -10.527   6.839  72.676  1.00  0.00    -0.197 OA 
BRANCH   4   6
HETATM    6  C   UNL     1      -9.626   7.170  70.507  1.00  0.00    -0.169 A  
HETATM    7  C   UNL     1      -9.644   7.989  69.388  1.00  0.00    -0.160 A  
HETATM    8  C   UNL     1     -10.725   8.766  68.739  1.00  0.00    -0.077 C  
HETATM    9  N   UNL     1     -10.401  10.172  68.858  1.00  0.00    -0.194 N  
HETATM   10  C   UNL     1     -11.447  11.084  69.288  1.00  0.00    -0.300 C  
HETATM   11  C   UNL     1      -9.272  10.745  68.290  1.00  0.00    -0.157 C  
HETATM   12  C   UNL     1      -8.397   9.917  67.419  1.00  0.00    -0.118 A  
HETATM   13  O   UNL     1      -9.002  11.939  68.407  1.00  0.00    -0.183 OA 
HETATM   14  C   UNL     1      -7.920   8.627  67.721  1.00  0.00    -0.107 A  
HETATM   15  C   UNL     1      -7.021   7.986  66.855  1.00  0.00    -0.074 A  
HETATM   16  N   UNL     1      -8.374   7.935  68.867  1.00  0.00    -0.126 NA 
HETATM   17  C   UNL     1      -7.670   7.034  69.625  1.00  0.00    -0.110 A  
HETATM   18  C   UNL     1      -6.653   8.606  65.658  1.00  0.00    -0.060 A  
HETATM   19  C   UNL     1      -7.137   9.873  65.358  1.00  0.00    -0.121 A  
HETATM   20  N   UNL     1      -8.383   6.565  70.621  1.00  0.00    -0.131 NA 
HETATM   21  C   UNL     1      -7.980  10.540  66.235  1.00  0.00    -0.144 A  
HETATM   22  F   UNL     1      -6.794  10.455  64.205  1.00  0.00    -0.133 F  
ENDBRANCH   4   6
ENDBRANCH   3   4
ENDBRANCH   2   3
TORSDOF 3
ENDMDL
MODEL      154
REMARK 921   NORMALIZED FREE ENERGY PREDICTED BY IDOCK:   -3.06 KCAL/MOL
REMARK 922        TOTAL FREE ENERGY PREDICTED BY IDOCK:   -3.89 KCAL/MOL
REMARK 923 INTER-LIGAND FREE ENERGY PREDICTED BY IDOCK:   -3.80 KCAL/MOL
REMARK 924 INTRA-LIGAND FREE ENERGY PREDICTED BY IDOCK:   -0.09 KCAL/MOL
REMARK 927      BINDING AFFINITY PREDICTED BY RF-SCORE:    0.00 PKD
ROOT
HETATM    1  C   UNL     1      -5.417  10.089  62.797  1.00  0.00    -0.100 C  
HETATM    2  C   UNL     1      -6.097   8.877  63.407  1.00  0.00    -0.088 C  
ENDROOT
BRANCH   2   3
HETATM    3  O   UNL     1      -7.377   9.285  63.902  1.00  0.00    -0.098 OA 
BRANCH   3   4
HETATM    4  C   UNL     1      -8.045   8.349  64.636  1.00  0.00    -0.156 C  
HETATM    5  O   UNL     1      -7.997   7.141  64.427  1.00  0.00    -0.128 OA 
BRANCH   4   6
HETATM    6  C   UNL     1      -8.748   8.944  65.773  1.00  0.00    -0.176 A  
HETATM    7  C   UNL     1      -8.980   8.359  67.009  1.00  0.00    -0.142 A  
HETATM    8  C   UNL     1      -8.756   6.988  67.520  1.00  0.00    -0.120 C  
HETATM    9  N   UNL     1      -7.751   7.055  68.559  1.00  0.00    -0.117 N  
HETATM   10  C   UNL     1      -6.670   6.084  68.534  1.00  0.00    -0.061 C  
HETATM   11  C   UNL     1      -7.921   7.763  69.740  1.00  0.00    -0.115 C  
HETATM   12  C   UNL     1      -9.234   8.400  70.022  1.00  0.00    -0.158 A  
HETATM   13  O   UNL     1      -7.055   7.821  70.612  1.00  0.00    -0.049 OA 
HETATM   14  C   UNL     1      -9.973   9.194  69.125  1.00  0.00    -0.187 A  
HETATM   15  C   UNL     1     -11.157   9.819  69.544  1.00  0.00    -0.226 A  
HETATM   16  N   UNL     1      -9.567   9.335  67.778  1.00  0.00    -0.140 NA 
HETATM   17  C   UNL     1      -9.746  10.428  66.968  1.00  0.00    -0.178 A  
HETATM   18  C   UNL     1     -11.636   9.596  70.838  1.00  0.00    -0.420 A  
HETATM   19  C   UNL     1     -10.910   8.801  71.716  1.00  0.00    -0.345 A  
HETATM   20  N   UNL     1      -9.258  10.234  65.766  1.00  0.00    -0.166 NA 
HETATM   21  C   UNL     1      -9.708   8.226  71.329  1.00  0.00    -0.225 A  
HETATM   22  F   UNL     1     -11.381   8.578  72.947  1.00  0.00    -0.400 F  
ENDBRANCH   4   6
ENDBRANCH   3   4
ENDBRANCH   2   3
TORSDOF 3
ENDMDL
MODEL      155
REMARK 921   NORMALIZED FREE ENERGY PREDICTED BY IDOCK:   -3.06 KCAL/MOL
REMARK 922        TOTAL FREE ENERGY PREDICTED BY IDOCK:   -3.89 KCAL/MOL
REMARK 923 INTER-LIGAND FREE ENERGY PREDICTED BY IDOCK:   -3.59 KCAL/MOL
REMARK 924 INTRA-LIGAND FREE ENERGY PREDICTED BY IDOCK:   -0.30 KCAL/MOL
REMARK 927      BINDING AFFINITY PREDICTED BY RF-SCORE:    0.00 PKD
ROOT
HETATM    1  C   UNL     1      -7.476   3.567  74.224  1.00  0.00    -0.054 C  
HETATM    2  C   UNL     1      -8.823   4.267  74.183  1.00  0.00    -0.095 C  
ENDROOT
BRANCH   2   3
HETATM    3  O   UNL     1      -8.631   5.572  73.625  1.00  0.00    -0.115 OA 
BRANCH   3   4
HETATM    4  C   UNL     1      -9.773   6.262  73.347  1.00  0.00    -0.162 C  
HETATM    5  O   UNL     1     -10.503   6.765  74.196  1.00  0.00    -0.365 OA 
BRANCH   4   6
HETATM    6  C   UNL     1      -9.980   6.423  71.907  1.00  0.00    -0.175 A  
HETATM    7  C   UNL     1      -9.491   7.443  71.104  1.00  0.00    -0.155 A  
HETATM    8  C   UNL     1      -8.781   8.704  71.416  1.00  0.00    -0.204 C  
HETATM    9  N   UNL     1      -7.448   8.618  70.859  1.00  0.00    -0.073 N  
HETATM   10  C   UNL     1      -6.327   9.018  71.693  1.00  0.00    -0.067 C  
HETATM   11  C   UNL     1      -7.196   8.491  69.500  1.00  0.00    -0.060 C  
HETATM   12  C   UNL     1      -8.331   8.555  68.542  1.00  0.00    -0.123 A  
HETATM   13  O   UNL     1      -6.059   8.409  69.039  1.00  0.00    -0.041 OA 
HETATM   14  C   UNL     1      -9.545   7.852  68.657  1.00  0.00    -0.155 A  
HETATM   15  C   UNL     1     -10.503   7.925  67.634  1.00  0.00    -0.303 A  
HETATM   16  N   UNL     1      -9.844   7.105  69.819  1.00  0.00    -0.172 NA 
HETATM   17  C   UNL     1     -10.596   5.960  69.899  1.00  0.00    -0.299 A  
HETATM   18  C   UNL     1     -10.275   8.752  66.531  1.00  0.00    -0.314 A  
HETATM   19  C   UNL     1      -9.080   9.454  66.428  1.00  0.00    -0.161 A  
HETATM   20  N   UNL     1     -10.688   5.518  71.131  1.00  0.00    -0.236 NA 
HETATM   21  C   UNL     1      -8.102   9.343  67.407  1.00  0.00    -0.110 A  
HETATM   22  F   UNL     1      -8.874  10.256  65.379  1.00  0.00    -0.151 F  
ENDBRANCH   4   6
ENDBRANCH   3   4
ENDBRANCH   2   3
TORSDOF 3
ENDMDL
MODEL      156
REMARK 921   NORMALIZED FREE ENERGY PREDICTED BY IDOCK:   -3.06 KCAL/MOL
REMARK 922        TOTAL FREE ENERGY PREDICTED BY IDOCK:   -3.88 KCAL/MOL
REMARK 923 INTER-LIGAND FREE ENERGY PREDICTED BY IDOCK:   -3.57 KCAL/MOL
REMARK 924 INTRA-LIGAND FREE ENERGY PREDICTED BY IDOCK:   -0.31 KCAL/MOL
REMARK 927      BINDING AFFINITY PREDICTED BY RF-SCORE:    0.00 PKD
ROOT
HETATM    1  C   UNL     1     -12.001  11.320  68.844  1.00  0.00    -0.378 C  
HETATM    2  C   UNL     1     -10.882  10.332  69.120  1.00  0.00    -0.233 C  
ENDROOT
BRANCH   2   3
HETATM    3  O   UNL     1     -11.076   9.790  70.431  1.00  0.00    -0.260 OA 
BRANCH   3   4
HETATM    4  C   UNL     1     -10.142   8.882  70.832  1.00  0.00    -0.241 C  
HETATM    5  O   UNL     1      -9.374   9.048  71.774  1.00  0.00    -0.303 OA 
BRANCH   4   6
HETATM    6  C   UNL     1     -10.227   7.635  70.070  1.00  0.00    -0.213 A  
HETATM    7  C   UNL     1      -9.298   7.148  69.162  1.00  0.00    -0.141 A  
HETATM    8  C   UNL     1      -8.074   7.739  68.575  1.00  0.00    -0.123 C  
HETATM    9  N   UNL     1      -6.939   6.968  69.036  1.00  0.00    -0.075 N  
HETATM   10  C   UNL     1      -5.774   7.685  69.526  1.00  0.00    -0.023 C  
HETATM   11  C   UNL     1      -6.761   5.623  68.743  1.00  0.00    -0.053 C  
HETATM   12  C   UNL     1      -7.713   4.948  67.823  1.00  0.00    -0.083 A  
HETATM   13  O   UNL     1      -5.797   4.976  69.149  1.00  0.00    -0.015 OA 
HETATM   14  C   UNL     1      -9.117   5.024  67.891  1.00  0.00    -0.114 A  
HETATM   15  C   UNL     1      -9.909   4.262  67.019  1.00  0.00    -0.216 A  
HETATM   16  N   UNL     1      -9.753   5.904  68.797  1.00  0.00    -0.127 NA 
HETATM   17  C   UNL     1     -10.963   5.722  69.418  1.00  0.00    -0.282 A  
HETATM   18  C   UNL     1      -9.298   3.476  66.039  1.00  0.00    -0.163 A  
HETATM   19  C   UNL     1      -7.912   3.414  65.967  1.00  0.00    -0.092 A  
HETATM   20  N   UNL     1     -11.272   6.732  70.196  1.00  0.00    -0.310 NA 
HETATM   21  C   UNL     1      -7.120   4.119  66.862  1.00  0.00    -0.067 A  
HETATM   22  F   UNL     1      -7.333   2.673  65.017  1.00  0.00    -0.060 F  
ENDBRANCH   4   6
ENDBRANCH   3   4
ENDBRANCH   2   3
TORSDOF 3
ENDMDL
MODEL      157
REMARK 921   NORMALIZED FREE ENERGY PREDICTED BY IDOCK:   -3.03 KCAL/MOL
REMARK 922        TOTAL FREE ENERGY PREDICTED BY IDOCK:   -3.85 KCAL/MOL
REMARK 923 INTER-LIGAND FREE ENERGY PREDICTED BY IDOCK:   -3.59 KCAL/MOL
REMARK 924 INTRA-LIGAND FREE ENERGY PREDICTED BY IDOCK:   -0.26 KCAL/MOL
REMARK 927      BINDING AFFINITY PREDICTED BY RF-SCORE:    0.00 PKD
ROOT
HETATM    1  C   UNL     1      -7.542   2.241  63.610  1.00  0.00    -0.059 C  
HETATM    2  C   UNL     1      -8.453   3.191  64.367  1.00  0.00    -0.093 C  
ENDROOT
BRANCH   2   3
HETATM    3  O   UNL     1      -7.813   4.471  64.427  1.00  0.00    -0.082 OA 
BRANCH   3   4
HETATM    4  C   UNL     1      -7.583   4.950  65.682  1.00  0.00    -0.086 C  
HETATM    5  O   UNL     1      -6.607   4.661  66.366  1.00  0.00    -0.043 OA 
BRANCH   4   6
HETATM    6  C   UNL     1      -8.587   5.936  66.085  1.00  0.00    -0.137 A  
HETATM    7  C   UNL     1      -8.433   7.313  66.131  1.00  0.00    -0.142 A  
HETATM    8  C   UNL     1      -7.252   8.190  65.955  1.00  0.00    -0.072 C  
HETATM    9  N   UNL     1      -7.459   8.987  64.764  1.00  0.00    -0.100 N  
HETATM   10  C   UNL     1      -6.364   9.103  63.816  1.00  0.00    -0.089 C  
HETATM   11  C   UNL     1      -8.498   9.896  64.627  1.00  0.00    -0.172 C  
HETATM   12  C   UNL     1      -9.390  10.161  65.786  1.00  0.00    -0.239 A  
HETATM   13  O   UNL     1      -8.670  10.561  63.606  1.00  0.00    -0.177 OA 
HETATM   14  C   UNL     1      -9.994   9.184  66.599  1.00  0.00    -0.273 A  
HETATM   15  C   UNL     1     -10.894   9.562  67.607  1.00  0.00    -0.253 A  
HETATM   16  N   UNL     1      -9.671   7.816  66.452  1.00  0.00    -0.186 NA 
HETATM   17  C   UNL     1     -10.494   6.741  66.671  1.00  0.00    -0.143 A  
HETATM   18  C   UNL     1     -11.136  10.918  67.845  1.00  0.00    -0.362 A  
HETATM   19  C   UNL     1     -10.527  11.879  67.048  1.00  0.00    -0.224 A  
HETATM   20  N   UNL     1      -9.883   5.601  66.450  1.00  0.00    -0.161 NA 
HETATM   21  C   UNL     1      -9.681  11.513  66.011  1.00  0.00    -0.253 A  
HETATM   22  F   UNL     1     -10.750  13.175  67.290  1.00  0.00    -0.246 F  
ENDBRANCH   4   6
ENDBRANCH   3   4
ENDBRANCH   2   3
TORSDOF 3
ENDMDL
MODEL      158
REMARK 921   NORMALIZED FREE ENERGY PREDICTED BY IDOCK:   -3.03 KCAL/MOL
REMARK 922        TOTAL FREE ENERGY PREDICTED BY IDOCK:   -3.85 KCAL/MOL
REMARK 923 INTER-LIGAND FREE ENERGY PREDICTED BY IDOCK:   -3.53 KCAL/MOL
REMARK 924 INTRA-LIGAND FREE ENERGY PREDICTED BY IDOCK:   -0.31 KCAL/MOL
REMARK 927      BINDING AFFINITY PREDICTED BY RF-SCORE:    0.00 PKD
ROOT
HETATM    1  C   UNL     1     -11.557  12.233  67.804  1.00  0.00    -0.416 C  
HETATM    2  C   UNL     1     -10.300  12.172  66.955  1.00  0.00    -0.211 C  
ENDROOT
BRANCH   2   3
HETATM    3  O   UNL     1      -9.224  11.714  67.782  1.00  0.00    -0.168 OA 
BRANCH   3   4
HETATM    4  C   UNL     1      -8.070  11.411  67.123  1.00  0.00    -0.155 C  
HETATM    5  O   UNL     1      -7.008  12.006  67.276  1.00  0.00    -0.126 OA 
BRANCH   4   6
HETATM    6  C   UNL     1      -8.215  10.223  66.280  1.00  0.00    -0.131 A  
HETATM    7  C   UNL     1      -8.411   8.918  66.706  1.00  0.00    -0.111 A  
HETATM    8  C   UNL     1      -8.386   8.294  68.049  1.00  0.00    -0.129 C  
HETATM    9  N   UNL     1      -9.720   7.815  68.345  1.00  0.00    -0.156 N  
HETATM   10  C   UNL     1     -10.280   8.107  69.654  1.00  0.00    -0.205 C  
HETATM   11  C   UNL     1     -10.361   6.836  67.600  1.00  0.00    -0.203 C  
HETATM   12  C   UNL     1      -9.621   6.154  66.506  1.00  0.00    -0.183 A  
HETATM   13  O   UNL     1     -11.499   6.444  67.855  1.00  0.00    -0.150 OA 
HETATM   14  C   UNL     1      -8.854   6.789  65.511  1.00  0.00     0.035 A  
HETATM   15  C   UNL     1      -8.279   6.037  64.475  1.00  0.00    -0.095 A  
HETATM   16  N   UNL     1      -8.605   8.179  65.564  1.00  0.00    -0.162 NA 
HETATM   17  C   UNL     1      -8.436   9.032  64.503  1.00  0.00    -0.175 A  
HETATM   18  C   UNL     1      -8.417   4.646  64.472  1.00  0.00    -0.136 A  
HETATM   19  C   UNL     1      -9.164   4.023  65.463  1.00  0.00    -0.150 A  
HETATM   20  N   UNL     1      -8.213  10.265  64.894  1.00  0.00    -0.156 NA 
HETATM   21  C   UNL     1      -9.784   4.763  66.459  1.00  0.00    -0.206 A  
HETATM   22  F   UNL     1      -9.278   2.691  65.464  1.00  0.00    -0.144 F  
ENDBRANCH   4   6
ENDBRANCH   3   4
ENDBRANCH   2   3
TORSDOF 3
ENDMDL
MODEL      159
REMARK 921   NORMALIZED FREE ENERGY PREDICTED BY IDOCK:   -3.01 KCAL/MOL
REMARK 922        TOTAL FREE ENERGY PREDICTED BY IDOCK:   -3.82 KCAL/MOL
REMARK 923 INTER-LIGAND FREE ENERGY PREDICTED BY IDOCK:   -4.66 KCAL/MOL
REMARK 924 INTRA-LIGAND FREE ENERGY PREDICTED BY IDOCK:    0.83 KCAL/MOL
REMARK 927      BINDING AFFINITY PREDICTED BY RF-SCORE:    0.00 PKD
ROOT
HETATM    1  C   UNL     1     -12.250  11.907  63.370  1.00  0.00    -0.561 C  
HETATM    2  C   UNL     1     -12.461  13.076  64.315  1.00  0.00    -0.315 C  
ENDROOT
BRANCH   2   3
HETATM    3  O   UNL     1     -12.492  12.568  65.654  1.00  0.00    -0.648 OA 
BRANCH   3   4
HETATM    4  C   UNL     1     -11.389  12.841  66.407  1.00  0.00    -0.323 C  
HETATM    5  O   UNL     1     -11.050  13.966  66.758  1.00  0.00    -0.296 OA 
BRANCH   4   6
HETATM    6  C   UNL     1     -10.705  11.620  66.838  1.00  0.00    -0.257 A  
HETATM    7  C   UNL     1     -10.217  10.607  66.026  1.00  0.00    -0.247 A  
HETATM    8  C   UNL     1     -10.343  10.346  64.574  1.00  0.00    -0.085 C  
HETATM    9  N   UNL     1      -9.026  10.455  63.983  1.00  0.00    -0.210 N  
HETATM   10  C   UNL     1      -8.883  11.223  62.758  1.00  0.00    -0.194 C  
HETATM   11  C   UNL     1      -7.968   9.623  64.320  1.00  0.00    -0.139 C  
HETATM   12  C   UNL     1      -8.204   8.488  65.250  1.00  0.00    -0.149 A  
HETATM   13  O   UNL     1      -6.850   9.732  63.818  1.00  0.00    -0.109 OA 
HETATM   14  C   UNL     1      -8.891   8.559  66.476  1.00  0.00    -0.140 A  
HETATM   15  C   UNL     1      -8.965   7.433  67.311  1.00  0.00    -0.128 A  
HETATM   16  N   UNL     1      -9.560   9.741  66.866  1.00  0.00    -0.172 NA 
HETATM   17  C   UNL     1      -9.745  10.207  68.144  1.00  0.00    -0.139 A  
HETATM   18  C   UNL     1      -8.411   6.222  66.888  1.00  0.00    -0.109 A  
HETATM   19  C   UNL     1      -7.745   6.153  65.670  1.00  0.00    -0.092 A  
HETATM   20  N   UNL     1     -10.415  11.334  68.164  1.00  0.00    -0.182 NA 
HETATM   21  C   UNL     1      -7.616   7.276  64.865  1.00  0.00    -0.102 A  
HETATM   22  F   UNL     1      -7.231   4.988  65.264  1.00  0.00    -0.062 F  
ENDBRANCH   4   6
ENDBRANCH   3   4
ENDBRANCH   2   3
TORSDOF 3
ENDMDL
MODEL      160
REMARK 921   NORMALIZED FREE ENERGY PREDICTED BY IDOCK:   -3.00 KCAL/MOL
REMARK 922        TOTAL FREE ENERGY PREDICTED BY IDOCK:   -3.81 KCAL/MOL
REMARK 923 INTER-LIGAND FREE ENERGY PREDICTED BY IDOCK:   -3.35 KCAL/MOL
REMARK 924 INTRA-LIGAND FREE ENERGY PREDICTED BY IDOCK:   -0.46 KCAL/MOL
REMARK 927      BINDING AFFINITY PREDICTED BY RF-SCORE:    0.00 PKD
ROOT
HETATM    1  C   UNL     1     -11.227   6.324  68.435  1.00  0.00    -0.272 C  
HETATM    2  C   UNL     1     -11.586   6.251  69.908  1.00  0.00    -0.291 C  
ENDROOT
BRANCH   2   3
HETATM    3  O   UNL     1     -12.287   7.450  70.257  1.00  0.00     0.085 OA 
BRANCH   3   4
HETATM    4  C   UNL     1     -11.609   8.306  71.073  1.00  0.00    -0.275 C  
HETATM    5  O   UNL     1     -11.383   8.099  72.261  1.00  0.00    -0.310 OA 
BRANCH   4   6
HETATM    6  C   UNL     1     -11.090   9.463  70.343  1.00  0.00    -0.261 A  
HETATM    7  C   UNL     1      -9.786   9.660  69.912  1.00  0.00    -0.231 A  
HETATM    8  C   UNL     1      -8.533   8.910  70.153  1.00  0.00    -0.146 C  
HETATM    9  N   UNL     1      -8.091   8.358  68.890  1.00  0.00    -0.112 N  
HETATM   10  C   UNL     1      -7.672   6.967  68.857  1.00  0.00    -0.110 C  
HETATM   11  C   UNL     1      -7.737   9.138  67.799  1.00  0.00    -0.093 C  
HETATM   12  C   UNL     1      -7.697  10.617  67.946  1.00  0.00    -0.100 A  
HETATM   13  O   UNL     1      -7.372   8.657  66.727  1.00  0.00    -0.077 OA 
HETATM   14  C   UNL     1      -8.700  11.413  68.531  1.00  0.00    -0.149 A  
HETATM   15  C   UNL     1      -8.585  12.811  68.525  1.00  0.00    -0.048 A  
HETATM   16  N   UNL     1      -9.809  10.822  69.179  1.00  0.00    -0.201 NA 
HETATM   17  C   UNL     1     -11.083  11.323  69.264  1.00  0.00    -0.255 A  
HETATM   18  C   UNL     1      -7.439  13.408  67.993  1.00  0.00    -0.139 A  
HETATM   19  C   UNL     1      -6.446  12.618  67.428  1.00  0.00    -0.149 A  
HETATM   20  N   UNL     1     -11.878  10.531  69.943  1.00  0.00    -0.281 NA 
HETATM   21  C   UNL     1      -6.576  11.238  67.378  1.00  0.00    -0.081 A  
HETATM   22  F   UNL     1      -5.345  13.194  66.936  1.00  0.00     0.144 F  
ENDBRANCH   4   6
ENDBRANCH   3   4
ENDBRANCH   2   3
TORSDOF 3
ENDMDL
MODEL      161
REMARK 921   NORMALIZED FREE ENERGY PREDICTED BY IDOCK:   -2.98 KCAL/MOL
REMARK 922        TOTAL FREE ENERGY PREDICTED BY IDOCK:   -3.79 KCAL/MOL
REMARK 923 INTER-LIGAND FREE ENERGY PREDICTED BY IDOCK:   -3.79 KCAL/MOL
REMARK 924 INTRA-LIGAND FREE ENERGY PREDICTED BY IDOCK:   -0.00 KCAL/MOL
REMARK 927      BINDING AFFINITY PREDICTED BY RF-SCORE:    0.00 PKD
ROOT
HETATM    1  C   UNL     1     -12.604  13.678  70.518  1.00  0.00    -0.337 C  
HETATM    2  C   UNL     1     -13.120  12.252  70.601  1.00  0.00     0.377 C  
ENDROOT
BRANCH   2   3
HETATM    3  O   UNL     1     -12.028  11.402  70.967  1.00  0.00    -0.271 OA 
BRANCH   3   4
HETATM    4  C   UNL     1     -12.006  10.184  70.356  1.00  0.00    -0.267 C  
HETATM    5  O   UNL     1     -12.538   9.174  70.804  1.00  0.00    -0.134 OA 
BRANCH   4   6
HETATM    6  C   UNL     1     -11.357  10.240  69.045  1.00  0.00    -0.180 A  
HETATM    7  C   UNL     1     -10.368   9.393  68.567  1.00  0.00    -0.209 A  
HETATM    8  C   UNL     1      -9.576   8.322  69.214  1.00  0.00    -0.164 C  
HETATM    9  N   UNL     1      -9.931   7.064  68.592  1.00  0.00    -0.152 N  
HETATM   10  C   UNL     1     -10.202   5.925  69.452  1.00  0.00    -0.221 C  
HETATM   11  C   UNL     1      -9.717   6.790  67.249  1.00  0.00    -0.140 C  
HETATM   12  C   UNL     1      -8.990   7.780  66.412  1.00  0.00    -0.196 A  
HETATM   13  O   UNL     1     -10.033   5.721  66.729  1.00  0.00    -0.148 OA 
HETATM   14  C   UNL     1      -9.245   9.164  66.366  1.00  0.00    -0.183 A  
HETATM   15  C   UNL     1      -8.550   9.981  65.462  1.00  0.00    -0.162 A  
HETATM   16  N   UNL     1     -10.162   9.762  67.260  1.00  0.00    -0.217 NA 
HETATM   17  C   UNL     1     -10.956  10.856  67.024  1.00  0.00    -0.247 A  
HETATM   18  C   UNL     1      -7.555   9.426  64.653  1.00  0.00    -0.109 A  
HETATM   19  C   UNL     1      -7.297   8.062  64.711  1.00  0.00    -0.082 A  
HETATM   20  N   UNL     1     -11.693  11.163  68.066  1.00  0.00    -0.576 NA 
HETATM   21  C   UNL     1      -8.020   7.236  65.560  1.00  0.00    -0.122 A  
HETATM   22  F   UNL     1      -6.334   7.539  63.946  1.00  0.00    -0.049 F  
ENDBRANCH   4   6
ENDBRANCH   3   4
ENDBRANCH   2   3
TORSDOF 3
ENDMDL
MODEL      162
REMARK 921   NORMALIZED FREE ENERGY PREDICTED BY IDOCK:   -2.90 KCAL/MOL
REMARK 922        TOTAL FREE ENERGY PREDICTED BY IDOCK:   -3.69 KCAL/MOL
REMARK 923 INTER-LIGAND FREE ENERGY PREDICTED BY IDOCK:   -4.25 KCAL/MOL
REMARK 924 INTRA-LIGAND FREE ENERGY PREDICTED BY IDOCK:    0.55 KCAL/MOL
REMARK 927      BINDING AFFINITY PREDICTED BY RF-SCORE:    0.00 PKD
ROOT
HETATM    1  C   UNL     1      -5.125  16.170  70.489  1.00  0.00    -0.185 C  
HETATM    2  C   UNL     1      -5.528  17.373  71.324  1.00  0.00     0.187 C  
ENDROOT
BRANCH   2   3
HETATM    3  O   UNL     1      -6.455  18.155  70.563  1.00  0.00     0.401 OA 
BRANCH   3   4
HETATM    4  C   UNL     1      -6.049  18.479  69.302  1.00  0.00    -0.252 C  
HETATM    5  O   UNL     1      -5.250  19.373  69.040  1.00  0.00    -0.186 OA 
BRANCH   4   6
HETATM    6  C   UNL     1      -6.599  17.569  68.298  1.00  0.00    -0.188 A  
HETATM    7  C   UNL     1      -7.926  17.462  67.907  1.00  0.00    -0.218 A  
HETATM    8  C   UNL     1      -9.171  18.066  68.432  1.00  0.00    -0.294 C  
HETATM    9  N   UNL     1      -9.706  18.947  67.415  1.00  0.00    -0.305 N  
HETATM   10  C   UNL     1     -10.146  20.272  67.817  1.00  0.00    -0.364 C  
HETATM   11  C   UNL     1     -10.121  18.506  66.167  1.00  0.00    -0.368 C  
HETATM   12  C   UNL     1     -10.129  17.049  65.876  1.00  0.00    -0.281 A  
HETATM   13  O   UNL     1     -10.564  19.266  65.307  1.00  0.00    -0.402 OA 
HETATM   14  C   UNL     1      -9.077  16.152  66.141  1.00  0.00    -0.347 A  
HETATM   15  C   UNL     1      -9.170  14.813  65.732  1.00  0.00     0.048 A  
HETATM   16  N   UNL     1      -7.935  16.565  66.865  1.00  0.00    -0.199 NA 
HETATM   17  C   UNL     1      -6.651  16.104  66.724  1.00  0.00     0.120 A  
HETATM   18  C   UNL     1     -10.341  14.358  65.119  1.00  0.00    -0.447 A  
HETATM   19  C   UNL     1     -11.381  15.244  64.871  1.00  0.00    -0.384 A  
HETATM   20  N   UNL     1      -5.823  16.691  67.555  1.00  0.00    -0.140 NA 
HETATM   21  C   UNL     1     -11.275  16.583  65.220  1.00  0.00     0.049 A  
HETATM   22  F   UNL     1     -12.505  14.800  64.299  1.00  0.00    -0.496 F  
ENDBRANCH   4   6
ENDBRANCH   3   4
ENDBRANCH   2   3
TORSDOF 3
ENDMDL
MODEL      163
REMARK 921   NORMALIZED FREE ENERGY PREDICTED BY IDOCK:   -2.88 KCAL/MOL
REMARK 922        TOTAL FREE ENERGY PREDICTED BY IDOCK:   -3.67 KCAL/MOL
REMARK 923 INTER-LIGAND FREE ENERGY PREDICTED BY IDOCK:   -3.73 KCAL/MOL
REMARK 924 INTRA-LIGAND FREE ENERGY PREDICTED BY IDOCK:    0.06 KCAL/MOL
REMARK 927      BINDING AFFINITY PREDICTED BY RF-SCORE:    0.00 PKD
ROOT
HETATM    1  C   UNL     1     -11.113  11.522  65.778  1.00  0.00    -0.272 C  
HETATM    2  C   UNL     1      -9.806  10.914  66.257  1.00  0.00    -0.216 C  
ENDROOT
BRANCH   2   3
HETATM    3  O   UNL     1      -9.640  11.244  67.640  1.00  0.00    -0.168 OA 
BRANCH   3   4
HETATM    4  C   UNL     1      -8.375  11.098  68.127  1.00  0.00    -0.136 C  
HETATM    5  O   UNL     1      -7.406  11.743  67.742  1.00  0.00    -0.092 OA 
BRANCH   4   6
HETATM    6  C   UNL     1      -8.323  10.151  69.241  1.00  0.00    -0.158 A  
HETATM    7  C   UNL     1      -9.091   9.006  69.399  1.00  0.00    -0.146 A  
HETATM    8  C   UNL     1     -10.244   8.468  68.642  1.00  0.00    -0.197 C  
HETATM    9  N   UNL     1      -9.834   7.224  68.025  1.00  0.00    -0.141 N  
HETATM   10  C   UNL     1     -10.169   7.006  66.628  1.00  0.00    -0.148 C  
HETATM   11  C   UNL     1      -9.437   6.109  68.749  1.00  0.00    -0.121 C  
HETATM   12  C   UNL     1      -9.534   6.133  70.232  1.00  0.00    -0.178 A  
HETATM   13  O   UNL     1      -9.081   5.060  68.213  1.00  0.00    -0.109 OA 
HETATM   14  C   UNL     1      -9.082   7.171  71.069  1.00  0.00    -0.151 A  
HETATM   15  C   UNL     1      -9.146   7.032  72.464  1.00  0.00    -0.145 A  
HETATM   16  N   UNL     1      -8.607   8.386  70.526  1.00  0.00    -0.128 NA 
HETATM   17  C   UNL     1      -7.641   9.207  71.049  1.00  0.00    -0.096 A  
HETATM   18  C   UNL     1      -9.721   5.885  73.018  1.00  0.00    -0.162 A  
HETATM   19  C   UNL     1     -10.177   4.869  72.188  1.00  0.00    -0.196 A  
HETATM   20  N   UNL     1      -7.437  10.265  70.302  1.00  0.00    -0.226 NA 
HETATM   21  C   UNL     1     -10.066   4.972  70.809  1.00  0.00    -0.307 A  
HETATM   22  F   UNL     1     -10.741   3.782  72.724  1.00  0.00    -0.232 F  
ENDBRANCH   4   6
ENDBRANCH   3   4
ENDBRANCH   2   3
TORSDOF 3
ENDMDL
MODEL      164
REMARK 921   NORMALIZED FREE ENERGY PREDICTED BY IDOCK:   -2.79 KCAL/MOL
REMARK 922        TOTAL FREE ENERGY PREDICTED BY IDOCK:   -3.56 KCAL/MOL
REMARK 923 INTER-LIGAND FREE ENERGY PREDICTED BY IDOCK:   -3.29 KCAL/MOL
REMARK 924 INTRA-LIGAND FREE ENERGY PREDICTED BY IDOCK:   -0.27 KCAL/MOL
REMARK 927      BINDING AFFINITY PREDICTED BY RF-SCORE:    0.00 PKD
ROOT
HETATM    1  C   UNL     1      -8.435   2.289  64.269  1.00  0.00    -0.083 C  
HETATM    2  C   UNL     1      -9.255   3.071  65.280  1.00  0.00    -0.146 C  
ENDROOT
BRANCH   2   3
HETATM    3  O   UNL     1      -8.652   4.359  65.443  1.00  0.00    -0.117 OA 
BRANCH   3   4
HETATM    4  C   UNL     1      -7.954   4.535  66.601  1.00  0.00    -0.102 C  
HETATM    5  O   UNL     1      -6.755   4.309  66.728  1.00  0.00    -0.048 OA 
BRANCH   4   6
HETATM    6  C   UNL     1      -8.781   5.123  67.656  1.00  0.00    -0.103 A  
HETATM    7  C   UNL     1      -8.884   6.467  67.983  1.00  0.00    -0.113 A  
HETATM    8  C   UNL     1      -8.141   7.663  67.526  1.00  0.00    -0.120 C  
HETATM    9  N   UNL     1      -9.065   8.519  66.811  1.00  0.00    -0.144 N  
HETATM   10  C   UNL     1      -8.642   9.074  65.537  1.00  0.00    -0.168 C  
HETATM   11  C   UNL     1     -10.179   9.097  67.401  1.00  0.00    -0.247 C  
HETATM   12  C   UNL     1     -10.395   8.934  68.863  1.00  0.00    -0.229 A  
HETATM   13  O   UNL     1     -10.963   9.815  66.781  1.00  0.00    -0.074 OA 
HETATM   14  C   UNL     1     -10.312   7.723  69.576  1.00  0.00    -0.219 A  
HETATM   15  C   UNL     1     -10.632   7.685  70.942  1.00  0.00    -0.219 A  
HETATM   16  N   UNL     1      -9.859   6.541  68.948  1.00  0.00    -0.133 NA 
HETATM   17  C   UNL     1     -10.242   5.254  69.229  1.00  0.00    -0.231 A  
HETATM   18  C   UNL     1     -10.969   8.867  71.606  1.00  0.00    -0.415 A  
HETATM   19  C   UNL     1     -11.037  10.062  70.901  1.00  0.00    -0.314 A  
HETATM   20  N   UNL     1      -9.626   4.381  68.467  1.00  0.00    -0.154 NA 
HETATM   21  C   UNL     1     -10.779  10.100  69.538  1.00  0.00    -0.277 A  
HETATM   22  F   UNL     1     -11.344  11.192  71.545  1.00  0.00     0.365 F  
ENDBRANCH   4   6
ENDBRANCH   3   4
ENDBRANCH   2   3
TORSDOF 3
ENDMDL
MODEL      165
REMARK 921   NORMALIZED FREE ENERGY PREDICTED BY IDOCK:   -2.78 KCAL/MOL
REMARK 922        TOTAL FREE ENERGY PREDICTED BY IDOCK:   -3.55 KCAL/MOL
REMARK 923 INTER-LIGAND FREE ENERGY PREDICTED BY IDOCK:   -3.24 KCAL/MOL
REMARK 924 INTRA-LIGAND FREE ENERGY PREDICTED BY IDOCK:   -0.31 KCAL/MOL
REMARK 927      BINDING AFFINITY PREDICTED BY RF-SCORE:    0.00 PKD
ROOT
HETATM    1  C   UNL     1      -8.561   6.472  64.338  1.00  0.00     0.290 C  
HETATM    2  C   UNL     1      -7.439   7.362  63.833  1.00  0.00    -0.100 C  
ENDROOT
BRANCH   2   3
HETATM    3  O   UNL     1      -7.081   8.268  64.882  1.00  0.00    -0.076 OA 
BRANCH   3   4
HETATM    4  C   UNL     1      -6.634   9.489  64.472  1.00  0.00    -0.095 C  
HETATM    5  O   UNL     1      -5.451   9.801  64.387  1.00  0.00    -0.064 OA 
BRANCH   4   6
HETATM    6  C   UNL     1      -7.731  10.359  64.045  1.00  0.00    -0.035 A  
HETATM    7  C   UNL     1      -8.696  10.942  64.853  1.00  0.00    -0.067 A  
HETATM    8  C   UNL     1      -9.025  10.779  66.288  1.00  0.00    -0.170 C  
HETATM    9  N   UNL     1      -8.756  12.036  66.954  1.00  0.00    -0.190 N  
HETATM   10  C   UNL     1      -8.021  12.006  68.208  1.00  0.00    -0.149 C  
HETATM   11  C   UNL     1      -9.420  13.216  66.653  1.00  0.00    -0.260 C  
HETATM   12  C   UNL     1     -10.542  13.190  65.679  1.00  0.00    -0.289 A  
HETATM   13  O   UNL     1      -9.176  14.281  67.219  1.00  0.00    -0.197 OA 
HETATM   14  C   UNL     1     -10.523  12.564  64.418  1.00  0.00    -0.359 A  
HETATM   15  C   UNL     1     -11.617  12.692  63.548  1.00  0.00    -0.584 A  
HETATM   16  N   UNL     1      -9.431  11.757  64.026  1.00  0.00    -0.073 NA 
HETATM   17  C   UNL     1      -8.949  11.574  62.754  1.00  0.00    -0.032 A  
HETATM   18  C   UNL     1     -12.754  13.388  63.966  1.00  0.00    -0.045 A  
HETATM   19  C   UNL     1     -12.773  13.994  65.217  1.00  0.00    -0.439 A  
HETATM   20  N   UNL     1      -7.925  10.753  62.730  1.00  0.00    -0.104 NA 
HETATM   21  C   UNL     1     -11.674  13.922  66.060  1.00  0.00    -0.381 A  
HETATM   22  F   UNL     1     -13.870  14.645  65.617  1.00  0.00     0.174 F  
ENDBRANCH   4   6
ENDBRANCH   3   4
ENDBRANCH   2   3
TORSDOF 3
ENDMDL
MODEL      166
REMARK 921   NORMALIZED FREE ENERGY PREDICTED BY IDOCK:   -2.69 KCAL/MOL
REMARK 922        TOTAL FREE ENERGY PREDICTED BY IDOCK:   -3.45 KCAL/MOL
REMARK 923 INTER-LIGAND FREE ENERGY PREDICTED BY IDOCK:   -3.30 KCAL/MOL
REMARK 924 INTRA-LIGAND FREE ENERGY PREDICTED BY IDOCK:   -0.15 KCAL/MOL
REMARK 927      BINDING AFFINITY PREDICTED BY RF-SCORE:    0.00 PKD
ROOT
HETATM    1  C   UNL     1      -8.422   3.085  63.458  1.00  0.00    -0.086 C  
HETATM    2  C   UNL     1      -9.390   4.068  64.091  1.00  0.00    -0.157 C  
ENDROOT
BRANCH   2   3
HETATM    3  O   UNL     1      -9.487   3.763  65.487  1.00  0.00    -0.155 OA 
BRANCH   3   4
HETATM    4  C   UNL     1      -8.503   4.290  66.269  1.00  0.00    -0.112 C  
HETATM    5  O   UNL     1      -7.371   3.827  66.365  1.00  0.00    -0.070 OA 
BRANCH   4   6
HETATM    6  C   UNL     1      -8.921   5.538  66.910  1.00  0.00    -0.111 A  
HETATM    7  C   UNL     1      -9.680   5.669  68.064  1.00  0.00    -0.126 A  
HETATM    8  C   UNL     1     -10.405   4.684  68.897  1.00  0.00     0.186 C  
HETATM    9  N   UNL     1      -9.769   4.641  70.197  1.00  0.00    -0.196 N  
HETATM   10  C   UNL     1      -9.484   3.342  70.780  1.00  0.00    -0.166 C  
HETATM   11  C   UNL     1      -9.710   5.732  71.052  1.00  0.00    -0.170 C  
HETATM   12  C   UNL     1     -10.422   6.984  70.684  1.00  0.00    -0.229 A  
HETATM   13  O   UNL     1      -9.158   5.687  72.151  1.00  0.00    -0.140 OA 
HETATM   14  C   UNL     1     -10.369   7.623  69.431  1.00  0.00    -0.214 A  
HETATM   15  C   UNL     1     -11.013   8.854  69.237  1.00  0.00    -0.026 A  
HETATM   16  N   UNL     1      -9.713   7.016  68.335  1.00  0.00    -0.138 NA 
HETATM   17  C   UNL     1      -9.060   7.647  67.306  1.00  0.00    -0.127 A  
HETATM   18  C   UNL     1     -11.764   9.412  70.275  1.00  0.00    -0.127 A  
HETATM   19  C   UNL     1     -11.825   8.771  71.506  1.00  0.00    -0.311 A  
HETATM   20  N   UNL     1      -8.564   6.794  66.442  1.00  0.00    -0.125 NA 
HETATM   21  C   UNL     1     -11.144   7.582  71.726  1.00  0.00    -0.276 A  
HETATM   22  F   UNL     1     -12.558   9.301  72.490  1.00  0.00    -0.424 F  
ENDBRANCH   4   6
ENDBRANCH   3   4
ENDBRANCH   2   3
TORSDOF 3
ENDMDL
MODEL      167
REMARK 921   NORMALIZED FREE ENERGY PREDICTED BY IDOCK:   -2.66 KCAL/MOL
REMARK 922        TOTAL FREE ENERGY PREDICTED BY IDOCK:   -3.41 KCAL/MOL
REMARK 923 INTER-LIGAND FREE ENERGY PREDICTED BY IDOCK:   -3.13 KCAL/MOL
REMARK 924 INTRA-LIGAND FREE ENERGY PREDICTED BY IDOCK:   -0.28 KCAL/MOL
REMARK 927      BINDING AFFINITY PREDICTED BY RF-SCORE:    0.00 PKD
ROOT
HETATM    1  C   UNL     1      -9.473  13.953  67.680  1.00  0.00    -0.212 C  
HETATM    2  C   UNL     1      -8.975  12.617  68.201  1.00  0.00    -0.199 C  
ENDROOT
BRANCH   2   3
HETATM    3  O   UNL     1      -9.418  11.594  67.303  1.00  0.00    -0.166 OA 
BRANCH   3   4
HETATM    4  C   UNL     1     -10.174  10.609  67.867  1.00  0.00    -0.177 C  
HETATM    5  O   UNL     1     -11.286  10.782  68.354  1.00  0.00    -0.268 OA 
BRANCH   4   6
HETATM    6  C   UNL     1      -9.547   9.293  67.734  1.00  0.00    -0.142 A  
HETATM    7  C   UNL     1      -9.336   8.364  68.743  1.00  0.00    -0.143 A  
HETATM    8  C   UNL     1      -9.512   8.431  70.211  1.00  0.00    -0.164 C  
HETATM    9  N   UNL     1     -10.561   7.503  70.579  1.00  0.00    -0.221 N  
HETATM   10  C   UNL     1     -11.590   7.959  71.498  1.00  0.00    -0.270 C  
HETATM   11  C   UNL     1     -10.473   6.134  70.376  1.00  0.00    -0.230 C  
HETATM   12  C   UNL     1      -9.206   5.556  69.856  1.00  0.00    -0.170 A  
HETATM   13  O   UNL     1     -11.376   5.356  70.684  1.00  0.00     0.071 OA 
HETATM   14  C   UNL     1      -8.472   6.038  68.756  1.00  0.00    -0.113 A  
HETATM   15  C   UNL     1      -7.338   5.346  68.305  1.00  0.00    -0.072 A  
HETATM   16  N   UNL     1      -8.830   7.249  68.120  1.00  0.00    -0.127 NA 
HETATM   17  C   UNL     1      -8.673   7.568  66.795  1.00  0.00    -0.133 A  
HETATM   18  C   UNL     1      -6.902   4.211  68.995  1.00  0.00    -0.046 A  
HETATM   19  C   UNL     1      -7.622   3.746  70.088  1.00  0.00    -0.048 A  
HETATM   20  N   UNL     1      -9.102   8.778  66.526  1.00  0.00    -0.151 NA 
HETATM   21  C   UNL     1      -8.777   4.391  70.506  1.00  0.00    -0.119 A  
HETATM   22  F   UNL     1      -7.190   2.670  70.753  1.00  0.00    -0.032 F  
ENDBRANCH   4   6
ENDBRANCH   3   4
ENDBRANCH   2   3
TORSDOF 3
ENDMDL
MODEL      168
REMARK 921   NORMALIZED FREE ENERGY PREDICTED BY IDOCK:   -2.57 KCAL/MOL
REMARK 922        TOTAL FREE ENERGY PREDICTED BY IDOCK:   -3.31 KCAL/MOL
REMARK 923 INTER-LIGAND FREE ENERGY PREDICTED BY IDOCK:   -3.13 KCAL/MOL
REMARK 924 INTRA-LIGAND FREE ENERGY PREDICTED BY IDOCK:   -0.17 KCAL/MOL
REMARK 927      BINDING AFFINITY PREDICTED BY RF-SCORE:    0.00 PKD
ROOT
HETATM    1  C   UNL     1      -7.965   3.512  72.789  1.00  0.00    -0.076 C  
HETATM    2  C   UNL     1      -9.273   4.278  72.872  1.00  0.00    -0.112 C  
ENDROOT
BRANCH   2   3
HETATM    3  O   UNL     1      -8.971   5.678  72.871  1.00  0.00    -0.125 OA 
BRANCH   3   4
HETATM    4  C   UNL     1     -10.019   6.500  72.582  1.00  0.00    -0.171 C  
HETATM    5  O   UNL     1     -11.098   6.480  73.165  1.00  0.00    -0.243 OA 
BRANCH   4   6
HETATM    6  C   UNL     1      -9.675   7.487  71.557  1.00  0.00    -0.165 A  
HETATM    7  C   UNL     1      -9.074   7.241  70.331  1.00  0.00    -0.155 A  
HETATM    8  C   UNL     1      -8.478   6.021  69.741  1.00  0.00    -0.126 C  
HETATM    9  N   UNL     1      -9.281   5.636  68.599  1.00  0.00    -0.120 N  
HETATM   10  C   UNL     1      -9.657   4.239  68.462  1.00  0.00    -0.136 C  
HETATM   11  C   UNL     1      -9.440   6.435  67.476  1.00  0.00    -0.117 C  
HETATM   12  C   UNL     1      -8.671   7.702  67.369  1.00  0.00    -0.124 A  
HETATM   13  O   UNL     1     -10.134   6.102  66.516  1.00  0.00    -0.169 OA 
HETATM   14  C   UNL     1      -8.550   8.678  68.377  1.00  0.00    -0.135 A  
HETATM   15  C   UNL     1      -7.871   9.878  68.120  1.00  0.00    -0.085 A  
HETATM   16  N   UNL     1      -9.061   8.448  69.674  1.00  0.00    -0.152 NA 
HETATM   17  C   UNL     1      -9.564   9.381  70.545  1.00  0.00    -0.271 A  
HETATM   18  C   UNL     1      -7.257  10.073  66.879  1.00  0.00    -0.091 A  
HETATM   19  C   UNL     1      -7.368   9.102  65.892  1.00  0.00    -0.094 A  
HETATM   20  N   UNL     1      -9.952   8.841  71.676  1.00  0.00    -0.283 NA 
HETATM   21  C   UNL     1      -8.087   7.936  66.117  1.00  0.00    -0.109 A  
HETATM   22  F   UNL     1      -6.766   9.286  64.713  1.00  0.00    -0.075 F  
ENDBRANCH   4   6
ENDBRANCH   3   4
ENDBRANCH   2   3
TORSDOF 3
ENDMDL
MODEL      169
REMARK 921   NORMALIZED FREE ENERGY PREDICTED BY IDOCK:   -2.52 KCAL/MOL
REMARK 922        TOTAL FREE ENERGY PREDICTED BY IDOCK:   -3.25 KCAL/MOL
REMARK 923 INTER-LIGAND FREE ENERGY PREDICTED BY IDOCK:   -2.96 KCAL/MOL
REMARK 924 INTRA-LIGAND FREE ENERGY PREDICTED BY IDOCK:   -0.29 KCAL/MOL
REMARK 927      BINDING AFFINITY PREDICTED BY RF-SCORE:    0.00 PKD
ROOT
HETATM    1  C   UNL     1     -11.417  11.545  65.290  1.00  0.00    -0.091 C  
HETATM    2  C   UNL     1     -10.153  11.224  66.067  1.00  0.00    -0.239 C  
ENDROOT
BRANCH   2   3
HETATM    3  O   UNL     1     -10.399  11.496  67.451  1.00  0.00    -0.199 OA 
BRANCH   3   4
HETATM    4  C   UNL     1      -9.378  11.183  68.298  1.00  0.00    -0.176 C  
HETATM    5  O   UNL     1      -8.389  11.886  68.482  1.00  0.00    -0.156 OA 
BRANCH   4   6
HETATM    6  C   UNL     1      -9.643   9.953  69.046  1.00  0.00    -0.186 A  
HETATM    7  C   UNL     1      -8.839   8.825  69.108  1.00  0.00    -0.137 A  
HETATM    8  C   UNL     1      -7.611   8.435  68.378  1.00  0.00    -0.097 C  
HETATM    9  N   UNL     1      -6.525   8.364  69.333  1.00  0.00    -0.037 N  
HETATM   10  C   UNL     1      -5.262   8.992  68.985  1.00  0.00    -0.037 C  
HETATM   11  C   UNL     1      -6.504   7.475  70.398  1.00  0.00    -0.038 C  
HETATM   12  C   UNL     1      -7.586   6.463  70.521  1.00  0.00    -0.096 A  
HETATM   13  O   UNL     1      -5.581   7.431  71.209  1.00  0.00    -0.034 OA 
HETATM   14  C   UNL     1      -8.966   6.717  70.411  1.00  0.00    -0.152 A  
HETATM   15  C   UNL     1      -9.894   5.689  70.642  1.00  0.00    -0.244 A  
HETATM   16  N   UNL     1      -9.441   7.988  70.017  1.00  0.00    -0.160 NA 
HETATM   17  C   UNL     1     -10.612   8.592  70.400  1.00  0.00    -0.223 A  
HETATM   18  C   UNL     1      -9.439   4.397  70.917  1.00  0.00    -0.241 A  
HETATM   19  C   UNL     1      -8.076   4.149  71.012  1.00  0.00    -0.071 A  
HETATM   20  N   UNL     1     -10.760   9.773  69.848  1.00  0.00    -0.248 NA 
HETATM   21  C   UNL     1      -7.152   5.170  70.843  1.00  0.00    -0.059 A  
HETATM   22  F   UNL     1      -7.646   2.907  71.260  1.00  0.00    -0.038 F  
ENDBRANCH   4   6
ENDBRANCH   3   4
ENDBRANCH   2   3
TORSDOF 3
ENDMDL
MODEL      170
REMARK 921   NORMALIZED FREE ENERGY PREDICTED BY IDOCK:   -2.51 KCAL/MOL
REMARK 922        TOTAL FREE ENERGY PREDICTED BY IDOCK:   -3.24 KCAL/MOL
REMARK 923 INTER-LIGAND FREE ENERGY PREDICTED BY IDOCK:   -2.90 KCAL/MOL
REMARK 924 INTRA-LIGAND FREE ENERGY PREDICTED BY IDOCK:   -0.34 KCAL/MOL
REMARK 927      BINDING AFFINITY PREDICTED BY RF-SCORE:    0.00 PKD
ROOT
HETATM    1  C   UNL     1      -5.444   9.714  71.406  1.00  0.00    -0.073 C  
HETATM    2  C   UNL     1      -6.856   9.277  71.060  1.00  0.00    -0.089 C  
ENDROOT
BRANCH   2   3
HETATM    3  O   UNL     1      -7.486  10.337  70.333  1.00  0.00    -0.250 OA 
BRANCH   3   4
HETATM    4  C   UNL     1      -8.605   9.984  69.637  1.00  0.00    -0.184 C  
HETATM    5  O   UNL     1      -9.752  10.173  70.028  1.00  0.00    -0.213 OA 
BRANCH   4   6
HETATM    6  C   UNL     1      -8.281   9.441  68.317  1.00  0.00    -0.118 A  
HETATM    7  C   UNL     1      -8.400   8.122  67.906  1.00  0.00    -0.129 A  
HETATM    8  C   UNL     1      -8.720   6.875  68.638  1.00  0.00    -0.122 C  
HETATM    9  N   UNL     1      -9.986   6.377  68.143  1.00  0.00    -0.130 N  
HETATM   10  C   UNL     1     -10.982   5.949  69.111  1.00  0.00    -0.312 C  
HETATM   11  C   UNL     1     -10.188   5.983  66.828  1.00  0.00    -0.214 C  
HETATM   12  C   UNL     1      -9.035   5.958  65.892  1.00  0.00    -0.149 A  
HETATM   13  O   UNL     1     -11.272   5.570  66.417  1.00  0.00    -0.065 OA 
HETATM   14  C   UNL     1      -8.092   6.989  65.720  1.00  0.00    -0.123 A  
HETATM   15  C   UNL     1      -7.101   6.883  64.733  1.00  0.00    -0.060 A  
HETATM   16  N   UNL     1      -8.093   8.121  66.567  1.00  0.00    -0.103 NA 
HETATM   17  C   UNL     1      -7.720   9.400  66.242  1.00  0.00    -0.097 A  
HETATM   18  C   UNL     1      -7.013   5.719  63.964  1.00  0.00    -0.050 A  
HETATM   19  C   UNL     1      -7.937   4.698  64.146  1.00  0.00    -0.098 A  
HETATM   20  N   UNL     1      -7.831  10.219  67.261  1.00  0.00    -0.103 NA 
HETATM   21  C   UNL     1      -8.956   4.818  65.080  1.00  0.00    -0.153 A  
HETATM   22  F   UNL     1      -7.838   3.581  63.419  1.00  0.00    -0.064 F  
ENDBRANCH   4   6
ENDBRANCH   3   4
ENDBRANCH   2   3
TORSDOF 3
ENDMDL
MODEL      171
REMARK 921   NORMALIZED FREE ENERGY PREDICTED BY IDOCK:   -2.43 KCAL/MOL
REMARK 922        TOTAL FREE ENERGY PREDICTED BY IDOCK:   -3.14 KCAL/MOL
REMARK 923 INTER-LIGAND FREE ENERGY PREDICTED BY IDOCK:   -3.03 KCAL/MOL
REMARK 924 INTRA-LIGAND FREE ENERGY PREDICTED BY IDOCK:   -0.11 KCAL/MOL
REMARK 927      BINDING AFFINITY PREDICTED BY RF-SCORE:    0.00 PKD
ROOT
HETATM    1  C   UNL     1      -9.664  10.628  63.118  1.00  0.00    -0.375 C  
HETATM    2  C   UNL     1      -9.267  11.113  64.501  1.00  0.00    -0.108 C  
ENDROOT
BRANCH   2   3
HETATM    3  O   UNL     1      -9.550  10.069  65.439  1.00  0.00    -0.235 OA 
BRANCH   3   4
HETATM    4  C   UNL     1      -9.464  10.425  66.752  1.00  0.00    -0.166 C  
HETATM    5  O   UNL     1      -9.993  11.420  67.237  1.00  0.00    -0.191 OA 
BRANCH   4   6
HETATM    6  C   UNL     1      -8.747   9.425  67.545  1.00  0.00    -0.122 A  
HETATM    7  C   UNL     1      -8.991   9.077  68.866  1.00  0.00    -0.140 A  
HETATM    8  C   UNL     1      -9.879   9.655  69.901  1.00  0.00    -0.239 C  
HETATM    9  N   UNL     1     -10.891   8.671  70.222  1.00  0.00    -0.234 N  
HETATM   10  C   UNL     1     -12.275   9.108  70.298  1.00  0.00     0.338 C  
HETATM   11  C   UNL     1     -10.601   7.430  70.771  1.00  0.00    -0.223 C  
HETATM   12  C   UNL     1      -9.201   7.116  71.158  1.00  0.00    -0.157 A  
HETATM   13  O   UNL     1     -11.469   6.598  71.030  1.00  0.00    -0.293 OA 
HETATM   14  C   UNL     1      -8.059   7.331  70.362  1.00  0.00    -0.116 A  
HETATM   15  C   UNL     1      -6.799   6.903  70.806  1.00  0.00    -0.058 A  
HETATM   16  N   UNL     1      -8.151   8.023  69.133  1.00  0.00    -0.117 NA 
HETATM   17  C   UNL     1      -7.383   7.830  68.013  1.00  0.00    -0.102 A  
HETATM   18  C   UNL     1      -6.671   6.323  72.071  1.00  0.00    -0.067 A  
HETATM   19  C   UNL     1      -7.799   6.125  72.858  1.00  0.00    -0.105 A  
HETATM   20  N   UNL     1      -7.719   8.643  67.040  1.00  0.00    -0.095 NA 
HETATM   21  C   UNL     1      -9.058   6.491  72.404  1.00  0.00    -0.133 A  
HETATM   22  F   UNL     1      -7.668   5.584  74.073  1.00  0.00    -0.097 F  
ENDBRANCH   4   6
ENDBRANCH   3   4
ENDBRANCH   2   3
TORSDOF 3
ENDMDL
MODEL      172
REMARK 921   NORMALIZED FREE ENERGY PREDICTED BY IDOCK:   -2.39 KCAL/MOL
REMARK 922        TOTAL FREE ENERGY PREDICTED BY IDOCK:   -3.10 KCAL/MOL
REMARK 923 INTER-LIGAND FREE ENERGY PREDICTED BY IDOCK:   -2.83 KCAL/MOL
REMARK 924 INTRA-LIGAND FREE ENERGY PREDICTED BY IDOCK:   -0.27 KCAL/MOL
REMARK 927      BINDING AFFINITY PREDICTED BY RF-SCORE:    0.00 PKD
ROOT
HETATM    1  C   UNL     1      -9.487   5.477  70.118  1.00  0.00    -0.210 C  
HETATM    2  C   UNL     1     -10.555   6.305  70.810  1.00  0.00    -0.243 C  
ENDROOT
BRANCH   2   3
HETATM    3  O   UNL     1     -10.622   7.579  70.162  1.00  0.00    -0.224 OA 
BRANCH   3   4
HETATM    4  C   UNL     1     -10.281   8.648  70.937  1.00  0.00    -0.209 C  
HETATM    5  O   UNL     1      -9.635   8.571  71.977  1.00  0.00    -0.246 OA 
BRANCH   4   6
HETATM    6  C   UNL     1     -10.689   9.916  70.332  1.00  0.00    -0.318 A  
HETATM    7  C   UNL     1      -9.857  10.905  69.828  1.00  0.00     0.350 A  
HETATM    8  C   UNL     1      -8.387  11.085  69.864  1.00  0.00     0.917 C  
HETATM    9  N   UNL     1      -7.892  11.001  68.506  1.00  0.00    -0.121 N  
HETATM   10  C   UNL     1      -6.723  10.176  68.251  1.00  0.00    -0.054 C  
HETATM   11  C   UNL     1      -8.253  11.893  67.507  1.00  0.00    -0.155 C  
HETATM   12  C   UNL     1      -9.101  13.064  67.850  1.00  0.00    -0.207 A  
HETATM   13  O   UNL     1      -7.833  11.805  66.354  1.00  0.00    -0.051 OA 
HETATM   14  C   UNL     1     -10.282  13.029  68.616  1.00  0.00    -0.164 A  
HETATM   15  C   UNL     1     -11.046  14.192  68.791  1.00  0.00    -0.283 A  
HETATM   16  N   UNL     1     -10.690  11.841  69.264  1.00  0.00    -0.132 NA 
HETATM   17  C   UNL     1     -11.976  11.435  69.519  1.00  0.00    -0.341 A  
HETATM   18  C   UNL     1     -10.595  15.402  68.256  1.00  0.00    -0.253 A  
HETATM   19  C   UNL     1      -9.423  15.435  67.511  1.00  0.00    -0.205 A  
HETATM   20  N   UNL     1     -12.013  10.283  70.145  1.00  0.00    -0.254 NA 
HETATM   21  C   UNL     1      -8.690  14.278  67.284  1.00  0.00    -0.230 A  
HETATM   22  F   UNL     1      -8.988  16.597  67.015  1.00  0.00    -0.196 F  
ENDBRANCH   4   6
ENDBRANCH   3   4
ENDBRANCH   2   3
TORSDOF 3
ENDMDL
MODEL      173
REMARK 921   NORMALIZED FREE ENERGY PREDICTED BY IDOCK:   -2.31 KCAL/MOL
REMARK 922        TOTAL FREE ENERGY PREDICTED BY IDOCK:   -3.00 KCAL/MOL
REMARK 923 INTER-LIGAND FREE ENERGY PREDICTED BY IDOCK:   -2.96 KCAL/MOL
REMARK 924 INTRA-LIGAND FREE ENERGY PREDICTED BY IDOCK:   -0.04 KCAL/MOL
REMARK 927      BINDING AFFINITY PREDICTED BY RF-SCORE:    0.00 PKD
ROOT
HETATM    1  C   UNL     1      -7.698   3.352  65.209  1.00  0.00    -0.081 C  
HETATM    2  C   UNL     1      -8.378   4.155  66.304  1.00  0.00    -0.105 C  
ENDROOT
BRANCH   2   3
HETATM    3  O   UNL     1      -7.844   5.484  66.280  1.00  0.00    -0.098 OA 
BRANCH   3   4
HETATM    4  C   UNL     1      -8.345   6.331  67.224  1.00  0.00    -0.109 C  
HETATM    5  O   UNL     1      -8.604   6.008  68.378  1.00  0.00    -0.112 OA 
BRANCH   4   6
HETATM    6  C   UNL     1      -8.446   7.705  66.728  1.00  0.00    -0.127 A  
HETATM    7  C   UNL     1      -8.650   8.851  67.483  1.00  0.00    -0.120 A  
HETATM    8  C   UNL     1      -8.967   9.057  68.915  1.00  0.00    -0.140 C  
HETATM    9  N   UNL     1      -7.845   9.735  69.529  1.00  0.00    -0.113 N  
HETATM   10  C   UNL     1      -7.353   9.234  70.801  1.00  0.00    -0.123 C  
HETATM   11  C   UNL     1      -7.424  11.003  69.156  1.00  0.00    -0.121 C  
HETATM   12  C   UNL     1      -8.214  11.767  68.155  1.00  0.00    -0.153 A  
HETATM   13  O   UNL     1      -6.462  11.565  69.679  1.00  0.00    -0.112 OA 
HETATM   14  C   UNL     1      -8.685  11.268  66.926  1.00  0.00    -0.157 A  
HETATM   15  C   UNL     1      -9.340  12.120  66.023  1.00  0.00    -0.174 A  
HETATM   16  N   UNL     1      -8.555   9.899  66.600  1.00  0.00    -0.124 NA 
HETATM   17  C   UNL     1      -8.387   9.356  65.351  1.00  0.00    -0.137 A  
HETATM   18  C   UNL     1      -9.582  13.449  66.378  1.00  0.00    -0.265 A  
HETATM   19  C   UNL     1      -9.126  13.933  67.599  1.00  0.00    -0.197 A  
HETATM   20  N   UNL     1      -8.306   8.047  65.392  1.00  0.00    -0.150 NA 
HETATM   21  C   UNL     1      -8.426  13.114  68.473  1.00  0.00    -0.058 A  
HETATM   22  F   UNL     1      -9.375  15.201  67.940  1.00  0.00    -0.181 F  
ENDBRANCH   4   6
ENDBRANCH   3   4
ENDBRANCH   2   3
TORSDOF 3
ENDMDL
MODEL      174
REMARK 921   NORMALIZED FREE ENERGY PREDICTED BY IDOCK:   -2.31 KCAL/MOL
REMARK 922        TOTAL FREE ENERGY PREDICTED BY IDOCK:   -3.00 KCAL/MOL
REMARK 923 INTER-LIGAND FREE ENERGY PREDICTED BY IDOCK:   -2.73 KCAL/MOL
REMARK 924 INTRA-LIGAND FREE ENERGY PREDICTED BY IDOCK:   -0.27 KCAL/MOL
REMARK 927      BINDING AFFINITY PREDICTED BY RF-SCORE:    0.00 PKD
ROOT
HETATM    1  C   UNL     1      -8.723   6.394  66.521  1.00  0.00    -0.133 C  
HETATM    2  C   UNL     1      -8.296   6.503  67.974  1.00  0.00    -0.116 C  
ENDROOT
BRANCH   2   3
HETATM    3  O   UNL     1      -9.435   6.896  68.747  1.00  0.00    -0.137 OA 
BRANCH   3   4
HETATM    4  C   UNL     1      -9.154   7.549  69.910  1.00  0.00    -0.144 C  
HETATM    5  O   UNL     1      -9.377   7.098  71.029  1.00  0.00    -0.158 OA 
BRANCH   4   6
HETATM    6  C   UNL     1      -8.459   8.815  69.674  1.00  0.00    -0.129 A  
HETATM    7  C   UNL     1      -8.918   9.893  68.931  1.00  0.00    -0.153 A  
HETATM    8  C   UNL     1     -10.102  10.070  68.059  1.00  0.00    -0.167 C  
HETATM    9  N   UNL     1     -10.963  11.062  68.668  1.00  0.00    -0.204 N  
HETATM   10  C   UNL     1     -12.386  10.778  68.752  1.00  0.00     0.404 C  
HETATM   11  C   UNL     1     -10.579  12.378  68.879  1.00  0.00    -0.126 C  
HETATM   12  C   UNL     1      -9.265  12.843  68.364  1.00  0.00    -0.137 A  
HETATM   13  O   UNL     1     -11.316  13.210  69.407  1.00  0.00    -0.258 OA 
HETATM   14  C   UNL     1      -8.035  12.176  68.525  1.00  0.00    -0.119 A  
HETATM   15  C   UNL     1      -6.846  12.767  68.072  1.00  0.00    -0.100 A  
HETATM   16  N   UNL     1      -7.980  10.884  69.095  1.00  0.00    -0.138 NA 
HETATM   17  C   UNL     1      -6.963  10.351  69.845  1.00  0.00    -0.149 A  
HETATM   18  C   UNL     1      -6.895  13.992  67.400  1.00  0.00    -0.025 A  
HETATM   19  C   UNL     1      -8.113  14.640  67.232  1.00  0.00    -0.206 A  
HETATM   20  N   UNL     1      -7.220   9.120  70.219  1.00  0.00    -0.063 NA 
HETATM   21  C   UNL     1      -9.287  14.091  67.728  1.00  0.00    -0.205 A  
HETATM   22  F   UNL     1      -8.155  15.804  66.575  1.00  0.00    -0.267 F  
ENDBRANCH   4   6
ENDBRANCH   3   4
ENDBRANCH   2   3
TORSDOF 3
ENDMDL
MODEL      175
REMARK 921   NORMALIZED FREE ENERGY PREDICTED BY IDOCK:   -2.30 KCAL/MOL
REMARK 922        TOTAL FREE ENERGY PREDICTED BY IDOCK:   -2.99 KCAL/MOL
REMARK 923 INTER-LIGAND FREE ENERGY PREDICTED BY IDOCK:   -3.03 KCAL/MOL
REMARK 924 INTRA-LIGAND FREE ENERGY PREDICTED BY IDOCK:    0.03 KCAL/MOL
REMARK 927      BINDING AFFINITY PREDICTED BY RF-SCORE:    0.00 PKD
ROOT
HETATM    1  C   UNL     1     -12.488  11.905  63.557  1.00  0.00    -0.609 C  
HETATM    2  C   UNL     1     -12.009  13.045  64.438  1.00  0.00    -0.397 C  
ENDROOT
BRANCH   2   3
HETATM    3  O   UNL     1     -12.578  12.874  65.740  1.00  0.00    -0.538 OA 
BRANCH   3   4
HETATM    4  C   UNL     1     -11.735  12.366  66.684  1.00  0.00    -0.372 C  
HETATM    5  O   UNL     1     -11.990  11.396  67.391  1.00  0.00    -0.606 OA 
BRANCH   4   6
HETATM    6  C   UNL     1     -10.442  13.050  66.688  1.00  0.00    -0.264 A  
HETATM    7  C   UNL     1     -10.221  14.415  66.803  1.00  0.00    -0.270 A  
HETATM    8  C   UNL     1     -11.140  15.577  66.802  1.00  0.00    -0.206 C  
HETATM    9  N   UNL     1     -11.076  16.198  68.108  1.00  0.00    -0.342 N  
HETATM   10  C   UNL     1     -12.324  16.555  68.761  1.00  0.00     1.272 C  
HETATM   11  C   UNL     1      -9.920  16.763  68.628  1.00  0.00    -0.276 C  
HETATM   12  C   UNL     1      -8.704  16.843  67.777  1.00  0.00    -0.212 A  
HETATM   13  O   UNL     1      -9.876  17.280  69.744  1.00  0.00     0.189 OA 
HETATM   14  C   UNL     1      -8.167  15.792  67.009  1.00  0.00    -0.228 A  
HETATM   15  C   UNL     1      -6.957  15.968  66.321  1.00  0.00     1.023 A  
HETATM   16  N   UNL     1      -8.857  14.566  66.875  1.00  0.00    -0.238 NA 
HETATM   17  C   UNL     1      -8.308  13.319  66.716  1.00  0.00     0.096 A  
HETATM   18  C   UNL     1      -6.321  17.211  66.347  1.00  0.00    -0.217 A  
HETATM   19  C   UNL     1      -6.862  18.249  67.096  1.00  0.00    -0.193 A  
HETATM   20  N   UNL     1      -9.226  12.387  66.614  1.00  0.00    -0.218 NA 
HETATM   21  C   UNL     1      -8.027  18.069  67.827  1.00  0.00    -0.235 A  
HETATM   22  F   UNL     1      -6.257  19.442  67.104  1.00  0.00    -0.184 F  
ENDBRANCH   4   6
ENDBRANCH   3   4
ENDBRANCH   2   3
TORSDOF 3
ENDMDL
MODEL      176
REMARK 921   NORMALIZED FREE ENERGY PREDICTED BY IDOCK:   -2.13 KCAL/MOL
REMARK 922        TOTAL FREE ENERGY PREDICTED BY IDOCK:   -2.79 KCAL/MOL
REMARK 923 INTER-LIGAND FREE ENERGY PREDICTED BY IDOCK:   -2.66 KCAL/MOL
REMARK 924 INTRA-LIGAND FREE ENERGY PREDICTED BY IDOCK:   -0.13 KCAL/MOL
REMARK 927      BINDING AFFINITY PREDICTED BY RF-SCORE:    0.00 PKD
ROOT
HETATM    1  C   UNL     1      -8.945   9.420  62.642  1.00  0.00    -0.215 C  
HETATM    2  C   UNL     1      -7.905   8.337  62.863  1.00  0.00    -0.143 C  
ENDROOT
BRANCH   2   3
HETATM    3  O   UNL     1      -8.031   7.864  64.208  1.00  0.00    -0.137 OA 
BRANCH   3   4
HETATM    4  C   UNL     1      -6.868   7.806  64.918  1.00  0.00    -0.051 C  
HETATM    5  O   UNL     1      -5.755   7.692  64.416  1.00  0.00    -0.037 OA 
BRANCH   4   6
HETATM    6  C   UNL     1      -7.091   7.997  66.352  1.00  0.00    -0.074 A  
HETATM    7  C   UNL     1      -7.975   7.296  67.159  1.00  0.00    -0.110 A  
HETATM    8  C   UNL     1      -9.028   6.300  66.853  1.00  0.00    -0.120 C  
HETATM    9  N   UNL     1      -8.635   5.037  67.441  1.00  0.00    -0.105 N  
HETATM   10  C   UNL     1      -8.747   3.837  66.630  1.00  0.00    -0.118 C  
HETATM   11  C   UNL     1      -8.469   4.850  68.806  1.00  0.00    -0.086 C  
HETATM   12  C   UNL     1      -8.812   5.956  69.738  1.00  0.00    -0.129 A  
HETATM   13  O   UNL     1      -8.124   3.774  69.293  1.00  0.00    -0.055 OA 
HETATM   14  C   UNL     1      -8.416   7.300  69.601  1.00  0.00    -0.133 A  
HETATM   15  C   UNL     1      -8.726   8.234  70.601  1.00  0.00    -0.144 A  
HETATM   16  N   UNL     1      -7.747   7.744  68.437  1.00  0.00    -0.116 NA 
HETATM   17  C   UNL     1      -6.813   8.745  68.349  1.00  0.00    -0.065 A  
HETATM   18  C   UNL     1      -9.489   7.837  71.703  1.00  0.00    -0.179 A  
HETATM   19  C   UNL     1      -9.888   6.513  71.828  1.00  0.00    -0.165 A  
HETATM   20  N   UNL     1      -6.390   8.915  67.119  1.00  0.00    -0.059 NA 
HETATM   21  C   UNL     1      -9.537   5.570  70.873  1.00  0.00    -0.219 A  
HETATM   22  F   UNL     1     -10.631   6.143  72.876  1.00  0.00    -0.204 F  
ENDBRANCH   4   6
ENDBRANCH   3   4
ENDBRANCH   2   3
TORSDOF 3
ENDMDL
MODEL      177
REMARK 921   NORMALIZED FREE ENERGY PREDICTED BY IDOCK:   -2.08 KCAL/MOL
REMARK 922        TOTAL FREE ENERGY PREDICTED BY IDOCK:   -2.73 KCAL/MOL
REMARK 923 INTER-LIGAND FREE ENERGY PREDICTED BY IDOCK:   -2.91 KCAL/MOL
REMARK 924 INTRA-LIGAND FREE ENERGY PREDICTED BY IDOCK:    0.18 KCAL/MOL
REMARK 927      BINDING AFFINITY PREDICTED BY RF-SCORE:    0.00 PKD
ROOT
HETATM    1  C   UNL     1      -8.494   6.508  64.455  1.00  0.00     0.131 C  
HETATM    2  C   UNL     1      -7.359   7.251  63.773  1.00  0.00    -0.089 C  
ENDROOT
BRANCH   2   3
HETATM    3  O   UNL     1      -6.865   8.242  64.680  1.00  0.00    -0.067 OA 
BRANCH   3   4
HETATM    4  C   UNL     1      -7.672   9.327  64.856  1.00  0.00    -0.110 C  
HETATM    5  O   UNL     1      -7.705  10.296  64.105  1.00  0.00    -0.148 OA 
BRANCH   4   6
HETATM    6  C   UNL     1      -8.574   9.159  65.996  1.00  0.00    -0.146 A  
HETATM    7  C   UNL     1      -8.216   8.928  67.316  1.00  0.00    -0.104 A  
HETATM    8  C   UNL     1      -6.913   8.638  67.959  1.00  0.00    -0.075 C  
HETATM    9  N   UNL     1      -6.587   9.747  68.831  1.00  0.00    -0.046 N  
HETATM   10  C   UNL     1      -5.241  10.290  68.777  1.00  0.00    -0.038 C  
HETATM   11  C   UNL     1      -7.359  10.108  69.926  1.00  0.00    -0.165 C  
HETATM   12  C   UNL     1      -8.521   9.263  70.306  1.00  0.00    -0.224 A  
HETATM   13  O   UNL     1      -7.077  11.059  70.654  1.00  0.00     0.158 OA 
HETATM   14  C   UNL     1      -9.511   8.782  69.428  1.00  0.00    -0.161 A  
HETATM   15  C   UNL     1     -10.613   8.071  69.927  1.00  0.00    -0.242 A  
HETATM   16  N   UNL     1      -9.389   8.959  68.031  1.00  0.00    -0.142 NA 
HETATM   17  C   UNL     1     -10.405   9.117  67.123  1.00  0.00    -0.267 A  
HETATM   18  C   UNL     1     -10.690   7.785  71.292  1.00  0.00    -0.251 A  
HETATM   19  C   UNL     1      -9.704   8.250  72.153  1.00  0.00    -0.274 A  
HETATM   20  N   UNL     1      -9.954   9.251  65.899  1.00  0.00    -0.289 NA 
HETATM   21  C   UNL     1      -8.641   9.004  71.678  1.00  0.00    -0.048 A  
HETATM   22  F   UNL     1      -9.775   7.960  73.456  1.00  0.00    -0.317 F  
ENDBRANCH   4   6
ENDBRANCH   3   4
ENDBRANCH   2   3
TORSDOF 3
ENDMDL
MODEL      178
REMARK 921   NORMALIZED FREE ENERGY PREDICTED BY IDOCK:   -2.07 KCAL/MOL
REMARK 922        TOTAL FREE ENERGY PREDICTED BY IDOCK:   -2.72 KCAL/MOL
REMARK 923 INTER-LIGAND FREE ENERGY PREDICTED BY IDOCK:   -2.61 KCAL/MOL
REMARK 924 INTRA-LIGAND FREE ENERGY PREDICTED BY IDOCK:   -0.10 KCAL/MOL
REMARK 927      BINDING AFFINITY PREDICTED BY RF-SCORE:    0.00 PKD
ROOT
HETATM    1  C   UNL     1      -9.658  10.560  63.126  1.00  0.00    -0.375 C  
HETATM    2  C   UNL     1      -9.004  10.589  64.496  1.00  0.00    -0.209 C  
ENDROOT
BRANCH   2   3
HETATM    3  O   UNL     1      -9.250   9.333  65.136  1.00  0.00    -0.234 OA 
BRANCH   3   4
HETATM    4  C   UNL     1      -8.773   9.222  66.408  1.00  0.00    -0.132 C  
HETATM    5  O   UNL     1      -8.950  10.055  67.290  1.00  0.00    -0.134 OA 
BRANCH   4   6
HETATM    6  C   UNL     1      -8.105   7.938  66.633  1.00  0.00    -0.107 A  
HETATM    7  C   UNL     1      -8.078   7.208  67.812  1.00  0.00    -0.115 A  
HETATM    8  C   UNL     1      -8.541   7.514  69.185  1.00  0.00    -0.136 C  
HETATM    9  N   UNL     1      -9.623   6.608  69.506  1.00  0.00    -0.147 N  
HETATM   10  C   UNL     1     -10.821   7.157  70.117  1.00  0.00    -0.257 C  
HETATM   11  C   UNL     1      -9.470   5.230  69.570  1.00  0.00    -0.138 C  
HETATM   12  C   UNL     1      -8.114   4.642  69.411  1.00  0.00    -0.069 A  
HETATM   13  O   UNL     1     -10.399   4.469  69.834  1.00  0.00    -0.130 OA 
HETATM   14  C   UNL     1      -7.188   4.968  68.402  1.00  0.00    -0.062 A  
HETATM   15  C   UNL     1      -5.974   4.271  68.305  1.00  0.00    -0.027 A  
HETATM   16  N   UNL     1      -7.438   6.031  67.505  1.00  0.00    -0.081 NA 
HETATM   17  C   UNL     1      -7.030   6.127  66.199  1.00  0.00    -0.066 A  
HETATM   18  C   UNL     1      -5.659   3.296  69.256  1.00  0.00    -0.017 A  
HETATM   19  C   UNL     1      -6.570   2.987  70.257  1.00  0.00    -0.033 A  
HETATM   20  N   UNL     1      -7.422   7.249  65.643  1.00  0.00    -0.081 NA 
HETATM   21  C   UNL     1      -7.798   3.629  70.327  1.00  0.00    -0.047 A  
HETATM   22  F   UNL     1      -6.256   2.065  71.173  1.00  0.00    -0.016 F  
ENDBRANCH   4   6
ENDBRANCH   3   4
ENDBRANCH   2   3
TORSDOF 3
ENDMDL
MODEL      179
REMARK 921   NORMALIZED FREE ENERGY PREDICTED BY IDOCK:   -2.01 KCAL/MOL
REMARK 922        TOTAL FREE ENERGY PREDICTED BY IDOCK:   -2.65 KCAL/MOL
REMARK 923 INTER-LIGAND FREE ENERGY PREDICTED BY IDOCK:   -2.44 KCAL/MOL
REMARK 924 INTRA-LIGAND FREE ENERGY PREDICTED BY IDOCK:   -0.21 KCAL/MOL
REMARK 927      BINDING AFFINITY PREDICTED BY RF-SCORE:    0.00 PKD
ROOT
HETATM    1  C   UNL     1      -8.959   9.589  62.614  1.00  0.00    -0.249 C  
HETATM    2  C   UNL     1      -7.977   8.440  62.756  1.00  0.00    -0.159 C  
ENDROOT
BRANCH   2   3
HETATM    3  O   UNL     1      -7.960   8.035  64.129  1.00  0.00    -0.141 OA 
BRANCH   3   4
HETATM    4  C   UNL     1      -7.842   6.693  64.340  1.00  0.00    -0.114 C  
HETATM    5  O   UNL     1      -8.165   5.832  63.527  1.00  0.00    -0.120 OA 
BRANCH   4   6
HETATM    6  C   UNL     1      -7.188   6.393  65.614  1.00  0.00    -0.074 A  
HETATM    7  C   UNL     1      -7.668   6.675  66.885  1.00  0.00    -0.106 A  
HETATM    8  C   UNL     1      -8.837   7.452  67.358  1.00  0.00    -0.123 C  
HETATM    9  N   UNL     1      -9.747   6.537  68.014  1.00  0.00    -0.118 N  
HETATM   10  C   UNL     1     -11.160   6.620  67.686  1.00  0.00    -0.271 C  
HETATM   11  C   UNL     1      -9.415   5.818  69.153  1.00  0.00    -0.128 C  
HETATM   12  C   UNL     1      -8.107   6.065  69.814  1.00  0.00    -0.114 A  
HETATM   13  O   UNL     1     -10.194   5.035  69.696  1.00  0.00    -0.241 OA 
HETATM   14  C   UNL     1      -6.859   6.132  69.166  1.00  0.00    -0.062 A  
HETATM   15  C   UNL     1      -5.681   6.277  69.916  1.00  0.00    -0.014 A  
HETATM   16  N   UNL     1      -6.770   6.107  67.756  1.00  0.00    -0.059 NA 
HETATM   17  C   UNL     1      -5.752   5.587  66.998  1.00  0.00    -0.017 A  
HETATM   18  C   UNL     1      -5.759   6.422  71.304  1.00  0.00    -0.027 A  
HETATM   19  C   UNL     1      -6.994   6.368  71.937  1.00  0.00    -0.080 A  
HETATM   20  N   UNL     1      -5.974   5.730  65.713  1.00  0.00    -0.024 NA 
HETATM   21  C   UNL     1      -8.159   6.166  71.210  1.00  0.00    -0.118 A  
HETATM   22  F   UNL     1      -7.064   6.523  73.263  1.00  0.00    -0.076 F  
ENDBRANCH   4   6
ENDBRANCH   3   4
ENDBRANCH   2   3
TORSDOF 3
ENDMDL
MODEL      180
REMARK 921   NORMALIZED FREE ENERGY PREDICTED BY IDOCK:   -1.82 KCAL/MOL
REMARK 922        TOTAL FREE ENERGY PREDICTED BY IDOCK:   -2.43 KCAL/MOL
REMARK 923 INTER-LIGAND FREE ENERGY PREDICTED BY IDOCK:   -2.34 KCAL/MOL
REMARK 924 INTRA-LIGAND FREE ENERGY PREDICTED BY IDOCK:   -0.08 KCAL/MOL
REMARK 927      BINDING AFFINITY PREDICTED BY RF-SCORE:    0.00 PKD
ROOT
HETATM    1  C   UNL     1      -8.972   9.423  62.655  1.00  0.00    -0.215 C  
HETATM    2  C   UNL     1      -8.260   8.172  63.137  1.00  0.00    -0.083 C  
ENDROOT
BRANCH   2   3
HETATM    3  O   UNL     1      -8.750   7.853  64.444  1.00  0.00     0.139 OA 
BRANCH   3   4
HETATM    4  C   UNL     1      -7.811   7.415  65.330  1.00  0.00    -0.121 C  
HETATM    5  O   UNL     1      -6.601   7.461  65.136  1.00  0.00    -0.043 OA 
BRANCH   4   6
HETATM    6  C   UNL     1      -8.410   6.973  66.590  1.00  0.00    -0.118 A  
HETATM    7  C   UNL     1      -7.822   6.997  67.846  1.00  0.00    -0.114 A  
HETATM    8  C   UNL     1      -6.445   7.302  68.296  1.00  0.00    -0.045 C  
HETATM    9  N   UNL     1      -6.493   8.504  69.102  1.00  0.00    -0.043 N  
HETATM   10  C   UNL     1      -5.507   9.541  68.849  1.00  0.00    -0.036 C  
HETATM   11  C   UNL     1      -7.197   8.594  70.294  1.00  0.00    -0.049 C  
HETATM   12  C   UNL     1      -7.852   7.379  70.846  1.00  0.00    -0.096 A  
HETATM   13  O   UNL     1      -7.239   9.625  70.965  1.00  0.00    -0.309 OA 
HETATM   14  C   UNL     1      -8.661   6.481  70.124  1.00  0.00    -0.140 A  
HETATM   15  C   UNL     1      -9.300   5.420  70.783  1.00  0.00    -0.200 A  
HETATM   16  N   UNL     1      -8.803   6.598  68.723  1.00  0.00    -0.127 NA 
HETATM   17  C   UNL     1      -9.902   6.270  67.970  1.00  0.00    -0.125 A  
HETATM   18  C   UNL     1      -9.077   5.219  72.148  1.00  0.00    -0.148 A  
HETATM   19  C   UNL     1      -8.267   6.101  72.854  1.00  0.00    -0.116 A  
HETATM   20  N   UNL     1      -9.707   6.492  66.692  1.00  0.00    -0.164 NA 
HETATM   21  C   UNL     1      -7.677   7.187  72.223  1.00  0.00    -0.089 A  
HETATM   22  F   UNL     1      -8.044   5.895  74.155  1.00  0.00    -0.104 F  
ENDBRANCH   4   6
ENDBRANCH   3   4
ENDBRANCH   2   3
TORSDOF 3
ENDMDL
MODEL      181
REMARK 921   NORMALIZED FREE ENERGY PREDICTED BY IDOCK:   -1.72 KCAL/MOL
REMARK 922        TOTAL FREE ENERGY PREDICTED BY IDOCK:   -2.31 KCAL/MOL
REMARK 923 INTER-LIGAND FREE ENERGY PREDICTED BY IDOCK:   -3.93 KCAL/MOL
REMARK 924 INTRA-LIGAND FREE ENERGY PREDICTED BY IDOCK:    1.61 KCAL/MOL
REMARK 927      BINDING AFFINITY PREDICTED BY RF-SCORE:    0.00 PKD
ROOT
HETATM    1  C   UNL     1      -5.741  16.184  70.927  1.00  0.00     0.174 C  
HETATM    2  C   UNL     1      -5.973  14.693  71.099  1.00  0.00    -0.027 C  
ENDROOT
BRANCH   2   3
HETATM    3  O   UNL     1      -6.822  14.247  70.037  1.00  0.00    -0.092 OA 
BRANCH   3   4
HETATM    4  C   UNL     1      -7.563  15.220  69.433  1.00  0.00    -0.219 C  
HETATM    5  O   UNL     1      -8.696  15.540  69.775  1.00  0.00    -0.220 OA 
BRANCH   4   6
HETATM    6  C   UNL     1      -6.808  15.915  68.389  1.00  0.00    -0.116 A  
HETATM    7  C   UNL     1      -7.262  16.942  67.575  1.00  0.00    -0.149 A  
HETATM    8  C   UNL     1      -8.602  17.542  67.382  1.00  0.00    -0.220 C  
HETATM    9  N   UNL     1      -8.549  18.914  67.841  1.00  0.00    -0.288 N  
HETATM   10  C   UNL     1      -9.622  19.394  68.695  1.00  0.00    -0.426 C  
HETATM   11  C   UNL     1      -7.732  19.878  67.269  1.00  0.00    -0.276 C  
HETATM   12  C   UNL     1      -6.946  19.537  66.055  1.00  0.00    -0.280 A  
HETATM   13  O   UNL     1      -7.688  21.039  67.674  1.00  0.00    -0.221 OA 
HETATM   14  C   UNL     1      -6.159  18.382  65.882  1.00  0.00    -0.212 A  
HETATM   15  C   UNL     1      -5.387  18.220  64.722  1.00  0.00    -0.072 A  
HETATM   16  N   UNL     1      -6.172  17.345  66.843  1.00  0.00    -0.158 NA 
HETATM   17  C   UNL     1      -5.138  16.505  67.170  1.00  0.00    -0.075 A  
HETATM   18  C   UNL     1      -5.453  19.180  63.708  1.00  0.00    -0.339 A  
HETATM   19  C   UNL     1      -6.241  20.312  63.878  1.00  0.00    -0.164 A  
HETATM   20  N   UNL     1      -5.479  15.645  68.100  1.00  0.00    -0.109 NA 
HETATM   21  C   UNL     1      -6.963  20.509  65.046  1.00  0.00    -0.136 A  
HETATM   22  F   UNL     1      -6.313  21.218  62.898  1.00  0.00    -0.301 F  
ENDBRANCH   4   6
ENDBRANCH   3   4
ENDBRANCH   2   3
TORSDOF 3
ENDMDL
MODEL      182
REMARK 921   NORMALIZED FREE ENERGY PREDICTED BY IDOCK:   -1.62 KCAL/MOL
REMARK 922        TOTAL FREE ENERGY PREDICTED BY IDOCK:   -2.19 KCAL/MOL
REMARK 923 INTER-LIGAND FREE ENERGY PREDICTED BY IDOCK:   -3.20 KCAL/MOL
REMARK 924 INTRA-LIGAND FREE ENERGY PREDICTED BY IDOCK:    1.00 KCAL/MOL
REMARK 927      BINDING AFFINITY PREDICTED BY RF-SCORE:    0.00 PKD
ROOT
HETATM    1  C   UNL     1      -5.883  18.911  67.220  1.00  0.00    -0.159 C  
HETATM    2  C   UNL     1      -5.397  17.478  67.101  1.00  0.00    -0.140 C  
ENDROOT
BRANCH   2   3
HETATM    3  O   UNL     1      -6.386  16.728  66.386  1.00  0.00    -0.257 OA 
BRANCH   3   4
HETATM    4  C   UNL     1      -7.680  17.026  66.695  1.00  0.00    -0.267 C  
HETATM    5  O   UNL     1      -8.105  18.161  66.880  1.00  0.00    -0.223 OA 
BRANCH   4   6
HETATM    6  C   UNL     1      -8.534  15.837  66.682  1.00  0.00    -0.288 A  
HETATM    7  C   UNL     1      -9.199  15.276  67.762  1.00  0.00    -0.187 A  
HETATM    8  C   UNL     1      -9.160  15.562  69.214  1.00  0.00    -0.266 C  
HETATM    9  N   UNL     1     -10.461  16.059  69.608  1.00  0.00    -0.280 N  
HETATM   10  C   UNL     1     -10.518  17.241  70.452  1.00  0.00     0.964 C  
HETATM   11  C   UNL     1     -11.625  15.312  69.508  1.00  0.00    -0.322 C  
HETATM   12  C   UNL     1     -11.542  13.891  69.080  1.00  0.00    -0.359 A  
HETATM   13  O   UNL     1     -12.727  15.749  69.837  1.00  0.00    -0.182 OA 
HETATM   14  C   UNL     1     -10.815  13.405  67.977  1.00  0.00    -0.247 A  
HETATM   15  C   UNL     1     -10.893  12.050  67.621  1.00  0.00    -0.273 A  
HETATM   16  N   UNL     1      -9.958  14.255  67.242  1.00  0.00    -0.249 NA 
HETATM   17  C   UNL     1      -9.663  14.180  65.904  1.00  0.00    -0.241 A  
HETATM   18  C   UNL     1     -11.643  11.171  68.406  1.00  0.00    -0.376 A  
HETATM   19  C   UNL     1     -12.348  11.653  69.502  1.00  0.00    -0.089 A  
HETATM   20  N   UNL     1      -8.824  15.118  65.532  1.00  0.00     0.726 NA 
HETATM   21  C   UNL     1     -12.324  13.001  69.829  1.00  0.00    -0.141 A  
HETATM   22  F   UNL     1     -13.051  10.804  70.260  1.00  0.00    -0.340 F  
ENDBRANCH   4   6
ENDBRANCH   3   4
ENDBRANCH   2   3
TORSDOF 3
ENDMDL
MODEL      183
REMARK 921   NORMALIZED FREE ENERGY PREDICTED BY IDOCK:   -1.28 KCAL/MOL
REMARK 922        TOTAL FREE ENERGY PREDICTED BY IDOCK:   -1.79 KCAL/MOL
REMARK 923 INTER-LIGAND FREE ENERGY PREDICTED BY IDOCK:   -2.28 KCAL/MOL
REMARK 924 INTRA-LIGAND FREE ENERGY PREDICTED BY IDOCK:    0.50 KCAL/MOL
REMARK 927      BINDING AFFINITY PREDICTED BY RF-SCORE:    0.00 PKD
ROOT
HETATM    1  C   UNL     1      -6.011  18.705  65.936  1.00  0.00    -0.222 C  
HETATM    2  C   UNL     1      -6.822  19.568  66.885  1.00  0.00    -0.196 C  
ENDROOT
BRANCH   2   3
HETATM    3  O   UNL     1      -7.392  18.718  67.886  1.00  0.00    -0.234 OA 
BRANCH   3   4
HETATM    4  C   UNL     1      -6.558  17.758  68.380  1.00  0.00    -0.202 C  
HETATM    5  O   UNL     1      -5.666  17.967  69.195  1.00  0.00    -0.198 OA 
BRANCH   4   6
HETATM    6  C   UNL     1      -6.917  16.422  67.901  1.00  0.00    -0.139 A  
HETATM    7  C   UNL     1      -7.821  15.544  68.479  1.00  0.00    -0.135 A  
HETATM    8  C   UNL     1      -8.562  15.578  69.761  1.00  0.00     0.013 C  
HETATM    9  N   UNL     1      -9.975  15.680  69.458  1.00  0.00    -0.271 N  
HETATM   10  C   UNL     1     -10.766  16.653  70.193  1.00  0.00    -0.084 C  
HETATM   11  C   UNL     1     -10.677  14.709  68.761  1.00  0.00    -0.249 C  
HETATM   12  C   UNL     1      -9.994  13.442  68.391  1.00  0.00    -0.231 A  
HETATM   13  O   UNL     1     -11.876  14.812  68.501  1.00  0.00    -0.329 OA 
HETATM   14  C   UNL     1      -8.724  13.337  67.791  1.00  0.00    -0.194 A  
HETATM   15  C   UNL     1      -8.227  12.084  67.403  1.00  0.00    -0.168 A  
HETATM   16  N   UNL     1      -7.908  14.478  67.616  1.00  0.00    -0.164 NA 
HETATM   17  C   UNL     1      -7.005  14.705  66.609  1.00  0.00     1.713 A  
HETATM   18  C   UNL     1      -8.970  10.932  67.675  1.00  0.00    -0.140 A  
HETATM   19  C   UNL     1     -10.217  11.039  68.279  1.00  0.00    -0.176 A  
HETATM   20  N   UNL     1      -6.402  15.863  66.740  1.00  0.00    -0.171 NA 
HETATM   21  C   UNL     1     -10.742  12.279  68.614  1.00  0.00    -0.261 A  
HETATM   22  F   UNL     1     -10.915   9.932  68.552  1.00  0.00    -0.242 F  
ENDBRANCH   4   6
ENDBRANCH   3   4
ENDBRANCH   2   3
TORSDOF 3
ENDMDL
MODEL      184
REMARK 921   NORMALIZED FREE ENERGY PREDICTED BY IDOCK:   -0.81 KCAL/MOL
REMARK 922        TOTAL FREE ENERGY PREDICTED BY IDOCK:   -1.24 KCAL/MOL
REMARK 923 INTER-LIGAND FREE ENERGY PREDICTED BY IDOCK:   -1.54 KCAL/MOL
REMARK 924 INTRA-LIGAND FREE ENERGY PREDICTED BY IDOCK:    0.30 KCAL/MOL
REMARK 927      BINDING AFFINITY PREDICTED BY RF-SCORE:    0.00 PKD
ROOT
HETATM    1  C   UNL     1     -13.781  10.049  72.263  1.00  0.00    -0.197 C  
HETATM    2  C   UNL     1     -12.365   9.728  72.709  1.00  0.00     1.110 C  
ENDROOT
BRANCH   2   3
HETATM    3  O   UNL     1     -12.068   8.383  72.319  1.00  0.00    -0.352 OA 
BRANCH   3   4
HETATM    4  C   UNL     1     -12.258   8.104  70.998  1.00  0.00    -0.177 C  
HETATM    5  O   UNL     1     -12.991   7.216  70.576  1.00  0.00     0.002 OA 
BRANCH   4   6
HETATM    6  C   UNL     1     -11.561   9.055  70.131  1.00  0.00     0.011 A  
HETATM    7  C   UNL     1     -10.212   9.054  69.806  1.00  0.00    -0.205 A  
HETATM    8  C   UNL     1      -9.068   8.255  70.302  1.00  0.00    -0.150 C  
HETATM    9  N   UNL     1      -8.582   7.442  69.208  1.00  0.00    -0.136 N  
HETATM   10  C   UNL     1      -8.309   6.038  69.465  1.00  0.00    -0.115 C  
HETATM   11  C   UNL     1      -8.058   7.972  68.038  1.00  0.00    -0.129 C  
HETATM   12  C   UNL     1      -7.877   9.443  67.924  1.00  0.00    -0.091 A  
HETATM   13  O   UNL     1      -7.657   7.270  67.111  1.00  0.00    -0.099 OA 
HETATM   14  C   UNL     1      -8.837  10.418  68.255  1.00  0.00    -0.135 A  
HETATM   15  C   UNL     1      -8.578  11.776  68.012  1.00  0.00    -0.158 A  
HETATM   16  N   UNL     1     -10.052  10.057  68.881  1.00  0.00    -0.180 NA 
HETATM   17  C   UNL     1     -11.270  10.674  68.746  1.00  0.00    -0.279 A  
HETATM   18  C   UNL     1      -7.335  12.161  67.503  1.00  0.00    -0.135 A  
HETATM   19  C   UNL     1      -6.386  11.197  67.190  1.00  0.00    -0.083 A  
HETATM   20  N   UNL     1     -12.198  10.095  69.470  1.00  0.00     0.102 NA 
HETATM   21  C   UNL     1      -6.654   9.847  67.372  1.00  0.00    -0.069 A  
HETATM   22  F   UNL     1      -5.193  11.573  66.719  1.00  0.00    -0.070 F  
ENDBRANCH   4   6
ENDBRANCH   3   4
ENDBRANCH   2   3
TORSDOF 3
ENDMDL
MODEL      185
REMARK 921   NORMALIZED FREE ENERGY PREDICTED BY IDOCK:   -0.54 KCAL/MOL
REMARK 922        TOTAL FREE ENERGY PREDICTED BY IDOCK:   -0.92 KCAL/MOL
REMARK 923 INTER-LIGAND FREE ENERGY PREDICTED BY IDOCK:   -2.82 KCAL/MOL
REMARK 924 INTRA-LIGAND FREE ENERGY PREDICTED BY IDOCK:    1.90 KCAL/MOL
REMARK 927      BINDING AFFINITY PREDICTED BY RF-SCORE:    0.00 PKD
ROOT
HETATM    1  C   UNL     1      -7.176   6.443  65.944  1.00  0.00    -0.078 C  
HETATM    2  C   UNL     1      -5.929   6.081  66.732  1.00  0.00    -0.021 C  
ENDROOT
BRANCH   2   3
HETATM    3  O   UNL     1      -5.299   7.296  67.154  1.00  0.00    -0.020 OA 
BRANCH   3   4
HETATM    4  C   UNL     1      -6.146   8.330  67.422  1.00  0.00    -0.052 C  
HETATM    5  O   UNL     1      -5.987   9.478  67.021  1.00  0.00    -0.054 OA 
BRANCH   4   6
HETATM    6  C   UNL     1      -7.329   7.892  68.164  1.00  0.00    -0.099 A  
HETATM    7  C   UNL     1      -7.374   7.456  69.480  1.00  0.00    -0.085 A  
HETATM    8  C   UNL     1      -6.311   7.156  70.467  1.00  0.00    -0.039 C  
HETATM    9  N   UNL     1      -6.422   8.113  71.549  1.00  0.00    -0.041 N  
HETATM   10  C   UNL     1      -5.209   8.759  72.021  1.00  0.00    -0.044 C  
HETATM   11  C   UNL     1      -7.537   8.211  72.368  1.00  0.00    -0.119 C  
HETATM   12  C   UNL     1      -8.639   7.225  72.218  1.00  0.00    -0.131 A  
HETATM   13  O   UNL     1      -7.623   9.035  73.278  1.00  0.00    -0.269 OA 
HETATM   14  C   UNL     1      -9.233   6.835  71.002  1.00  0.00    -0.156 A  
HETATM   15  C   UNL     1     -10.332   5.963  71.001  1.00  0.00    -0.281 A  
HETATM   16  N   UNL     1      -8.705   7.268  69.765  1.00  0.00    -0.141 NA 
HETATM   17  C   UNL     1      -9.399   7.508  68.606  1.00  0.00    -0.143 A  
HETATM   18  C   UNL     1     -10.794   5.431  72.209  1.00  0.00    -0.286 A  
HETATM   19  C   UNL     1     -10.196   5.810  73.404  1.00  0.00    -0.209 A  
HETATM   20  N   UNL     1      -8.610   7.894  67.631  1.00  0.00    -0.127 NA 
HETATM   21  C   UNL     1      -9.146   6.716  73.421  1.00  0.00    -0.142 A  
HETATM   22  F   UNL     1     -10.631   5.285  74.554  1.00  0.00    -0.287 F  
ENDBRANCH   4   6
ENDBRANCH   3   4
ENDBRANCH   2   3
TORSDOF 3
ENDMDL
MODEL      186
REMARK 921   NORMALIZED FREE ENERGY PREDICTED BY IDOCK:    0.08 KCAL/MOL
REMARK 922        TOTAL FREE ENERGY PREDICTED BY IDOCK:   -0.19 KCAL/MOL
REMARK 923 INTER-LIGAND FREE ENERGY PREDICTED BY IDOCK:    0.01 KCAL/MOL
REMARK 924 INTRA-LIGAND FREE ENERGY PREDICTED BY IDOCK:   -0.19 KCAL/MOL
REMARK 927      BINDING AFFINITY PREDICTED BY RF-SCORE:    0.00 PKD
ROOT
HETATM    1  C   UNL     1      -9.190   7.755  63.866  1.00  0.00     1.817 C  
HETATM    2  C   UNL     1      -8.129   8.210  64.853  1.00  0.00    -0.153 C  
ENDROOT
BRANCH   2   3
HETATM    3  O   UNL     1      -7.935   7.165  65.813  1.00  0.00    -0.108 OA 
BRANCH   3   4
HETATM    4  C   UNL     1      -7.256   7.526  66.939  1.00  0.00    -0.085 C  
HETATM    5  O   UNL     1      -7.028   8.685  67.269  1.00  0.00    -0.073 OA 
BRANCH   4   6
HETATM    6  C   UNL     1      -6.915   6.369  67.768  1.00  0.00    -0.075 A  
HETATM    7  C   UNL     1      -7.226   6.182  69.107  1.00  0.00    -0.083 A  
HETATM    8  C   UNL     1      -7.822   7.076  70.126  1.00  0.00    -0.109 C  
HETATM    9  N   UNL     1      -9.106   6.526  70.507  1.00  0.00    -0.152 N  
HETATM   10  C   UNL     1     -10.244   7.427  70.582  1.00  0.00    -0.199 C  
HETATM   11  C   UNL     1      -9.256   5.286  71.109  1.00  0.00    -0.145 C  
HETATM   12  C   UNL     1      -8.046   4.512  71.491  1.00  0.00    -0.100 A  
HETATM   13  O   UNL     1     -10.354   4.825  71.419  1.00  0.00    -0.190 OA 
HETATM   14  C   UNL     1      -6.926   4.278  70.670  1.00  0.00    -0.037 A  
HETATM   15  C   UNL     1      -5.884   3.450  71.115  1.00  0.00    -0.014 A  
HETATM   16  N   UNL     1      -6.805   4.910  69.411  1.00  0.00    -0.051 NA 
HETATM   17  C   UNL     1      -6.187   4.414  68.291  1.00  0.00    -0.032 A  
HETATM   18  C   UNL     1      -5.932   2.912  72.404  1.00  0.00    -0.009 A  
HETATM   19  C   UNL     1      -7.033   3.156  73.215  1.00  0.00    -0.040 A  
HETATM   20  N   UNL     1      -6.244   5.255  67.286  1.00  0.00    -0.030 NA 
HETATM   21  C   UNL     1      -8.095   3.926  72.763  1.00  0.00    -0.093 A  
HETATM   22  F   UNL     1      -7.066   2.652  74.453  1.00  0.00    -0.034 F  
ENDBRANCH   4   6
ENDBRANCH   3   4
ENDBRANCH   2   3
TORSDOF 3
ENDMDL
MODEL      187
REMARK 921   NORMALIZED FREE ENERGY PREDICTED BY IDOCK:   10.35 KCAL/MOL
REMARK 922        TOTAL FREE ENERGY PREDICTED BY IDOCK:   11.88 KCAL/MOL
REMARK 923 INTER-LIGAND FREE ENERGY PREDICTED BY IDOCK:   11.40 KCAL/MOL
REMARK 924 INTRA-LIGAND FREE ENERGY PREDICTED BY IDOCK:    0.48 KCAL/MOL
REMARK 927      BINDING AFFINITY PREDICTED BY RF-SCORE:    0.00 PKD
ROOT
HETATM    1  C   UNL     1      -5.641  19.850  63.996  1.00  0.00    -0.288 C  
HETATM    2  C   UNL     1      -5.657  20.052  65.500  1.00  0.00    -0.169 C  
ENDROOT
BRANCH   2   3
HETATM    3  O   UNL     1      -6.992  19.829  65.967  1.00  0.00    -0.236 OA 
BRANCH   3   4
HETATM    4  C   UNL     1      -7.625  18.747  65.430  1.00  0.00     0.488 C  
HETATM    5  O   UNL     1      -7.984  18.664  64.261  1.00  0.00     4.161 OA 
BRANCH   4   6
HETATM    6  C   UNL     1      -7.737  17.647  66.390  1.00  0.00    -0.290 A  
HETATM    7  C   UNL     1      -8.617  17.560  67.459  1.00  0.00    -0.221 A  
HETATM    8  C   UNL     1      -9.563  18.532  68.053  1.00  0.00    -0.312 C  
HETATM    9  N   UNL     1     -10.906  18.029  67.854  1.00  0.00    -0.307 N  
HETATM   10  C   UNL     1     -11.918  18.949  67.363  1.00  0.00     2.501 C  
HETATM   11  C   UNL     1     -11.361  16.837  68.397  1.00  0.00    -0.068 C  
HETATM   12  C   UNL     1     -10.481  16.076  69.321  1.00  0.00    -0.257 A  
HETATM   13  O   UNL     1     -12.502  16.414  68.213  1.00  0.00     0.864 OA 
HETATM   14  C   UNL     1      -9.125  15.768  69.099  1.00  0.00    -0.262 A  
HETATM   15  C   UNL     1      -8.425  14.960  70.008  1.00  0.00     0.507 A  
HETATM   16  N   UNL     1      -8.431  16.307  67.992  1.00  0.00    -0.171 NA 
HETATM   17  C   UNL     1      -7.404  15.724  67.293  1.00  0.00    -0.222 A  
HETATM   18  C   UNL     1      -9.063  14.515  71.169  1.00  0.00     3.901 A  
HETATM   19  C   UNL     1     -10.397  14.832  71.391  1.00  0.00     1.626 A  
HETATM   20  N   UNL     1      -6.972  16.492  66.321  1.00  0.00    -0.064 NA 
HETATM   21  C   UNL     1     -11.114  15.582  70.470  1.00  0.00    -0.369 A  
HETATM   22  F   UNL     1     -10.997  14.417  72.512  1.00  0.00     0.587 F  
ENDBRANCH   4   6
ENDBRANCH   3   4
ENDBRANCH   2   3
TORSDOF 3
ENDMDL
MODEL      188
REMARK 921   NORMALIZED FREE ENERGY PREDICTED BY IDOCK:   20.14 KCAL/MOL
REMARK 922        TOTAL FREE ENERGY PREDICTED BY IDOCK:   23.38 KCAL/MOL
REMARK 923 INTER-LIGAND FREE ENERGY PREDICTED BY IDOCK:   21.35 KCAL/MOL
REMARK 924 INTRA-LIGAND FREE ENERGY PREDICTED BY IDOCK:    2.03 KCAL/MOL
REMARK 927      BINDING AFFINITY PREDICTED BY RF-SCORE:    0.00 PKD
ROOT
HETATM    1  C   UNL     1      -9.861  18.693  72.132  1.00  0.00     6.099 C  
HETATM    2  C   UNL     1     -10.978  18.450  71.132  1.00  0.00     3.266 C  
ENDROOT
BRANCH   2   3
HETATM    3  O   UNL     1     -10.762  19.305  70.005  1.00  0.00     0.981 OA 
BRANCH   3   4
HETATM    4  C   UNL     1     -11.722  19.251  69.038  1.00  0.00     4.473 C  
HETATM    5  O   UNL     1     -12.555  20.129  68.838  1.00  0.00     5.143 OA 
BRANCH   4   6
HETATM    6  C   UNL     1     -11.583  18.063  68.194  1.00  0.00     1.449 A  
HETATM    7  C   UNL     1     -11.293  16.773  68.612  1.00  0.00    -0.062 A  
HETATM    8  C   UNL     1     -10.901  16.215  69.926  1.00  0.00    -0.355 C  
HETATM    9  N   UNL     1     -11.961  15.339  70.376  1.00  0.00    -0.308 N  
HETATM   10  C   UNL     1     -12.417  15.460  71.751  1.00  0.00    -0.378 C  
HETATM   11  C   UNL     1     -12.342  14.192  69.695  1.00  0.00    -0.256 C  
HETATM   12  C   UNL     1     -11.566  13.763  68.502  1.00  0.00    -0.373 A  
HETATM   13  O   UNL     1     -13.252  13.460  70.082  1.00  0.00     0.348 OA 
HETATM   14  C   UNL     1     -11.175  14.592  67.434  1.00  0.00    -0.327 A  
HETATM   15  C   UNL     1     -10.524  14.045  66.317  1.00  0.00    -0.286 A  
HETATM   16  N   UNL     1     -11.381  15.989  67.486  1.00  0.00    -0.131 NA 
HETATM   17  C   UNL     1     -11.631  16.831  66.432  1.00  0.00     1.281 A  
HETATM   18  C   UNL     1     -10.206  12.685  66.300  1.00  0.00    -0.264 A  
HETATM   19  C   UNL     1     -10.583  11.873  67.363  1.00  0.00    -0.225 A  
HETATM   20  N   UNL     1     -11.769  18.077  66.820  1.00  0.00     1.792 NA 
HETATM   21  C   UNL     1     -11.278  12.393  68.445  1.00  0.00    -0.316 A  
HETATM   22  F   UNL     1     -10.262  10.575  67.348  1.00  0.00    -0.205 F  
ENDBRANCH   4   6
ENDBRANCH   3   4
ENDBRANCH   2   3
TORSDOF 3
ENDMDL
MODEL      189
REMARK 921   NORMALIZED FREE ENERGY PREDICTED BY IDOCK:   34.82 KCAL/MOL
REMARK 922        TOTAL FREE ENERGY PREDICTED BY IDOCK:   40.64 KCAL/MOL
REMARK 923 INTER-LIGAND FREE ENERGY PREDICTED BY IDOCK:   40.84 KCAL/MOL
REMARK 924 INTRA-LIGAND FREE ENERGY PREDICTED BY IDOCK:   -0.20 KCAL/MOL
REMARK 927      BINDING AFFINITY PREDICTED BY RF-SCORE:    0.00 PKD
ROOT
HETATM    1  C   UNL     1      -8.504   6.159  66.604  1.00  0.00    -0.116 C  
HETATM    2  C   UNL     1      -8.006   5.627  67.936  1.00  0.00    -0.097 C  
ENDROOT
BRANCH   2   3
HETATM    3  O   UNL     1      -9.090   5.678  68.870  1.00  0.00    -0.114 OA 
BRANCH   3   4
HETATM    4  C   UNL     1      -8.759   5.401  70.163  1.00  0.00    -0.126 C  
HETATM    5  O   UNL     1      -9.068   4.371  70.753  1.00  0.00    -0.111 OA 
BRANCH   4   6
HETATM    6  C   UNL     1      -7.900   6.435  70.742  1.00  0.00    -0.106 A  
HETATM    7  C   UNL     1      -8.149   7.799  70.783  1.00  0.00    -0.102 A  
HETATM    8  C   UNL     1      -9.204   8.638  70.170  1.00  0.00    -0.159 C  
HETATM    9  N   UNL     1     -10.005   9.202  71.237  1.00  0.00    -0.302 N  
HETATM   10  C   UNL     1     -11.451   9.151  71.111  1.00  0.00    -0.318 C  
HETATM   11  C   UNL     1      -9.495  10.062  72.199  1.00  0.00     4.418 C  
HETATM   12  C   UNL     1      -8.088  10.528  72.086  1.00  0.00     7.117 A  
HETATM   13  O   UNL     1     -10.183  10.527  73.107  1.00  0.00     8.556 OA 
HETATM   14  C   UNL     1      -6.969   9.711  71.836  1.00  0.00     0.818 A  
HETATM   15  C   UNL     1      -5.678  10.260  71.846  1.00  0.00     0.309 A  
HETATM   16  N   UNL     1      -7.126   8.342  71.522  1.00  0.00    -0.078 NA 
HETATM   17  C   UNL     1      -6.263   7.318  71.822  1.00  0.00    -0.037 A  
HETATM   18  C   UNL     1      -5.512  11.634  72.039  1.00  0.00     0.577 A  
HETATM   19  C   UNL     1      -6.621  12.439  72.272  1.00  0.00     5.332 A  
HETATM   20  N   UNL     1      -6.700   6.162  71.381  1.00  0.00    -0.054 NA 
HETATM   21  C   UNL     1      -7.897  11.896  72.322  1.00  0.00    15.017 A  
HETATM   22  F   UNL     1      -6.458  13.755  72.439  1.00  0.00     0.418 F  
ENDBRANCH   4   6
ENDBRANCH   3   4
ENDBRANCH   2   3
TORSDOF 3
ENDMDL
MODEL      190
REMARK 921   NORMALIZED FREE ENERGY PREDICTED BY IDOCK:   40.05 KCAL/MOL
REMARK 922        TOTAL FREE ENERGY PREDICTED BY IDOCK:   46.79 KCAL/MOL
REMARK 923 INTER-LIGAND FREE ENERGY PREDICTED BY IDOCK:   46.62 KCAL/MOL
REMARK 924 INTRA-LIGAND FREE ENERGY PREDICTED BY IDOCK:    0.17 KCAL/MOL
REMARK 927      BINDING AFFINITY PREDICTED BY RF-SCORE:    0.00 PKD
ROOT
HETATM    1  C   UNL     1     -13.392  10.570  63.177  1.00  0.00     5.892 C  
HETATM    2  C   UNL     1     -13.292   9.069  63.386  1.00  0.00    17.906 C  
ENDROOT
BRANCH   2   3
HETATM    3  O   UNL     1     -12.288   8.822  64.376  1.00  0.00    15.323 OA 
BRANCH   3   4
HETATM    4  C   UNL     1     -11.078   9.404  64.138  1.00  0.00     6.945 C  
HETATM    5  O   UNL     1     -10.639   9.661  63.022  1.00  0.00     2.379 OA 
BRANCH   4   6
HETATM    6  C   UNL     1     -10.399   9.782  65.379  1.00  0.00     0.197 A  
HETATM    7  C   UNL     1      -9.928   8.929  66.365  1.00  0.00    -0.284 A  
HETATM    8  C   UNL     1     -10.071   7.470  66.572  1.00  0.00    -0.124 C  
HETATM    9  N   UNL     1      -8.759   6.869  66.452  1.00  0.00    -0.136 N  
HETATM   10  C   UNL     1      -8.624   5.671  65.641  1.00  0.00    -0.150 C  
HETATM   11  C   UNL     1      -7.705   7.164  67.304  1.00  0.00    -0.109 C  
HETATM   12  C   UNL     1      -7.940   8.054  68.470  1.00  0.00    -0.120 A  
HETATM   13  O   UNL     1      -6.591   6.654  67.185  1.00  0.00    -0.047 OA 
HETATM   14  C   UNL     1      -8.613   9.290  68.439  1.00  0.00    -0.124 A  
HETATM   15  C   UNL     1      -8.688  10.084  69.594  1.00  0.00    -0.210 A  
HETATM   16  N   UNL     1      -9.268   9.730  67.266  1.00  0.00    -0.134 NA 
HETATM   17  C   UNL     1      -9.436  11.025  66.846  1.00  0.00    -0.177 A  
HETATM   18  C   UNL     1      -8.148   9.611  70.793  1.00  0.00     0.046 A  
HETATM   19  C   UNL     1      -7.495   8.385  70.822  1.00  0.00    -0.065 A  
HETATM   20  N   UNL     1     -10.097  11.094  65.715  1.00  0.00    -0.239 NA 
HETATM   21  C   UNL     1      -7.366   7.619  69.672  1.00  0.00    -0.089 A  
HETATM   22  F   UNL     1      -6.995   7.930  71.975  1.00  0.00    -0.055 F  
ENDBRANCH   4   6
ENDBRANCH   3   4
ENDBRANCH   2   3
TORSDOF 3
ENDMDL
