MODEL        1
REMARK 921   NORMALIZED FREE ENERGY PREDICTED BY IDOCK:   -8.11 KCAL/MOL
REMARK 922        TOTAL FREE ENERGY PREDICTED BY IDOCK:   -8.91 KCAL/MOL
REMARK 923 INTER-LIGAND FREE ENERGY PREDICTED BY IDOCK:   -9.06 KCAL/MOL
REMARK 924 INTRA-LIGAND FREE ENERGY PREDICTED BY IDOCK:    0.15 KCAL/MOL
REMARK 927      BINDING AFFINITY PREDICTED BY RF-SCORE:    0.00 PKD
ROOT
HETATM    1  C   UNL     1     -11.527  12.384  66.456  1.00  0.00    -0.371 C  
HETATM    2  C   UNL     1     -11.688  12.958  68.067  1.00  0.00    -0.401 C  
HETATM    3  C   UNL     1     -10.351  13.912  68.324  1.00  0.00    -0.249 C  
HETATM    4  C   UNL     1      -9.695  15.412  68.615  1.00  0.00    -0.210 C  
HETATM    5  C   UNL     1     -10.485  16.516  67.851  1.00  0.00    -0.313 C  
HETATM    6  C   UNL     1      -9.835  17.840  67.534  1.00  0.00    -0.304 C  
HETATM    7  F   UNL     1     -10.622  18.435  66.583  1.00  0.00    -0.370 F  
HETATM    8  C   UNL     1      -8.425  17.663  66.970  1.00  0.00    -0.252 C  
HETATM    9  C   UNL     1      -7.872  18.667  66.256  1.00  0.00    -0.288 C  
HETATM   10  C   UNL     1      -7.655  19.751  67.276  1.00  0.00    -0.255 C  
HETATM   11  O   UNL     1      -7.676  20.932  66.961  1.00  0.00    -0.269 OA 
HETATM   12  C   UNL     1      -7.405  19.302  68.721  1.00  0.00    -0.381 C  
HETATM   13  C   UNL     1      -7.368  17.982  69.066  1.00  0.00    -0.198 C  
HETATM   14  C   UNL     1      -7.498  16.927  67.973  1.00  0.00    -0.177 C  
HETATM   15  C   UNL     1      -6.022  16.726  67.504  1.00  0.00    -0.177 C  
HETATM   16  C   UNL     1      -8.223  15.532  68.065  1.00  0.00    -0.146 C  
HETATM   17  C   UNL     1      -7.391  14.321  68.422  1.00  0.00    -0.119 C  
HETATM   18  C   UNL     1      -7.925  13.261  67.426  1.00  0.00    -0.175 C  
HETATM   19  O   UNL     1      -7.495  13.948  69.781  1.00  0.00    -0.319 OA 
HETATM   20  H   UNL     1      -6.972  13.187  70.005  1.00  0.00     0.000 HD 
HETATM   21  C   UNL     1      -9.456  13.066  67.446  1.00  0.00    -0.210 C  
HETATM   22  C   UNL     1     -10.476  13.368  66.023  1.00  0.00    -0.294 C  
HETATM   23  C   UNL     1      -9.509  11.630  68.292  1.00  0.00    -0.191 C  
HETATM   24  O   UNL     1     -10.843  11.174  65.987  1.00  0.00    -0.243 OA 
HETATM   25  O   UNL     1      -9.917  12.963  64.812  1.00  0.00    -0.229 OA 
HETATM   26  C   UNL     1     -10.591  11.123  63.489  1.00  0.00    -0.393 C  
HETATM   27  C   UNL     1     -10.010  11.554  64.835  1.00  0.00    -0.259 C  
HETATM   28  C   UNL     1      -8.541  11.117  64.908  1.00  0.00     0.152 C  
ENDROOT
BRANCH  22  29
HETATM   29  C   UNL     1     -11.549  14.572  65.621  1.00  0.00    -0.344 C  
HETATM   30  O   UNL     1     -12.762  14.545  65.920  1.00  0.00    -0.280 OA 
BRANCH  29  31
HETATM   31  C   UNL     1     -11.128  15.753  64.757  1.00  0.00    -0.400 C  
HETATM   32  O   UNL     1     -12.000  16.095  63.707  1.00  0.00    -1.394 OA 
HETATM   33  H   UNL     1     -11.737  16.832  63.169  1.00  0.00     0.000 HD 
ENDBRANCH  29  31
ENDBRANCH  22  29
TORSDOF 2
ENDMDL
MODEL        2
REMARK 921   NORMALIZED FREE ENERGY PREDICTED BY IDOCK:   -6.91 KCAL/MOL
REMARK 922        TOTAL FREE ENERGY PREDICTED BY IDOCK:   -7.57 KCAL/MOL
REMARK 923 INTER-LIGAND FREE ENERGY PREDICTED BY IDOCK:   -7.54 KCAL/MOL
REMARK 924 INTRA-LIGAND FREE ENERGY PREDICTED BY IDOCK:   -0.02 KCAL/MOL
REMARK 927      BINDING AFFINITY PREDICTED BY RF-SCORE:    0.00 PKD
ROOT
HETATM    1  C   UNL     1     -11.054  13.884  68.196  1.00  0.00    -0.256 C  
HETATM    2  C   UNL     1     -11.882  12.400  67.947  1.00  0.00    -0.370 C  
HETATM    3  C   UNL     1     -11.263  11.790  66.530  1.00  0.00    -0.380 C  
HETATM    4  C   UNL     1     -10.397  10.616  65.732  1.00  0.00    -0.287 C  
HETATM    5  C   UNL     1      -9.206  10.121  66.606  1.00  0.00    -0.181 C  
HETATM    6  C   UNL     1      -8.010   9.463  65.965  1.00  0.00    -0.110 C  
HETATM    7  F   UNL     1      -7.018   9.467  66.911  1.00  0.00    -0.077 F  
HETATM    8  C   UNL     1      -7.526  10.233  64.736  1.00  0.00    -0.103 C  
HETATM    9  C   UNL     1      -6.261  10.047  64.300  1.00  0.00    -0.132 C  
HETATM   10  C   UNL     1      -6.266   8.632  63.788  1.00  0.00    -0.073 C  
HETATM   11  O   UNL     1      -5.254   7.947  63.807  1.00  0.00    -0.040 OA 
HETATM   12  C   UNL     1      -7.596   8.099  63.241  1.00  0.00    -0.132 C  
HETATM   13  C   UNL     1      -8.720   8.872  63.208  1.00  0.00    -0.050 C  
HETATM   14  C   UNL     1      -8.631  10.328  63.651  1.00  0.00    -0.196 C  
HETATM   15  C   UNL     1      -8.224  11.069  62.338  1.00  0.00    -0.246 C  
HETATM   16  C   UNL     1      -9.719  11.166  64.421  1.00  0.00    -0.312 C  
HETATM   17  C   UNL     1     -10.674  12.009  63.606  1.00  0.00    -0.449 C  
HETATM   18  C   UNL     1     -10.713  13.327  64.420  1.00  0.00    -0.432 C  
HETATM   19  O   UNL     1     -11.938  11.403  63.419  1.00  0.00    -0.734 OA 
HETATM   20  H   UNL     1     -12.538  11.932  62.907  1.00  0.00     0.000 HD 
HETATM   21  C   UNL     1     -11.059  13.156  65.914  1.00  0.00    -0.298 C  
HETATM   22  C   UNL     1      -9.944  13.634  67.213  1.00  0.00    -0.240 C  
HETATM   23  C   UNL     1     -12.641  13.680  65.862  1.00  0.00    -0.478 C  
HETATM   24  O   UNL     1     -11.420  15.221  67.715  1.00  0.00    -0.335 OA 
HETATM   25  O   UNL     1      -9.246  14.816  66.974  1.00  0.00    -0.210 OA 
HETATM   26  C   UNL     1      -9.579  16.897  68.046  1.00  0.00    -0.247 C  
HETATM   27  C   UNL     1     -10.209  15.834  67.146  1.00  0.00    -0.279 C  
HETATM   28  C   UNL     1     -10.359  16.405  65.730  1.00  0.00    -0.388 C  
ENDROOT
BRANCH  22  29
HETATM   29  C   UNL     1      -8.991  12.778  68.273  1.00  0.00    -0.175 C  
HETATM   30  O   UNL     1      -9.447  12.073  69.198  1.00  0.00     0.196 OA 
BRANCH  29  31
HETATM   31  C   UNL     1      -7.472  12.889  68.240  1.00  0.00    -0.125 C  
HETATM   32  O   UNL     1      -6.886  12.975  66.964  1.00  0.00    -0.405 OA 
HETATM   33  H   UNL     1      -5.939  13.044  66.943  1.00  0.00     0.000 HD 
ENDBRANCH  29  31
ENDBRANCH  22  29
TORSDOF 2
ENDMDL
MODEL        3
REMARK 921   NORMALIZED FREE ENERGY PREDICTED BY IDOCK:   -6.86 KCAL/MOL
REMARK 922        TOTAL FREE ENERGY PREDICTED BY IDOCK:   -7.51 KCAL/MOL
REMARK 923 INTER-LIGAND FREE ENERGY PREDICTED BY IDOCK:   -7.34 KCAL/MOL
REMARK 924 INTRA-LIGAND FREE ENERGY PREDICTED BY IDOCK:   -0.17 KCAL/MOL
REMARK 927      BINDING AFFINITY PREDICTED BY RF-SCORE:    0.00 PKD
ROOT
HETATM    1  C   UNL     1      -8.239   7.831  67.420  1.00  0.00    -0.123 C  
HETATM    2  C   UNL     1      -9.839   7.664  66.819  1.00  0.00    -0.307 C  
HETATM    3  C   UNL     1     -10.558   9.140  67.082  1.00  0.00    -0.286 C  
HETATM    4  C   UNL     1     -11.241  10.530  66.477  1.00  0.00     0.203 C  
HETATM    5  C   UNL     1     -10.508  10.983  65.179  1.00  0.00    -0.329 C  
HETATM    6  C   UNL     1     -10.577  12.419  64.723  1.00  0.00    -0.300 C  
HETATM    7  F   UNL     1      -9.581  12.575  63.795  1.00  0.00    -0.225 F  
HETATM    8  C   UNL     1     -10.338  13.395  65.876  1.00  0.00    -0.290 C  
HETATM    9  C   UNL     1      -9.952  14.659  65.597  1.00  0.00    -0.381 C  
HETATM   10  C   UNL     1     -11.160  15.263  64.936  1.00  0.00    -0.424 C  
HETATM   11  O   UNL     1     -11.050  16.154  64.105  1.00  0.00    -0.627 OA 
HETATM   12  C   UNL     1     -12.528  14.710  65.355  1.00  0.00    -0.163 C  
HETATM   13  C   UNL     1     -12.647  13.726  66.292  1.00  0.00    -0.372 C  
HETATM   14  C   UNL     1     -11.393  13.220  66.999  1.00  0.00    -0.346 C  
HETATM   15  C   UNL     1     -11.258  14.196  68.211  1.00  0.00    -0.295 C  
HETATM   16  C   UNL     1     -11.080  11.748  67.462  1.00  0.00    -0.330 C  
HETATM   17  C   UNL     1     -11.415  11.365  68.886  1.00  0.00    -0.298 C  
HETATM   18  C   UNL     1     -10.158  10.560  69.306  1.00  0.00    -0.244 C  
HETATM   19  O   UNL     1     -12.629  10.653  69.006  1.00  0.00    -0.746 OA 
HETATM   20  H   UNL     1     -12.840  10.412  69.901  1.00  0.00     0.000 HD 
HETATM   21  C   UNL     1      -9.786   9.400  68.357  1.00  0.00    -0.177 C  
HETATM   22  C   UNL     1      -8.234   9.333  67.494  1.00  0.00    -0.114 C  
HETATM   23  C   UNL     1     -10.344   8.134  69.286  1.00  0.00    -0.222 C  
HETATM   24  O   UNL     1      -7.748   7.584  68.780  1.00  0.00    -0.113 OA 
HETATM   25  O   UNL     1      -7.138   9.768  68.237  1.00  0.00    -0.075 OA 
HETATM   26  C   UNL     1      -5.406   8.424  69.123  1.00  0.00    -0.031 C  
HETATM   27  C   UNL     1      -6.904   8.727  69.162  1.00  0.00    -0.055 C  
HETATM   28  C   UNL     1      -7.245   9.383  70.506  1.00  0.00    -0.126 C  
ENDROOT
BRANCH  22  29
HETATM   29  C   UNL     1      -7.798   9.564  65.907  1.00  0.00    -0.100 C  
HETATM   30  O   UNL     1      -7.987   8.717  65.008  1.00  0.00    -0.117 OA 
BRANCH  29  31
HETATM   31  C   UNL     1      -7.033  10.805  65.468  1.00  0.00     0.022 C  
HETATM   32  O   UNL     1      -7.141  11.929  66.308  1.00  0.00    -0.350 OA 
HETATM   33  H   UNL     1      -6.665  12.703  66.035  1.00  0.00     0.000 HD 
ENDBRANCH  29  31
ENDBRANCH  22  29
TORSDOF 2
ENDMDL
MODEL        4
REMARK 921   NORMALIZED FREE ENERGY PREDICTED BY IDOCK:   -6.84 KCAL/MOL
REMARK 922        TOTAL FREE ENERGY PREDICTED BY IDOCK:   -7.49 KCAL/MOL
REMARK 923 INTER-LIGAND FREE ENERGY PREDICTED BY IDOCK:   -8.23 KCAL/MOL
REMARK 924 INTRA-LIGAND FREE ENERGY PREDICTED BY IDOCK:    0.75 KCAL/MOL
REMARK 927      BINDING AFFINITY PREDICTED BY RF-SCORE:    0.00 PKD
ROOT
HETATM    1  C   UNL     1     -11.185  15.081  67.412  1.00  0.00    -0.335 C  
HETATM    2  C   UNL     1     -12.269  13.926  66.749  1.00  0.00    -0.438 C  
HETATM    3  C   UNL     1     -11.570  12.449  67.057  1.00  0.00    -0.434 C  
HETATM    4  C   UNL     1     -11.608  10.979  67.835  1.00  0.00    -0.306 C  
HETATM    5  C   UNL     1     -12.209  11.129  69.265  1.00  0.00    -0.295 C  
HETATM    6  C   UNL     1     -11.906  10.107  70.332  1.00  0.00    -0.288 C  
HETATM    7  F   UNL     1     -12.265  10.680  71.524  1.00  0.00    -0.435 F  
HETATM    8  C   UNL     1     -10.418   9.756  70.379  1.00  0.00    -0.358 C  
HETATM    9  C   UNL     1      -9.908   9.207  71.502  1.00  0.00    -0.335 C  
HETATM   10  C   UNL     1     -10.542   7.844  71.550  1.00  0.00    -0.222 C  
HETATM   11  O   UNL     1     -10.750   7.278  72.615  1.00  0.00    -0.236 OA 
HETATM   12  C   UNL     1     -10.907   7.202  70.206  1.00  0.00    -0.271 C  
HETATM   13  C   UNL     1     -10.661   7.830  69.021  1.00  0.00    -0.179 C  
HETATM   14  C   UNL     1      -9.928   9.168  69.030  1.00  0.00    -0.189 C  
HETATM   15  C   UNL     1      -8.426   8.744  68.985  1.00  0.00    -0.130 C  
HETATM   16  C   UNL     1     -10.164  10.398  68.076  1.00  0.00    -0.199 C  
HETATM   17  C   UNL     1      -9.299  10.516  66.842  1.00  0.00    -0.159 C  
HETATM   18  C   UNL     1      -8.945  12.025  66.841  1.00  0.00    -0.199 C  
HETATM   19  O   UNL     1      -9.937  10.068  65.663  1.00  0.00    -0.272 OA 
HETATM   20  H   UNL     1      -9.393  10.142  64.887  1.00  0.00     0.000 HD 
HETATM   21  C   UNL     1     -10.159  12.975  66.916  1.00  0.00    -0.243 C  
HETATM   22  C   UNL     1     -10.395  14.119  68.255  1.00  0.00    -0.245 C  
HETATM   23  C   UNL     1     -10.197  13.453  65.319  1.00  0.00    -0.312 C  
HETATM   24  O   UNL     1     -10.041  15.732  66.763  1.00  0.00    -0.257 OA 
HETATM   25  O   UNL     1      -9.228  14.732  68.707  1.00  0.00    -0.192 OA 
HETATM   26  C   UNL     1      -8.602  16.990  68.392  1.00  0.00    -0.243 C  
HETATM   27  C   UNL     1      -8.904  15.664  67.696  1.00  0.00    -0.175 C  
HETATM   28  C   UNL     1      -7.603  15.097  67.115  1.00  0.00    -0.204 C  
ENDROOT
BRANCH  22  29
HETATM   29  C   UNL     1     -11.434  14.163  69.552  1.00  0.00    -0.281 C  
HETATM   30  O   UNL     1     -11.457  13.294  70.449  1.00  0.00    -0.040 OA 
BRANCH  29  31
HETATM   31  C   UNL     1     -12.511  15.233  69.667  1.00  0.00    -0.139 C  
HETATM   32  O   UNL     1     -13.628  14.905  70.457  1.00  0.00    -0.621 OA 
HETATM   33  H   UNL     1     -14.300  15.572  70.529  1.00  0.00     0.000 HD 
ENDBRANCH  29  31
ENDBRANCH  22  29
TORSDOF 2
ENDMDL
MODEL        5
REMARK 921   NORMALIZED FREE ENERGY PREDICTED BY IDOCK:   -6.81 KCAL/MOL
REMARK 922        TOTAL FREE ENERGY PREDICTED BY IDOCK:   -7.46 KCAL/MOL
REMARK 923 INTER-LIGAND FREE ENERGY PREDICTED BY IDOCK:   -7.29 KCAL/MOL
REMARK 924 INTRA-LIGAND FREE ENERGY PREDICTED BY IDOCK:   -0.17 KCAL/MOL
REMARK 927      BINDING AFFINITY PREDICTED BY RF-SCORE:    0.00 PKD
ROOT
HETATM    1  C   UNL     1      -8.689   7.388  69.796  1.00  0.00    -0.141 C  
HETATM    2  C   UNL     1      -9.875   7.433  68.555  1.00  0.00    -0.164 C  
HETATM    3  C   UNL     1     -10.630   8.904  68.730  1.00  0.00    -0.185 C  
HETATM    4  C   UNL     1     -10.979  10.416  68.132  1.00  0.00    -0.334 C  
HETATM    5  C   UNL     1      -9.756  10.999  67.362  1.00  0.00    -0.189 C  
HETATM    6  C   UNL     1      -9.616  12.487  67.164  1.00  0.00    -0.208 C  
HETATM    7  F   UNL     1      -8.317  12.703  66.786  1.00  0.00    -0.179 F  
HETATM    8  C   UNL     1      -9.892  13.262  68.454  1.00  0.00    -0.218 C  
HETATM    9  C   UNL     1      -9.416  14.520  68.579  1.00  0.00    -0.211 C  
HETATM   10  C   UNL     1     -10.220  15.304  67.578  1.00  0.00    -0.239 C  
HETATM   11  O   UNL     1      -9.759  16.297  67.033  1.00  0.00    -0.231 OA 
HETATM   12  C   UNL     1     -11.637  14.801  67.281  1.00  0.00    -0.385 C  
HETATM   13  C   UNL     1     -12.153  13.701  67.902  1.00  0.00    -0.318 C  
HETATM   14  C   UNL     1     -11.328  13.003  68.979  1.00  0.00    -0.340 C  
HETATM   15  C   UNL     1     -11.722  13.777  70.277  1.00  0.00    -0.271 C  
HETATM   16  C   UNL     1     -11.252  11.459  69.280  1.00  0.00    -0.342 C  
HETATM   17  C   UNL     1     -12.169  10.897  70.343  1.00  0.00    -0.365 C  
HETATM   18  C   UNL     1     -11.219   9.946  71.114  1.00  0.00    -0.404 C  
HETATM   19  O   UNL     1     -13.320  10.269  69.817  1.00  0.00    -0.403 OA 
HETATM   20  H   UNL     1     -13.896   9.916  70.485  1.00  0.00     0.000 HD 
HETATM   21  C   UNL     1     -10.481   8.914  70.235  1.00  0.00    -0.239 C  
HETATM   22  C   UNL     1      -8.709   8.858  70.113  1.00  0.00    -0.161 C  
HETATM   23  C   UNL     1     -11.391   7.570  70.616  1.00  0.00    -0.301 C  
HETATM   24  O   UNL     1      -8.832   6.906  71.174  1.00  0.00    -0.141 OA 
HETATM   25  O   UNL     1      -8.037   9.094  71.311  1.00  0.00    -0.285 OA 
HETATM   26  C   UNL     1      -6.861   7.507  72.610  1.00  0.00    -0.065 C  
HETATM   27  C   UNL     1      -8.228   7.913  72.061  1.00  0.00    -0.119 C  
HETATM   28  C   UNL     1      -9.111   8.387  73.222  1.00  0.00    -0.185 C  
ENDROOT
BRANCH  22  29
HETATM   29  C   UNL     1      -7.631   9.286  68.922  1.00  0.00    -0.075 C  
HETATM   30  O   UNL     1      -7.290   8.525  67.992  1.00  0.00    -0.089 OA 
BRANCH  29  31
HETATM   31  C   UNL     1      -6.904  10.624  68.956  1.00  0.00    -0.071 C  
HETATM   32  O   UNL     1      -7.148  11.433  70.081  1.00  0.00    -0.429 OA 
HETATM   33  H   UNL     1      -6.695  12.267  70.102  1.00  0.00     0.000 HD 
ENDBRANCH  29  31
ENDBRANCH  22  29
TORSDOF 2
ENDMDL
MODEL        6
REMARK 921   NORMALIZED FREE ENERGY PREDICTED BY IDOCK:   -6.67 KCAL/MOL
REMARK 922        TOTAL FREE ENERGY PREDICTED BY IDOCK:   -7.30 KCAL/MOL
REMARK 923 INTER-LIGAND FREE ENERGY PREDICTED BY IDOCK:   -7.42 KCAL/MOL
REMARK 924 INTRA-LIGAND FREE ENERGY PREDICTED BY IDOCK:    0.12 KCAL/MOL
REMARK 927      BINDING AFFINITY PREDICTED BY RF-SCORE:    0.00 PKD
ROOT
HETATM    1  C   UNL     1     -10.507  10.507  66.213  1.00  0.00    -0.183 C  
HETATM    2  C   UNL     1     -10.881  11.022  67.808  1.00  0.00    -0.297 C  
HETATM    3  C   UNL     1      -9.882  12.321  68.090  1.00  0.00    -0.212 C  
HETATM    4  C   UNL     1      -9.693  13.948  68.376  1.00  0.00    -0.226 C  
HETATM    5  C   UNL     1     -10.739  14.775  67.569  1.00  0.00    -0.269 C  
HETATM    6  C   UNL     1     -10.485  16.226  67.250  1.00  0.00    -0.300 C  
HETATM    7  F   UNL     1     -11.375  16.564  66.266  1.00  0.00     0.047 F  
HETATM    8  C   UNL     1      -9.064  16.456  66.733  1.00  0.00    -0.259 C  
HETATM    9  C   UNL     1      -8.797  17.572  66.020  1.00  0.00    -0.066 C  
HETATM   10  C   UNL     1      -8.934  18.680  67.028  1.00  0.00    -0.285 C  
HETATM   11  O   UNL     1      -9.282  19.803  66.692  1.00  0.00    -0.339 OA 
HETATM   12  C   UNL     1      -8.616  18.332  68.487  1.00  0.00    -0.323 C  
HETATM   13  C   UNL     1      -8.216  17.081  68.855  1.00  0.00    -0.204 C  
HETATM   14  C   UNL     1      -8.000  16.024  67.776  1.00  0.00    -0.152 C  
HETATM   15  C   UNL     1      -6.513  16.251  67.358  1.00  0.00    -0.213 C  
HETATM   16  C   UNL     1      -8.299  14.481  67.870  1.00  0.00    -0.159 C  
HETATM   17  C   UNL     1      -7.168  13.562  68.273  1.00  0.00    -0.111 C  
HETATM   18  C   UNL     1      -7.342  12.385  67.279  1.00  0.00    -0.127 C  
HETATM   19  O   UNL     1      -7.208  13.184  69.634  1.00  0.00    -0.314 OA 
HETATM   20  H   UNL     1      -6.497  12.606  69.887  1.00  0.00     0.000 HD 
HETATM   21  C   UNL     1      -8.753  11.760  67.255  1.00  0.00    -0.163 C  
HETATM   22  C   UNL     1      -9.767  11.747  65.796  1.00  0.00    -0.237 C  
HETATM   23  C   UNL     1      -8.423  10.376  68.123  1.00  0.00    -0.121 C  
HETATM   24  O   UNL     1      -9.490   9.540  65.786  1.00  0.00    -0.211 OA 
HETATM   25  O   UNL     1      -9.074  11.510  64.610  1.00  0.00    -0.027 OA 
HETATM   26  C   UNL     1      -9.147   9.545  63.298  1.00  0.00    -0.147 C  
HETATM   27  C   UNL     1      -8.761  10.134  64.654  1.00  0.00    -0.189 C  
HETATM   28  C   UNL     1      -7.232  10.137  64.780  1.00  0.00    -0.130 C  
ENDROOT
BRANCH  22  29
HETATM   29  C   UNL     1     -11.125  12.590  65.340  1.00  0.00    -0.302 C  
HETATM   30  O   UNL     1     -12.289  12.222  65.607  1.00  0.00    -0.619 OA 
BRANCH  29  31
HETATM   31  C   UNL     1     -11.030  13.832  64.464  1.00  0.00    -0.391 C  
HETATM   32  O   UNL     1     -12.217  14.230  63.823  1.00  0.00    -0.893 OA 
HETATM   33  H   UNL     1     -12.158  15.004  63.276  1.00  0.00     0.000 HD 
ENDBRANCH  29  31
ENDBRANCH  22  29
TORSDOF 2
ENDMDL
MODEL        7
REMARK 921   NORMALIZED FREE ENERGY PREDICTED BY IDOCK:   -6.60 KCAL/MOL
REMARK 922        TOTAL FREE ENERGY PREDICTED BY IDOCK:   -7.22 KCAL/MOL
REMARK 923 INTER-LIGAND FREE ENERGY PREDICTED BY IDOCK:   -7.00 KCAL/MOL
REMARK 924 INTRA-LIGAND FREE ENERGY PREDICTED BY IDOCK:   -0.22 KCAL/MOL
REMARK 927      BINDING AFFINITY PREDICTED BY RF-SCORE:    0.00 PKD
ROOT
HETATM    1  C   UNL     1      -8.930  12.124  65.818  1.00  0.00     0.162 C  
HETATM    2  C   UNL     1      -8.227  12.532  67.330  1.00  0.00    -0.183 C  
HETATM    3  C   UNL     1      -9.255  11.897  68.473  1.00  0.00    -0.136 C  
HETATM    4  C   UNL     1      -9.537  10.816  69.705  1.00  0.00     0.136 C  
HETATM    5  C   UNL     1      -8.818   9.463  69.425  1.00  0.00    -0.159 C  
HETATM    6  C   UNL     1      -9.294   8.193  70.085  1.00  0.00    -0.159 C  
HETATM    7  F   UNL     1      -8.717   7.162  69.393  1.00  0.00    -0.130 F  
HETATM    8  C   UNL     1     -10.815   8.049  70.013  1.00  0.00    -0.235 C  
HETATM    9  C   UNL     1     -11.366   6.825  70.161  1.00  0.00    -0.404 C  
HETATM   10  C   UNL     1     -11.099   6.488  71.603  1.00  0.00    -0.259 C  
HETATM   11  O   UNL     1     -10.966   5.328  71.969  1.00  0.00    -0.208 OA 
HETATM   12  C   UNL     1     -11.006   7.663  72.583  1.00  0.00    -0.405 C  
HETATM   13  C   UNL     1     -11.169   8.954  72.173  1.00  0.00    -0.362 C  
HETATM   14  C   UNL     1     -11.534   9.229  70.718  1.00  0.00    -0.351 C  
HETATM   15  C   UNL     1     -13.094   9.159  70.730  1.00  0.00     0.153 C  
HETATM   16  C   UNL     1     -11.060  10.433  69.820  1.00  0.00    -0.352 C  
HETATM   17  C   UNL     1     -11.953  11.651  69.737  1.00  0.00    -0.332 C  
HETATM   18  C   UNL     1     -11.910  11.978  68.223  1.00  0.00    -0.351 C  
HETATM   19  O   UNL     1     -11.536  12.711  70.574  1.00  0.00    -0.496 OA 
HETATM   20  H   UNL     1     -12.097  13.476  70.522  1.00  0.00     0.000 HD 
HETATM   21  C   UNL     1     -10.491  12.130  67.634  1.00  0.00    -0.225 C  
HETATM   22  C   UNL     1      -9.877  11.078  66.340  1.00  0.00    -0.212 C  
HETATM   23  C   UNL     1     -10.448  13.793  67.526  1.00  0.00    -0.245 C  
HETATM   24  O   UNL     1      -9.914  12.883  65.038  1.00  0.00    -0.237 OA 
HETATM   25  O   UNL     1     -10.814  10.756  65.360  1.00  0.00    -0.137 OA 
HETATM   26  C   UNL     1     -10.864  11.550  63.134  1.00  0.00    -0.243 C  
HETATM   27  C   UNL     1     -10.961  11.942  64.608  1.00  0.00    -0.316 C  
HETATM   28  C   UNL     1     -12.401  12.366  64.918  1.00  0.00    -0.475 C  
ENDROOT
BRANCH  22  29
HETATM   29  C   UNL     1      -8.771   9.838  66.304  1.00  0.00    -0.139 C  
HETATM   30  O   UNL     1      -7.538  10.014  66.208  1.00  0.00    -0.100 OA 
BRANCH  29  31
HETATM   31  C   UNL     1      -9.215   8.382  66.281  1.00  0.00    -0.208 C  
HETATM   32  O   UNL     1     -10.584   8.148  66.508  1.00  0.00    -0.398 OA 
HETATM   33  H   UNL     1     -10.860   7.240  66.495  1.00  0.00     0.000 HD 
ENDBRANCH  29  31
ENDBRANCH  22  29
TORSDOF 2
ENDMDL
MODEL        8
REMARK 921   NORMALIZED FREE ENERGY PREDICTED BY IDOCK:   -6.48 KCAL/MOL
REMARK 922        TOTAL FREE ENERGY PREDICTED BY IDOCK:   -7.09 KCAL/MOL
REMARK 923 INTER-LIGAND FREE ENERGY PREDICTED BY IDOCK:   -7.03 KCAL/MOL
REMARK 924 INTRA-LIGAND FREE ENERGY PREDICTED BY IDOCK:   -0.06 KCAL/MOL
REMARK 927      BINDING AFFINITY PREDICTED BY RF-SCORE:    0.00 PKD
ROOT
HETATM    1  C   UNL     1      -7.597   8.411  69.035  1.00  0.00    -0.092 C  
HETATM    2  C   UNL     1      -8.437   8.617  67.551  1.00  0.00    -0.124 C  
HETATM    3  C   UNL     1      -9.455   9.907  67.804  1.00  0.00    -0.158 C  
HETATM    4  C   UNL     1      -9.906  11.468  67.451  1.00  0.00    -0.202 C  
HETATM    5  C   UNL     1      -8.654  12.355  67.181  1.00  0.00    -0.189 C  
HETATM    6  C   UNL     1      -8.731  13.853  67.334  1.00  0.00    -0.203 C  
HETATM    7  F   UNL     1      -7.437  14.301  67.379  1.00  0.00    -0.164 F  
HETATM    8  C   UNL     1      -9.441  14.258  68.627  1.00  0.00    -0.178 C  
HETATM    9  C   UNL     1      -9.236  15.495  69.129  1.00  0.00    -0.246 C  
HETATM   10  C   UNL     1      -9.897  16.400  68.125  1.00  0.00    -0.238 C  
HETATM   11  O   UNL     1      -9.497  17.541  67.940  1.00  0.00    -0.266 OA 
HETATM   12  C   UNL     1     -11.091  15.824  67.354  1.00  0.00    -0.235 C  
HETATM   13  C   UNL     1     -11.542  14.555  67.574  1.00  0.00    -0.403 C  
HETATM   14  C   UNL     1     -10.894  13.718  68.672  1.00  0.00    -0.280 C  
HETATM   15  C   UNL     1     -11.719  14.107  69.940  1.00  0.00    -0.372 C  
HETATM   16  C   UNL     1     -10.626  12.167  68.665  1.00  0.00    -0.248 C  
HETATM   17  C   UNL     1     -11.661  11.264  69.299  1.00  0.00    -0.322 C  
HETATM   18  C   UNL     1     -10.776  10.270  70.093  1.00  0.00    -0.334 C  
HETATM   19  O   UNL     1     -12.523  10.654  68.360  1.00  0.00    -0.593 OA 
HETATM   20  H   UNL     1     -13.174  10.086  68.758  1.00  0.00     0.000 HD 
HETATM   21  C   UNL     1      -9.679   9.572  69.262  1.00  0.00    -0.180 C  
HETATM   22  C   UNL     1      -7.948   9.750  69.624  1.00  0.00    -0.150 C  
HETATM   23  C   UNL     1     -10.406   8.081  69.099  1.00  0.00    -0.226 C  
HETATM   24  O   UNL     1      -7.983   7.599  70.193  1.00  0.00    -0.105 OA 
HETATM   25  O   UNL     1      -7.638   9.766  70.982  1.00  0.00    -0.311 OA 
HETATM   26  C   UNL     1      -6.555   8.059  72.207  1.00  0.00    -0.069 C  
HETATM   27  C   UNL     1      -7.797   8.426  71.397  1.00  0.00    -0.116 C  
HETATM   28  C   UNL     1      -9.004   8.503  72.340  1.00  0.00    -0.284 C  
ENDROOT
BRANCH  22  29
HETATM   29  C   UNL     1      -6.705  10.572  68.887  1.00  0.00    -0.060 C  
HETATM   30  O   UNL     1      -6.072  10.133  67.905  1.00  0.00    -0.052 OA 
BRANCH  29  31
HETATM   31  C   UNL     1      -6.189  11.892  69.445  1.00  0.00    -0.108 C  
HETATM   32  O   UNL     1      -6.042  11.958  70.843  1.00  0.00    -0.521 OA 
HETATM   33  H   UNL     1      -5.720  12.781  71.191  1.00  0.00     0.000 HD 
ENDBRANCH  29  31
ENDBRANCH  22  29
TORSDOF 2
ENDMDL
MODEL        9
REMARK 921   NORMALIZED FREE ENERGY PREDICTED BY IDOCK:   -6.08 KCAL/MOL
REMARK 922        TOTAL FREE ENERGY PREDICTED BY IDOCK:   -6.64 KCAL/MOL
REMARK 923 INTER-LIGAND FREE ENERGY PREDICTED BY IDOCK:   -6.46 KCAL/MOL
REMARK 924 INTRA-LIGAND FREE ENERGY PREDICTED BY IDOCK:   -0.19 KCAL/MOL
REMARK 927      BINDING AFFINITY PREDICTED BY RF-SCORE:    0.00 PKD
ROOT
HETATM    1  C   UNL     1      -8.684  10.437  66.964  1.00  0.00    -0.130 C  
HETATM    2  C   UNL     1      -9.364  11.303  65.647  1.00  0.00    -0.245 C  
HETATM    3  C   UNL     1      -9.949  12.712  66.309  1.00  0.00    -0.266 C  
HETATM    4  C   UNL     1      -9.887  14.369  66.438  1.00  0.00    -0.309 C  
HETATM    5  C   UNL     1      -8.414  14.872  66.365  1.00  0.00     0.099 C  
HETATM    6  C   UNL     1      -8.035  16.213  66.942  1.00  0.00    -0.244 C  
HETATM    7  F   UNL     1      -6.669  16.214  67.043  1.00  0.00    -0.197 F  
HETATM    8  C   UNL     1      -8.636  16.426  68.331  1.00  0.00    -0.209 C  
HETATM    9  C   UNL     1      -8.083  17.345  69.153  1.00  0.00     0.012 C  
HETATM   10  C   UNL     1      -8.397  18.655  68.484  1.00  0.00    -0.340 C  
HETATM   11  O   UNL     1      -7.661  19.624  68.609  1.00  0.00    -0.338 OA 
HETATM   12  C   UNL     1      -9.679  18.714  67.645  1.00  0.00    -0.330 C  
HETATM   13  C   UNL     1     -10.505  17.635  67.519  1.00  0.00    -0.365 C  
HETATM   14  C   UNL     1     -10.186  16.364  68.299  1.00  0.00    -0.255 C  
HETATM   15  C   UNL     1     -10.900  16.604  69.666  1.00  0.00    -0.282 C  
HETATM   16  C   UNL     1     -10.405  14.874  67.837  1.00  0.00    -0.237 C  
HETATM   17  C   UNL     1     -11.689  14.187  68.242  1.00  0.00    -0.348 C  
HETATM   18  C   UNL     1     -11.181  12.787  68.674  1.00  0.00    -0.322 C  
HETATM   19  O   UNL     1     -12.661  14.162  67.216  1.00  0.00    -0.516 OA 
HETATM   20  H   UNL     1     -13.468  13.730  67.470  1.00  0.00     0.000 HD 
HETATM   21  C   UNL     1     -10.319  12.058  67.621  1.00  0.00    -0.213 C  
HETATM   22  C   UNL     1      -8.632  11.591  67.927  1.00  0.00    -0.143 C  
HETATM   23  C   UNL     1     -11.461  10.970  67.080  1.00  0.00    -0.099 C  
HETATM   24  O   UNL     1      -9.345   9.484  67.863  1.00  0.00    -0.132 OA 
HETATM   25  O   UNL     1      -8.384  11.123  69.216  1.00  0.00    -0.043 OA 
HETATM   26  C   UNL     1      -7.922   8.892  69.846  1.00  0.00    -0.108 C  
HETATM   27  C   UNL     1      -8.961   9.835  69.240  1.00  0.00    -0.173 C  
HETATM   28  C   UNL     1     -10.121  10.000  70.230  1.00  0.00    -0.228 C  
ENDROOT
BRANCH  22  29
HETATM   29  C   UNL     1      -7.170  12.172  67.390  1.00  0.00    -0.147 C  
HETATM   30  O   UNL     1      -6.606  11.770  66.351  1.00  0.00     0.011 OA 
BRANCH  29  31
HETATM   31  C   UNL     1      -6.369  13.177  68.207  1.00  0.00    -0.096 C  
HETATM   32  O   UNL     1      -6.933  13.564  69.437  1.00  0.00    -0.263 OA 
HETATM   33  H   UNL     1      -6.433  14.191  69.946  1.00  0.00     0.000 HD 
ENDBRANCH  29  31
ENDBRANCH  22  29
TORSDOF 2
ENDMDL
MODEL       10
REMARK 921   NORMALIZED FREE ENERGY PREDICTED BY IDOCK:   -6.08 KCAL/MOL
REMARK 922        TOTAL FREE ENERGY PREDICTED BY IDOCK:   -6.64 KCAL/MOL
REMARK 923 INTER-LIGAND FREE ENERGY PREDICTED BY IDOCK:   -7.20 KCAL/MOL
REMARK 924 INTRA-LIGAND FREE ENERGY PREDICTED BY IDOCK:    0.56 KCAL/MOL
REMARK 927      BINDING AFFINITY PREDICTED BY RF-SCORE:    0.00 PKD
ROOT
HETATM    1  C   UNL     1      -8.929   8.404  70.001  1.00  0.00    -0.138 C  
HETATM    2  C   UNL     1      -7.973   9.831  69.989  1.00  0.00    -0.196 C  
HETATM    3  C   UNL     1      -8.235  10.517  68.497  1.00  0.00    -0.123 C  
HETATM    4  C   UNL     1      -8.834  11.767  67.579  1.00  0.00    -0.162 C  
HETATM    5  C   UNL     1     -10.149  12.325  68.200  1.00  0.00    -0.211 C  
HETATM    6  C   UNL     1     -11.137  13.081  67.347  1.00  0.00    -0.272 C  
HETATM    7  F   UNL     1     -12.305  13.126  68.061  1.00  0.00    -0.326 F  
HETATM    8  C   UNL     1     -11.396  12.376  66.015  1.00  0.00    -0.397 C  
HETATM    9  C   UNL     1     -12.524  12.662  65.330  1.00  0.00    -0.483 C  
HETATM   10  C   UNL     1     -12.319  14.084  64.884  1.00  0.00    -0.427 C  
HETATM   11  O   UNL     1     -13.266  14.839  64.715  1.00  0.00    -0.204 OA 
HETATM   12  C   UNL     1     -10.872  14.534  64.650  1.00  0.00    -0.351 C  
HETATM   13  C   UNL     1      -9.818  13.684  64.826  1.00  0.00     0.017 C  
HETATM   14  C   UNL     1     -10.094  12.228  65.185  1.00  0.00    -0.284 C  
HETATM   15  C   UNL     1     -10.258  11.549  63.788  1.00  0.00    -0.429 C  
HETATM   16  C   UNL     1      -9.251  11.297  66.135  1.00  0.00    -0.222 C  
HETATM   17  C   UNL     1      -8.200  10.408  65.509  1.00  0.00    -0.162 C  
HETATM   18  C   UNL     1      -8.421   9.071  66.262  1.00  0.00    -0.132 C  
HETATM   19  O   UNL     1      -6.890  10.927  65.615  1.00  0.00    -0.330 OA 
HETATM   20  H   UNL     1      -6.229  10.368  65.222  1.00  0.00     0.000 HD 
HETATM   21  C   UNL     1      -8.391   9.183  67.801  1.00  0.00    -0.117 C  
HETATM   22  C   UNL     1      -9.786   8.756  68.816  1.00  0.00    -0.171 C  
HETATM   23  C   UNL     1      -6.872   8.550  68.064  1.00  0.00    -0.070 C  
HETATM   24  O   UNL     1      -8.556   7.056  69.558  1.00  0.00    -0.132 OA 
HETATM   25  O   UNL     1     -10.491   7.632  68.391  1.00  0.00    -0.196 OA 
HETATM   26  C   UNL     1     -10.530   5.509  69.430  1.00  0.00    -0.360 C  
HETATM   27  C   UNL     1      -9.655   6.544  68.724  1.00  0.00    -0.126 C  
HETATM   28  C   UNL     1      -9.244   5.997  67.351  1.00  0.00    -0.109 C  
ENDROOT
BRANCH  22  29
HETATM   29  C   UNL     1     -10.886   9.652  69.683  1.00  0.00    -0.244 C  
HETATM   30  O   UNL     1     -11.771  10.358  69.156  1.00  0.00    -0.213 OA 
BRANCH  29  31
HETATM   31  C   UNL     1     -10.809   9.746  71.201  1.00  0.00    -0.263 C  
HETATM   32  O   UNL     1     -11.992   9.446  71.900  1.00  0.00    -0.369 OA 
HETATM   33  H   UNL     1     -11.945   9.505  72.847  1.00  0.00     0.000 HD 
ENDBRANCH  29  31
ENDBRANCH  22  29
TORSDOF 2
ENDMDL
MODEL       11
REMARK 921   NORMALIZED FREE ENERGY PREDICTED BY IDOCK:   -6.06 KCAL/MOL
REMARK 922        TOTAL FREE ENERGY PREDICTED BY IDOCK:   -6.62 KCAL/MOL
REMARK 923 INTER-LIGAND FREE ENERGY PREDICTED BY IDOCK:   -6.76 KCAL/MOL
REMARK 924 INTRA-LIGAND FREE ENERGY PREDICTED BY IDOCK:    0.14 KCAL/MOL
REMARK 927      BINDING AFFINITY PREDICTED BY RF-SCORE:    0.00 PKD
ROOT
HETATM    1  C   UNL     1     -12.159  13.890  67.969  1.00  0.00    -0.283 C  
HETATM    2  C   UNL     1     -11.320  13.406  66.551  1.00  0.00    -0.346 C  
HETATM    3  C   UNL     1      -9.778  13.048  67.060  1.00  0.00    -0.235 C  
HETATM    4  C   UNL     1      -8.569  11.931  67.294  1.00  0.00    -0.170 C  
HETATM    5  C   UNL     1      -9.164  10.562  67.740  1.00  0.00    -0.151 C  
HETATM    6  C   UNL     1      -8.311   9.564  68.483  1.00  0.00    -0.118 C  
HETATM    7  F   UNL     1      -9.176   8.654  69.031  1.00  0.00    -0.142 F  
HETATM    8  C   UNL     1      -7.509  10.223  69.605  1.00  0.00    -0.159 C  
HETATM    9  C   UNL     1      -7.037   9.457  70.613  1.00  0.00    -0.127 C  
HETATM   10  C   UNL     1      -5.988   8.607  69.951  1.00  0.00    -0.031 C  
HETATM   11  O   UNL     1      -5.725   7.487  70.367  1.00  0.00    -0.024 OA 
HETATM   12  C   UNL     1      -5.268   9.212  68.740  1.00  0.00    -0.034 C  
HETATM   13  C   UNL     1      -5.554  10.467  68.289  1.00  0.00    -0.036 C  
HETATM   14  C   UNL     1      -6.558  11.320  69.058  1.00  0.00    -0.079 C  
HETATM   15  C   UNL     1      -5.666  12.033  70.124  1.00  0.00    -0.152 C  
HETATM   16  C   UNL     1      -7.603  12.340  68.468  1.00  0.00    -0.118 C  
HETATM   17  C   UNL     1      -7.205  13.796  68.387  1.00  0.00    -0.108 C  
HETATM   18  C   UNL     1      -8.489  14.508  68.884  1.00  0.00    -0.110 C  
HETATM   19  O   UNL     1      -6.783  14.192  67.097  1.00  0.00    -0.403 OA 
HETATM   20  H   UNL     1      -6.533  15.108  67.046  1.00  0.00     0.000 HD 
HETATM   21  C   UNL     1      -9.780  14.110  68.137  1.00  0.00    -0.225 C  
HETATM   22  C   UNL     1     -11.162  13.350  68.957  1.00  0.00    -0.275 C  
HETATM   23  C   UNL     1      -9.945  15.471  67.190  1.00  0.00    -0.242 C  
HETATM   24  O   UNL     1     -12.271  15.235  68.545  1.00  0.00    -0.163 OA 
HETATM   25  O   UNL     1     -11.432  13.855  70.228  1.00  0.00    -0.190 OA 
HETATM   26  C   UNL     1     -13.266  15.212  70.851  1.00  0.00    -0.488 C  
HETATM   27  C   UNL     1     -12.007  15.123  69.989  1.00  0.00    -0.336 C  
HETATM   28  C   UNL     1     -10.951  16.086  70.546  1.00  0.00    -0.322 C  
ENDROOT
BRANCH  22  29
HETATM   29  C   UNL     1     -11.778  11.806  68.967  1.00  0.00    -0.328 C  
HETATM   30  O   UNL     1     -12.265  11.249  67.961  1.00  0.00    -0.621 OA 
BRANCH  29  31
HETATM   31  C   UNL     1     -11.878  11.002  70.257  1.00  0.00    -0.367 C  
HETATM   32  O   UNL     1     -12.819  11.458  71.199  1.00  0.00    -0.380 OA 
HETATM   33  H   UNL     1     -12.882  10.957  72.003  1.00  0.00     0.000 HD 
ENDBRANCH  29  31
ENDBRANCH  22  29
TORSDOF 2
ENDMDL
MODEL       12
REMARK 921   NORMALIZED FREE ENERGY PREDICTED BY IDOCK:   -6.02 KCAL/MOL
REMARK 922        TOTAL FREE ENERGY PREDICTED BY IDOCK:   -6.57 KCAL/MOL
REMARK 923 INTER-LIGAND FREE ENERGY PREDICTED BY IDOCK:   -6.40 KCAL/MOL
REMARK 924 INTRA-LIGAND FREE ENERGY PREDICTED BY IDOCK:   -0.17 KCAL/MOL
REMARK 927      BINDING AFFINITY PREDICTED BY RF-SCORE:    0.00 PKD
ROOT
HETATM    1  C   UNL     1     -10.049   6.413  73.744  1.00  0.00    -0.266 C  
HETATM    2  C   UNL     1      -9.099   7.842  73.801  1.00  0.00    -0.333 C  
HETATM    3  C   UNL     1      -8.479   8.012  72.267  1.00  0.00    -0.206 C  
HETATM    4  C   UNL     1      -8.391   8.866  70.843  1.00  0.00    -0.219 C  
HETATM    5  C   UNL     1      -9.779   9.475  70.480  1.00  0.00    -0.325 C  
HETATM    6  C   UNL     1     -10.101   9.846  69.055  1.00  0.00    -0.189 C  
HETATM    7  F   UNL     1     -11.460  10.009  68.999  1.00  0.00    -0.244 F  
HETATM    8  C   UNL     1      -9.692   8.748  68.073  1.00  0.00    -0.183 C  
HETATM    9  C   UNL     1     -10.265   8.713  66.850  1.00  0.00    -0.367 C  
HETATM   10  C   UNL     1      -9.725   9.942  66.170  1.00  0.00    -0.236 C  
HETATM   11  O   UNL     1     -10.370  10.526  65.310  1.00  0.00    -0.287 OA 
HETATM   12  C   UNL     1      -8.334  10.419  66.604  1.00  0.00    -0.127 C  
HETATM   13  C   UNL     1      -7.612   9.756  67.554  1.00  0.00    -0.091 C  
HETATM   14  C   UNL     1      -8.169   8.462  68.138  1.00  0.00    -0.124 C  
HETATM   15  C   UNL     1      -7.643   7.376  67.146  1.00  0.00    -0.107 C  
HETATM   16  C   UNL     1      -8.036   7.942  69.618  1.00  0.00    -0.117 C  
HETATM   17  C   UNL     1      -6.901   6.996  69.939  1.00  0.00    -0.053 C  
HETATM   18  C   UNL     1      -7.606   5.941  70.830  1.00  0.00    -0.096 C  
HETATM   19  O   UNL     1      -5.797   7.630  70.552  1.00  0.00    -0.030 OA 
HETATM   20  H   UNL     1      -5.084   7.036  70.754  1.00  0.00     0.000 HD 
HETATM   21  C   UNL     1      -8.373   6.521  72.038  1.00  0.00    -0.107 C  
HETATM   22  C   UNL     1     -10.125   6.310  72.246  1.00  0.00    -0.177 C  
HETATM   23  C   UNL     1      -7.280   6.129  73.234  1.00  0.00    -0.088 C  
HETATM   24  O   UNL     1      -9.628   5.030  73.997  1.00  0.00    -0.127 OA 
HETATM   25  O   UNL     1     -10.606   5.054  71.880  1.00  0.00    -0.209 OA 
HETATM   26  C   UNL     1     -11.379   3.357  73.333  1.00  0.00    -0.201 C  
HETATM   27  C   UNL     1     -10.172   4.196  72.913  1.00  0.00    -0.165 C  
HETATM   28  C   UNL     1      -9.159   3.291  72.202  1.00  0.00    -0.150 C  
ENDROOT
BRANCH  22  29
HETATM   29  C   UNL     1     -11.426   7.333  72.089  1.00  0.00    -0.273 C  
HETATM   30  O   UNL     1     -11.735   8.195  72.939  1.00  0.00    -0.373 OA 
BRANCH  29  31
HETATM   31  C   UNL     1     -12.397   7.206  70.922  1.00  0.00    -0.292 C  
HETATM   32  O   UNL     1     -11.880   6.629  69.747  1.00  0.00    -0.640 OA 
HETATM   33  H   UNL     1     -12.485   6.550  69.019  1.00  0.00     0.000 HD 
ENDBRANCH  29  31
ENDBRANCH  22  29
TORSDOF 2
ENDMDL
MODEL       13
REMARK 921   NORMALIZED FREE ENERGY PREDICTED BY IDOCK:   -5.93 KCAL/MOL
REMARK 922        TOTAL FREE ENERGY PREDICTED BY IDOCK:   -6.47 KCAL/MOL
REMARK 923 INTER-LIGAND FREE ENERGY PREDICTED BY IDOCK:   -6.83 KCAL/MOL
REMARK 924 INTRA-LIGAND FREE ENERGY PREDICTED BY IDOCK:    0.36 KCAL/MOL
REMARK 927      BINDING AFFINITY PREDICTED BY RF-SCORE:    0.00 PKD
ROOT
HETATM    1  C   UNL     1      -8.538   7.276  68.126  1.00  0.00    -0.122 C  
HETATM    2  C   UNL     1     -10.105   7.279  67.425  1.00  0.00    -0.266 C  
HETATM    3  C   UNL     1     -10.692   8.814  67.681  1.00  0.00    -0.206 C  
HETATM    4  C   UNL     1     -11.195  10.277  67.070  1.00  0.00     0.047 C  
HETATM    5  C   UNL     1     -10.341  10.679  65.831  1.00  0.00    -0.291 C  
HETATM    6  C   UNL     1     -10.241  12.123  65.408  1.00  0.00    -0.270 C  
HETATM    7  F   UNL     1      -9.178  12.198  64.547  1.00  0.00     0.036 F  
HETATM    8  C   UNL     1      -9.981  13.049  66.597  1.00  0.00    -0.250 C  
HETATM    9  C   UNL     1      -9.456  14.273  66.374  1.00  0.00    -0.297 C  
HETATM   10  C   UNL     1     -10.556  15.006  65.656  1.00  0.00    -0.346 C  
HETATM   11  O   UNL     1     -10.307  15.898  64.856  1.00  0.00    -0.517 OA 
HETATM   12  C   UNL     1     -11.994  14.584  65.978  1.00  0.00    -0.319 C  
HETATM   13  C   UNL     1     -12.268  13.599  66.881  1.00  0.00    -0.398 C  
HETATM   14  C   UNL     1     -11.117  12.958  67.650  1.00  0.00    -0.297 C  
HETATM   15  C   UNL     1     -10.963  13.893  68.891  1.00  0.00    -0.290 C  
HETATM   16  C   UNL     1     -10.979  11.454  68.094  1.00  0.00    -0.284 C  
HETATM   17  C   UNL     1     -11.438  11.079  69.485  1.00  0.00    -0.299 C  
HETATM   18  C   UNL     1     -10.296  10.145  69.959  1.00  0.00    -0.301 C  
HETATM   19  O   UNL     1     -12.722  10.488  69.513  1.00  0.00    -0.659 OA 
HETATM   20  H   UNL     1     -13.011  10.253  70.387  1.00  0.00     0.000 HD 
HETATM   21  C   UNL     1      -9.980   8.973  69.006  1.00  0.00    -0.191 C  
HETATM   22  C   UNL     1      -8.390   8.768  68.239  1.00  0.00    -0.126 C  
HETATM   23  C   UNL     1     -10.717   7.750  69.868  1.00  0.00    -0.245 C  
HETATM   24  O   UNL     1      -8.160   6.955  69.507  1.00  0.00    -0.125 OA 
HETATM   25  O   UNL     1      -7.306   9.078  69.057  1.00  0.00    -0.071 OA 
HETATM   26  C   UNL     1      -5.774   7.553  70.013  1.00  0.00    -0.024 C  
HETATM   27  C   UNL     1      -7.234   8.002  69.968  1.00  0.00    -0.061 C  
HETATM   28  C   UNL     1      -7.593   8.662  71.305  1.00  0.00    -0.129 C  
ENDROOT
BRANCH  22  29
HETATM   29  C   UNL     1      -7.835   8.984  66.687  1.00  0.00    -0.100 C  
HETATM   30  O   UNL     1      -7.451  10.085  66.237  1.00  0.00    -0.100 OA 
BRANCH  29  31
HETATM   31  C   UNL     1      -7.859   7.849  65.672  1.00  0.00    -0.109 C  
HETATM   32  O   UNL     1      -8.251   8.195  64.365  1.00  0.00    -0.219 OA 
HETATM   33  H   UNL     1      -8.266   7.488  63.732  1.00  0.00     0.000 HD 
ENDBRANCH  29  31
ENDBRANCH  22  29
TORSDOF 2
ENDMDL
MODEL       14
REMARK 921   NORMALIZED FREE ENERGY PREDICTED BY IDOCK:   -5.87 KCAL/MOL
REMARK 922        TOTAL FREE ENERGY PREDICTED BY IDOCK:   -6.40 KCAL/MOL
REMARK 923 INTER-LIGAND FREE ENERGY PREDICTED BY IDOCK:   -6.86 KCAL/MOL
REMARK 924 INTRA-LIGAND FREE ENERGY PREDICTED BY IDOCK:    0.46 KCAL/MOL
REMARK 927      BINDING AFFINITY PREDICTED BY RF-SCORE:    0.00 PKD
ROOT
HETATM    1  C   UNL     1      -9.621   9.322  65.490  1.00  0.00    -0.220 C  
HETATM    2  C   UNL     1     -10.249   9.639  67.057  1.00  0.00    -0.308 C  
HETATM    3  C   UNL     1      -9.571  11.088  67.512  1.00  0.00    -0.178 C  
HETATM    4  C   UNL     1      -9.749  12.695  67.897  1.00  0.00    -0.216 C  
HETATM    5  C   UNL     1     -10.857  13.352  67.021  1.00  0.00    -0.280 C  
HETATM    6  C   UNL     1     -10.877  14.844  66.804  1.00  0.00    -0.320 C  
HETATM    7  F   UNL     1     -11.717  15.066  65.744  1.00  0.00    -0.334 F  
HETATM    8  C   UNL     1      -9.490  15.388  66.459  1.00  0.00    -0.298 C  
HETATM    9  C   UNL     1      -9.389  16.582  65.835  1.00  0.00    -0.226 C  
HETATM   10  C   UNL     1      -9.850  17.566  66.875  1.00  0.00    -0.302 C  
HETATM   11  O   UNL     1     -10.386  18.619  66.559  1.00  0.00    -0.378 OA 
HETATM   12  C   UNL     1      -9.612  17.186  68.342  1.00  0.00    -0.281 C  
HETATM   13  C   UNL     1      -9.001  16.017  68.690  1.00  0.00    -0.210 C  
HETATM   14  C   UNL     1      -8.468  15.104  67.591  1.00  0.00    -0.171 C  
HETATM   15  C   UNL     1      -7.026  15.651  67.351  1.00  0.00    -0.234 C  
HETATM   16  C   UNL     1      -8.452  13.529  67.576  1.00  0.00    -0.192 C  
HETATM   17  C   UNL     1      -7.201  12.828  68.055  1.00  0.00    -0.115 C  
HETATM   18  C   UNL     1      -7.030  11.714  66.991  1.00  0.00    -0.144 C  
HETATM   19  O   UNL     1      -7.296  12.354  69.383  1.00  0.00    -0.323 OA 
HETATM   20  H   UNL     1      -6.510  11.913  69.685  1.00  0.00     0.000 HD 
HETATM   21  C   UNL     1      -8.273  10.823  66.781  1.00  0.00    -0.135 C  
HETATM   22  C   UNL     1      -9.114  10.712  65.219  1.00  0.00    -0.195 C  
HETATM   23  C   UNL     1      -7.753   9.474  67.610  1.00  0.00    -0.095 C  
HETATM   24  O   UNL     1      -8.390   8.610  65.131  1.00  0.00    -0.150 OA 
HETATM   25  O   UNL     1      -8.274  10.702  64.107  1.00  0.00    -0.105 OA 
HETATM   26  C   UNL     1      -7.812   8.859  62.700  1.00  0.00    -0.132 C  
HETATM   27  C   UNL     1      -7.690   9.416  64.118  1.00  0.00    -0.117 C  
HETATM   28  C   UNL     1      -6.215   9.714  64.412  1.00  0.00    -0.098 C  
ENDROOT
BRANCH  22  29
HETATM   29  C   UNL     1     -10.565  11.297  64.658  1.00  0.00    -0.327 C  
HETATM   30  O   UNL     1     -11.670  11.006  65.163  1.00  0.00     0.342 OA 
BRANCH  29  31
HETATM   31  C   UNL     1     -10.640  12.159  63.405  1.00  0.00    -0.410 C  
HETATM   32  O   UNL     1     -11.763  13.000  63.298  1.00  0.00    -0.711 OA 
HETATM   33  H   UNL     1     -11.810  13.537  62.516  1.00  0.00     0.000 HD 
ENDBRANCH  29  31
ENDBRANCH  22  29
TORSDOF 2
ENDMDL
MODEL       15
REMARK 921   NORMALIZED FREE ENERGY PREDICTED BY IDOCK:   -5.85 KCAL/MOL
REMARK 922        TOTAL FREE ENERGY PREDICTED BY IDOCK:   -6.38 KCAL/MOL
REMARK 923 INTER-LIGAND FREE ENERGY PREDICTED BY IDOCK:   -6.29 KCAL/MOL
REMARK 924 INTRA-LIGAND FREE ENERGY PREDICTED BY IDOCK:   -0.09 KCAL/MOL
REMARK 927      BINDING AFFINITY PREDICTED BY RF-SCORE:    0.00 PKD
ROOT
HETATM    1  C   UNL     1     -10.081  12.408  66.524  1.00  0.00    -0.232 C  
HETATM    2  C   UNL     1     -10.077  10.791  65.946  1.00  0.00    -0.314 C  
HETATM    3  C   UNL     1      -9.328   9.905  67.137  1.00  0.00    -0.170 C  
HETATM    4  C   UNL     1      -9.402   8.729  68.310  1.00  0.00    -0.143 C  
HETATM    5  C   UNL     1     -10.783   8.757  69.032  1.00  0.00    -0.134 C  
HETATM    6  C   UNL     1     -10.936   8.173  70.413  1.00  0.00    -0.247 C  
HETATM    7  F   UNL     1     -12.123   8.651  70.903  1.00  0.00    -0.293 F  
HETATM    8  C   UNL     1      -9.804   8.608  71.345  1.00  0.00    -0.327 C  
HETATM    9  C   UNL     1      -9.990   8.540  72.681  1.00  0.00    -0.265 C  
HETATM   10  C   UNL     1     -10.054   7.062  72.955  1.00  0.00    -0.211 C  
HETATM   11  O   UNL     1     -10.707   6.619  73.890  1.00  0.00    -0.288 OA 
HETATM   12  C   UNL     1      -9.264   6.148  72.012  1.00  0.00    -0.148 C  
HETATM   13  C   UNL     1      -8.526   6.647  70.979  1.00  0.00    -0.129 C  
HETATM   14  C   UNL     1      -8.419   8.159  70.809  1.00  0.00    -0.126 C  
HETATM   15  C   UNL     1      -7.196   8.527  71.707  1.00  0.00    -0.112 C  
HETATM   16  C   UNL     1      -8.355   8.972  69.461  1.00  0.00    -0.117 C  
HETATM   17  C   UNL     1      -6.992   9.330  68.913  1.00  0.00    -0.064 C  
HETATM   18  C   UNL     1      -7.200  10.802  68.474  1.00  0.00    -0.088 C  
HETATM   19  O   UNL     1      -6.558   8.470  67.879  1.00  0.00    -0.059 OA 
HETATM   20  H   UNL     1      -5.702   8.695  67.534  1.00  0.00     0.000 HD 
HETATM   21  C   UNL     1      -8.398  11.032  67.528  1.00  0.00    -0.118 C  
HETATM   22  C   UNL     1      -9.765  12.083  67.958  1.00  0.00    -0.198 C  
HETATM   23  C   UNL     1      -7.554  11.207  66.101  1.00  0.00    -0.032 C  
HETATM   24  O   UNL     1      -9.056  13.441  66.344  1.00  0.00    -0.174 OA 
HETATM   25  O   UNL     1      -9.411  13.246  68.640  1.00  0.00    -0.128 OA 
HETATM   26  C   UNL     1      -9.454  15.452  67.793  1.00  0.00    -0.204 C  
HETATM   27  C   UNL     1      -8.822  14.068  67.655  1.00  0.00    -0.190 C  
HETATM   28  C   UNL     1      -7.357  14.141  68.103  1.00  0.00    -0.130 C  
ENDROOT
BRANCH  22  29
HETATM   29  C   UNL     1     -11.340  11.787  68.399  1.00  0.00    -0.270 C  
HETATM   30  O   UNL     1     -12.254  11.549  67.582  1.00  0.00    -0.513 OA 
BRANCH  29  31
HETATM   31  C   UNL     1     -11.788  11.892  69.851  1.00  0.00    -0.343 C  
HETATM   32  O   UNL     1     -11.738  13.177  70.423  1.00  0.00    -0.526 OA 
HETATM   33  H   UNL     1     -12.018  13.242  71.328  1.00  0.00     0.000 HD 
ENDBRANCH  29  31
ENDBRANCH  22  29
TORSDOF 2
ENDMDL
MODEL       16
REMARK 921   NORMALIZED FREE ENERGY PREDICTED BY IDOCK:   -5.83 KCAL/MOL
REMARK 922        TOTAL FREE ENERGY PREDICTED BY IDOCK:   -6.36 KCAL/MOL
REMARK 923 INTER-LIGAND FREE ENERGY PREDICTED BY IDOCK:   -6.15 KCAL/MOL
REMARK 924 INTRA-LIGAND FREE ENERGY PREDICTED BY IDOCK:   -0.21 KCAL/MOL
REMARK 927      BINDING AFFINITY PREDICTED BY RF-SCORE:    0.00 PKD
ROOT
HETATM    1  C   UNL     1      -7.341   8.110  68.872  1.00  0.00    -0.090 C  
HETATM    2  C   UNL     1      -6.456   9.537  68.512  1.00  0.00    -0.052 C  
HETATM    3  C   UNL     1      -7.239  10.218  67.213  1.00  0.00    -0.089 C  
HETATM    4  C   UNL     1      -8.130  11.466  66.569  1.00  0.00    -0.141 C  
HETATM    5  C   UNL     1      -9.134  12.025  67.621  1.00  0.00    -0.179 C  
HETATM    6  C   UNL     1     -10.364  12.778  67.180  1.00  0.00    -0.233 C  
HETATM    7  F   UNL     1     -11.196  12.824  68.267  1.00  0.00    -0.239 F  
HETATM    8  C   UNL     1     -11.085  12.068  66.033  1.00  0.00    -0.364 C  
HETATM    9  C   UNL     1     -12.385  12.351  65.800  1.00  0.00    -0.106 C  
HETATM   10  C   UNL     1     -12.357  13.772  65.306  1.00  0.00    -0.464 C  
HETATM   11  O   UNL     1     -13.302  14.526  65.488  1.00  0.00    -0.404 OA 
HETATM   12  C   UNL     1     -11.092  14.221  64.565  1.00  0.00    -0.321 C  
HETATM   13  C   UNL     1     -10.045  13.373  64.351  1.00  0.00    -0.128 C  
HETATM   14  C   UNL     1     -10.170  11.917  64.790  1.00  0.00    -0.314 C  
HETATM   15  C   UNL     1     -10.826  11.234  63.548  1.00  0.00    -0.373 C  
HETATM   16  C   UNL     1      -9.040  10.990  65.375  1.00  0.00    -0.213 C  
HETATM   17  C   UNL     1      -8.284  10.100  64.414  1.00  0.00    -0.165 C  
HETATM   18  C   UNL     1      -8.216   8.765  65.200  1.00  0.00    -0.149 C  
HETATM   19  O   UNL     1      -7.025  10.619  64.039  1.00  0.00    -0.346 OA 
HETATM   20  H   UNL     1      -6.549  10.059  63.435  1.00  0.00     0.000 HD 
HETATM   21  C   UNL     1      -7.634   8.882  66.624  1.00  0.00    -0.089 C  
HETATM   22  C   UNL     1      -8.568   8.458  68.076  1.00  0.00    -0.135 C  
HETATM   23  C   UNL     1      -6.121   8.250  66.323  1.00  0.00    -0.045 C  
HETATM   24  O   UNL     1      -7.151   6.761  68.329  1.00  0.00    -0.080 OA 
HETATM   25  O   UNL     1      -9.377   7.332  67.936  1.00  0.00    -0.130 OA 
HETATM   26  C   UNL     1      -9.035   5.212  68.925  1.00  0.00    -0.122 C  
HETATM   27  C   UNL     1      -8.476   6.245  67.948  1.00  0.00    -0.117 C  
HETATM   28  C   UNL     1      -8.587   5.694  66.521  1.00  0.00    -0.119 C  
ENDROOT
BRANCH  22  29
HETATM   29  C   UNL     1      -9.282   9.356  69.278  1.00  0.00    -0.159 C  
HETATM   30  O   UNL     1      -8.671   9.776  70.283  1.00  0.00    -0.209 OA 
BRANCH  29  31
HETATM   31  C   UNL     1     -10.779   9.638  69.273  1.00  0.00    -0.226 C  
HETATM   32  O   UNL     1     -11.452   9.387  68.063  1.00  0.00    -0.344 OA 
HETATM   33  H   UNL     1     -12.385   9.563  68.061  1.00  0.00     0.000 HD 
ENDBRANCH  29  31
ENDBRANCH  22  29
TORSDOF 2
ENDMDL
MODEL       17
REMARK 921   NORMALIZED FREE ENERGY PREDICTED BY IDOCK:   -5.81 KCAL/MOL
REMARK 922        TOTAL FREE ENERGY PREDICTED BY IDOCK:   -6.34 KCAL/MOL
REMARK 923 INTER-LIGAND FREE ENERGY PREDICTED BY IDOCK:   -6.17 KCAL/MOL
REMARK 924 INTRA-LIGAND FREE ENERGY PREDICTED BY IDOCK:   -0.17 KCAL/MOL
REMARK 927      BINDING AFFINITY PREDICTED BY RF-SCORE:    0.00 PKD
ROOT
HETATM    1  C   UNL     1     -11.301  14.137  67.059  1.00  0.00    -0.332 C  
HETATM    2  C   UNL     1     -10.383  13.484  65.763  1.00  0.00    -0.296 C  
HETATM    3  C   UNL     1      -9.083  12.738  66.484  1.00  0.00    -0.150 C  
HETATM    4  C   UNL     1      -8.243  11.347  66.837  1.00  0.00    -0.157 C  
HETATM    5  C   UNL     1      -9.222  10.164  67.101  1.00  0.00    -0.157 C  
HETATM    6  C   UNL     1      -8.778   8.969  67.906  1.00  0.00    -0.129 C  
HETATM    7  F   UNL     1      -9.919   8.297  68.256  1.00  0.00    -0.174 F  
HETATM    8  C   UNL     1      -8.037   9.383  69.178  1.00  0.00    -0.107 C  
HETATM    9  C   UNL     1      -7.943   8.503  70.199  1.00  0.00    -0.105 C  
HETATM   10  C   UNL     1      -7.040   7.428  69.660  1.00  0.00    -0.072 C  
HETATM   11  O   UNL     1      -7.134   6.270  70.043  1.00  0.00    -0.067 OA 
HETATM   12  C   UNL     1      -6.002   7.855  68.616  1.00  0.00    -0.035 C  
HETATM   13  C   UNL     1      -5.891   9.150  68.202  1.00  0.00    -0.038 C  
HETATM   14  C   UNL     1      -6.768  10.214  68.855  1.00  0.00    -0.053 C  
HETATM   15  C   UNL     1      -5.919  10.657  70.088  1.00  0.00    -0.098 C  
HETATM   16  C   UNL     1      -7.416  11.476  68.171  1.00  0.00    -0.101 C  
HETATM   17  C   UNL     1      -6.664  12.786  68.241  1.00  0.00    -0.087 C  
HETATM   18  C   UNL     1      -7.798  13.789  68.573  1.00  0.00    -0.132 C  
HETATM   19  O   UNL     1      -5.948  13.087  67.060  1.00  0.00    -0.464 OA 
HETATM   20  H   UNL     1      -5.476  13.910  67.104  1.00  0.00     0.000 HD 
HETATM   21  C   UNL     1      -9.004  13.745  67.611  1.00  0.00    -0.194 C  
HETATM   22  C   UNL     1     -10.647  13.344  68.157  1.00  0.00    -0.245 C  
HETATM   23  C   UNL     1      -8.668  15.122  66.733  1.00  0.00    -0.307 C  
HETATM   24  O   UNL     1     -11.173  15.455  67.691  1.00  0.00    -0.320 OA 
HETATM   25  O   UNL     1     -10.993  13.876  69.397  1.00  0.00    -0.217 OA 
HETATM   26  C   UNL     1     -12.513  15.639  69.806  1.00  0.00    -0.130 C  
HETATM   27  C   UNL     1     -11.189  15.252  69.148  1.00  0.00    -0.278 C  
HETATM   28  C   UNL     1     -10.037  15.906  69.921  1.00  0.00    -0.191 C  
ENDROOT
BRANCH  22  29
HETATM   29  C   UNL     1     -11.616  12.005  67.976  1.00  0.00    -0.342 C  
HETATM   30  O   UNL     1     -12.250  11.746  66.932  1.00  0.00    -0.391 OA 
BRANCH  29  31
HETATM   31  C   UNL     1     -11.874  11.052  69.136  1.00  0.00    -0.337 C  
HETATM   32  O   UNL     1     -10.995  11.156  70.230  1.00  0.00    -0.462 OA 
HETATM   33  H   UNL     1     -11.155  10.561  70.953  1.00  0.00     0.000 HD 
ENDBRANCH  29  31
ENDBRANCH  22  29
TORSDOF 2
ENDMDL
MODEL       18
REMARK 921   NORMALIZED FREE ENERGY PREDICTED BY IDOCK:   -5.79 KCAL/MOL
REMARK 922        TOTAL FREE ENERGY PREDICTED BY IDOCK:   -6.31 KCAL/MOL
REMARK 923 INTER-LIGAND FREE ENERGY PREDICTED BY IDOCK:   -6.11 KCAL/MOL
REMARK 924 INTRA-LIGAND FREE ENERGY PREDICTED BY IDOCK:   -0.21 KCAL/MOL
REMARK 927      BINDING AFFINITY PREDICTED BY RF-SCORE:    0.00 PKD
ROOT
HETATM    1  C   UNL     1      -8.971  12.288  66.346  1.00  0.00    -0.117 C  
HETATM    2  C   UNL     1      -8.293  12.378  67.921  1.00  0.00    -0.165 C  
HETATM    3  C   UNL     1      -9.186  11.317  68.839  1.00  0.00    -0.076 C  
HETATM    4  C   UNL     1      -9.273   9.917  69.733  1.00  0.00    -0.252 C  
HETATM    5  C   UNL     1      -8.372   8.809  69.111  1.00  0.00    -0.125 C  
HETATM    6  C   UNL     1      -8.641   7.354  69.401  1.00  0.00    -0.134 C  
HETATM    7  F   UNL     1      -7.939   6.641  68.465  1.00  0.00    -0.109 F  
HETATM    8  C   UNL     1     -10.126   7.011  69.274  1.00  0.00    -0.178 C  
HETATM    9  C   UNL     1     -10.489   5.724  69.083  1.00  0.00    -0.346 C  
HETATM   10  C   UNL     1     -10.136   5.059  70.385  1.00  0.00    -0.260 C  
HETATM   11  O   UNL     1      -9.826   3.876  70.429  1.00  0.00    -0.196 OA 
HETATM   12  C   UNL     1     -10.187   5.931  71.645  1.00  0.00    -0.249 C  
HETATM   13  C   UNL     1     -10.547   7.246  71.594  1.00  0.00    -0.228 C  
HETATM   14  C   UNL     1     -10.989   7.841  70.260  1.00  0.00    -0.252 C  
HETATM   15  C   UNL     1     -12.521   7.541  70.234  1.00  0.00     0.447 C  
HETATM   16  C   UNL     1     -10.721   9.297  69.723  1.00  0.00    -0.245 C  
HETATM   17  C   UNL     1     -11.783  10.347  69.959  1.00  0.00    -0.286 C  
HETATM   18  C   UNL     1     -11.830  11.068  68.587  1.00  0.00    -0.318 C  
HETATM   19  O   UNL     1     -11.502  11.196  71.053  1.00  0.00    -0.206 OA 
HETATM   20  H   UNL     1     -12.169  11.856  71.201  1.00  0.00     0.000 HD 
HETATM   21  C   UNL     1     -10.466  11.580  68.078  1.00  0.00    -0.214 C  
HETATM   22  C   UNL     1      -9.741  11.014  66.557  1.00  0.00    -0.198 C  
HETATM   23  C   UNL     1     -10.667  13.199  68.419  1.00  0.00    -0.270 C  
HETATM   24  O   UNL     1     -10.076  13.073  65.786  1.00  0.00    -0.286 OA 
HETATM   25  O   UNL     1     -10.648  10.829  65.515  1.00  0.00    -0.223 OA 
HETATM   26  C   UNL     1     -10.875  12.171  63.583  1.00  0.00    -0.523 C  
HETATM   27  C   UNL     1     -10.986  12.137  65.106  1.00  0.00    -0.310 C  
HETATM   28  C   UNL     1     -12.464  12.246  65.501  1.00  0.00     0.089 C  
ENDROOT
BRANCH  22  29
HETATM   29  C   UNL     1      -8.468  10.005  66.204  1.00  0.00    -0.127 C  
HETATM   30  O   UNL     1      -7.275  10.378  66.184  1.00  0.00    -0.117 OA 
BRANCH  29  31
HETATM   31  C   UNL     1      -8.696   8.562  65.775  1.00  0.00    -0.179 C  
HETATM   32  O   UNL     1      -9.962   8.022  66.067  1.00  0.00    -0.457 OA 
HETATM   33  H   UNL     1     -10.104   7.122  65.799  1.00  0.00     0.000 HD 
ENDBRANCH  29  31
ENDBRANCH  22  29
TORSDOF 2
ENDMDL
MODEL       19
REMARK 921   NORMALIZED FREE ENERGY PREDICTED BY IDOCK:   -5.79 KCAL/MOL
REMARK 922        TOTAL FREE ENERGY PREDICTED BY IDOCK:   -6.31 KCAL/MOL
REMARK 923 INTER-LIGAND FREE ENERGY PREDICTED BY IDOCK:   -6.09 KCAL/MOL
REMARK 924 INTRA-LIGAND FREE ENERGY PREDICTED BY IDOCK:   -0.22 KCAL/MOL
REMARK 927      BINDING AFFINITY PREDICTED BY RF-SCORE:    0.00 PKD
ROOT
HETATM    1  C   UNL     1      -9.139   5.314  72.675  1.00  0.00    -0.135 C  
HETATM    2  C   UNL     1      -8.582   6.801  73.330  1.00  0.00    -0.136 C  
HETATM    3  C   UNL     1      -8.308   7.780  72.014  1.00  0.00    -0.142 C  
HETATM    4  C   UNL     1      -8.692   9.136  71.131  1.00  0.00    -0.210 C  
HETATM    5  C   UNL     1     -10.230   9.388  71.150  1.00  0.00    -0.361 C  
HETATM    6  C   UNL     1     -10.883  10.207  70.066  1.00  0.00    -0.307 C  
HETATM    7  F   UNL     1     -12.227   9.957  70.155  1.00  0.00    -0.255 F  
HETATM    8  C   UNL     1     -10.395   9.806  68.674  1.00  0.00    -0.224 C  
HETATM    9  C   UNL     1     -11.149  10.117  67.598  1.00  0.00    -0.275 C  
HETATM   10  C   UNL     1     -11.064  11.617  67.526  1.00  0.00    -0.276 C  
HETATM   11  O   UNL     1     -11.977  12.282  67.057  1.00  0.00    -0.576 OA 
HETATM   12  C   UNL     1      -9.782  12.264  68.064  1.00  0.00    -0.205 C  
HETATM   13  C   UNL     1      -8.760  11.517  68.573  1.00  0.00    -0.138 C  
HETATM   14  C   UNL     1      -8.862   9.996  68.531  1.00  0.00    -0.120 C  
HETATM   15  C   UNL     1      -8.266   9.645  67.130  1.00  0.00    -0.120 C  
HETATM   16  C   UNL     1      -8.342   8.969  69.605  1.00  0.00    -0.125 C  
HETATM   17  C   UNL     1      -6.968   8.369  69.407  1.00  0.00    -0.050 C  
HETATM   18  C   UNL     1      -7.215   6.879  69.753  1.00  0.00    -0.079 C  
HETATM   19  O   UNL     1      -5.966   8.989  70.188  1.00  0.00    -0.033 OA 
HETATM   20  H   UNL     1      -5.103   8.613  70.064  1.00  0.00     0.000 HD 
HETATM   21  C   UNL     1      -7.875   6.634  71.127  1.00  0.00    -0.102 C  
HETATM   22  C   UNL     1      -9.453   5.834  71.299  1.00  0.00    -0.154 C  
HETATM   23  C   UNL     1      -6.524   6.128  71.961  1.00  0.00    -0.057 C  
HETATM   24  O   UNL     1      -8.347   4.154  72.251  1.00  0.00    -0.098 OA 
HETATM   25  O   UNL     1      -9.662   4.768  70.425  1.00  0.00    -0.181 OA 
HETATM   26  C   UNL     1      -9.713   2.472  70.983  1.00  0.00    -0.155 C  
HETATM   27  C   UNL     1      -8.849   3.732  70.934  1.00  0.00    -0.082 C  
HETATM   28  C   UNL     1      -7.786   3.565  69.841  1.00  0.00    -0.047 C  
ENDROOT
BRANCH  22  29
HETATM   29  C   UNL     1     -10.975   6.380  71.685  1.00  0.00    -0.257 C  
HETATM   30  O   UNL     1     -11.386   6.510  72.857  1.00  0.00    -0.230 OA 
BRANCH  29  31
HETATM   31  C   UNL     1     -12.012   6.661  70.606  1.00  0.00    -0.343 C  
HETATM   32  O   UNL     1     -11.556   6.598  69.277  1.00  0.00    -0.618 OA 
HETATM   33  H   UNL     1     -12.204   6.773  68.604  1.00  0.00     0.000 HD 
ENDBRANCH  29  31
ENDBRANCH  22  29
TORSDOF 2
ENDMDL
MODEL       20
REMARK 921   NORMALIZED FREE ENERGY PREDICTED BY IDOCK:   -5.77 KCAL/MOL
REMARK 922        TOTAL FREE ENERGY PREDICTED BY IDOCK:   -6.29 KCAL/MOL
REMARK 923 INTER-LIGAND FREE ENERGY PREDICTED BY IDOCK:   -7.00 KCAL/MOL
REMARK 924 INTRA-LIGAND FREE ENERGY PREDICTED BY IDOCK:    0.70 KCAL/MOL
REMARK 927      BINDING AFFINITY PREDICTED BY RF-SCORE:    0.00 PKD
ROOT
HETATM    1  C   UNL     1     -11.549  12.096  66.254  1.00  0.00    -0.360 C  
HETATM    2  C   UNL     1     -12.528  13.127  67.217  1.00  0.00     0.190 C  
HETATM    3  C   UNL     1     -11.477  14.241  67.866  1.00  0.00    -0.341 C  
HETATM    4  C   UNL     1     -10.950  15.814  67.987  1.00  0.00    -0.330 C  
HETATM    5  C   UNL     1     -11.059  16.539  66.612  1.00  0.00     0.202 C  
HETATM    6  C   UNL     1     -10.215  17.753  66.318  1.00  0.00    -0.364 C  
HETATM    7  F   UNL     1     -10.269  17.939  64.962  1.00  0.00     0.294 F  
HETATM    8  C   UNL     1      -8.758  17.548  66.733  1.00  0.00    -0.278 C  
HETATM    9  C   UNL     1      -7.802  18.327  66.182  1.00  0.00    -0.239 C  
HETATM   10  C   UNL     1      -8.087  19.692  66.745  1.00  0.00    -0.297 C  
HETATM   11  O   UNL     1      -7.809  20.707  66.121  1.00  0.00    -0.020 OA 
HETATM   12  C   UNL     1      -8.737  19.746  68.133  1.00  0.00    -0.333 C  
HETATM   13  C   UNL     1      -9.033  18.613  68.832  1.00  0.00    -0.215 C  
HETATM   14  C   UNL     1      -8.632  17.260  68.252  1.00  0.00    -0.247 C  
HETATM   15  C   UNL     1      -7.177  17.069  68.785  1.00  0.00    -0.226 C  
HETATM   16  C   UNL     1      -9.421  15.900  68.354  1.00  0.00    -0.201 C  
HETATM   17  C   UNL     1      -9.058  14.951  69.474  1.00  0.00     0.026 C  
HETATM   18  C   UNL     1      -9.045  13.584  68.743  1.00  0.00     0.090 C  
HETATM   19  O   UNL     1      -9.943  15.015  70.573  1.00  0.00    -0.438 OA 
HETATM   20  H   UNL     1      -9.716  14.418  71.277  1.00  0.00     0.000 HD 
HETATM   21  C   UNL     1     -10.334  13.255  67.961  1.00  0.00    -0.243 C  
HETATM   22  C   UNL     1     -10.343  12.993  66.203  1.00  0.00    -0.278 C  
HETATM   23  C   UNL     1     -10.997  12.160  69.029  1.00  0.00    -0.255 C  
HETATM   24  O   UNL     1     -10.846  10.873  66.657  1.00  0.00    -0.252 OA 
HETATM   25  O   UNL     1      -9.246  12.285  65.716  1.00  0.00    -0.120 OA 
HETATM   26  C   UNL     1      -9.242  10.066  64.902  1.00  0.00    -0.291 C  
HETATM   27  C   UNL     1      -9.476  10.953  66.124  1.00  0.00    -0.200 C  
HETATM   28  C   UNL     1      -8.354  10.708  67.141  1.00  0.00    -0.125 C  
ENDROOT
BRANCH  22  29
HETATM   29  C   UNL     1     -10.879  13.897  64.916  1.00  0.00    -0.405 C  
HETATM   30  O   UNL     1     -10.400  15.008  64.604  1.00  0.00    -0.267 OA 
BRANCH  29  31
HETATM   31  C   UNL     1     -12.080  13.460  64.087  1.00  0.00    -0.433 C  
HETATM   32  O   UNL     1     -12.643  14.440  63.249  1.00  0.00    -1.043 OA 
HETATM   33  H   UNL     1     -13.391  14.168  62.732  1.00  0.00     0.000 HD 
ENDBRANCH  29  31
ENDBRANCH  22  29
TORSDOF 2
ENDMDL
MODEL       21
REMARK 921   NORMALIZED FREE ENERGY PREDICTED BY IDOCK:   -5.76 KCAL/MOL
REMARK 922        TOTAL FREE ENERGY PREDICTED BY IDOCK:   -6.29 KCAL/MOL
REMARK 923 INTER-LIGAND FREE ENERGY PREDICTED BY IDOCK:   -6.08 KCAL/MOL
REMARK 924 INTRA-LIGAND FREE ENERGY PREDICTED BY IDOCK:   -0.21 KCAL/MOL
REMARK 927      BINDING AFFINITY PREDICTED BY RF-SCORE:    0.00 PKD
ROOT
HETATM    1  C   UNL     1      -8.503   6.324  70.931  1.00  0.00    -0.131 C  
HETATM    2  C   UNL     1      -9.790   6.099  69.817  1.00  0.00    -0.199 C  
HETATM    3  C   UNL     1     -10.517   7.589  69.687  1.00  0.00    -0.235 C  
HETATM    4  C   UNL     1     -10.904   8.920  68.767  1.00  0.00    -0.040 C  
HETATM    5  C   UNL     1      -9.747   9.264  67.782  1.00  0.00    -0.182 C  
HETATM    6  C   UNL     1      -9.613  10.655  67.217  1.00  0.00    -0.163 C  
HETATM    7  F   UNL     1      -8.349  10.736  66.693  1.00  0.00    -0.124 F  
HETATM    8  C   UNL     1      -9.772  11.727  68.296  1.00  0.00    -0.199 C  
HETATM    9  C   UNL     1      -9.279  12.964  68.071  1.00  0.00    -0.212 C  
HETATM   10  C   UNL     1     -10.159  13.504  66.977  1.00  0.00    -0.244 C  
HETATM   11  O   UNL     1      -9.738  14.322  66.170  1.00  0.00    -0.297 OA 
HETATM   12  C   UNL     1     -11.600  12.983  66.927  1.00  0.00    -0.419 C  
HETATM   13  C   UNL     1     -12.070  12.082  67.837  1.00  0.00    -0.002 C  
HETATM   14  C   UNL     1     -11.161  11.644  68.982  1.00  0.00    -0.323 C  
HETATM   15  C   UNL     1     -11.438  12.720  70.079  1.00  0.00    -0.082 C  
HETATM   16  C   UNL     1     -11.071  10.218  69.644  1.00  0.00    -0.323 C  
HETATM   17  C   UNL     1     -11.898   9.957  70.882  1.00  0.00    -0.356 C  
HETATM   18  C   UNL     1     -10.893   9.195  71.784  1.00  0.00    -0.416 C  
HETATM   19  O   UNL     1     -13.095   9.252  70.620  1.00  0.00    -0.513 OA 
HETATM   20  H   UNL     1     -13.615   9.087  71.398  1.00  0.00     0.000 HD 
HETATM   21  C   UNL     1     -10.240   7.960  71.127  1.00  0.00    -0.221 C  
HETATM   22  C   UNL     1      -8.485   7.827  70.880  1.00  0.00    -0.127 C  
HETATM   23  C   UNL     1     -11.124   6.775  71.897  1.00  0.00    -0.279 C  
HETATM   24  O   UNL     1      -8.532   6.195  72.392  1.00  0.00    -0.116 OA 
HETATM   25  O   UNL     1      -7.712   8.328  71.926  1.00  0.00    -0.097 OA 
HETATM   26  C   UNL     1      -6.442   7.072  73.474  1.00  0.00    -0.066 C  
HETATM   27  C   UNL     1      -7.848   7.371  72.955  1.00  0.00    -0.096 C  
HETATM   28  C   UNL     1      -8.626   8.137  74.032  1.00  0.00    -0.253 C  
ENDROOT
BRANCH  22  29
HETATM   29  C   UNL     1      -7.509   7.923  69.538  1.00  0.00    -0.093 C  
HETATM   30  O   UNL     1      -7.242   6.947  68.806  1.00  0.00    -0.086 OA 
BRANCH  29  31
HETATM   31  C   UNL     1      -6.787   9.214  69.175  1.00  0.00    -0.050 C  
HETATM   32  O   UNL     1      -7.078  10.333  69.977  1.00  0.00    -0.135 OA 
HETATM   33  H   UNL     1      -6.627  11.137  69.750  1.00  0.00     0.000 HD 
ENDBRANCH  29  31
ENDBRANCH  22  29
TORSDOF 2
ENDMDL
MODEL       22
REMARK 921   NORMALIZED FREE ENERGY PREDICTED BY IDOCK:   -5.75 KCAL/MOL
REMARK 922        TOTAL FREE ENERGY PREDICTED BY IDOCK:   -6.27 KCAL/MOL
REMARK 923 INTER-LIGAND FREE ENERGY PREDICTED BY IDOCK:   -6.12 KCAL/MOL
REMARK 924 INTRA-LIGAND FREE ENERGY PREDICTED BY IDOCK:   -0.15 KCAL/MOL
REMARK 927      BINDING AFFINITY PREDICTED BY RF-SCORE:    0.00 PKD
ROOT
HETATM    1  C   UNL     1      -8.276  16.406  69.184  1.00  0.00    -0.189 C  
HETATM    2  C   UNL     1      -9.595  15.477  69.770  1.00  0.00    -0.205 C  
HETATM    3  C   UNL     1      -9.939  14.395  68.554  1.00  0.00    -0.237 C  
HETATM    4  C   UNL     1     -10.003  12.826  68.007  1.00  0.00    -0.225 C  
HETATM    5  C   UNL     1      -8.812  11.996  68.574  1.00  0.00    -0.095 C  
HETATM    6  C   UNL     1      -8.351  10.744  67.872  1.00  0.00    -0.117 C  
HETATM    7  F   UNL     1      -7.114  10.452  68.382  1.00  0.00    -0.072 F  
HETATM    8  C   UNL     1      -8.228  10.949  66.361  1.00  0.00    -0.163 C  
HETATM    9  C   UNL     1      -7.451  10.107  65.645  1.00  0.00    -0.144 C  
HETATM   10  C   UNL     1      -8.189   8.798  65.713  1.00  0.00    -0.121 C  
HETATM   11  O   UNL     1      -7.594   7.731  65.657  1.00  0.00    -0.078 OA 
HETATM   12  C   UNL     1      -9.715   8.870  65.852  1.00  0.00    -0.259 C  
HETATM   13  C   UNL     1     -10.376  10.062  65.900  1.00  0.00    -0.202 C  
HETATM   14  C   UNL     1      -9.585  11.355  65.729  1.00  0.00    -0.260 C  
HETATM   15  C   UNL     1      -9.575  11.555  64.180  1.00  0.00    -0.178 C  
HETATM   16  C   UNL     1      -9.835  12.735  66.444  1.00  0.00    -0.269 C  
HETATM   17  C   UNL     1     -10.683  13.762  65.728  1.00  0.00    -0.281 C  
HETATM   18  C   UNL     1      -9.881  15.066  65.972  1.00  0.00    -0.347 C  
HETATM   19  O   UNL     1     -12.019  13.806  66.187  1.00  0.00    -0.372 OA 
HETATM   20  H   UNL     1     -12.552  14.452  65.737  1.00  0.00     0.000 HD 
HETATM   21  C   UNL     1      -9.558  15.360  67.453  1.00  0.00    -0.210 C  
HETATM   22  C   UNL     1      -7.893  15.482  68.061  1.00  0.00    -0.126 C  
HETATM   23  C   UNL     1     -10.693  16.552  67.720  1.00  0.00    -0.329 C  
HETATM   24  O   UNL     1      -8.314  17.641  68.393  1.00  0.00    -0.273 OA 
HETATM   25  O   UNL     1      -7.006  16.124  67.199  1.00  0.00    -0.180 OA 
HETATM   26  C   UNL     1      -6.058  18.270  67.486  1.00  0.00    -0.174 C  
HETATM   27  C   UNL     1      -7.356  17.489  67.286  1.00  0.00    -0.181 C  
HETATM   28  C   UNL     1      -7.907  17.789  65.886  1.00  0.00    -0.100 C  
ENDROOT
BRANCH  22  29
HETATM   29  C   UNL     1      -6.943  14.489  68.997  1.00  0.00    -0.121 C  
HETATM   30  O   UNL     1      -6.880  14.566  70.243  1.00  0.00    -0.120 OA 
BRANCH  29  31
HETATM   31  C   UNL     1      -5.996  13.476  68.368  1.00  0.00    -0.095 C  
HETATM   32  O   UNL     1      -5.959  13.453  66.962  1.00  0.00    -0.393 OA 
HETATM   33  H   UNL     1      -5.368  12.821  66.570  1.00  0.00     0.000 HD 
ENDBRANCH  29  31
ENDBRANCH  22  29
TORSDOF 2
ENDMDL
MODEL       23
REMARK 921   NORMALIZED FREE ENERGY PREDICTED BY IDOCK:   -5.72 KCAL/MOL
REMARK 922        TOTAL FREE ENERGY PREDICTED BY IDOCK:   -6.24 KCAL/MOL
REMARK 923 INTER-LIGAND FREE ENERGY PREDICTED BY IDOCK:   -6.36 KCAL/MOL
REMARK 924 INTRA-LIGAND FREE ENERGY PREDICTED BY IDOCK:    0.12 KCAL/MOL
REMARK 927      BINDING AFFINITY PREDICTED BY RF-SCORE:    0.00 PKD
ROOT
HETATM    1  C   UNL     1      -7.813   8.575  65.663  1.00  0.00    -0.102 C  
HETATM    2  C   UNL     1      -6.604   7.847  66.640  1.00  0.00    -0.058 C  
HETATM    3  C   UNL     1      -7.170   7.973  68.198  1.00  0.00    -0.094 C  
HETATM    4  C   UNL     1      -7.720   7.243  69.587  1.00  0.00    -0.105 C  
HETATM    5  C   UNL     1      -8.585   5.993  69.246  1.00  0.00    -0.118 C  
HETATM    6  C   UNL     1      -9.587   5.462  70.240  1.00  0.00    -0.177 C  
HETATM    7  F   UNL     1     -10.409   4.618  69.542  1.00  0.00    -0.299 F  
HETATM    8  C   UNL     1     -10.430   6.581  70.852  1.00  0.00    -0.263 C  
HETATM    9  C   UNL     1     -11.618   6.275  71.417  1.00  0.00    -0.338 C  
HETATM   10  C   UNL     1     -11.238   5.482  72.637  1.00  0.00    -0.295 C  
HETATM   11  O   UNL     1     -11.979   4.621  73.091  1.00  0.00    -0.176 OA 
HETATM   12  C   UNL     1      -9.885   5.809  73.281  1.00  0.00    -0.174 C  
HETATM   13  C   UNL     1      -9.067   6.780  72.780  1.00  0.00    -0.148 C  
HETATM   14  C   UNL     1      -9.549   7.617  71.599  1.00  0.00    -0.182 C  
HETATM   15  C   UNL     1     -10.320   8.785  72.291  1.00  0.00    -0.320 C  
HETATM   16  C   UNL     1      -8.688   8.177  70.405  1.00  0.00    -0.136 C  
HETATM   17  C   UNL     1      -8.146   9.584  70.521  1.00  0.00    -0.166 C  
HETATM   18  C   UNL     1      -8.419  10.150  69.103  1.00  0.00    -0.157 C  
HETATM   19  O   UNL     1      -6.790   9.633  70.915  1.00  0.00    -0.201 OA 
HETATM   20  H   UNL     1      -6.449  10.517  70.988  1.00  0.00     0.000 HD 
HETATM   21  C   UNL     1      -7.859   9.296  67.946  1.00  0.00    -0.092 C  
HETATM   22  C   UNL     1      -8.902   8.575  66.700  1.00  0.00    -0.135 C  
HETATM   23  C   UNL     1      -6.536  10.235  67.566  1.00  0.00    -0.066 C  
HETATM   24  O   UNL     1      -7.940   9.983  65.271  1.00  0.00    -0.131 OA 
HETATM   25  O   UNL     1      -9.955   9.388  66.283  1.00  0.00    -0.261 OA 
HETATM   26  C   UNL     1     -10.155  10.486  64.199  1.00  0.00    -0.351 C  
HETATM   27  C   UNL     1      -9.341  10.380  65.488  1.00  0.00    -0.197 C  
HETATM   28  C   UNL     1      -9.547  11.656  66.315  1.00  0.00    -0.241 C  
ENDROOT
BRANCH  22  29
HETATM   29  C   UNL     1      -9.408   7.022  66.391  1.00  0.00    -0.138 C  
HETATM   30  O   UNL     1      -8.757   6.207  65.705  1.00  0.00    -0.153 OA 
BRANCH  29  31
HETATM   31  C   UNL     1     -10.773   6.528  66.852  1.00  0.00    -0.333 C  
HETATM   32  O   UNL     1     -11.339   5.483  66.099  1.00  0.00    -0.751 OA 
HETATM   33  H   UNL     1     -12.190   5.175  66.386  1.00  0.00     0.000 HD 
ENDBRANCH  29  31
ENDBRANCH  22  29
TORSDOF 2
ENDMDL
MODEL       24
REMARK 921   NORMALIZED FREE ENERGY PREDICTED BY IDOCK:   -5.67 KCAL/MOL
REMARK 922        TOTAL FREE ENERGY PREDICTED BY IDOCK:   -6.18 KCAL/MOL
REMARK 923 INTER-LIGAND FREE ENERGY PREDICTED BY IDOCK:   -5.97 KCAL/MOL
REMARK 924 INTRA-LIGAND FREE ENERGY PREDICTED BY IDOCK:   -0.21 KCAL/MOL
REMARK 927      BINDING AFFINITY PREDICTED BY RF-SCORE:    0.00 PKD
ROOT
HETATM    1  C   UNL     1      -9.985  11.578  66.595  1.00  0.00    -0.207 C  
HETATM    2  C   UNL     1     -10.503  10.240  65.652  1.00  0.00    -0.152 C  
HETATM    3  C   UNL     1      -9.751   8.918  66.324  1.00  0.00    -0.345 C  
HETATM    4  C   UNL     1      -9.853   7.470  67.136  1.00  0.00    -0.263 C  
HETATM    5  C   UNL     1     -10.992   7.513  68.198  1.00  0.00     0.031 C  
HETATM    6  C   UNL     1     -10.977   6.570  69.374  1.00  0.00    -0.337 C  
HETATM    7  F   UNL     1     -11.874   7.072  70.280  1.00  0.00    -0.331 F  
HETATM    8  C   UNL     1      -9.597   6.498  70.030  1.00  0.00    -0.169 C  
HETATM    9  C   UNL     1      -9.497   6.058  71.303  1.00  0.00    -0.180 C  
HETATM   10  C   UNL     1      -9.860   4.601  71.204  1.00  0.00    -0.191 C  
HETATM   11  O   UNL     1     -10.380   4.012  72.141  1.00  0.00    -0.166 OA 
HETATM   12  C   UNL     1      -9.543   3.897  69.879  1.00  0.00    -0.270 C  
HETATM   13  C   UNL     1      -8.950   4.554  68.840  1.00  0.00    -0.151 C  
HETATM   14  C   UNL     1      -8.517   6.004  69.033  1.00  0.00    -0.117 C  
HETATM   15  C   UNL     1      -7.075   5.863  69.615  1.00  0.00    -0.068 C  
HETATM   16  C   UNL     1      -8.552   7.166  67.970  1.00  0.00    -0.128 C  
HETATM   17  C   UNL     1      -7.297   7.435  67.171  1.00  0.00    -0.097 C  
HETATM   18  C   UNL     1      -7.229   8.983  67.192  1.00  0.00    -0.083 C  
HETATM   19  O   UNL     1      -7.324   6.871  65.875  1.00  0.00    -0.075 OA 
HETATM   20  H   UNL     1      -6.536   7.040  65.372  1.00  0.00     0.000 HD 
HETATM   21  C   UNL     1      -8.512   9.694  66.709  1.00  0.00    -0.129 C  
HETATM   22  C   UNL     1      -9.452  10.782  67.754  1.00  0.00    -0.155 C  
HETATM   23  C   UNL     1      -7.984  10.150  65.194  1.00  0.00    -0.146 C  
HETATM   24  O   UNL     1      -8.803  12.425  66.401  1.00  0.00    -0.161 OA 
HETATM   25  O   UNL     1      -8.684  11.601  68.579  1.00  0.00    -0.161 OA 
HETATM   26  C   UNL     1      -8.370  13.934  68.360  1.00  0.00    -0.157 C  
HETATM   27  C   UNL     1      -8.142  12.571  67.708  1.00  0.00    -0.164 C  
HETATM   28  C   UNL     1      -6.643  12.251  67.731  1.00  0.00    -0.108 C  
ENDROOT
BRANCH  22  29
HETATM   29  C   UNL     1     -10.915  10.639  68.529  1.00  0.00    -0.248 C  
HETATM   30  O   UNL     1     -12.012  10.900  67.990  1.00  0.00    -0.586 OA 
BRANCH  29  31
HETATM   31  C   UNL     1     -10.997  10.273  70.005  1.00  0.00    -0.311 C  
HETATM   32  O   UNL     1      -9.776   9.975  70.637  1.00  0.00    -0.343 OA 
HETATM   33  H   UNL     1      -9.828   9.747  71.558  1.00  0.00     0.000 HD 
ENDBRANCH  29  31
ENDBRANCH  22  29
TORSDOF 2
ENDMDL
MODEL       25
REMARK 921   NORMALIZED FREE ENERGY PREDICTED BY IDOCK:   -5.65 KCAL/MOL
REMARK 922        TOTAL FREE ENERGY PREDICTED BY IDOCK:   -6.16 KCAL/MOL
REMARK 923 INTER-LIGAND FREE ENERGY PREDICTED BY IDOCK:   -5.96 KCAL/MOL
REMARK 924 INTRA-LIGAND FREE ENERGY PREDICTED BY IDOCK:   -0.20 KCAL/MOL
REMARK 927      BINDING AFFINITY PREDICTED BY RF-SCORE:    0.00 PKD
ROOT
HETATM    1  C   UNL     1      -7.118   8.365  65.436  1.00  0.00    -0.081 C  
HETATM    2  C   UNL     1      -6.093   8.003  66.765  1.00  0.00    -0.053 C  
HETATM    3  C   UNL     1      -6.991   8.364  68.118  1.00  0.00    -0.081 C  
HETATM    4  C   UNL     1      -7.768   7.861  69.499  1.00  0.00    -0.104 C  
HETATM    5  C   UNL     1      -8.434   6.470  69.281  1.00  0.00    -0.127 C  
HETATM    6  C   UNL     1      -9.581   6.026  70.153  1.00  0.00    -0.162 C  
HETATM    7  F   UNL     1     -10.162   4.964  69.512  1.00  0.00    -0.276 F  
HETATM    8  C   UNL     1     -10.625   7.130  70.328  1.00  0.00    -0.245 C  
HETATM    9  C   UNL     1     -11.878   6.796  70.704  1.00  0.00    -0.442 C  
HETATM   10  C   UNL     1     -11.707   6.315  72.119  1.00  0.00    -0.319 C  
HETATM   11  O   UNL     1     -12.457   5.476  72.599  1.00  0.00    -0.023 OA 
HETATM   12  C   UNL     1     -10.556   6.930  72.925  1.00  0.00    -0.290 C  
HETATM   13  C   UNL     1      -9.731   7.876  72.391  1.00  0.00    -0.275 C  
HETATM   14  C   UNL     1     -10.013   8.395  70.985  1.00  0.00    -0.235 C  
HETATM   15  C   UNL     1     -11.007   9.572  71.239  1.00  0.00    -0.440 C  
HETATM   16  C   UNL     1      -8.963   8.811  69.887  1.00  0.00    -0.152 C  
HETATM   17  C   UNL     1      -8.574  10.269  69.793  1.00  0.00    -0.056 C  
HETATM   18  C   UNL     1      -8.579  10.503  68.260  1.00  0.00    -0.127 C  
HETATM   19  O   UNL     1      -7.344  10.564  70.423  1.00  0.00    -0.451 OA 
HETATM   20  H   UNL     1      -7.099  11.481  70.363  1.00  0.00     0.000 HD 
HETATM   21  C   UNL     1      -7.715   9.513  67.451  1.00  0.00    -0.095 C  
HETATM   22  C   UNL     1      -8.402   8.435  66.216  1.00  0.00    -0.122 C  
HETATM   23  C   UNL     1      -6.420  10.516  67.138  1.00  0.00    -0.073 C  
HETATM   24  O   UNL     1      -7.271   9.640  64.727  1.00  0.00    -0.107 OA 
HETATM   25  O   UNL     1      -9.402   9.010  65.435  1.00  0.00    -0.218 OA 
HETATM   26  C   UNL     1      -9.234   9.638  63.162  1.00  0.00    -0.139 C  
HETATM   27  C   UNL     1      -8.712   9.894  64.575  1.00  0.00    -0.198 C  
HETATM   28  C   UNL     1      -9.195  11.272  65.044  1.00  0.00    -0.147 C  
ENDROOT
BRANCH  22  29
HETATM   29  C   UNL     1      -8.701   6.801  66.165  1.00  0.00    -0.148 C  
HETATM   30  O   UNL     1      -7.864   5.956  65.782  1.00  0.00    -0.096 OA 
BRANCH  29  31
HETATM   31  C   UNL     1     -10.078   6.237  66.492  1.00  0.00    -0.108 C  
HETATM   32  O   UNL     1     -11.055   7.174  66.874  1.00  0.00    -0.569 OA 
HETATM   33  H   UNL     1     -11.914   6.823  67.078  1.00  0.00     0.000 HD 
ENDBRANCH  29  31
ENDBRANCH  22  29
TORSDOF 2
ENDMDL
MODEL       26
REMARK 921   NORMALIZED FREE ENERGY PREDICTED BY IDOCK:   -5.63 KCAL/MOL
REMARK 922        TOTAL FREE ENERGY PREDICTED BY IDOCK:   -6.14 KCAL/MOL
REMARK 923 INTER-LIGAND FREE ENERGY PREDICTED BY IDOCK:   -5.95 KCAL/MOL
REMARK 924 INTRA-LIGAND FREE ENERGY PREDICTED BY IDOCK:   -0.19 KCAL/MOL
REMARK 927      BINDING AFFINITY PREDICTED BY RF-SCORE:    0.00 PKD
ROOT
HETATM    1  C   UNL     1     -10.679   6.004  72.633  1.00  0.00    -0.232 C  
HETATM    2  C   UNL     1     -10.768   7.683  72.981  1.00  0.00    -0.449 C  
HETATM    3  C   UNL     1      -9.658   8.397  71.969  1.00  0.00    -0.344 C  
HETATM    4  C   UNL     1      -9.326   9.408  70.691  1.00  0.00    -0.314 C  
HETATM    5  C   UNL     1     -10.431   9.296  69.598  1.00  0.00    -0.234 C  
HETATM    6  C   UNL     1     -10.139   9.694  68.173  1.00  0.00    -0.175 C  
HETATM    7  F   UNL     1     -11.149   9.165  67.414  1.00  0.00    -0.305 F  
HETATM    8  C   UNL     1      -8.805   9.129  67.685  1.00  0.00    -0.123 C  
HETATM    9  C   UNL     1      -8.583   9.021  66.357  1.00  0.00    -0.136 C  
HETATM   10  C   UNL     1      -8.493  10.450  65.896  1.00  0.00    -0.156 C  
HETATM   11  O   UNL     1      -8.817  10.772  64.761  1.00  0.00    -0.188 OA 
HETATM   12  C   UNL     1      -7.974  11.475  66.912  1.00  0.00    -0.164 C  
HETATM   13  C   UNL     1      -7.600  11.110  68.172  1.00  0.00    -0.103 C  
HETATM   14  C   UNL     1      -7.621   9.633  68.552  1.00  0.00    -0.080 C  
HETATM   15  C   UNL     1      -6.206   9.139  68.114  1.00  0.00    -0.054 C  
HETATM   16  C   UNL     1      -7.997   9.006  69.947  1.00  0.00    -0.103 C  
HETATM   17  C   UNL     1      -6.876   8.711  70.918  1.00  0.00    -0.061 C  
HETATM   18  C   UNL     1      -7.275   7.312  71.454  1.00  0.00    -0.076 C  
HETATM   19  O   UNL     1      -6.728   9.697  71.920  1.00  0.00    -0.279 OA 
HETATM   20  H   UNL     1      -6.024   9.512  72.531  1.00  0.00     0.000 HD 
HETATM   21  C   UNL     1      -8.709   7.220  72.017  1.00  0.00    -0.129 C  
HETATM   22  C   UNL     1      -9.936   6.133  71.331  1.00  0.00    -0.187 C  
HETATM   23  C   UNL     1      -8.335   7.228  73.642  1.00  0.00    -0.169 C  
HETATM   24  O   UNL     1      -9.803   4.995  73.238  1.00  0.00    -0.149 OA 
HETATM   25  O   UNL     1      -9.453   4.887  70.935  1.00  0.00    -0.147 OA 
HETATM   26  C   UNL     1      -9.851   2.813  71.997  1.00  0.00    -0.239 C  
HETATM   27  C   UNL     1      -9.222   4.198  72.146  1.00  0.00    -0.123 C  
HETATM   28  C   UNL     1      -7.696   4.053  72.171  1.00  0.00    -0.075 C  
ENDROOT
BRANCH  22  29
HETATM   29  C   UNL     1     -11.294   6.382  70.405  1.00  0.00    -0.389 C  
HETATM   30  O   UNL     1     -12.426   6.606  70.883  1.00  0.00    -0.325 OA 
BRANCH  29  31
HETATM   31  C   UNL     1     -11.254   6.246  68.888  1.00  0.00    -0.309 C  
HETATM   32  O   UNL     1     -10.003   5.926  68.328  1.00  0.00    -0.130 OA 
HETATM   33  H   UNL     1      -9.978   5.842  67.383  1.00  0.00     0.000 HD 
ENDBRANCH  29  31
ENDBRANCH  22  29
TORSDOF 2
ENDMDL
MODEL       27
REMARK 921   NORMALIZED FREE ENERGY PREDICTED BY IDOCK:   -5.61 KCAL/MOL
REMARK 922        TOTAL FREE ENERGY PREDICTED BY IDOCK:   -6.12 KCAL/MOL
REMARK 923 INTER-LIGAND FREE ENERGY PREDICTED BY IDOCK:   -5.94 KCAL/MOL
REMARK 924 INTRA-LIGAND FREE ENERGY PREDICTED BY IDOCK:   -0.18 KCAL/MOL
REMARK 927      BINDING AFFINITY PREDICTED BY RF-SCORE:    0.00 PKD
ROOT
HETATM    1  C   UNL     1      -9.432  10.871  66.665  1.00  0.00    -0.179 C  
HETATM    2  C   UNL     1      -9.819   9.358  65.950  1.00  0.00    -0.362 C  
HETATM    3  C   UNL     1      -9.314   8.217  67.050  1.00  0.00    -0.197 C  
HETATM    4  C   UNL     1      -9.679   6.997  68.119  1.00  0.00    -0.139 C  
HETATM    5  C   UNL     1     -11.014   7.297  68.862  1.00  0.00    -0.055 C  
HETATM    6  C   UNL     1     -11.312   6.650  70.191  1.00  0.00    -0.382 C  
HETATM    7  F   UNL     1     -12.348   7.358  70.740  1.00  0.00    -0.323 F  
HETATM    8  C   UNL     1     -10.112   6.714  71.138  1.00  0.00    -0.202 C  
HETATM    9  C   UNL     1     -10.315   6.577  72.466  1.00  0.00    -0.216 C  
HETATM   10  C   UNL     1     -10.740   5.141  72.614  1.00  0.00    -0.237 C  
HETATM   11  O   UNL     1     -11.485   4.790  73.518  1.00  0.00    -0.320 OA 
HETATM   12  C   UNL     1     -10.192   4.147  71.583  1.00  0.00    -0.133 C  
HETATM   13  C   UNL     1      -9.349   4.540  70.584  1.00  0.00    -0.223 C  
HETATM   14  C   UNL     1      -8.876   5.990  70.542  1.00  0.00    -0.146 C  
HETATM   15  C   UNL     1      -7.605   5.969  71.449  1.00  0.00    -0.099 C  
HETATM   16  C   UNL     1      -8.609   6.876  69.268  1.00  0.00    -0.132 C  
HETATM   17  C   UNL     1      -7.197   6.938  68.730  1.00  0.00    -0.091 C  
HETATM   18  C   UNL     1      -7.038   8.449  68.422  1.00  0.00    -0.080 C  
HETATM   19  O   UNL     1      -6.982   6.092  67.619  1.00  0.00    -0.065 OA 
HETATM   20  H   UNL     1      -6.095   6.131  67.281  1.00  0.00     0.000 HD 
HETATM   21  C   UNL     1      -8.139   9.045  67.520  1.00  0.00    -0.108 C  
HETATM   22  C   UNL     1      -9.211  10.356  68.060  1.00  0.00    -0.140 C  
HETATM   23  C   UNL     1      -7.272   9.133  66.099  1.00  0.00    -0.090 C  
HETATM   24  O   UNL     1      -8.184  11.635  66.557  1.00  0.00    -0.164 OA 
HETATM   25  O   UNL     1      -8.587  11.334  68.834  1.00  0.00    -0.138 OA 
HETATM   26  C   UNL     1      -8.087  13.549  68.179  1.00  0.00    -0.154 C  
HETATM   27  C   UNL     1      -7.811  12.070  67.912  1.00  0.00    -0.144 C  
HETATM   28  C   UNL     1      -6.375  11.745  68.340  1.00  0.00    -0.051 C  
ENDROOT
BRANCH  22  29
HETATM   29  C   UNL     1     -10.812  10.414  68.501  1.00  0.00    -0.237 C  
HETATM   30  O   UNL     1     -11.746  10.599  67.691  1.00  0.00    -0.480 OA 
BRANCH  29  31
HETATM   31  C   UNL     1     -11.235  10.347  69.963  1.00  0.00    -0.316 C  
HETATM   32  O   UNL     1     -10.215  10.062  70.889  1.00  0.00    -0.334 OA 
HETATM   33  H   UNL     1     -10.478  10.020  71.801  1.00  0.00     0.000 HD 
ENDBRANCH  29  31
ENDBRANCH  22  29
TORSDOF 2
ENDMDL
MODEL       28
REMARK 921   NORMALIZED FREE ENERGY PREDICTED BY IDOCK:   -5.61 KCAL/MOL
REMARK 922        TOTAL FREE ENERGY PREDICTED BY IDOCK:   -6.11 KCAL/MOL
REMARK 923 INTER-LIGAND FREE ENERGY PREDICTED BY IDOCK:   -6.18 KCAL/MOL
REMARK 924 INTRA-LIGAND FREE ENERGY PREDICTED BY IDOCK:    0.07 KCAL/MOL
REMARK 927      BINDING AFFINITY PREDICTED BY RF-SCORE:    0.00 PKD
ROOT
HETATM    1  C   UNL     1      -9.857   8.317  72.418  1.00  0.00    -0.304 C  
HETATM    2  C   UNL     1      -8.449   7.334  72.436  1.00  0.00    -0.127 C  
HETATM    3  C   UNL     1      -8.495   6.483  71.008  1.00  0.00    -0.127 C  
HETATM    4  C   UNL     1      -7.840   6.150  69.516  1.00  0.00    -0.100 C  
HETATM    5  C   UNL     1      -7.262   7.443  68.867  1.00  0.00    -0.089 C  
HETATM    6  C   UNL     1      -7.079   7.532  67.373  1.00  0.00    -0.085 C  
HETATM    7  F   UNL     1      -6.902   8.860  67.087  1.00  0.00    -0.069 F  
HETATM    8  C   UNL     1      -8.305   7.020  66.616  1.00  0.00    -0.118 C  
HETATM    9  C   UNL     1      -8.493   7.403  65.334  1.00  0.00    -0.101 C  
HETATM   10  C   UNL     1      -7.375   6.721  64.593  1.00  0.00    -0.089 C  
HETATM   11  O   UNL     1      -6.900   7.207  63.576  1.00  0.00    -0.050 OA 
HETATM   12  C   UNL     1      -6.868   5.395  65.172  1.00  0.00    -0.049 C  
HETATM   13  C   UNL     1      -7.410   4.850  66.299  1.00  0.00    -0.078 C  
HETATM   14  C   UNL     1      -8.605   5.536  66.953  1.00  0.00    -0.110 C  
HETATM   15  C   UNL     1      -9.822   4.907  66.203  1.00  0.00    -0.222 C  
HETATM   16  C   UNL     1      -8.925   5.648  68.490  1.00  0.00    -0.115 C  
HETATM   17  C   UNL     1      -9.839   4.611  69.103  1.00  0.00    -0.172 C  
HETATM   18  C   UNL     1     -10.754   5.480  70.003  1.00  0.00    -0.356 C  
HETATM   19  O   UNL     1      -9.147   3.589  69.792  1.00  0.00    -0.097 OA 
HETATM   20  H   UNL     1      -9.721   2.937  70.177  1.00  0.00     0.000 HD 
HETATM   21  C   UNL     1     -10.005   6.399  70.991  1.00  0.00    -0.205 C  
HETATM   22  C   UNL     1     -10.157   8.169  70.952  1.00  0.00    -0.188 C  
HETATM   23  C   UNL     1     -10.252   5.515  72.383  1.00  0.00    -0.238 C  
HETATM   24  O   UNL     1     -11.200   7.990  72.909  1.00  0.00    -0.401 OA 
HETATM   25  O   UNL     1     -11.442   8.636  70.681  1.00  0.00    -0.269 OA 
HETATM   26  C   UNL     1     -12.917   9.681  72.204  1.00  0.00    -0.493 C  
HETATM   27  C   UNL     1     -12.162   8.395  71.871  1.00  0.00    -0.343 C  
HETATM   28  C   UNL     1     -13.171   7.320  71.448  1.00  0.00    -0.404 C  
ENDROOT
BRANCH  22  29
HETATM   29  C   UNL     1      -9.143   9.392  70.464  1.00  0.00    -0.256 C  
HETATM   30  O   UNL     1      -8.092   9.700  71.065  1.00  0.00    -0.287 OA 
BRANCH  29  31
HETATM   31  C   UNL     1      -9.498  10.295  69.290  1.00  0.00    -0.215 C  
HETATM   32  O   UNL     1     -10.519  11.235  69.518  1.00  0.00    -0.424 OA 
HETATM   33  H   UNL     1     -10.740  11.798  68.786  1.00  0.00     0.000 HD 
ENDBRANCH  29  31
ENDBRANCH  22  29
TORSDOF 2
ENDMDL
MODEL       29
REMARK 921   NORMALIZED FREE ENERGY PREDICTED BY IDOCK:   -5.55 KCAL/MOL
REMARK 922        TOTAL FREE ENERGY PREDICTED BY IDOCK:   -6.05 KCAL/MOL
REMARK 923 INTER-LIGAND FREE ENERGY PREDICTED BY IDOCK:   -5.89 KCAL/MOL
REMARK 924 INTRA-LIGAND FREE ENERGY PREDICTED BY IDOCK:   -0.16 KCAL/MOL
REMARK 927      BINDING AFFINITY PREDICTED BY RF-SCORE:    0.00 PKD
ROOT
HETATM    1  C   UNL     1      -9.709   5.718  70.783  1.00  0.00    -0.174 C  
HETATM    2  C   UNL     1     -11.032   5.756  69.688  1.00  0.00    -0.385 C  
HETATM    3  C   UNL     1     -10.848   7.170  68.833  1.00  0.00    -0.160 C  
HETATM    4  C   UNL     1     -10.557   7.945  67.390  1.00  0.00    -0.342 C  
HETATM    5  C   UNL     1      -9.521   7.152  66.539  1.00  0.00    -0.208 C  
HETATM    6  C   UNL     1      -8.722   7.848  65.465  1.00  0.00    -0.081 C  
HETATM    7  F   UNL     1      -7.686   7.008  65.154  1.00  0.00    -0.085 F  
HETATM    8  C   UNL     1      -8.152   9.181  65.952  1.00  0.00    -0.111 C  
HETATM    9  C   UNL     1      -7.098   9.721  65.302  1.00  0.00    -0.119 C  
HETATM   10  C   UNL     1      -7.665  10.107  63.964  1.00  0.00    -0.136 C  
HETATM   11  O   UNL     1      -6.966  10.128  62.961  1.00  0.00    -0.129 OA 
HETATM   12  C   UNL     1      -9.154  10.473  63.923  1.00  0.00    -0.257 C  
HETATM   13  C   UNL     1      -9.927  10.461  65.047  1.00  0.00    -0.399 C  
HETATM   14  C   UNL     1      -9.275  10.156  66.391  1.00  0.00    -0.190 C  
HETATM   15  C   UNL     1      -8.797  11.562  66.875  1.00  0.00    -0.182 C  
HETATM   16  C   UNL     1      -9.894   9.358  67.599  1.00  0.00    -0.217 C  
HETATM   17  C   UNL     1     -10.582  10.145  68.692  1.00  0.00    -0.210 C  
HETATM   18  C   UNL     1     -10.052   9.447  69.971  1.00  0.00    -0.259 C  
HETATM   19  O   UNL     1     -11.990  10.154  68.576  1.00  0.00    -0.635 OA 
HETATM   20  H   UNL     1     -12.423  10.649  69.262  1.00  0.00     0.000 HD 
HETATM   21  C   UNL     1     -10.250   7.917  70.004  1.00  0.00    -0.208 C  
HETATM   22  C   UNL     1      -8.888   6.780  70.104  1.00  0.00    -0.141 C  
HETATM   23  C   UNL     1     -11.539   7.859  71.060  1.00  0.00    -0.299 C  
HETATM   24  O   UNL     1      -9.635   6.274  72.138  1.00  0.00    -0.152 OA 
HETATM   25  O   UNL     1      -7.853   7.187  70.943  1.00  0.00    -0.093 OA 
HETATM   26  C   UNL     1      -7.295   6.270  73.050  1.00  0.00    -0.091 C  
HETATM   27  C   UNL     1      -8.365   7.010  72.247  1.00  0.00    -0.110 C  
HETATM   28  C   UNL     1      -8.475   8.448  72.769  1.00  0.00    -0.224 C  
ENDROOT
BRANCH  22  29
HETATM   29  C   UNL     1      -8.178   5.749  69.011  1.00  0.00    -0.101 C  
HETATM   30  O   UNL     1      -8.594   4.594  68.778  1.00  0.00    -0.084 OA 
BRANCH  29  31
HETATM   31  C   UNL     1      -6.889   6.124  68.292  1.00  0.00    -0.074 C  
HETATM   32  O   UNL     1      -6.319   7.361  68.645  1.00  0.00    -0.037 OA 
HETATM   33  H   UNL     1      -5.516   7.594  68.197  1.00  0.00     0.000 HD 
ENDBRANCH  29  31
ENDBRANCH  22  29
TORSDOF 2
ENDMDL
MODEL       30
REMARK 921   NORMALIZED FREE ENERGY PREDICTED BY IDOCK:   -5.50 KCAL/MOL
REMARK 922        TOTAL FREE ENERGY PREDICTED BY IDOCK:   -5.99 KCAL/MOL
REMARK 923 INTER-LIGAND FREE ENERGY PREDICTED BY IDOCK:   -6.04 KCAL/MOL
REMARK 924 INTRA-LIGAND FREE ENERGY PREDICTED BY IDOCK:    0.05 KCAL/MOL
REMARK 927      BINDING AFFINITY PREDICTED BY RF-SCORE:    0.00 PKD
ROOT
HETATM    1  C   UNL     1     -12.127  14.554  67.682  1.00  0.00    -0.231 C  
HETATM    2  C   UNL     1     -11.270  14.740  66.206  1.00  0.00    -0.343 C  
HETATM    3  C   UNL     1      -9.739  14.169  66.518  1.00  0.00    -0.307 C  
HETATM    4  C   UNL     1      -8.544  13.046  66.243  1.00  0.00     0.409 C  
HETATM    5  C   UNL     1      -9.158  11.631  66.027  1.00  0.00    -0.188 C  
HETATM    6  C   UNL     1      -8.327  10.394  66.256  1.00  0.00    -0.146 C  
HETATM    7  F   UNL     1      -9.209   9.348  66.332  1.00  0.00    -0.159 F  
HETATM    8  C   UNL     1      -7.537  10.472  67.563  1.00  0.00    -0.093 C  
HETATM    9  C   UNL     1      -7.089   9.330  68.130  1.00  0.00    -0.077 C  
HETATM   10  C   UNL     1      -6.037   8.847  67.170  1.00  0.00    -0.058 C  
HETATM   11  O   UNL     1      -5.790   7.655  67.046  1.00  0.00    -0.037 OA 
HETATM   12  C   UNL     1      -5.291   9.917  66.363  1.00  0.00    -0.044 C  
HETATM   13  C   UNL     1      -5.559  11.247  66.515  1.00  0.00    -0.137 C  
HETATM   14  C   UNL     1      -6.568  11.683  67.573  1.00  0.00    -0.093 C  
HETATM   15  C   UNL     1      -5.687  11.833  68.854  1.00  0.00    -0.050 C  
HETATM   16  C   UNL     1      -7.594  12.874  67.487  1.00  0.00    -0.164 C  
HETATM   17  C   UNL     1      -7.182  14.209  68.068  1.00  0.00    -0.143 C  
HETATM   18  C   UNL     1      -8.468  14.644  68.816  1.00  0.00    -0.161 C  
HETATM   19  O   UNL     1      -6.735  15.131  67.094  1.00  0.00    -0.279 OA 
HETATM   20  H   UNL     1      -6.476  15.969  67.458  1.00  0.00     0.000 HD 
HETATM   21  C   UNL     1      -9.750  14.640  67.956  1.00  0.00    -0.216 C  
HETATM   22  C   UNL     1     -11.152  13.616  68.337  1.00  0.00    -0.264 C  
HETATM   23  C   UNL     1      -9.887  16.283  67.712  1.00  0.00    -0.237 C  
HETATM   24  O   UNL     1     -12.237  15.503  68.796  1.00  0.00    -0.218 OA 
HETATM   25  O   UNL     1     -11.438  13.506  69.696  1.00  0.00    -0.264 OA 
HETATM   26  C   UNL     1     -13.269  14.471  70.839  1.00  0.00    -0.373 C  
HETATM   27  C   UNL     1     -11.997  14.756  70.041  1.00  0.00    -0.316 C  
HETATM   28  C   UNL     1     -10.943  15.355  70.980  1.00  0.00    -0.309 C  
ENDROOT
BRANCH  22  29
HETATM   29  C   UNL     1     -11.781  12.238  67.651  1.00  0.00    -0.334 C  
HETATM   30  O   UNL     1     -12.511  12.242  66.638  1.00  0.00    -0.300 OA 
BRANCH  29  31
HETATM   31  C   UNL     1     -11.582  10.872  68.294  1.00  0.00    -0.262 C  
HETATM   32  O   UNL     1     -12.594  10.450  69.177  1.00  0.00    -0.645 OA 
HETATM   33  H   UNL     1     -12.470   9.598  69.578  1.00  0.00     0.000 HD 
ENDBRANCH  29  31
ENDBRANCH  22  29
TORSDOF 2
ENDMDL
MODEL       31
REMARK 921   NORMALIZED FREE ENERGY PREDICTED BY IDOCK:   -5.49 KCAL/MOL
REMARK 922        TOTAL FREE ENERGY PREDICTED BY IDOCK:   -5.98 KCAL/MOL
REMARK 923 INTER-LIGAND FREE ENERGY PREDICTED BY IDOCK:   -6.10 KCAL/MOL
REMARK 924 INTRA-LIGAND FREE ENERGY PREDICTED BY IDOCK:    0.12 KCAL/MOL
REMARK 927      BINDING AFFINITY PREDICTED BY RF-SCORE:    0.00 PKD
ROOT
HETATM    1  C   UNL     1      -9.047  14.289  66.947  1.00  0.00    -0.252 C  
HETATM    2  C   UNL     1      -9.317  12.867  66.023  1.00  0.00    -0.036 C  
HETATM    3  C   UNL     1      -9.275  11.620  67.123  1.00  0.00    -0.176 C  
HETATM    4  C   UNL     1     -10.054  10.388  67.923  1.00  0.00    -0.200 C  
HETATM    5  C   UNL     1     -11.525  10.786  68.248  1.00  0.00    -0.353 C  
HETATM    6  C   UNL     1     -12.273  10.101  69.363  1.00  0.00     0.311 C  
HETATM    7  F   UNL     1     -13.367  10.883  69.628  1.00  0.00     0.033 F  
HETATM    8  C   UNL     1     -11.427   9.987  70.632  1.00  0.00    -0.425 C  
HETATM    9  C   UNL     1     -12.044   9.798  71.818  1.00  0.00    -0.425 C  
HETATM   10  C   UNL     1     -12.610   8.410  71.708  1.00  0.00    -0.342 C  
HETATM   11  O   UNL     1     -13.626   8.089  72.309  1.00  0.00    -0.206 OA 
HETATM   12  C   UNL     1     -11.853   7.422  70.812  1.00  0.00    -0.288 C  
HETATM   13  C   UNL     1     -10.712   7.779  70.154  1.00  0.00    -0.242 C  
HETATM   14  C   UNL     1     -10.131   9.171  70.381  1.00  0.00    -0.264 C  
HETATM   15  C   UNL     1      -9.211   8.966  71.626  1.00  0.00    -0.302 C  
HETATM   16  C   UNL     1      -9.409  10.093  69.329  1.00  0.00    -0.227 C  
HETATM   17  C   UNL     1      -7.900  10.036  69.253  1.00  0.00    -0.125 C  
HETATM   18  C   UNL     1      -7.528  11.536  69.137  1.00  0.00    -0.025 C  
HETATM   19  O   UNL     1      -7.421   9.234  68.192  1.00  0.00    -0.082 OA 
HETATM   20  H   UNL     1      -6.472   9.198  68.144  1.00  0.00     0.000 HD 
HETATM   21  C   UNL     1      -8.240  12.294  67.996  1.00  0.00    -0.163 C  
HETATM   22  C   UNL     1      -9.314  13.678  68.295  1.00  0.00    -0.204 C  
HETATM   23  C   UNL     1      -6.970  12.368  66.920  1.00  0.00     0.104 C  
HETATM   24  O   UNL     1      -7.769  14.923  67.289  1.00  0.00    -0.192 OA 
HETATM   25  O   UNL     1      -8.884  14.540  69.301  1.00  0.00    -0.039 OA 
HETATM   26  C   UNL     1      -8.023  16.724  69.020  1.00  0.00    -0.188 C  
HETATM   27  C   UNL     1      -7.801  15.241  68.726  1.00  0.00    -0.154 C  
HETATM   28  C   UNL     1      -6.601  14.744  69.541  1.00  0.00    -0.153 C  
ENDROOT
BRANCH  22  29
HETATM   29  C   UNL     1     -10.963  13.880  68.231  1.00  0.00    -0.255 C  
HETATM   30  O   UNL     1     -11.585  14.162  67.185  1.00  0.00    -0.336 OA 
BRANCH  29  31
HETATM   31  C   UNL     1     -11.816  13.832  69.491  1.00  0.00    -0.339 C  
HETATM   32  O   UNL     1     -12.552  14.995  69.786  1.00  0.00    -0.555 OA 
HETATM   33  H   UNL     1     -13.084  14.965  70.572  1.00  0.00     0.000 HD 
ENDBRANCH  29  31
ENDBRANCH  22  29
TORSDOF 2
ENDMDL
MODEL       32
REMARK 921   NORMALIZED FREE ENERGY PREDICTED BY IDOCK:   -5.39 KCAL/MOL
REMARK 922        TOTAL FREE ENERGY PREDICTED BY IDOCK:   -5.88 KCAL/MOL
REMARK 923 INTER-LIGAND FREE ENERGY PREDICTED BY IDOCK:   -5.66 KCAL/MOL
REMARK 924 INTRA-LIGAND FREE ENERGY PREDICTED BY IDOCK:   -0.21 KCAL/MOL
REMARK 927      BINDING AFFINITY PREDICTED BY RF-SCORE:    0.00 PKD
ROOT
HETATM    1  C   UNL     1      -7.251  10.452  67.235  1.00  0.00    -0.089 C  
HETATM    2  C   UNL     1      -7.110  10.992  68.859  1.00  0.00    -0.098 C  
HETATM    3  C   UNL     1      -8.349  10.241  69.676  1.00  0.00    -0.139 C  
HETATM    4  C   UNL     1      -8.854   9.159  70.833  1.00  0.00    -0.292 C  
HETATM    5  C   UNL     1      -7.914   7.918  70.874  1.00  0.00    -0.093 C  
HETATM    6  C   UNL     1      -8.401   6.608  71.441  1.00  0.00    -0.120 C  
HETATM    7  F   UNL     1      -7.509   5.655  71.026  1.00  0.00    -0.078 F  
HETATM    8  C   UNL     1      -9.793   6.245  70.921  1.00  0.00    -0.207 C  
HETATM    9  C   UNL     1     -10.199   4.958  70.977  1.00  0.00    -0.262 C  
HETATM   10  C   UNL     1     -10.349   4.695  72.450  1.00  0.00    -0.199 C  
HETATM   11  O   UNL     1     -10.186   3.576  72.915  1.00  0.00    -0.150 OA 
HETATM   12  C   UNL     1     -10.717   5.894  73.333  1.00  0.00    -0.293 C  
HETATM   13  C   UNL     1     -10.912   7.139  72.809  1.00  0.00    -0.346 C  
HETATM   14  C   UNL     1     -10.842   7.324  71.296  1.00  0.00    -0.255 C  
HETATM   15  C   UNL     1     -12.306   7.030  70.840  1.00  0.00    -0.361 C  
HETATM   16  C   UNL     1     -10.275   8.563  70.506  1.00  0.00    -0.220 C  
HETATM   17  C   UNL     1     -11.249   9.637  70.077  1.00  0.00    -0.231 C  
HETATM   18  C   UNL     1     -10.783   9.933  68.629  1.00  0.00    -0.256 C  
HETATM   19  O   UNL     1     -11.253  10.765  70.929  1.00  0.00    -0.329 OA 
HETATM   20  H   UNL     1     -11.865  11.441  70.659  1.00  0.00     0.000 HD 
HETATM   21  C   UNL     1      -9.284  10.275  68.488  1.00  0.00    -0.144 C  
HETATM   22  C   UNL     1      -8.169   9.293  67.513  1.00  0.00    -0.114 C  
HETATM   23  C   UNL     1      -9.426  11.924  68.289  1.00  0.00    -0.197 C  
HETATM   24  O   UNL     1      -8.036  11.043  66.146  1.00  0.00    -0.164 OA 
HETATM   25  O   UNL     1      -8.706   8.816  66.319  1.00  0.00    -0.132 OA 
HETATM   26  C   UNL     1      -8.169   9.544  64.135  1.00  0.00    -0.159 C  
HETATM   27  C   UNL     1      -8.767   9.951  65.482  1.00  0.00    -0.151 C  
HETATM   28  C   UNL     1     -10.275  10.171  65.312  1.00  0.00    -0.261 C  
ENDROOT
BRANCH  22  29
HETATM   29  C   UNL     1      -6.954   8.225  67.896  1.00  0.00    -0.078 C  
HETATM   30  O   UNL     1      -5.776   8.571  68.129  1.00  0.00    -0.034 OA 
BRANCH  29  31
HETATM   31  C   UNL     1      -7.189   6.720  67.883  1.00  0.00    -0.091 C  
HETATM   32  O   UNL     1      -8.529   6.304  67.768  1.00  0.00    -0.116 OA 
HETATM   33  H   UNL     1      -8.675   5.366  67.760  1.00  0.00     0.000 HD 
ENDBRANCH  29  31
ENDBRANCH  22  29
TORSDOF 2
ENDMDL
MODEL       33
REMARK 921   NORMALIZED FREE ENERGY PREDICTED BY IDOCK:   -5.34 KCAL/MOL
REMARK 922        TOTAL FREE ENERGY PREDICTED BY IDOCK:   -5.82 KCAL/MOL
REMARK 923 INTER-LIGAND FREE ENERGY PREDICTED BY IDOCK:   -5.61 KCAL/MOL
REMARK 924 INTRA-LIGAND FREE ENERGY PREDICTED BY IDOCK:   -0.21 KCAL/MOL
REMARK 927      BINDING AFFINITY PREDICTED BY RF-SCORE:    0.00 PKD
ROOT
HETATM    1  C   UNL     1     -10.073   8.979  71.455  1.00  0.00    -0.329 C  
HETATM    2  C   UNL     1      -8.409   8.563  71.530  1.00  0.00    -0.210 C  
HETATM    3  C   UNL     1      -8.278   7.139  70.682  1.00  0.00    -0.117 C  
HETATM    4  C   UNL     1      -7.694   6.300  69.370  1.00  0.00    -0.100 C  
HETATM    5  C   UNL     1      -7.693   7.199  68.098  1.00  0.00    -0.117 C  
HETATM    6  C   UNL     1      -7.699   6.578  66.724  1.00  0.00    -0.099 C  
HETATM    7  F   UNL     1      -8.048   7.577  65.853  1.00  0.00    -0.101 F  
HETATM    8  C   UNL     1      -8.720   5.445  66.614  1.00  0.00    -0.115 C  
HETATM    9  C   UNL     1      -9.157   5.070  65.392  1.00  0.00    -0.157 C  
HETATM   10  C   UNL     1      -7.945   4.445  64.758  1.00  0.00    -0.090 C  
HETATM   11  O   UNL     1      -7.780   4.468  63.546  1.00  0.00    -0.070 OA 
HETATM   12  C   UNL     1      -6.935   3.780  65.702  1.00  0.00    -0.061 C  
HETATM   13  C   UNL     1      -7.130   3.745  67.052  1.00  0.00    -0.063 C  
HETATM   14  C   UNL     1      -8.424   4.309  67.628  1.00  0.00    -0.101 C  
HETATM   15  C   UNL     1      -9.393   3.086  67.574  1.00  0.00    -0.229 C  
HETATM   16  C   UNL     1      -8.614   5.081  68.988  1.00  0.00    -0.091 C  
HETATM   17  C   UNL     1      -9.022   4.282  70.206  1.00  0.00    -0.090 C  
HETATM   18  C   UNL     1     -10.101   5.197  70.841  1.00  0.00    -0.302 C  
HETATM   19  O   UNL     1      -7.942   3.973  71.063  1.00  0.00    -0.061 OA 
HETATM   20  H   UNL     1      -8.199   3.472  71.829  1.00  0.00     0.000 HD 
HETATM   21  C   UNL     1      -9.648   6.650  71.098  1.00  0.00    -0.177 C  
HETATM   22  C   UNL     1     -10.438   8.046  70.334  1.00  0.00    -0.218 C  
HETATM   23  C   UNL     1      -9.420   6.548  72.747  1.00  0.00    -0.150 C  
HETATM   24  O   UNL     1     -11.151   8.588  72.370  1.00  0.00    -0.361 OA 
HETATM   25  O   UNL     1     -11.825   7.944  70.233  1.00  0.00    -0.041 OA 
HETATM   26  C   UNL     1     -13.426   9.161  71.475  1.00  0.00    -0.417 C  
HETATM   27  C   UNL     1     -12.289   8.142  71.551  1.00  0.00    -0.306 C  
HETATM   28  C   UNL     1     -12.872   6.771  71.917  1.00  0.00    -0.264 C  
ENDROOT
BRANCH  22  29
HETATM   29  C   UNL     1      -9.992   9.086  69.116  1.00  0.00    -0.185 C  
HETATM   30  O   UNL     1      -9.287  10.101  69.298  1.00  0.00    -0.192 OA 
BRANCH  29  31
HETATM   31  C   UNL     1     -10.515   8.914  67.696  1.00  0.00    -0.255 C  
HETATM   32  O   UNL     1     -11.117   7.677  67.404  1.00  0.00    -0.537 OA 
HETATM   33  H   UNL     1     -11.443   7.569  66.518  1.00  0.00     0.000 HD 
ENDBRANCH  29  31
ENDBRANCH  22  29
TORSDOF 2
ENDMDL
MODEL       34
REMARK 921   NORMALIZED FREE ENERGY PREDICTED BY IDOCK:   -5.34 KCAL/MOL
REMARK 922        TOTAL FREE ENERGY PREDICTED BY IDOCK:   -5.81 KCAL/MOL
REMARK 923 INTER-LIGAND FREE ENERGY PREDICTED BY IDOCK:   -6.20 KCAL/MOL
REMARK 924 INTRA-LIGAND FREE ENERGY PREDICTED BY IDOCK:    0.39 KCAL/MOL
REMARK 927      BINDING AFFINITY PREDICTED BY RF-SCORE:    0.00 PKD
ROOT
HETATM    1  C   UNL     1      -7.794   8.018  68.147  1.00  0.00    -0.126 C  
HETATM    2  C   UNL     1      -6.715   9.062  67.314  1.00  0.00    -0.069 C  
HETATM    3  C   UNL     1      -7.685  10.215  66.609  1.00  0.00    -0.106 C  
HETATM    4  C   UNL     1      -8.175  11.800  66.493  1.00  0.00    -0.066 C  
HETATM    5  C   UNL     1      -8.183  12.478  67.896  1.00  0.00    -0.165 C  
HETATM    6  C   UNL     1      -9.033  13.697  68.151  1.00  0.00    -0.191 C  
HETATM    7  F   UNL     1      -9.102  13.838  69.512  1.00  0.00     0.357 F  
HETATM    8  C   UNL     1     -10.448  13.531  67.597  1.00  0.00    -0.239 C  
HETATM    9  C   UNL     1     -11.440  14.309  68.084  1.00  0.00    -0.336 C  
HETATM   10  C   UNL     1     -11.084  15.686  67.596  1.00  0.00    -0.305 C  
HETATM   11  O   UNL     1     -11.404  16.685  68.225  1.00  0.00    -0.309 OA 
HETATM   12  C   UNL     1     -10.307  15.774  66.276  1.00  0.00    -0.320 C  
HETATM   13  C   UNL     1      -9.964  14.658  65.570  1.00  0.00    -0.384 C  
HETATM   14  C   UNL     1     -10.437  13.294  66.064  1.00  0.00    -0.289 C  
HETATM   15  C   UNL     1     -11.839  13.146  65.393  1.00  0.00    -0.410 C  
HETATM   16  C   UNL     1      -9.662  11.925  65.990  1.00  0.00    -0.257 C  
HETATM   17  C   UNL     1      -9.934  11.019  64.810  1.00  0.00    -0.294 C  
HETATM   18  C   UNL     1     -10.034   9.630  65.489  1.00  0.00    -0.279 C  
HETATM   19  O   UNL     1      -8.949  11.103  63.800  1.00  0.00    -0.367 OA 
HETATM   20  H   UNL     1      -9.119  10.533  63.058  1.00  0.00     0.000 HD 
HETATM   21  C   UNL     1      -8.828   9.253  66.376  1.00  0.00    -0.169 C  
HETATM   22  C   UNL     1      -8.986   8.934  68.117  1.00  0.00    -0.137 C  
HETATM   23  C   UNL     1      -8.085   8.181  65.337  1.00  0.00    -0.130 C  
HETATM   24  O   UNL     1      -8.474   6.821  67.640  1.00  0.00    -0.121 OA 
HETATM   25  O   UNL     1     -10.134   8.230  68.476  1.00  0.00    -0.186 OA 
HETATM   26  C   UNL     1     -10.246   5.986  69.211  1.00  0.00    -0.263 C  
HETATM   27  C   UNL     1      -9.886   6.908  68.047  1.00  0.00    -0.139 C  
HETATM   28  C   UNL     1     -10.912   6.716  66.923  1.00  0.00    -0.396 C  
ENDROOT
BRANCH  22  29
HETATM   29  C   UNL     1      -8.559   9.786  69.478  1.00  0.00    -0.179 C  
HETATM   30  O   UNL     1      -9.284  10.657  70.005  1.00  0.00     0.259 OA 
BRANCH  29  31
HETATM   31  C   UNL     1      -7.185   9.624  70.115  1.00  0.00    -0.128 C  
HETATM   32  O   UNL     1      -6.697  10.736  70.827  1.00  0.00    -0.454 OA 
HETATM   33  H   UNL     1      -5.841  10.635  71.224  1.00  0.00     0.000 HD 
ENDBRANCH  29  31
ENDBRANCH  22  29
TORSDOF 2
ENDMDL
MODEL       35
REMARK 921   NORMALIZED FREE ENERGY PREDICTED BY IDOCK:   -5.29 KCAL/MOL
REMARK 922        TOTAL FREE ENERGY PREDICTED BY IDOCK:   -5.76 KCAL/MOL
REMARK 923 INTER-LIGAND FREE ENERGY PREDICTED BY IDOCK:   -6.13 KCAL/MOL
REMARK 924 INTRA-LIGAND FREE ENERGY PREDICTED BY IDOCK:    0.37 KCAL/MOL
REMARK 927      BINDING AFFINITY PREDICTED BY RF-SCORE:    0.00 PKD
ROOT
HETATM    1  C   UNL     1      -7.312  18.664  68.192  1.00  0.00    -0.255 C  
HETATM    2  C   UNL     1      -7.731  17.847  69.643  1.00  0.00     0.666 C  
HETATM    3  C   UNL     1      -8.953  16.802  69.216  1.00  0.00    -0.008 C  
HETATM    4  C   UNL     1      -9.506  15.246  69.023  1.00  0.00    -0.232 C  
HETATM    5  C   UNL     1      -8.368  14.317  68.505  1.00  0.00    -0.156 C  
HETATM    6  C   UNL     1      -8.697  13.033  67.786  1.00  0.00    -0.188 C  
HETATM    7  F   UNL     1      -7.543  12.636  67.164  1.00  0.00    -0.144 F  
HETATM    8  C   UNL     1      -9.786  13.233  66.732  1.00  0.00    -0.264 C  
HETATM    9  C   UNL     1      -9.906  12.331  65.733  1.00  0.00    -0.260 C  
HETATM   10  C   UNL     1     -10.387  11.089  66.431  1.00  0.00    -0.250 C  
HETATM   11  O   UNL     1     -10.118   9.976  66.001  1.00  0.00    -0.254 OA 
HETATM   12  C   UNL     1     -11.227  11.288  67.698  1.00  0.00    -0.357 C  
HETATM   13  C   UNL     1     -11.536  12.532  68.167  1.00  0.00    -0.390 C  
HETATM   14  C   UNL     1     -11.104  13.754  67.363  1.00  0.00    -0.312 C  
HETATM   15  C   UNL     1     -12.293  13.959  66.372  1.00  0.00    -0.468 C  
HETATM   16  C   UNL     1     -10.625  15.148  67.919  1.00  0.00    -0.257 C  
HETATM   17  C   UNL     1     -11.655  16.246  68.063  1.00  0.00    -0.012 C  
HETATM   18  C   UNL     1     -10.891  17.476  67.511  1.00  0.00    -0.205 C  
HETATM   19  O   UNL     1     -12.129  16.400  69.386  1.00  0.00    -0.145 OA 
HETATM   20  H   UNL     1     -12.776  17.090  69.477  1.00  0.00     0.000 HD 
HETATM   21  C   UNL     1      -9.520  17.736  68.170  1.00  0.00    -0.282 C  
HETATM   22  C   UNL     1      -7.999  17.715  67.249  1.00  0.00    -0.207 C  
HETATM   23  C   UNL     1      -9.953  19.018  69.143  1.00  0.00    -0.306 C  
HETATM   24  O   UNL     1      -7.883  19.901  67.647  1.00  0.00    -0.275 OA 
HETATM   25  O   UNL     1      -8.081  18.283  65.979  1.00  0.00    -0.470 OA 
HETATM   26  C   UNL     1      -7.146  20.341  65.287  1.00  0.00    -0.222 C  
HETATM   27  C   UNL     1      -8.156  19.672  66.219  1.00  0.00    -0.334 C  
HETATM   28  C   UNL     1      -9.574  20.023  65.752  1.00  0.00    -0.207 C  
ENDROOT
BRANCH  22  29
HETATM   29  C   UNL     1      -6.732  16.642  67.161  1.00  0.00    -0.188 C  
HETATM   30  O   UNL     1      -6.758  15.596  66.479  1.00  0.00     0.075 OA 
BRANCH  29  31
HETATM   31  C   UNL     1      -5.479  16.827  68.006  1.00  0.00    -0.119 C  
HETATM   32  O   UNL     1      -5.136  15.753  68.848  1.00  0.00    -0.101 OA 
HETATM   33  H   UNL     1      -4.354  15.868  69.375  1.00  0.00     0.000 HD 
ENDBRANCH  29  31
ENDBRANCH  22  29
TORSDOF 2
ENDMDL
MODEL       36
REMARK 921   NORMALIZED FREE ENERGY PREDICTED BY IDOCK:   -5.24 KCAL/MOL
REMARK 922        TOTAL FREE ENERGY PREDICTED BY IDOCK:   -5.71 KCAL/MOL
REMARK 923 INTER-LIGAND FREE ENERGY PREDICTED BY IDOCK:   -5.63 KCAL/MOL
REMARK 924 INTRA-LIGAND FREE ENERGY PREDICTED BY IDOCK:   -0.08 KCAL/MOL
REMARK 927      BINDING AFFINITY PREDICTED BY RF-SCORE:    0.00 PKD
ROOT
HETATM    1  C   UNL     1      -7.265   6.135  67.782  1.00  0.00    -0.083 C  
HETATM    2  C   UNL     1      -6.194   7.467  67.948  1.00  0.00    -0.043 C  
HETATM    3  C   UNL     1      -6.948   8.730  67.173  1.00  0.00    -0.071 C  
HETATM    4  C   UNL     1      -7.674  10.224  67.240  1.00  0.00    -0.095 C  
HETATM    5  C   UNL     1      -8.503  10.376  68.551  1.00  0.00    -0.129 C  
HETATM    6  C   UNL     1      -9.627  11.378  68.633  1.00  0.00    -0.173 C  
HETATM    7  F   UNL     1     -10.365  11.036  69.735  1.00  0.00    -0.208 F  
HETATM    8  C   UNL     1     -10.527  11.327  67.398  1.00  0.00    -0.247 C  
HETATM    9  C   UNL     1     -11.780  11.827  67.478  1.00  0.00    -0.312 C  
HETATM   10  C   UNL     1     -11.562  13.307  67.632  1.00  0.00    -0.346 C  
HETATM   11  O   UNL     1     -12.363  14.006  68.237  1.00  0.00    -0.252 OA 
HETATM   12  C   UNL     1     -10.296  13.892  66.994  1.00  0.00    -0.267 C  
HETATM   13  C   UNL     1      -9.412  13.111  66.308  1.00  0.00    -0.194 C  
HETATM   14  C   UNL     1      -9.735  11.634  66.101  1.00  0.00    -0.253 C  
HETATM   15  C   UNL     1     -10.573  11.641  64.783  1.00  0.00    -0.358 C  
HETATM   16  C   UNL     1      -8.727  10.425  66.086  1.00  0.00    -0.163 C  
HETATM   17  C   UNL     1      -8.188   9.966  64.749  1.00  0.00    -0.151 C  
HETATM   18  C   UNL     1      -8.276   8.424  64.880  1.00  0.00    -0.155 C  
HETATM   19  O   UNL     1      -6.891  10.453  64.470  1.00  0.00    -0.274 OA 
HETATM   20  H   UNL     1      -6.552  10.165  63.630  1.00  0.00     0.000 HD 
HETATM   21  C   UNL     1      -7.587   7.839  66.131  1.00  0.00    -0.087 C  
HETATM   22  C   UNL     1      -8.474   6.931  67.374  1.00  0.00    -0.121 C  
HETATM   23  C   UNL     1      -6.216   7.239  65.397  1.00  0.00    -0.038 C  
HETATM   24  O   UNL     1      -7.327   5.148  66.699  1.00  0.00    -0.083 OA 
HETATM   25  O   UNL     1      -9.458   6.078  66.877  1.00  0.00    -0.125 OA 
HETATM   26  C   UNL     1      -9.386   3.715  66.822  1.00  0.00    -0.210 C  
HETATM   27  C   UNL     1      -8.739   5.002  66.311  1.00  0.00    -0.117 C  
HETATM   28  C   UNL     1      -9.033   5.147  64.813  1.00  0.00    -0.060 C  
ENDROOT
BRANCH  22  29
HETATM   29  C   UNL     1      -8.955   7.286  68.925  1.00  0.00    -0.133 C  
HETATM   30  O   UNL     1      -8.205   7.191  69.920  1.00  0.00    -0.129 OA 
BRANCH  29  31
HETATM   31  C   UNL     1     -10.397   7.658  69.242  1.00  0.00    -0.217 C  
HETATM   32  O   UNL     1     -11.382   6.765  68.780  1.00  0.00    -0.533 OA 
HETATM   33  H   UNL     1     -12.281   6.997  68.977  1.00  0.00     0.000 HD 
ENDBRANCH  29  31
ENDBRANCH  22  29
TORSDOF 2
ENDMDL
MODEL       37
REMARK 921   NORMALIZED FREE ENERGY PREDICTED BY IDOCK:   -5.18 KCAL/MOL
REMARK 922        TOTAL FREE ENERGY PREDICTED BY IDOCK:   -5.64 KCAL/MOL
REMARK 923 INTER-LIGAND FREE ENERGY PREDICTED BY IDOCK:   -6.65 KCAL/MOL
REMARK 924 INTRA-LIGAND FREE ENERGY PREDICTED BY IDOCK:    1.01 KCAL/MOL
REMARK 927      BINDING AFFINITY PREDICTED BY RF-SCORE:    0.00 PKD
ROOT
HETATM    1  C   UNL     1     -11.724  15.255  67.568  1.00  0.00    -0.140 C  
HETATM    2  C   UNL     1     -12.243  13.965  66.561  1.00  0.00    -0.482 C  
HETATM    3  C   UNL     1     -11.088  12.782  66.742  1.00  0.00    -0.314 C  
HETATM    4  C   UNL     1     -10.665  11.259  67.260  1.00  0.00    -0.295 C  
HETATM    5  C   UNL     1     -11.415  10.897  68.576  1.00  0.00    -0.380 C  
HETATM    6  C   UNL     1     -10.866   9.842  69.503  1.00  0.00    -0.240 C  
HETATM    7  F   UNL     1     -11.524   9.999  70.695  1.00  0.00    -0.298 F  
HETATM    8  C   UNL     1      -9.365  10.014  69.738  1.00  0.00    -0.233 C  
HETATM    9  C   UNL     1      -8.802   9.450  70.829  1.00  0.00    -0.233 C  
HETATM   10  C   UNL     1      -8.898   7.974  70.555  1.00  0.00    -0.137 C  
HETATM   11  O   UNL     1      -8.989   7.164  71.468  1.00  0.00    -0.134 OA 
HETATM   12  C   UNL     1      -8.872   7.539  69.085  1.00  0.00    -0.136 C  
HETATM   13  C   UNL     1      -8.756   8.445  68.071  1.00  0.00    -0.139 C  
HETATM   14  C   UNL     1      -8.565   9.919  68.412  1.00  0.00    -0.116 C  
HETATM   15  C   UNL     1      -7.015  10.048  68.549  1.00  0.00    -0.066 C  
HETATM   16  C   UNL     1      -9.139  11.166  67.640  1.00  0.00    -0.147 C  
HETATM   17  C   UNL     1      -8.260  11.822  66.600  1.00  0.00    -0.117 C  
HETATM   18  C   UNL     1      -8.481  13.327  66.897  1.00  0.00    -0.074 C  
HETATM   19  O   UNL     1      -8.573  11.438  65.276  1.00  0.00    -0.387 OA 
HETATM   20  H   UNL     1      -8.021  11.851  64.622  1.00  0.00     0.000 HD 
HETATM   21  C   UNL     1      -9.959  13.772  66.920  1.00  0.00    -0.264 C  
HETATM   22  C   UNL     1     -10.724  14.466  68.367  1.00  0.00    -0.245 C  
HETATM   23  C   UNL     1     -10.012  14.528  65.436  1.00  0.00    -0.352 C  
HETATM   24  O   UNL     1     -10.838  16.374  67.228  1.00  0.00    -0.291 OA 
HETATM   25  O   UNL     1      -9.911  15.330  69.096  1.00  0.00    -0.215 OA 
HETATM   26  C   UNL     1     -10.122  17.680  69.251  1.00  0.00    -0.147 C  
HETATM   27  C   UNL     1      -9.851  16.503  68.313  1.00  0.00    -0.243 C  
HETATM   28  C   UNL     1      -8.383  16.545  67.872  1.00  0.00    -0.175 C  
ENDROOT
BRANCH  22  29
HETATM   29  C   UNL     1     -11.830  13.885  69.464  1.00  0.00    -0.329 C  
HETATM   30  O   UNL     1     -12.751  13.095  69.167  1.00  0.00     0.331 OA 
BRANCH  29  31
HETATM   31  C   UNL     1     -11.845  14.374  70.907  1.00  0.00    -0.283 C  
HETATM   32  O   UNL     1     -12.332  15.677  71.113  1.00  0.00    -0.367 OA 
HETATM   33  H   UNL     1     -12.342  15.982  72.013  1.00  0.00     0.000 HD 
ENDBRANCH  29  31
ENDBRANCH  22  29
TORSDOF 2
ENDMDL
MODEL       38
REMARK 921   NORMALIZED FREE ENERGY PREDICTED BY IDOCK:   -5.14 KCAL/MOL
REMARK 922        TOTAL FREE ENERGY PREDICTED BY IDOCK:   -5.60 KCAL/MOL
REMARK 923 INTER-LIGAND FREE ENERGY PREDICTED BY IDOCK:   -5.38 KCAL/MOL
REMARK 924 INTRA-LIGAND FREE ENERGY PREDICTED BY IDOCK:   -0.22 KCAL/MOL
REMARK 927      BINDING AFFINITY PREDICTED BY RF-SCORE:    0.00 PKD
ROOT
HETATM    1  C   UNL     1      -8.935   9.386  70.452  1.00  0.00    -0.250 C  
HETATM    2  C   UNL     1      -7.329   8.886  70.107  1.00  0.00    -0.059 C  
HETATM    3  C   UNL     1      -7.463   7.304  69.613  1.00  0.00    -0.094 C  
HETATM    4  C   UNL     1      -7.315   6.158  68.417  1.00  0.00    -0.086 C  
HETATM    5  C   UNL     1      -7.720   6.750  67.034  1.00  0.00    -0.100 C  
HETATM    6  C   UNL     1      -8.154   5.842  65.911  1.00  0.00    -0.118 C  
HETATM    7  F   UNL     1      -8.765   6.644  64.984  1.00  0.00    -0.102 F  
HETATM    8  C   UNL     1      -9.151   4.785  66.386  1.00  0.00    -0.119 C  
HETATM    9  C   UNL     1      -9.947   4.178  65.479  1.00  0.00    -0.209 C  
HETATM   10  C   UNL     1      -8.992   3.348  64.666  1.00  0.00    -0.127 C  
HETATM   11  O   UNL     1      -9.216   3.091  63.491  1.00  0.00    -0.095 OA 
HETATM   12  C   UNL     1      -7.733   2.843  65.380  1.00  0.00    -0.081 C  
HETATM   13  C   UNL     1      -7.493   3.121  66.694  1.00  0.00    -0.075 C  
HETATM   14  C   UNL     1      -8.544   3.884  67.494  1.00  0.00    -0.111 C  
HETATM   15  C   UNL     1      -9.473   2.747  68.024  1.00  0.00    -0.212 C  
HETATM   16  C   UNL     1      -8.301   4.949  68.629  1.00  0.00    -0.083 C  
HETATM   17  C   UNL     1      -8.301   4.469  70.063  1.00  0.00    -0.066 C  
HETATM   18  C   UNL     1      -9.130   5.572  70.769  1.00  0.00    -0.168 C  
HETATM   19  O   UNL     1      -7.004   4.286  70.594  1.00  0.00    -0.035 OA 
HETATM   20  H   UNL     1      -7.004   3.985  71.496  1.00  0.00     0.000 HD 
HETATM   21  C   UNL     1      -8.629   7.012  70.531  1.00  0.00    -0.141 C  
HETATM   22  C   UNL     1      -9.628   8.253  69.745  1.00  0.00    -0.171 C  
HETATM   23  C   UNL     1      -7.893   7.263  72.006  1.00  0.00    -0.091 C  
HETATM   24  O   UNL     1      -9.668   9.280  71.719  1.00  0.00    -0.269 OA 
HETATM   25  O   UNL     1     -10.975   8.225  70.102  1.00  0.00    -0.248 OA 
HETATM   26  C   UNL     1     -12.113   9.792  71.459  1.00  0.00    -0.493 C  
HETATM   27  C   UNL     1     -11.003   8.741  71.416  1.00  0.00    -0.289 C  
HETATM   28  C   UNL     1     -11.432   7.528  72.249  1.00  0.00    -0.348 C  
ENDROOT
BRANCH  22  29
HETATM   29  C   UNL     1      -9.594   8.966  68.244  1.00  0.00    -0.146 C  
HETATM   30  O   UNL     1      -8.892   9.961  67.967  1.00  0.00    -0.125 OA 
BRANCH  29  31
HETATM   31  C   UNL     1     -10.516   8.500  67.125  1.00  0.00    -0.299 C  
HETATM   32  O   UNL     1     -11.263   7.336  67.383  1.00  0.00    -0.565 OA 
HETATM   33  H   UNL     1     -11.838   7.045  66.685  1.00  0.00     0.000 HD 
ENDBRANCH  29  31
ENDBRANCH  22  29
TORSDOF 2
ENDMDL
MODEL       39
REMARK 921   NORMALIZED FREE ENERGY PREDICTED BY IDOCK:   -5.11 KCAL/MOL
REMARK 922        TOTAL FREE ENERGY PREDICTED BY IDOCK:   -5.56 KCAL/MOL
REMARK 923 INTER-LIGAND FREE ENERGY PREDICTED BY IDOCK:   -6.12 KCAL/MOL
REMARK 924 INTRA-LIGAND FREE ENERGY PREDICTED BY IDOCK:    0.56 KCAL/MOL
REMARK 927      BINDING AFFINITY PREDICTED BY RF-SCORE:    0.00 PKD
ROOT
HETATM    1  C   UNL     1      -8.321  11.213  66.211  1.00  0.00    -0.163 C  
HETATM    2  C   UNL     1      -7.832  11.739  67.770  1.00  0.00    -0.135 C  
HETATM    3  C   UNL     1      -9.016  11.197  68.804  1.00  0.00    -0.136 C  
HETATM    4  C   UNL     1      -9.480  10.216  70.064  1.00  0.00    -0.086 C  
HETATM    5  C   UNL     1      -8.745   8.845  69.995  1.00  0.00    -0.151 C  
HETATM    6  C   UNL     1      -9.323   7.632  70.679  1.00  0.00    -0.163 C  
HETATM    7  F   UNL     1      -8.667   6.548  70.157  1.00  0.00    -0.133 F  
HETATM    8  C   UNL     1     -10.820   7.483  70.406  1.00  0.00    -0.255 C  
HETATM    9  C   UNL     1     -11.401   6.275  70.571  1.00  0.00    -0.428 C  
HETATM   10  C   UNL     1     -11.342   6.052  72.057  1.00  0.00    -0.290 C  
HETATM   11  O   UNL     1     -11.275   4.925  72.528  1.00  0.00    -0.154 OA 
HETATM   12  C   UNL     1     -11.373   7.302  72.946  1.00  0.00    -0.290 C  
HETATM   13  C   UNL     1     -11.462   8.556  72.418  1.00  0.00    -0.419 C  
HETATM   14  C   UNL     1     -11.617   8.715  70.909  1.00  0.00    -0.307 C  
HETATM   15  C   UNL     1     -13.164   8.647  70.707  1.00  0.00     0.391 C  
HETATM   16  C   UNL     1     -11.009   9.844  69.995  1.00  0.00    -0.338 C  
HETATM   17  C   UNL     1     -11.868  11.052  69.693  1.00  0.00    -0.342 C  
HETATM   18  C   UNL     1     -11.609  11.258  68.178  1.00  0.00    -0.359 C  
HETATM   19  O   UNL     1     -11.559  12.175  70.494  1.00  0.00    -0.487 OA 
HETATM   20  H   UNL     1     -12.099  12.934  70.304  1.00  0.00     0.000 HD 
HETATM   21  C   UNL     1     -10.121  11.363  67.784  1.00  0.00    -0.198 C  
HETATM   22  C   UNL     1      -9.344  10.212  66.675  1.00  0.00    -0.162 C  
HETATM   23  C   UNL     1     -10.043  13.012  67.553  1.00  0.00    -0.218 C  
HETATM   24  O   UNL     1      -9.178  11.908  65.244  1.00  0.00    -0.076 OA 
HETATM   25  O   UNL     1     -10.138   9.813  65.602  1.00  0.00    -0.296 OA 
HETATM   26  C   UNL     1      -9.868  10.429  63.335  1.00  0.00    -0.251 C  
HETATM   27  C   UNL     1     -10.165  10.936  64.746  1.00  0.00    -0.333 C  
HETATM   28  C   UNL     1     -11.630  11.385  64.817  1.00  0.00     0.021 C  
ENDROOT
BRANCH  22  29
HETATM   29  C   UNL     1      -8.258   8.972  66.891  1.00  0.00    -0.116 C  
HETATM   30  O   UNL     1      -8.590   7.774  67.007  1.00  0.00    -0.124 OA 
BRANCH  29  31
HETATM   31  C   UNL     1      -6.770   9.245  67.067  1.00  0.00    -0.076 C  
HETATM   32  O   UNL     1      -6.094   8.422  67.987  1.00  0.00    -0.048 OA 
HETATM   33  H   UNL     1      -5.166   8.592  68.097  1.00  0.00     0.000 HD 
ENDBRANCH  29  31
ENDBRANCH  22  29
TORSDOF 2
ENDMDL
MODEL       40
REMARK 921   NORMALIZED FREE ENERGY PREDICTED BY IDOCK:   -5.10 KCAL/MOL
REMARK 922        TOTAL FREE ENERGY PREDICTED BY IDOCK:   -5.55 KCAL/MOL
REMARK 923 INTER-LIGAND FREE ENERGY PREDICTED BY IDOCK:   -5.47 KCAL/MOL
REMARK 924 INTRA-LIGAND FREE ENERGY PREDICTED BY IDOCK:   -0.07 KCAL/MOL
REMARK 927      BINDING AFFINITY PREDICTED BY RF-SCORE:    0.00 PKD
ROOT
HETATM    1  C   UNL     1      -7.708  10.743  66.307  1.00  0.00    -0.146 C  
HETATM    2  C   UNL     1      -7.131  10.919  67.914  1.00  0.00    -0.081 C  
HETATM    3  C   UNL     1      -8.199  10.059  68.856  1.00  0.00    -0.121 C  
HETATM    4  C   UNL     1      -8.507   8.776  69.867  1.00  0.00    -0.131 C  
HETATM    5  C   UNL     1      -7.700   7.519  69.424  1.00  0.00    -0.111 C  
HETATM    6  C   UNL     1      -8.152   6.139  69.827  1.00  0.00    -0.119 C  
HETATM    7  F   UNL     1      -7.476   5.263  69.020  1.00  0.00    -0.064 F  
HETATM    8  C   UNL     1      -9.655   5.947  69.617  1.00  0.00    -0.183 C  
HETATM    9  C   UNL     1     -10.150   4.694  69.520  1.00  0.00    -0.212 C  
HETATM   10  C   UNL     1      -9.964   4.130  70.902  1.00  0.00    -0.136 C  
HETATM   11  O   UNL     1      -9.796   2.932  71.081  1.00  0.00    -0.150 OA 
HETATM   12  C   UNL     1     -10.000   5.127  72.067  1.00  0.00    -0.240 C  
HETATM   13  C   UNL     1     -10.202   6.461  71.865  1.00  0.00    -0.219 C  
HETATM   14  C   UNL     1     -10.481   6.961  70.451  1.00  0.00    -0.229 C  
HETATM   15  C   UNL     1     -12.033   6.827  70.333  1.00  0.00    -0.343 C  
HETATM   16  C   UNL     1     -10.012   8.317  69.802  1.00  0.00    -0.191 C  
HETATM   17  C   UNL     1     -10.960   9.494  69.854  1.00  0.00    -0.238 C  
HETATM   18  C   UNL     1     -10.832  10.073  68.422  1.00  0.00    -0.277 C  
HETATM   19  O   UNL     1     -10.657  10.415  70.883  1.00  0.00    -0.258 OA 
HETATM   20  H   UNL     1     -11.253  11.155  70.916  1.00  0.00     0.000 HD 
HETATM   21  C   UNL     1      -9.387  10.380  67.975  1.00  0.00    -0.145 C  
HETATM   22  C   UNL     1      -8.631   9.587  66.576  1.00  0.00    -0.134 C  
HETATM   23  C   UNL     1      -9.424  12.038  68.147  1.00  0.00    -0.200 C  
HETATM   24  O   UNL     1      -8.675  11.581  65.591  1.00  0.00    -0.097 OA 
HETATM   25  O   UNL     1      -9.482   9.396  65.488  1.00  0.00    -0.245 OA 
HETATM   26  C   UNL     1      -9.423  10.551  63.426  1.00  0.00    -0.354 C  
HETATM   27  C   UNL     1      -9.639  10.684  64.933  1.00  0.00    -0.269 C  
HETATM   28  C   UNL     1     -11.118  10.992  65.199  1.00  0.00    -0.011 C  
ENDROOT
BRANCH  22  29
HETATM   29  C   UNL     1      -7.462   8.416  66.419  1.00  0.00    -0.083 C  
HETATM   30  O   UNL     1      -6.238   8.642  66.530  1.00  0.00    -0.055 OA 
BRANCH  29  31
HETATM   31  C   UNL     1      -7.817   6.990  66.021  1.00  0.00    -0.104 C  
HETATM   32  O   UNL     1      -8.458   6.836  64.778  1.00  0.00    -0.325 OA 
HETATM   33  H   UNL     1      -8.679   5.946  64.530  1.00  0.00     0.000 HD 
ENDBRANCH  29  31
ENDBRANCH  22  29
TORSDOF 2
ENDMDL
MODEL       41
REMARK 921   NORMALIZED FREE ENERGY PREDICTED BY IDOCK:   -5.07 KCAL/MOL
REMARK 922        TOTAL FREE ENERGY PREDICTED BY IDOCK:   -5.52 KCAL/MOL
REMARK 923 INTER-LIGAND FREE ENERGY PREDICTED BY IDOCK:   -5.48 KCAL/MOL
REMARK 924 INTRA-LIGAND FREE ENERGY PREDICTED BY IDOCK:   -0.03 KCAL/MOL
REMARK 927      BINDING AFFINITY PREDICTED BY RF-SCORE:    0.00 PKD
ROOT
HETATM    1  C   UNL     1      -9.612  10.898  68.008  1.00  0.00    -0.162 C  
HETATM    2  C   UNL     1     -10.861  10.008  67.235  1.00  0.00    -0.284 C  
HETATM    3  C   UNL     1     -10.243   8.477  67.035  1.00  0.00    -0.371 C  
HETATM    4  C   UNL     1     -10.288   6.854  67.395  1.00  0.00    -0.297 C  
HETATM    5  C   UNL     1     -10.678   6.632  68.887  1.00  0.00    -0.304 C  
HETATM    6  C   UNL     1     -10.313   5.349  69.589  1.00  0.00    -0.291 C  
HETATM    7  F   UNL     1     -10.463   5.589  70.929  1.00  0.00    -0.265 F  
HETATM    8  C   UNL     1      -8.864   4.942  69.318  1.00  0.00    -0.115 C  
HETATM    9  C   UNL     1      -8.251   4.089  70.167  1.00  0.00    -0.069 C  
HETATM   10  C   UNL     1      -8.975   2.789  69.949  1.00  0.00    -0.102 C  
HETATM   11  O   UNL     1      -9.081   1.964  70.846  1.00  0.00    -0.072 OA 
HETATM   12  C   UNL     1      -9.567   2.551  68.555  1.00  0.00    -0.101 C  
HETATM   13  C   UNL     1      -9.434   3.468  67.553  1.00  0.00    -0.233 C  
HETATM   14  C   UNL     1      -8.607   4.724  67.804  1.00  0.00    -0.103 C  
HETATM   15  C   UNL     1      -7.161   4.272  67.423  1.00  0.00    -0.068 C  
HETATM   16  C   UNL     1      -8.874   6.176  67.254  1.00  0.00    -0.107 C  
HETATM   17  C   UNL     1      -8.176   6.592  65.979  1.00  0.00    -0.127 C  
HETATM   18  C   UNL     1      -7.711   8.030  66.322  1.00  0.00    -0.091 C  
HETATM   19  O   UNL     1      -9.000   6.504  64.834  1.00  0.00    -0.346 OA 
HETATM   20  H   UNL     1      -8.562   6.766  64.032  1.00  0.00     0.000 HD 
HETATM   21  C   UNL     1      -8.828   8.969  66.827  1.00  0.00    -0.144 C  
HETATM   22  C   UNL     1      -8.792   9.714  68.439  1.00  0.00    -0.123 C  
HETATM   23  C   UNL     1      -9.043   9.863  65.436  1.00  0.00    -0.241 C  
HETATM   24  O   UNL     1      -8.520  11.656  67.389  1.00  0.00    -0.140 OA 
HETATM   25  O   UNL     1      -7.531  10.137  68.856  1.00  0.00    -0.077 OA 
HETATM   26  C   UNL     1      -6.783  12.370  69.056  1.00  0.00    -0.100 C  
HETATM   27  C   UNL     1      -7.277  11.295  68.089  1.00  0.00    -0.081 C  
HETATM   28  C   UNL     1      -6.113  10.859  67.190  1.00  0.00    -0.068 C  
ENDROOT
BRANCH  22  29
HETATM   29  C   UNL     1      -9.641   9.443  69.843  1.00  0.00    -0.212 C  
HETATM   30  O   UNL     1     -10.736   9.984  70.104  1.00  0.00    -0.268 OA 
BRANCH  29  31
HETATM   31  C   UNL     1      -9.070   8.579  70.959  1.00  0.00    -0.179 C  
HETATM   32  O   UNL     1      -8.112   9.192  71.788  1.00  0.00    -0.343 OA 
HETATM   33  H   UNL     1      -7.756   8.653  72.484  1.00  0.00     0.000 HD 
ENDBRANCH  29  31
ENDBRANCH  22  29
TORSDOF 2
ENDMDL
MODEL       42
REMARK 921   NORMALIZED FREE ENERGY PREDICTED BY IDOCK:   -5.06 KCAL/MOL
REMARK 922        TOTAL FREE ENERGY PREDICTED BY IDOCK:   -5.50 KCAL/MOL
REMARK 923 INTER-LIGAND FREE ENERGY PREDICTED BY IDOCK:   -5.95 KCAL/MOL
REMARK 924 INTRA-LIGAND FREE ENERGY PREDICTED BY IDOCK:    0.45 KCAL/MOL
REMARK 927      BINDING AFFINITY PREDICTED BY RF-SCORE:    0.00 PKD
ROOT
HETATM    1  C   UNL     1      -8.543   8.358  69.092  1.00  0.00    -0.134 C  
HETATM    2  C   UNL     1      -8.199   8.639  67.433  1.00  0.00    -0.105 C  
HETATM    3  C   UNL     1      -8.856  10.129  67.099  1.00  0.00    -0.138 C  
HETATM    4  C   UNL     1      -8.651  11.724  66.675  1.00  0.00    -0.170 C  
HETATM    5  C   UNL     1      -7.359  12.305  67.324  1.00  0.00    -0.140 C  
HETATM    6  C   UNL     1      -7.205  13.792  67.520  1.00  0.00    -0.158 C  
HETATM    7  F   UNL     1      -6.170  13.956  68.403  1.00  0.00    -0.077 F  
HETATM    8  C   UNL     1      -8.466  14.423  68.112  1.00  0.00    -0.160 C  
HETATM    9  C   UNL     1      -8.373  15.618  68.733  1.00  0.00    -0.189 C  
HETATM   10  C   UNL     1      -8.052  16.574  67.617  1.00  0.00    -0.163 C  
HETATM   11  O   UNL     1      -7.401  17.590  67.819  1.00  0.00    -0.180 OA 
HETATM   12  C   UNL     1      -8.582  16.215  66.224  1.00  0.00    -0.373 C  
HETATM   13  C   UNL     1      -9.320  15.089  66.005  1.00  0.00    -0.304 C  
HETATM   14  C   UNL     1      -9.696  14.208  67.192  1.00  0.00    -0.248 C  
HETATM   15  C   UNL     1     -11.032  14.846  67.691  1.00  0.00    -0.300 C  
HETATM   16  C   UNL     1      -9.810  12.638  67.224  1.00  0.00    -0.206 C  
HETATM   17  C   UNL     1     -11.170  12.020  66.991  1.00  0.00    -0.320 C  
HETATM   18  C   UNL     1     -11.211  10.915  68.078  1.00  0.00    -0.378 C  
HETATM   19  O   UNL     1     -11.354  11.545  65.673  1.00  0.00    -0.217 OA 
HETATM   20  H   UNL     1     -12.209  11.157  65.526  1.00  0.00     0.000 HD 
HETATM   21  C   UNL     1     -10.009   9.946  68.062  1.00  0.00    -0.179 C  
HETATM   22  C   UNL     1      -8.901   9.776  69.441  1.00  0.00    -0.182 C  
HETATM   23  C   UNL     1     -10.759   8.636  67.355  1.00  0.00    -0.212 C  
HETATM   24  O   UNL     1      -9.728   7.724  69.680  1.00  0.00    -0.170 OA 
HETATM   25  O   UNL     1      -9.518   9.816  70.690  1.00  0.00    -0.196 OA 
HETATM   26  C   UNL     1      -9.827   8.002  72.174  1.00  0.00    -0.286 C  
HETATM   27  C   UNL     1     -10.175   8.571  70.798  1.00  0.00    -0.198 C  
HETATM   28  C   UNL     1     -11.657   8.964  70.781  1.00  0.00    -0.301 C  
ENDROOT
BRANCH  22  29
HETATM   29  C   UNL     1      -7.337  10.265  69.717  1.00  0.00    -0.165 C  
HETATM   30  O   UNL     1      -7.023  11.432  70.037  1.00  0.00    -0.032 OA 
BRANCH  29  31
HETATM   31  C   UNL     1      -6.161   9.324  69.491  1.00  0.00    -0.040 C  
HETATM   32  O   UNL     1      -5.433   8.957  70.638  1.00  0.00    -0.027 OA 
HETATM   33  H   UNL     1      -4.699   8.370  70.497  1.00  0.00     0.000 HD 
ENDBRANCH  29  31
ENDBRANCH  22  29
TORSDOF 2
ENDMDL
MODEL       43
REMARK 921   NORMALIZED FREE ENERGY PREDICTED BY IDOCK:   -5.04 KCAL/MOL
REMARK 922        TOTAL FREE ENERGY PREDICTED BY IDOCK:   -5.48 KCAL/MOL
REMARK 923 INTER-LIGAND FREE ENERGY PREDICTED BY IDOCK:   -5.52 KCAL/MOL
REMARK 924 INTRA-LIGAND FREE ENERGY PREDICTED BY IDOCK:    0.04 KCAL/MOL
REMARK 927      BINDING AFFINITY PREDICTED BY RF-SCORE:    0.00 PKD
ROOT
HETATM    1  C   UNL     1      -7.247  12.151  67.150  1.00  0.00    -0.117 C  
HETATM    2  C   UNL     1      -7.800  10.673  66.474  1.00  0.00    -0.140 C  
HETATM    3  C   UNL     1      -8.343   9.779  67.767  1.00  0.00    -0.114 C  
HETATM    4  C   UNL     1      -9.597   9.049  68.579  1.00  0.00    -0.161 C  
HETATM    5  C   UNL     1     -10.896   9.903  68.468  1.00  0.00    -0.257 C  
HETATM    6  C   UNL     1     -11.999   9.751  69.485  1.00  0.00     0.368 C  
HETATM    7  F   UNL     1     -12.813  10.843  69.333  1.00  0.00    -0.265 F  
HETATM    8  C   UNL     1     -11.458   9.732  70.915  1.00  0.00    -0.447 C  
HETATM    9  C   UNL     1     -12.291  10.024  71.937  1.00  0.00    -0.348 C  
HETATM   10  C   UNL     1     -13.246   8.862  71.960  1.00  0.00    -0.409 C  
HETATM   11  O   UNL     1     -14.396   8.993  72.355  1.00  0.00    -0.499 OA 
HETATM   12  C   UNL     1     -12.706   7.512  71.470  1.00  0.00    -0.391 C  
HETATM   13  C   UNL     1     -11.418   7.367  71.044  1.00  0.00    -0.307 C  
HETATM   14  C   UNL     1     -10.469   8.557  71.134  1.00  0.00    -0.278 C  
HETATM   15  C   UNL     1      -9.884   8.428  72.576  1.00  0.00    -0.359 C  
HETATM   16  C   UNL     1      -9.325   8.951  70.127  1.00  0.00    -0.197 C  
HETATM   17  C   UNL     1      -7.923   8.467  70.420  1.00  0.00    -0.099 C  
HETATM   18  C   UNL     1      -7.076   9.729  70.114  1.00  0.00    -0.130 C  
HETATM   19  O   UNL     1      -7.555   7.325  69.673  1.00  0.00    -0.094 OA 
HETATM   20  H   UNL     1      -6.674   7.020  69.857  1.00  0.00     0.000 HD 
HETATM   21  C   UNL     1      -7.308  10.341  68.717  1.00  0.00    -0.086 C  
HETATM   22  C   UNL     1      -7.917  11.995  68.488  1.00  0.00    -0.132 C  
HETATM   23  C   UNL     1      -5.920   9.792  67.975  1.00  0.00    -0.043 C  
HETATM   24  O   UNL     1      -5.910  12.476  67.657  1.00  0.00    -0.104 OA 
HETATM   25  O   UNL     1      -7.407  12.931  69.386  1.00  0.00     0.153 OA 
HETATM   26  C   UNL     1      -5.859  14.652  68.909  1.00  0.00    -0.085 C  
HETATM   27  C   UNL     1      -6.078  13.140  68.960  1.00  0.00    -0.089 C  
HETATM   28  C   UNL     1      -5.253  12.555  70.113  1.00  0.00    -0.101 C  
ENDROOT
BRANCH  22  29
HETATM   29  C   UNL     1      -9.379  12.617  68.001  1.00  0.00    -0.209 C  
HETATM   30  O   UNL     1      -9.809  12.538  66.830  1.00  0.00    -0.219 OA 
BRANCH  29  31
HETATM   31  C   UNL     1     -10.252  13.427  68.951  1.00  0.00    -0.037 C  
HETATM   32  O   UNL     1      -9.808  14.730  69.240  1.00  0.00    -0.324 OA 
HETATM   33  H   UNL     1     -10.351  15.235  69.833  1.00  0.00     0.000 HD 
ENDBRANCH  29  31
ENDBRANCH  22  29
TORSDOF 2
ENDMDL
MODEL       44
REMARK 921   NORMALIZED FREE ENERGY PREDICTED BY IDOCK:   -5.04 KCAL/MOL
REMARK 922        TOTAL FREE ENERGY PREDICTED BY IDOCK:   -5.48 KCAL/MOL
REMARK 923 INTER-LIGAND FREE ENERGY PREDICTED BY IDOCK:   -5.39 KCAL/MOL
REMARK 924 INTRA-LIGAND FREE ENERGY PREDICTED BY IDOCK:   -0.09 KCAL/MOL
REMARK 927      BINDING AFFINITY PREDICTED BY RF-SCORE:    0.00 PKD
ROOT
HETATM    1  C   UNL     1      -9.272   5.039  69.886  1.00  0.00    -0.124 C  
HETATM    2  C   UNL     1      -9.155   6.340  71.001  1.00  0.00    -0.156 C  
HETATM    3  C   UNL     1      -8.499   7.597  70.133  1.00  0.00    -0.138 C  
HETATM    4  C   UNL     1      -8.650   9.116  69.473  1.00  0.00    -0.138 C  
HETATM    5  C   UNL     1     -10.096   9.343  68.939  1.00  0.00    -0.201 C  
HETATM    6  C   UNL     1     -10.367  10.384  67.882  1.00  0.00    -0.190 C  
HETATM    7  F   UNL     1     -11.612  10.109  67.383  1.00  0.00    -0.243 F  
HETATM    8  C   UNL     1      -9.349  10.317  66.743  1.00  0.00    -0.187 C  
HETATM    9  C   UNL     1      -9.665  10.860  65.547  1.00  0.00    -0.282 C  
HETATM   10  C   UNL     1      -9.707  12.337  65.828  1.00  0.00    -0.216 C  
HETATM   11  O   UNL     1     -10.434  13.085  65.188  1.00  0.00    -0.301 OA 
HETATM   12  C   UNL     1      -8.795  12.856  66.947  1.00  0.00    -0.188 C  
HETATM   13  C   UNL     1      -7.975  12.021  67.649  1.00  0.00    -0.150 C  
HETATM   14  C   UNL     1      -7.903  10.549  67.255  1.00  0.00    -0.107 C  
HETATM   15  C   UNL     1      -6.789  10.534  66.160  1.00  0.00    -0.131 C  
HETATM   16  C   UNL     1      -7.732   9.307  68.208  1.00  0.00    -0.087 C  
HETATM   17  C   UNL     1      -6.334   8.782  68.444  1.00  0.00    -0.055 C  
HETATM   18  C   UNL     1      -6.547   7.249  68.347  1.00  0.00    -0.049 C  
HETATM   19  O   UNL     1      -5.770   9.215  69.666  1.00  0.00    -0.033 OA 
HETATM   20  H   UNL     1      -4.892   8.884  69.815  1.00  0.00     0.000 HD 
HETATM   21  C   UNL     1      -7.652   6.690  69.269  1.00  0.00    -0.100 C  
HETATM   22  C   UNL     1      -9.090   5.858  68.638  1.00  0.00    -0.115 C  
HETATM   23  C   UNL     1      -6.676   6.017  70.441  1.00  0.00    -0.052 C  
HETATM   24  O   UNL     1      -8.270   4.014  69.576  1.00  0.00    -0.058 OA 
HETATM   25  O   UNL     1      -8.846   5.019  67.552  1.00  0.00    -0.104 OA 
HETATM   26  C   UNL     1      -8.880   2.656  67.554  1.00  0.00    -0.165 C  
HETATM   27  C   UNL     1      -8.190   3.901  68.110  1.00  0.00    -0.087 C  
HETATM   28  C   UNL     1      -6.781   3.999  67.514  1.00  0.00    -0.047 C  
ENDROOT
BRANCH  22  29
HETATM   29  C   UNL     1     -10.690   6.287  68.501  1.00  0.00    -0.292 C  
HETATM   30  O   UNL     1     -11.509   6.212  69.442  1.00  0.00    -0.423 OA 
BRANCH  29  31
HETATM   31  C   UNL     1     -11.286   6.706  67.164  1.00  0.00    -0.234 C  
HETATM   32  O   UNL     1     -11.262   5.737  66.144  1.00  0.00    -0.735 OA 
HETATM   33  H   UNL     1     -11.633   5.999  65.310  1.00  0.00     0.000 HD 
ENDBRANCH  29  31
ENDBRANCH  22  29
TORSDOF 2
ENDMDL
MODEL       45
REMARK 921   NORMALIZED FREE ENERGY PREDICTED BY IDOCK:   -5.03 KCAL/MOL
REMARK 922        TOTAL FREE ENERGY PREDICTED BY IDOCK:   -5.46 KCAL/MOL
REMARK 923 INTER-LIGAND FREE ENERGY PREDICTED BY IDOCK:   -6.00 KCAL/MOL
REMARK 924 INTRA-LIGAND FREE ENERGY PREDICTED BY IDOCK:    0.54 KCAL/MOL
REMARK 927      BINDING AFFINITY PREDICTED BY RF-SCORE:    0.00 PKD
ROOT
HETATM    1  C   UNL     1      -8.660   6.564  68.187  1.00  0.00    -0.118 C  
HETATM    2  C   UNL     1      -9.318   7.322  69.580  1.00  0.00    -0.152 C  
HETATM    3  C   UNL     1      -8.925   8.930  69.426  1.00  0.00    -0.145 C  
HETATM    4  C   UNL     1      -9.404  10.509  69.218  1.00  0.00    -0.177 C  
HETATM    5  C   UNL     1     -10.628  10.592  68.258  1.00  0.00    -0.240 C  
HETATM    6  C   UNL     1     -10.936  11.870  67.520  1.00  0.00    -0.247 C  
HETATM    7  F   UNL     1     -11.815  11.536  66.524  1.00  0.00    -0.300 F  
HETATM    8  C   UNL     1      -9.684  12.481  66.891  1.00  0.00    -0.232 C  
HETATM    9  C   UNL     1      -9.821  13.359  65.873  1.00  0.00    -0.251 C  
HETATM   10  C   UNL     1     -10.450  14.561  66.522  1.00  0.00    -0.285 C  
HETATM   11  O   UNL     1     -11.181  15.312  65.892  1.00  0.00    -0.322 OA 
HETATM   12  C   UNL     1     -10.126  14.797  68.003  1.00  0.00    -0.218 C  
HETATM   13  C   UNL     1      -9.299  13.965  68.698  1.00  0.00    -0.106 C  
HETATM   14  C   UNL     1      -8.613  12.818  67.962  1.00  0.00    -0.186 C  
HETATM   15  C   UNL     1      -7.305  13.480  67.425  1.00  0.00    -0.124 C  
HETATM   16  C   UNL     1      -8.295  11.377  68.514  1.00  0.00    -0.153 C  
HETATM   17  C   UNL     1      -6.927  11.132  69.110  1.00  0.00    -0.108 C  
HETATM   18  C   UNL     1      -6.558   9.752  68.509  1.00  0.00    -0.051 C  
HETATM   19  O   UNL     1      -6.914  11.174  70.523  1.00  0.00    -0.437 OA 
HETATM   20  H   UNL     1      -6.055  11.019  70.898  1.00  0.00     0.000 HD 
HETATM   21  C   UNL     1      -7.610   8.645  68.735  1.00  0.00    -0.096 C  
HETATM   22  C   UNL     1      -8.432   7.820  67.393  1.00  0.00    -0.119 C  
HETATM   23  C   UNL     1      -6.831   7.810  69.950  1.00  0.00    -0.049 C  
HETATM   24  O   UNL     1      -7.319   5.995  68.009  1.00  0.00    -0.080 OA 
HETATM   25  O   UNL     1      -7.619   7.546  66.294  1.00  0.00    -0.084 OA 
HETATM   26  C   UNL     1      -6.828   5.425  65.613  1.00  0.00    -0.064 C  
HETATM   27  C   UNL     1      -6.799   6.479  66.720  1.00  0.00    -0.066 C  
HETATM   28  C   UNL     1      -5.405   7.116  66.766  1.00  0.00    -0.022 C  
ENDROOT
BRANCH  22  29
HETATM   29  C   UNL     1      -9.975   7.895  66.779  1.00  0.00    -0.263 C  
HETATM   30  O   UNL     1     -10.400   8.847  66.091  1.00  0.00    -0.187 OA 
BRANCH  29  31
HETATM   31  C   UNL     1     -11.013   6.832  67.114  1.00  0.00    -0.388 C  
HETATM   32  O   UNL     1     -11.213   5.834  66.142  1.00  0.00    -0.735 OA 
HETATM   33  H   UNL     1     -11.860   5.171  66.351  1.00  0.00     0.000 HD 
ENDBRANCH  29  31
ENDBRANCH  22  29
TORSDOF 2
ENDMDL
MODEL       46
REMARK 921   NORMALIZED FREE ENERGY PREDICTED BY IDOCK:   -4.98 KCAL/MOL
REMARK 922        TOTAL FREE ENERGY PREDICTED BY IDOCK:   -5.41 KCAL/MOL
REMARK 923 INTER-LIGAND FREE ENERGY PREDICTED BY IDOCK:   -5.51 KCAL/MOL
REMARK 924 INTRA-LIGAND FREE ENERGY PREDICTED BY IDOCK:    0.10 KCAL/MOL
REMARK 927      BINDING AFFINITY PREDICTED BY RF-SCORE:    0.00 PKD
ROOT
HETATM    1  C   UNL     1     -11.646  13.222  67.447  1.00  0.00    -0.353 C  
HETATM    2  C   UNL     1     -11.967  12.233  66.081  1.00  0.00    -0.323 C  
HETATM    3  C   UNL     1     -10.645  11.233  65.948  1.00  0.00    -0.309 C  
HETATM    4  C   UNL     1      -9.991   9.705  66.006  1.00  0.00    -0.344 C  
HETATM    5  C   UNL     1     -10.670   8.858  67.123  1.00  0.00    -0.203 C  
HETATM    6  C   UNL     1      -9.962   7.665  67.715  1.00  0.00    -0.174 C  
HETATM    7  F   UNL     1     -10.629   7.359  68.872  1.00  0.00    -0.199 F  
HETATM    8  C   UNL     1      -8.503   7.977  68.051  1.00  0.00    -0.126 C  
HETATM    9  C   UNL     1      -7.855   7.201  68.947  1.00  0.00    -0.115 C  
HETATM   10  C   UNL     1      -7.726   5.879  68.242  1.00  0.00    -0.101 C  
HETATM   11  O   UNL     1      -7.687   4.828  68.867  1.00  0.00    -0.071 OA 
HETATM   12  C   UNL     1      -7.642   5.915  66.711  1.00  0.00    -0.099 C  
HETATM   13  C   UNL     1      -7.671   7.090  66.018  1.00  0.00    -0.099 C  
HETATM   14  C   UNL     1      -7.706   8.404  66.791  1.00  0.00    -0.091 C  
HETATM   15  C   UNL     1      -6.193   8.713  67.023  1.00  0.00    -0.056 C  
HETATM   16  C   UNL     1      -8.467   9.727  66.403  1.00  0.00    -0.128 C  
HETATM   17  C   UNL     1      -7.704  10.788  65.642  1.00  0.00    -0.057 C  
HETATM   18  C   UNL     1      -8.151  12.084  66.364  1.00  0.00     0.150 C  
HETATM   19  O   UNL     1      -7.962  10.777  64.252  1.00  0.00    -0.359 OA 
HETATM   20  H   UNL     1      -7.483  11.444  63.774  1.00  0.00     0.000 HD 
HETATM   21  C   UNL     1      -9.679  12.279  66.459  1.00  0.00    -0.242 C  
HETATM   22  C   UNL     1     -10.533  12.385  68.014  1.00  0.00    -0.217 C  
HETATM   23  C   UNL     1      -9.855  13.430  65.266  1.00  0.00    -0.106 C  
HETATM   24  O   UNL     1     -10.942  14.509  67.492  1.00  0.00    -0.279 OA 
HETATM   25  O   UNL     1      -9.856  13.100  69.001  1.00  0.00     0.061 OA 
HETATM   26  C   UNL     1     -10.423  15.237  69.839  1.00  0.00    -0.277 C  
HETATM   27  C   UNL     1      -9.981  14.450  68.605  1.00  0.00    -0.241 C  
HETATM   28  C   UNL     1      -8.539  14.838  68.256  1.00  0.00    -0.164 C  
ENDROOT
BRANCH  22  29
HETATM   29  C   UNL     1     -11.530  11.346  68.843  1.00  0.00    -0.298 C  
HETATM   30  O   UNL     1     -12.765  11.283  68.666  1.00  0.00    -0.028 OA 
BRANCH  29  31
HETATM   31  C   UNL     1     -10.998  10.463  69.965  1.00  0.00    -0.308 C  
HETATM   32  O   UNL     1     -11.899   9.519  70.490  1.00  0.00    -0.355 OA 
HETATM   33  H   UNL     1     -11.567   8.969  71.189  1.00  0.00     0.000 HD 
ENDBRANCH  29  31
ENDBRANCH  22  29
TORSDOF 2
ENDMDL
MODEL       47
REMARK 921   NORMALIZED FREE ENERGY PREDICTED BY IDOCK:   -4.94 KCAL/MOL
REMARK 922        TOTAL FREE ENERGY PREDICTED BY IDOCK:   -5.37 KCAL/MOL
REMARK 923 INTER-LIGAND FREE ENERGY PREDICTED BY IDOCK:   -5.78 KCAL/MOL
REMARK 924 INTRA-LIGAND FREE ENERGY PREDICTED BY IDOCK:    0.41 KCAL/MOL
REMARK 927      BINDING AFFINITY PREDICTED BY RF-SCORE:    0.00 PKD
ROOT
HETATM    1  C   UNL     1      -9.486  10.648  67.254  1.00  0.00    -0.158 C  
HETATM    2  C   UNL     1     -10.295   9.276  66.611  1.00  0.00    -0.292 C  
HETATM    3  C   UNL     1      -9.738   7.987  67.503  1.00  0.00    -0.206 C  
HETATM    4  C   UNL     1     -10.032   6.761  68.588  1.00  0.00    -0.147 C  
HETATM    5  C   UNL     1     -11.068   7.211  69.660  1.00  0.00    -0.206 C  
HETATM    6  C   UNL     1     -11.133   6.518  70.998  1.00  0.00    -0.288 C  
HETATM    7  F   UNL     1     -11.862   7.337  71.819  1.00  0.00    -0.275 F  
HETATM    8  C   UNL     1      -9.744   6.317  71.605  1.00  0.00    -0.177 C  
HETATM    9  C   UNL     1      -9.631   6.112  72.935  1.00  0.00    -0.155 C  
HETATM   10  C   UNL     1     -10.248   4.755  73.138  1.00  0.00    -0.169 C  
HETATM   11  O   UNL     1     -10.795   4.457  74.191  1.00  0.00    -0.260 OA 
HETATM   12  C   UNL     1     -10.154   3.769  71.967  1.00  0.00    -0.209 C  
HETATM   13  C   UNL     1      -9.531   4.100  70.799  1.00  0.00    -0.242 C  
HETATM   14  C   UNL     1      -8.839   5.455  70.686  1.00  0.00    -0.145 C  
HETATM   15  C   UNL     1      -7.406   5.162  71.233  1.00  0.00    -0.078 C  
HETATM   16  C   UNL     1      -8.748   6.383  69.418  1.00  0.00    -0.129 C  
HETATM   17  C   UNL     1      -7.525   6.262  68.536  1.00  0.00    -0.088 C  
HETATM   18  C   UNL     1      -7.188   7.748  68.249  1.00  0.00    -0.089 C  
HETATM   19  O   UNL     1      -7.742   5.481  67.378  1.00  0.00    -0.097 OA 
HETATM   20  H   UNL     1      -6.974   5.405  66.824  1.00  0.00     0.000 HD 
HETATM   21  C   UNL     1      -8.358   8.580  67.683  1.00  0.00    -0.129 C  
HETATM   22  C   UNL     1      -9.018   9.998  68.526  1.00  0.00    -0.124 C  
HETATM   23  C   UNL     1      -7.869   8.639  66.090  1.00  0.00    -0.098 C  
HETATM   24  O   UNL     1      -8.192  11.210  66.854  1.00  0.00    -0.136 OA 
HETATM   25  O   UNL     1      -8.063  10.801  69.146  1.00  0.00    -0.152 OA 
HETATM   26  C   UNL     1      -7.365  12.954  68.461  1.00  0.00    -0.115 C  
HETATM   27  C   UNL     1      -7.424  11.474  68.082  1.00  0.00    -0.101 C  
HETATM   28  C   UNL     1      -6.005  10.894  68.113  1.00  0.00    -0.049 C  
ENDROOT
BRANCH  22  29
HETATM   29  C   UNL     1     -10.425  10.275  69.367  1.00  0.00    -0.236 C  
HETATM   30  O   UNL     1     -10.621   9.883  70.537  1.00  0.00    -0.285 OA 
BRANCH  29  31
HETATM   31  C   UNL     1     -11.622  10.949  68.708  1.00  0.00    -0.309 C  
HETATM   32  O   UNL     1     -12.886  10.600  69.216  1.00  0.00    -0.630 OA 
HETATM   33  H   UNL     1     -13.632  11.020  68.805  1.00  0.00     0.000 HD 
ENDBRANCH  29  31
ENDBRANCH  22  29
TORSDOF 2
ENDMDL
MODEL       48
REMARK 921   NORMALIZED FREE ENERGY PREDICTED BY IDOCK:   -4.94 KCAL/MOL
REMARK 922        TOTAL FREE ENERGY PREDICTED BY IDOCK:   -5.36 KCAL/MOL
REMARK 923 INTER-LIGAND FREE ENERGY PREDICTED BY IDOCK:   -5.27 KCAL/MOL
REMARK 924 INTRA-LIGAND FREE ENERGY PREDICTED BY IDOCK:   -0.09 KCAL/MOL
REMARK 927      BINDING AFFINITY PREDICTED BY RF-SCORE:    0.00 PKD
ROOT
HETATM    1  C   UNL     1     -10.274  16.182  66.620  1.00  0.00    -0.287 C  
HETATM    2  C   UNL     1      -9.941  15.032  65.389  1.00  0.00    -0.365 C  
HETATM    3  C   UNL     1      -9.151  13.787  66.159  1.00  0.00     0.079 C  
HETATM    4  C   UNL     1      -9.117  12.201  66.657  1.00  0.00    -0.206 C  
HETATM    5  C   UNL     1     -10.536  11.731  67.094  1.00  0.00    -0.267 C  
HETATM    6  C   UNL     1     -10.699  10.558  68.028  1.00  0.00    -0.245 C  
HETATM    7  F   UNL     1     -11.987  10.613  68.491  1.00  0.00    -0.348 F  
HETATM    8  C   UNL     1      -9.740  10.639  69.217  1.00  0.00    -0.181 C  
HETATM    9  C   UNL     1     -10.021   9.937  70.336  1.00  0.00    -0.222 C  
HETATM   10  C   UNL     1      -9.851   8.505  69.908  1.00  0.00    -0.186 C  
HETATM   11  O   UNL     1     -10.492   7.605  70.435  1.00  0.00    -0.212 OA 
HETATM   12  C   UNL     1      -8.839   8.232  68.790  1.00  0.00    -0.137 C  
HETATM   13  C   UNL     1      -8.116   9.236  68.215  1.00  0.00    -0.107 C  
HETATM   14  C   UNL     1      -8.259  10.655  68.756  1.00  0.00    -0.142 C  
HETATM   15  C   UNL     1      -7.197  10.702  69.899  1.00  0.00    -0.109 C  
HETATM   16  C   UNL     1      -8.226  12.001  67.940  1.00  0.00    -0.153 C  
HETATM   17  C   UNL     1      -6.905  12.729  67.825  1.00  0.00    -0.135 C  
HETATM   18  C   UNL     1      -7.328  14.201  68.063  1.00  0.00    -0.142 C  
HETATM   19  O   UNL     1      -6.245  12.504  66.596  1.00  0.00    -0.460 OA 
HETATM   20  H   UNL     1      -5.415  12.962  66.523  1.00  0.00     0.000 HD 
HETATM   21  C   UNL     1      -8.466  14.703  67.149  1.00  0.00    -0.244 C  
HETATM   22  C   UNL     1     -10.025  15.268  67.788  1.00  0.00    -0.224 C  
HETATM   23  C   UNL     1      -7.551  15.618  66.098  1.00  0.00     1.206 C  
HETATM   24  O   UNL     1      -9.432  17.291  67.079  1.00  0.00    -0.248 OA 
HETATM   25  O   UNL     1      -9.936  16.012  68.962  1.00  0.00    -0.217 OA 
HETATM   26  C   UNL     1     -10.292  18.338  69.193  1.00  0.00     0.009 C  
HETATM   27  C   UNL     1      -9.420  17.260  68.550  1.00  0.00    -0.285 C  
HETATM   28  C   UNL     1      -8.032  17.287  69.202  1.00  0.00    -0.019 C  
ENDROOT
BRANCH  22  29
HETATM   29  C   UNL     1     -11.556  14.619  67.803  1.00  0.00    -0.359 C  
HETATM   30  O   UNL     1     -12.293  14.563  66.796  1.00  0.00    -0.332 OA 
BRANCH  29  31
HETATM   31  C   UNL     1     -12.200  14.140  69.098  1.00  0.00    -0.255 C  
HETATM   32  O   UNL     1     -11.345  13.502  70.015  1.00  0.00    -0.478 OA 
HETATM   33  H   UNL     1     -11.746  13.203  70.822  1.00  0.00     0.000 HD 
ENDBRANCH  29  31
ENDBRANCH  22  29
TORSDOF 2
ENDMDL
MODEL       49
REMARK 921   NORMALIZED FREE ENERGY PREDICTED BY IDOCK:   -4.93 KCAL/MOL
REMARK 922        TOTAL FREE ENERGY PREDICTED BY IDOCK:   -5.36 KCAL/MOL
REMARK 923 INTER-LIGAND FREE ENERGY PREDICTED BY IDOCK:   -5.52 KCAL/MOL
REMARK 924 INTRA-LIGAND FREE ENERGY PREDICTED BY IDOCK:    0.16 KCAL/MOL
REMARK 927      BINDING AFFINITY PREDICTED BY RF-SCORE:    0.00 PKD
ROOT
HETATM    1  C   UNL     1      -8.434  11.654  65.877  1.00  0.00     0.137 C  
HETATM    2  C   UNL     1      -7.547  11.522  67.341  1.00  0.00    -0.135 C  
HETATM    3  C   UNL     1      -8.374  10.402  68.250  1.00  0.00    -0.119 C  
HETATM    4  C   UNL     1      -8.429   8.911  68.985  1.00  0.00    -0.133 C  
HETATM    5  C   UNL     1      -7.693   7.844  68.121  1.00  0.00    -0.125 C  
HETATM    6  C   UNL     1      -8.011   6.378  68.280  1.00  0.00    -0.106 C  
HETATM    7  F   UNL     1      -7.488   5.751  67.181  1.00  0.00    -0.076 F  
HETATM    8  C   UNL     1      -9.518   6.124  68.326  1.00  0.00    -0.117 C  
HETATM    9  C   UNL     1      -9.985   4.889  68.044  1.00  0.00    -0.175 C  
HETATM   10  C   UNL     1      -9.504   4.055  69.200  1.00  0.00    -0.178 C  
HETATM   11  O   UNL     1      -9.266   2.863  69.067  1.00  0.00    -0.132 OA 
HETATM   12  C   UNL     1      -9.331   4.771  70.545  1.00  0.00    -0.219 C  
HETATM   13  C   UNL     1      -9.610   6.098  70.693  1.00  0.00    -0.195 C  
HETATM   14  C   UNL     1     -10.187   6.870  69.511  1.00  0.00    -0.198 C  
HETATM   15  C   UNL     1     -11.725   6.648  69.666  1.00  0.00    -0.216 C  
HETATM   16  C   UNL     1      -9.902   8.365  69.108  1.00  0.00    -0.183 C  
HETATM   17  C   UNL     1     -10.854   9.428  69.607  1.00  0.00    -0.228 C  
HETATM   18  C   UNL     1     -11.038  10.311  68.346  1.00  0.00    -0.302 C  
HETATM   19  O   UNL     1     -10.375  10.125  70.740  1.00  0.00    -0.373 OA 
HETATM   20  H   UNL     1     -10.974  10.794  71.053  1.00  0.00     0.000 HD 
HETATM   21  C   UNL     1      -9.725  10.815  67.711  1.00  0.00    -0.179 C  
HETATM   22  C   UNL     1      -9.248  10.401  66.049  1.00  0.00    -0.167 C  
HETATM   23  C   UNL     1      -9.776  12.389  68.257  1.00  0.00    -0.218 C  
HETATM   24  O   UNL     1      -9.552  12.553  65.570  1.00  0.00    -0.175 OA 
HETATM   25  O   UNL     1     -10.296  10.386  65.131  1.00  0.00    -0.295 OA 
HETATM   26  C   UNL     1     -10.695  11.960  63.413  1.00  0.00    -0.476 C  
HETATM   27  C   UNL     1     -10.603  11.749  64.924  1.00  0.00    -0.294 C  
HETATM   28  C   UNL     1     -12.005  11.880  65.532  1.00  0.00    -0.030 C  
ENDROOT
BRANCH  22  29
HETATM   29  C   UNL     1      -8.100   9.383  65.410  1.00  0.00    -0.118 C  
HETATM   30  O   UNL     1      -6.871   9.539  65.571  1.00  0.00    -0.080 OA 
BRANCH  29  31
HETATM   31  C   UNL     1      -8.486   8.237  64.485  1.00  0.00    -0.022 C  
HETATM   32  O   UNL     1      -8.993   8.602  63.224  1.00  0.00    -0.397 OA 
HETATM   33  H   UNL     1      -9.234   7.886  62.648  1.00  0.00     0.000 HD 
ENDBRANCH  29  31
ENDBRANCH  22  29
TORSDOF 2
ENDMDL
MODEL       50
REMARK 921   NORMALIZED FREE ENERGY PREDICTED BY IDOCK:   -4.91 KCAL/MOL
REMARK 922        TOTAL FREE ENERGY PREDICTED BY IDOCK:   -5.34 KCAL/MOL
REMARK 923 INTER-LIGAND FREE ENERGY PREDICTED BY IDOCK:   -5.43 KCAL/MOL
REMARK 924 INTRA-LIGAND FREE ENERGY PREDICTED BY IDOCK:    0.09 KCAL/MOL
REMARK 927      BINDING AFFINITY PREDICTED BY RF-SCORE:    0.00 PKD
ROOT
HETATM    1  C   UNL     1      -8.211  11.158  66.653  1.00  0.00    -0.158 C  
HETATM    2  C   UNL     1      -9.870  11.223  67.091  1.00  0.00    -0.213 C  
HETATM    3  C   UNL     1     -10.199   9.740  67.769  1.00  0.00    -0.254 C  
HETATM    4  C   UNL     1     -10.621   8.834  69.097  1.00  0.00    -0.200 C  
HETATM    5  C   UNL     1      -9.975   9.416  70.389  1.00  0.00    -0.306 C  
HETATM    6  C   UNL     1      -9.776   8.544  71.604  1.00  0.00    -0.252 C  
HETATM    7  F   UNL     1      -8.896   9.211  72.414  1.00  0.00    -0.130 F  
HETATM    8  C   UNL     1      -9.180   7.184  71.238  1.00  0.00    -0.151 C  
HETATM    9  C   UNL     1      -8.557   6.462  72.194  1.00  0.00    -0.125 C  
HETATM   10  C   UNL     1      -9.672   6.063  73.122  1.00  0.00    -0.162 C  
HETATM   11  O   UNL     1      -9.469   5.876  74.314  1.00  0.00    -0.137 OA 
HETATM   12  C   UNL     1     -11.064   5.901  72.501  1.00  0.00    -0.328 C  
HETATM   13  C   UNL     1     -11.283   6.096  71.168  1.00  0.00    -0.355 C  
HETATM   14  C   UNL     1     -10.097   6.404  70.260  1.00  0.00    -0.216 C  
HETATM   15  C   UNL     1      -9.593   4.984  69.851  1.00  0.00    -0.246 C  
HETATM   16  C   UNL     1     -10.067   7.362  69.011  1.00  0.00    -0.193 C  
HETATM   17  C   UNL     1     -10.297   6.754  67.645  1.00  0.00    -0.203 C  
HETATM   18  C   UNL     1      -9.213   7.462  66.793  1.00  0.00    -0.190 C  
HETATM   19  O   UNL     1     -11.616   6.928  67.168  1.00  0.00    -0.653 OA 
HETATM   20  H   UNL     1     -11.761   6.547  66.310  1.00  0.00     0.000 HD 
HETATM   21  C   UNL     1      -9.234   9.003  66.867  1.00  0.00    -0.179 C  
HETATM   22  C   UNL     1      -7.858   9.949  67.476  1.00  0.00    -0.098 C  
HETATM   23  C   UNL     1      -9.941   9.310  65.389  1.00  0.00     0.095 C  
HETATM   24  O   UNL     1      -7.621  10.694  65.393  1.00  0.00    -0.127 OA 
HETATM   25  O   UNL     1      -6.608   9.465  67.096  1.00  0.00    -0.069 OA 
HETATM   26  C   UNL     1      -5.126  10.444  65.536  1.00  0.00    -0.083 C  
HETATM   27  C   UNL     1      -6.499   9.802  65.729  1.00  0.00    -0.083 C  
HETATM   28  C   UNL     1      -6.512   8.433  65.039  1.00  0.00    -0.060 C  
ENDROOT
BRANCH  22  29
HETATM   29  C   UNL     1      -7.585  10.795  68.881  1.00  0.00    -0.121 C  
HETATM   30  O   UNL     1      -7.783  12.022  68.999  1.00  0.00    -0.039 OA 
BRANCH  29  31
HETATM   31  C   UNL     1      -6.967  10.125  70.101  1.00  0.00    -0.155 C  
HETATM   32  O   UNL     1      -5.704   9.534  69.909  1.00  0.00    -0.035 OA 
HETATM   33  H   UNL     1      -5.319   9.116  70.670  1.00  0.00     0.000 HD 
ENDBRANCH  29  31
ENDBRANCH  22  29
TORSDOF 2
ENDMDL
MODEL       51
REMARK 921   NORMALIZED FREE ENERGY PREDICTED BY IDOCK:   -4.83 KCAL/MOL
REMARK 922        TOTAL FREE ENERGY PREDICTED BY IDOCK:   -5.24 KCAL/MOL
REMARK 923 INTER-LIGAND FREE ENERGY PREDICTED BY IDOCK:   -5.04 KCAL/MOL
REMARK 924 INTRA-LIGAND FREE ENERGY PREDICTED BY IDOCK:   -0.21 KCAL/MOL
REMARK 927      BINDING AFFINITY PREDICTED BY RF-SCORE:    0.00 PKD
ROOT
HETATM    1  C   UNL     1      -8.344   5.887  71.104  1.00  0.00    -0.124 C  
HETATM    2  C   UNL     1      -8.409   4.822  69.758  1.00  0.00    -0.078 C  
HETATM    3  C   UNL     1      -8.813   5.784  68.463  1.00  0.00    -0.110 C  
HETATM    4  C   UNL     1      -8.407   6.461  66.999  1.00  0.00    -0.112 C  
HETATM    5  C   UNL     1      -6.898   6.847  66.970  1.00  0.00    -0.065 C  
HETATM    6  C   UNL     1      -6.396   7.895  66.009  1.00  0.00    -0.045 C  
HETATM    7  F   UNL     1      -5.151   8.257  66.452  1.00  0.00    -0.025 F  
HETATM    8  C   UNL     1      -7.295   9.132  65.994  1.00  0.00    -0.094 C  
HETATM    9  C   UNL     1      -6.796  10.302  65.537  1.00  0.00    -0.134 C  
HETATM   10  C   UNL     1      -6.599  10.054  64.067  1.00  0.00    -0.130 C  
HETATM   11  O   UNL     1      -5.723  10.633  63.438  1.00  0.00    -0.148 OA 
HETATM   12  C   UNL     1      -7.546   9.048  63.401  1.00  0.00    -0.107 C  
HETATM   13  C   UNL     1      -8.529   8.415  64.103  1.00  0.00    -0.018 C  
HETATM   14  C   UNL     1      -8.745   8.779  65.568  1.00  0.00    -0.217 C  
HETATM   15  C   UNL     1      -9.737   9.982  65.488  1.00  0.00    -0.355 C  
HETATM   16  C   UNL     1      -9.164   7.819  66.744  1.00  0.00    -0.202 C  
HETATM   17  C   UNL     1     -10.633   7.716  67.086  1.00  0.00    -0.340 C  
HETATM   18  C   UNL     1     -10.605   7.753  68.636  1.00  0.00    -0.152 C  
HETATM   19  O   UNL     1     -11.257   6.570  66.543  1.00  0.00    -0.649 OA 
HETATM   20  H   UNL     1     -12.181   6.505  66.759  1.00  0.00     0.000 HD 
HETATM   21  C   UNL     1      -9.676   6.709  69.292  1.00  0.00    -0.151 C  
HETATM   22  C   UNL     1      -8.297   7.167  70.315  1.00  0.00    -0.136 C  
HETATM   23  C   UNL     1     -10.840   5.628  69.797  1.00  0.00    -0.370 C  
HETATM   24  O   UNL     1      -9.431   6.275  72.010  1.00  0.00    -0.153 OA 
HETATM   25  O   UNL     1      -8.534   8.252  71.157  1.00  0.00    -0.121 OA 
HETATM   26  C   UNL     1      -8.797   8.189  73.506  1.00  0.00    -0.310 C  
HETATM   27  C   UNL     1      -9.377   7.737  72.166  1.00  0.00    -0.153 C  
HETATM   28  C   UNL     1     -10.697   8.479  71.919  1.00  0.00    -0.394 C  
ENDROOT
BRANCH  22  29
HETATM   29  C   UNL     1      -6.651   7.147  70.090  1.00  0.00    -0.047 C  
HETATM   30  O   UNL     1      -5.948   6.121  70.209  1.00  0.00    -0.027 OA 
BRANCH  29  31
HETATM   31  C   UNL     1      -5.873   8.429  69.820  1.00  0.00    -0.025 C  
HETATM   32  O   UNL     1      -6.622   9.517  69.335  1.00  0.00    -0.043 OA 
HETATM   33  H   UNL     1      -6.138  10.316  69.167  1.00  0.00     0.000 HD 
ENDBRANCH  29  31
ENDBRANCH  22  29
TORSDOF 2
ENDMDL
MODEL       52
REMARK 921   NORMALIZED FREE ENERGY PREDICTED BY IDOCK:   -4.74 KCAL/MOL
REMARK 922        TOTAL FREE ENERGY PREDICTED BY IDOCK:   -5.14 KCAL/MOL
REMARK 923 INTER-LIGAND FREE ENERGY PREDICTED BY IDOCK:   -5.59 KCAL/MOL
REMARK 924 INTRA-LIGAND FREE ENERGY PREDICTED BY IDOCK:    0.44 KCAL/MOL
REMARK 927      BINDING AFFINITY PREDICTED BY RF-SCORE:    0.00 PKD
ROOT
HETATM    1  C   UNL     1      -9.091   5.090  71.504  1.00  0.00    -0.140 C  
HETATM    2  C   UNL     1     -10.359   4.932  70.357  1.00  0.00    -0.248 C  
HETATM    3  C   UNL     1     -10.925   6.478  70.120  1.00  0.00    -0.374 C  
HETATM    4  C   UNL     1     -11.145   7.786  69.117  1.00  0.00     0.139 C  
HETATM    5  C   UNL     1      -9.930   7.954  68.157  1.00  0.00    -0.210 C  
HETATM    6  C   UNL     1      -9.636   9.290  67.523  1.00  0.00    -0.149 C  
HETATM    7  F   UNL     1      -8.356   9.213  67.042  1.00  0.00    -0.114 F  
HETATM    8  C   UNL     1      -9.718  10.433  68.536  1.00  0.00    -0.174 C  
HETATM    9  C   UNL     1      -9.094  11.599  68.262  1.00  0.00    -0.187 C  
HETATM   10  C   UNL     1      -9.880  12.161  67.110  1.00  0.00    -0.197 C  
HETATM   11  O   UNL     1      -9.353  12.884  66.276  1.00  0.00    -0.226 OA 
HETATM   12  C   UNL     1     -11.365  11.786  67.035  1.00  0.00    -0.387 C  
HETATM   13  C   UNL     1     -11.952  10.990  67.975  1.00  0.00     0.007 C  
HETATM   14  C   UNL     1     -11.129  10.529  69.174  1.00  0.00    -0.302 C  
HETATM   15  C   UNL     1     -11.327  11.689  70.200  1.00  0.00    -0.091 C  
HETATM   16  C   UNL     1     -11.205   9.142  69.915  1.00  0.00    -0.118 C  
HETATM   17  C   UNL     1     -12.093   9.037  71.135  1.00  0.00    -0.287 C  
HETATM   18  C   UNL     1     -11.200   8.231  72.113  1.00  0.00    -0.413 C  
HETATM   19  O   UNL     1     -13.347   8.442  70.868  1.00  0.00    -0.500 OA 
HETATM   20  H   UNL     1     -13.905   8.376  71.634  1.00  0.00     0.000 HD 
HETATM   21  C   UNL     1     -10.656   6.901  71.547  1.00  0.00    -0.239 C  
HETATM   22  C   UNL     1      -8.917   6.578  71.372  1.00  0.00    -0.140 C  
HETATM   23  C   UNL     1     -11.680   5.857  72.348  1.00  0.00    -0.307 C  
HETATM   24  O   UNL     1      -9.178   5.049  72.968  1.00  0.00    -0.124 OA 
HETATM   25  O   UNL     1      -8.130   7.058  72.417  1.00  0.00    -0.101 OA 
HETATM   26  C   UNL     1      -7.044   5.772  74.077  1.00  0.00    -0.082 C  
HETATM   27  C   UNL     1      -8.395   6.180  73.491  1.00  0.00    -0.118 C  
HETATM   28  C   UNL     1      -9.123   7.081  74.496  1.00  0.00    -0.219 C  
ENDROOT
BRANCH  22  29
HETATM   29  C   UNL     1      -7.896   6.498  70.063  1.00  0.00    -0.111 C  
HETATM   30  O   UNL     1      -7.353   7.498  69.548  1.00  0.00    -0.079 OA 
BRANCH  29  31
HETATM   31  C   UNL     1      -7.639   5.184  69.338  1.00  0.00    -0.061 C  
HETATM   32  O   UNL     1      -6.354   5.020  68.790  1.00  0.00    -0.033 OA 
HETATM   33  H   UNL     1      -6.194   4.200  68.338  1.00  0.00     0.000 HD 
ENDBRANCH  29  31
ENDBRANCH  22  29
TORSDOF 2
ENDMDL
MODEL       53
REMARK 921   NORMALIZED FREE ENERGY PREDICTED BY IDOCK:   -4.71 KCAL/MOL
REMARK 922        TOTAL FREE ENERGY PREDICTED BY IDOCK:   -5.11 KCAL/MOL
REMARK 923 INTER-LIGAND FREE ENERGY PREDICTED BY IDOCK:   -5.62 KCAL/MOL
REMARK 924 INTRA-LIGAND FREE ENERGY PREDICTED BY IDOCK:    0.51 KCAL/MOL
REMARK 927      BINDING AFFINITY PREDICTED BY RF-SCORE:    0.00 PKD
ROOT
HETATM    1  C   UNL     1     -10.162   7.942  72.380  1.00  0.00    -0.264 C  
HETATM    2  C   UNL     1      -9.675   9.188  71.304  1.00  0.00    -0.351 C  
HETATM    3  C   UNL     1      -8.775   8.424  70.132  1.00  0.00    -0.136 C  
HETATM    4  C   UNL     1      -8.584   7.962  68.547  1.00  0.00    -0.128 C  
HETATM    5  C   UNL     1      -9.955   7.577  67.915  1.00  0.00    -0.203 C  
HETATM    6  C   UNL     1     -10.015   6.675  66.709  1.00  0.00    -0.176 C  
HETATM    7  F   UNL     1     -11.314   6.248  66.613  1.00  0.00    -0.405 F  
HETATM    8  C   UNL     1      -9.103   5.457  66.861  1.00  0.00    -0.114 C  
HETATM    9  C   UNL     1      -9.336   4.363  66.104  1.00  0.00    -0.159 C  
HETATM   10  C   UNL     1      -9.002   4.818  64.710  1.00  0.00    -0.146 C  
HETATM   11  O   UNL     1      -9.555   4.331  63.734  1.00  0.00    -0.154 OA 
HETATM   12  C   UNL     1      -7.936   5.913  64.576  1.00  0.00    -0.126 C  
HETATM   13  C   UNL     1      -7.311   6.443  65.666  1.00  0.00    -0.080 C  
HETATM   14  C   UNL     1      -7.621   5.874  67.047  1.00  0.00    -0.099 C  
HETATM   15  C   UNL     1      -6.601   4.699  67.179  1.00  0.00    -0.050 C  
HETATM   16  C   UNL     1      -7.711   6.658  68.410  1.00  0.00    -0.105 C  
HETATM   17  C   UNL     1      -6.474   6.717  69.278  1.00  0.00    -0.043 C  
HETATM   18  C   UNL     1      -7.059   6.459  70.690  1.00  0.00    -0.069 C  
HETATM   19  O   UNL     1      -5.761   7.932  69.157  1.00  0.00    -0.029 OA 
HETATM   20  H   UNL     1      -4.984   7.970  69.702  1.00  0.00     0.000 HD 
HETATM   21  C   UNL     1      -8.220   7.394  71.091  1.00  0.00    -0.106 C  
HETATM   22  C   UNL     1      -9.847   6.788  71.468  1.00  0.00    -0.170 C  
HETATM   23  C   UNL     1      -7.381   8.397  72.125  1.00  0.00    -0.127 C  
HETATM   24  O   UNL     1      -9.457   7.433  73.561  1.00  0.00    -0.208 OA 
HETATM   25  O   UNL     1      -9.870   5.595  72.187  1.00  0.00    -0.156 OA 
HETATM   26  C   UNL     1     -10.481   5.322  74.455  1.00  0.00    -0.277 C  
HETATM   27  C   UNL     1      -9.481   5.963  73.494  1.00  0.00    -0.139 C  
HETATM   28  C   UNL     1      -8.121   5.271  73.652  1.00  0.00    -0.110 C  
ENDROOT
BRANCH  22  29
HETATM   29  C   UNL     1     -11.299   6.832  70.659  1.00  0.00    -0.334 C  
HETATM   30  O   UNL     1     -11.556   6.127  69.660  1.00  0.00    -0.407 OA 
BRANCH  29  31
HETATM   31  C   UNL     1     -12.386   7.831  71.036  1.00  0.00    -0.182 C  
HETATM   32  O   UNL     1     -13.694   7.321  71.116  1.00  0.00    -0.567 OA 
HETATM   33  H   UNL     1     -14.372   7.943  71.351  1.00  0.00     0.000 HD 
ENDBRANCH  29  31
ENDBRANCH  22  29
TORSDOF 2
ENDMDL
MODEL       54
REMARK 921   NORMALIZED FREE ENERGY PREDICTED BY IDOCK:   -4.69 KCAL/MOL
REMARK 922        TOTAL FREE ENERGY PREDICTED BY IDOCK:   -5.08 KCAL/MOL
REMARK 923 INTER-LIGAND FREE ENERGY PREDICTED BY IDOCK:   -4.88 KCAL/MOL
REMARK 924 INTRA-LIGAND FREE ENERGY PREDICTED BY IDOCK:   -0.21 KCAL/MOL
REMARK 927      BINDING AFFINITY PREDICTED BY RF-SCORE:    0.00 PKD
ROOT
HETATM    1  C   UNL     1      -9.585   8.978  71.489  1.00  0.00    -0.270 C  
HETATM    2  C   UNL     1      -9.561   9.895  70.037  1.00  0.00    -0.260 C  
HETATM    3  C   UNL     1      -8.757   8.944  68.936  1.00  0.00    -0.136 C  
HETATM    4  C   UNL     1      -8.769   8.054  67.532  1.00  0.00    -0.125 C  
HETATM    5  C   UNL     1     -10.128   7.310  67.363  1.00  0.00    -0.266 C  
HETATM    6  C   UNL     1     -10.225   6.085  66.489  1.00  0.00    -0.143 C  
HETATM    7  F   UNL     1     -11.407   5.474  66.815  1.00  0.00    -0.161 F  
HETATM    8  C   UNL     1      -9.076   5.109  66.744  1.00  0.00    -0.118 C  
HETATM    9  C   UNL     1      -9.219   3.816  66.381  1.00  0.00    -0.178 C  
HETATM   10  C   UNL     1      -9.242   3.869  64.878  1.00  0.00    -0.149 C  
HETATM   11  O   UNL     1      -9.856   3.037  64.224  1.00  0.00    -0.154 OA 
HETATM   12  C   UNL     1      -8.460   5.008  64.213  1.00  0.00    -0.138 C  
HETATM   13  C   UNL     1      -7.765   5.925  64.946  1.00  0.00    -0.097 C  
HETATM   14  C   UNL     1      -7.698   5.764  66.461  1.00  0.00    -0.100 C  
HETATM   15  C   UNL     1      -6.457   4.838  66.660  1.00  0.00    -0.041 C  
HETATM   16  C   UNL     1      -7.693   6.904  67.548  1.00  0.00    -0.111 C  
HETATM   17  C   UNL     1      -6.355   7.394  68.056  1.00  0.00    -0.048 C  
HETATM   18  C   UNL     1      -6.610   7.497  69.582  1.00  0.00    -0.036 C  
HETATM   19  O   UNL     1      -5.934   8.602  67.454  1.00  0.00    -0.046 OA 
HETATM   20  H   UNL     1      -5.094   8.910  67.773  1.00  0.00     0.000 HD 
HETATM   21  C   UNL     1      -7.841   8.340  69.978  1.00  0.00    -0.104 C  
HETATM   22  C   UNL     1      -9.217   7.658  70.871  1.00  0.00    -0.149 C  
HETATM   23  C   UNL     1      -7.045   9.715  70.482  1.00  0.00    -0.137 C  
HETATM   24  O   UNL     1      -8.588   8.954  72.566  1.00  0.00    -0.396 OA 
HETATM   25  O   UNL     1      -8.869   6.747  71.867  1.00  0.00    -0.135 OA 
HETATM   26  C   UNL     1      -8.988   7.092  74.203  1.00  0.00    -0.255 C  
HETATM   27  C   UNL     1      -8.329   7.545  72.900  1.00  0.00    -0.120 C  
HETATM   28  C   UNL     1      -6.854   7.128  72.916  1.00  0.00    -0.068 C  
ENDROOT
BRANCH  22  29
HETATM   29  C   UNL     1     -10.771   7.253  70.440  1.00  0.00    -0.236 C  
HETATM   30  O   UNL     1     -11.726   8.058  70.460  1.00  0.00    -0.206 OA 
BRANCH  29  31
HETATM   31  C   UNL     1     -11.147   5.820  70.089  1.00  0.00    -0.253 C  
HETATM   32  O   UNL     1     -10.097   4.884  70.098  1.00  0.00    -0.241 OA 
HETATM   33  H   UNL     1     -10.331   3.990  69.878  1.00  0.00     0.000 HD 
ENDBRANCH  29  31
ENDBRANCH  22  29
TORSDOF 2
ENDMDL
MODEL       55
REMARK 921   NORMALIZED FREE ENERGY PREDICTED BY IDOCK:   -4.65 KCAL/MOL
REMARK 922        TOTAL FREE ENERGY PREDICTED BY IDOCK:   -5.04 KCAL/MOL
REMARK 923 INTER-LIGAND FREE ENERGY PREDICTED BY IDOCK:   -4.86 KCAL/MOL
REMARK 924 INTRA-LIGAND FREE ENERGY PREDICTED BY IDOCK:   -0.19 KCAL/MOL
REMARK 927      BINDING AFFINITY PREDICTED BY RF-SCORE:    0.00 PKD
ROOT
HETATM    1  C   UNL     1      -7.925  11.528  66.792  1.00  0.00    -0.152 C  
HETATM    2  C   UNL     1      -7.028  10.539  67.872  1.00  0.00    -0.077 C  
HETATM    3  C   UNL     1      -7.751   9.044  67.795  1.00  0.00    -0.097 C  
HETATM    4  C   UNL     1      -7.674   7.433  67.388  1.00  0.00    -0.114 C  
HETATM    5  C   UNL     1      -6.846   7.234  66.083  1.00  0.00    -0.057 C  
HETATM    6  C   UNL     1      -7.034   5.997  65.241  1.00  0.00    -0.060 C  
HETATM    7  F   UNL     1      -6.458   6.269  64.028  1.00  0.00    -0.028 F  
HETATM    8  C   UNL     1      -8.512   5.672  65.026  1.00  0.00    -0.135 C  
HETATM    9  C   UNL     1      -8.868   4.886  63.987  1.00  0.00    -0.083 C  
HETATM   10  C   UNL     1      -8.314   3.537  64.357  1.00  0.00    -0.093 C  
HETATM   11  O   UNL     1      -7.972   2.735  63.499  1.00  0.00    -0.071 OA 
HETATM   12  C   UNL     1      -8.203   3.220  65.853  1.00  0.00    -0.094 C  
HETATM   13  C   UNL     1      -8.598   4.112  66.807  1.00  0.00    -0.108 C  
HETATM   14  C   UNL     1      -9.243   5.424  66.372  1.00  0.00    -0.150 C  
HETATM   15  C   UNL     1     -10.755   5.050  66.260  1.00  0.00    -0.262 C  
HETATM   16  C   UNL     1      -9.092   6.839  67.047  1.00  0.00    -0.139 C  
HETATM   17  C   UNL     1     -10.134   7.257  68.060  1.00  0.00    -0.172 C  
HETATM   18  C   UNL     1     -10.397   8.731  67.659  1.00  0.00    -0.317 C  
HETATM   19  O   UNL     1      -9.717   7.084  69.399  1.00  0.00    -0.158 OA 
HETATM   20  H   UNL     1     -10.372   7.347  70.036  1.00  0.00     0.000 HD 
HETATM   21  C   UNL     1      -9.134   9.615  67.574  1.00  0.00    -0.142 C  
HETATM   22  C   UNL     1      -8.625  10.410  66.069  1.00  0.00    -0.151 C  
HETATM   23  C   UNL     1      -9.324  10.451  69.004  1.00  0.00    -0.201 C  
HETATM   24  O   UNL     1      -9.119  12.332  67.075  1.00  0.00    -0.188 OA 
HETATM   25  O   UNL     1      -9.669  10.922  65.301  1.00  0.00    -0.215 OA 
HETATM   26  C   UNL     1     -10.207  13.203  64.986  1.00  0.00    -0.296 C  
HETATM   27  C   UNL     1     -10.095  12.069  66.005  1.00  0.00    -0.230 C  
HETATM   28  C   UNL     1     -11.502  11.679  66.474  1.00  0.00    -0.260 C  
ENDROOT
BRANCH  22  29
HETATM   29  C   UNL     1      -7.392  10.131  64.990  1.00  0.00    -0.139 C  
HETATM   30  O   UNL     1      -6.230  10.565  65.139  1.00  0.00    -0.124 OA 
BRANCH  29  31
HETATM   31  C   UNL     1      -7.640   9.400  63.676  1.00  0.00    -0.116 C  
HETATM   32  O   UNL     1      -8.829   8.653  63.599  1.00  0.00    -0.427 OA 
HETATM   33  H   UNL     1      -8.983   8.197  62.780  1.00  0.00     0.000 HD 
ENDBRANCH  29  31
ENDBRANCH  22  29
TORSDOF 2
ENDMDL
MODEL       56
REMARK 921   NORMALIZED FREE ENERGY PREDICTED BY IDOCK:   -4.63 KCAL/MOL
REMARK 922        TOTAL FREE ENERGY PREDICTED BY IDOCK:   -5.02 KCAL/MOL
REMARK 923 INTER-LIGAND FREE ENERGY PREDICTED BY IDOCK:   -5.70 KCAL/MOL
REMARK 924 INTRA-LIGAND FREE ENERGY PREDICTED BY IDOCK:    0.68 KCAL/MOL
REMARK 927      BINDING AFFINITY PREDICTED BY RF-SCORE:    0.00 PKD
ROOT
HETATM    1  C   UNL     1      -8.895  11.329  65.929  1.00  0.00    -0.169 C  
HETATM    2  C   UNL     1      -7.341  10.875  66.502  1.00  0.00    -0.142 C  
HETATM    3  C   UNL     1      -7.631   9.932  67.841  1.00  0.00    -0.090 C  
HETATM    4  C   UNL     1      -7.555   8.452  68.596  1.00  0.00    -0.102 C  
HETATM    5  C   UNL     1      -7.818   7.301  67.579  1.00  0.00    -0.112 C  
HETATM    6  C   UNL     1      -8.295   5.953  68.058  1.00  0.00    -0.111 C  
HETATM    7  F   UNL     1      -8.761   5.296  66.949  1.00  0.00    -0.114 F  
HETATM    8  C   UNL     1      -9.430   6.078  69.074  1.00  0.00    -0.143 C  
HETATM    9  C   UNL     1     -10.244   5.020  69.284  1.00  0.00    -0.245 C  
HETATM   10  C   UNL     1      -9.350   4.012  69.952  1.00  0.00    -0.170 C  
HETATM   11  O   UNL     1      -9.542   2.811  69.825  1.00  0.00    -0.119 OA 
HETATM   12  C   UNL     1      -8.196   4.563  70.798  1.00  0.00    -0.080 C  
HETATM   13  C   UNL     1      -7.993   5.904  70.949  1.00  0.00    -0.111 C  
HETATM   14  C   UNL     1      -8.989   6.878  70.328  1.00  0.00    -0.152 C  
HETATM   15  C   UNL     1     -10.069   7.033  71.444  1.00  0.00    -0.197 C  
HETATM   16  C   UNL     1      -8.684   8.281  69.681  1.00  0.00    -0.138 C  
HETATM   17  C   UNL     1      -8.813   9.508  70.555  1.00  0.00    -0.201 C  
HETATM   18  C   UNL     1      -9.545  10.498  69.613  1.00  0.00    -0.062 C  
HETATM   19  O   UNL     1      -7.575   9.981  71.047  1.00  0.00    -0.331 OA 
HETATM   20  H   UNL     1      -7.656  10.752  71.596  1.00  0.00     0.000 HD 
HETATM   21  C   UNL     1      -8.869  10.705  68.240  1.00  0.00    -0.139 C  
HETATM   22  C   UNL     1      -9.677  10.308  66.708  1.00  0.00    -0.185 C  
HETATM   23  C   UNL     1      -8.186  12.199  68.526  1.00  0.00    -0.104 C  
HETATM   24  O   UNL     1      -9.699  12.496  66.307  1.00  0.00    -0.247 OA 
HETATM   25  O   UNL     1     -11.034  10.619  66.670  1.00  0.00    -0.190 OA 
HETATM   26  C   UNL     1     -12.052  12.363  65.440  1.00  0.00    -0.428 C  
HETATM   27  C   UNL     1     -11.070  12.027  66.562  1.00  0.00    -0.314 C  
HETATM   28  C   UNL     1     -11.679  12.456  67.903  1.00  0.00    -0.421 C  
ENDROOT
BRANCH  22  29
HETATM   29  C   UNL     1      -9.483   9.086  65.598  1.00  0.00    -0.203 C  
HETATM   30  O   UNL     1      -9.742   7.887  65.836  1.00  0.00     0.002 OA 
BRANCH  29  31
HETATM   31  C   UNL     1      -8.869   9.350  64.229  1.00  0.00    -0.184 C  
HETATM   32  O   UNL     1      -9.770   9.665  63.196  1.00  0.00    -0.496 OA 
HETATM   33  H   UNL     1      -9.387   9.829  62.343  1.00  0.00     0.000 HD 
ENDBRANCH  29  31
ENDBRANCH  22  29
TORSDOF 2
ENDMDL
MODEL       57
REMARK 921   NORMALIZED FREE ENERGY PREDICTED BY IDOCK:   -4.57 KCAL/MOL
REMARK 922        TOTAL FREE ENERGY PREDICTED BY IDOCK:   -4.95 KCAL/MOL
REMARK 923 INTER-LIGAND FREE ENERGY PREDICTED BY IDOCK:   -4.74 KCAL/MOL
REMARK 924 INTRA-LIGAND FREE ENERGY PREDICTED BY IDOCK:   -0.21 KCAL/MOL
REMARK 927      BINDING AFFINITY PREDICTED BY RF-SCORE:    0.00 PKD
ROOT
HETATM    1  C   UNL     1      -9.056  10.631  69.198  1.00  0.00    -0.139 C  
HETATM    2  C   UNL     1     -10.411   9.739  69.764  1.00  0.00    -0.274 C  
HETATM    3  C   UNL     1     -10.268   8.239  69.061  1.00  0.00    -0.226 C  
HETATM    4  C   UNL     1     -10.028   6.601  69.215  1.00  0.00    -0.171 C  
HETATM    5  C   UNL     1      -9.008   6.298  70.353  1.00  0.00    -0.154 C  
HETATM    6  C   UNL     1      -8.249   4.995  70.373  1.00  0.00    -0.096 C  
HETATM    7  F   UNL     1      -7.213   5.169  71.252  1.00  0.00    -0.058 F  
HETATM    8  C   UNL     1      -7.680   4.646  68.997  1.00  0.00    -0.071 C  
HETATM    9  C   UNL     1      -6.652   3.774  68.914  1.00  0.00    -0.041 C  
HETATM   10  C   UNL     1      -7.262   2.464  69.329  1.00  0.00    -0.044 C  
HETATM   11  O   UNL     1      -6.593   1.595  69.871  1.00  0.00    -0.028 OA 
HETATM   12  C   UNL     1      -8.756   2.273  69.037  1.00  0.00    -0.129 C  
HETATM   13  C   UNL     1      -9.496   3.238  68.420  1.00  0.00    -0.209 C  
HETATM   14  C   UNL     1      -8.801   4.506  67.934  1.00  0.00    -0.120 C  
HETATM   15  C   UNL     1      -8.325   4.117  66.499  1.00  0.00    -0.104 C  
HETATM   16  C   UNL     1      -9.375   5.973  67.927  1.00  0.00    -0.110 C  
HETATM   17  C   UNL     1     -10.040   6.468  66.662  1.00  0.00    -0.137 C  
HETATM   18  C   UNL     1      -9.465   7.903  66.539  1.00  0.00    -0.277 C  
HETATM   19  O   UNL     1     -11.451   6.409  66.709  1.00  0.00    -0.733 OA 
HETATM   20  H   UNL     1     -11.869   6.721  65.914  1.00  0.00     0.000 HD 
HETATM   21  C   UNL     1      -9.645   8.783  67.794  1.00  0.00    -0.177 C  
HETATM   22  C   UNL     1      -8.268   9.454  68.695  1.00  0.00    -0.112 C  
HETATM   23  C   UNL     1     -10.901   9.734  67.249  1.00  0.00    -0.247 C  
HETATM   24  O   UNL     1      -8.948  11.450  67.986  1.00  0.00    -0.150 OA 
HETATM   25  O   UNL     1      -7.213   9.895  67.899  1.00  0.00    -0.085 OA 
HETATM   26  C   UNL     1      -6.583  12.138  67.501  1.00  0.00    -0.132 C  
HETATM   27  C   UNL     1      -7.684  11.094  67.322  1.00  0.00    -0.130 C  
HETATM   28  C   UNL     1      -7.796  10.736  65.834  1.00  0.00    -0.131 C  
ENDROOT
BRANCH  22  29
HETATM   29  C   UNL     1      -7.578   9.092  70.163  1.00  0.00    -0.093 C  
HETATM   30  O   UNL     1      -7.990   9.545  71.252  1.00  0.00    -0.296 OA 
BRANCH  29  31
HETATM   31  C   UNL     1      -6.311   8.251  70.258  1.00  0.00    -0.035 C  
HETATM   32  O   UNL     1      -5.848   7.693  69.052  1.00  0.00    -0.029 OA 
HETATM   33  H   UNL     1      -5.058   7.168  69.111  1.00  0.00     0.000 HD 
ENDBRANCH  29  31
ENDBRANCH  22  29
TORSDOF 2
ENDMDL
MODEL       58
REMARK 921   NORMALIZED FREE ENERGY PREDICTED BY IDOCK:   -4.32 KCAL/MOL
REMARK 922        TOTAL FREE ENERGY PREDICTED BY IDOCK:   -4.68 KCAL/MOL
REMARK 923 INTER-LIGAND FREE ENERGY PREDICTED BY IDOCK:   -4.51 KCAL/MOL
REMARK 924 INTRA-LIGAND FREE ENERGY PREDICTED BY IDOCK:   -0.17 KCAL/MOL
REMARK 927      BINDING AFFINITY PREDICTED BY RF-SCORE:    0.00 PKD
ROOT
HETATM    1  C   UNL     1      -9.001   5.073  70.802  1.00  0.00    -0.132 C  
HETATM    2  C   UNL     1      -8.140   4.594  69.395  1.00  0.00    -0.069 C  
HETATM    3  C   UNL     1      -8.257   5.886  68.354  1.00  0.00    -0.109 C  
HETATM    4  C   UNL     1      -7.525   7.120  67.513  1.00  0.00    -0.101 C  
HETATM    5  C   UNL     1      -6.364   7.741  68.346  1.00  0.00    -0.045 C  
HETATM    6  C   UNL     1      -5.883   9.141  68.061  1.00  0.00    -0.038 C  
HETATM    7  F   UNL     1      -5.135   9.518  69.145  1.00  0.00    -0.036 F  
HETATM    8  C   UNL     1      -7.045  10.121  67.896  1.00  0.00    -0.085 C  
HETATM    9  C   UNL     1      -6.818  11.443  68.057  1.00  0.00    -0.067 C  
HETATM   10  C   UNL     1      -5.953  11.800  66.879  1.00  0.00    -0.140 C  
HETATM   11  O   UNL     1      -5.141  12.712  66.942  1.00  0.00    -0.333 OA 
HETATM   12  C   UNL     1      -6.143  10.970  65.603  1.00  0.00     0.032 C  
HETATM   13  C   UNL     1      -7.060   9.963  65.532  1.00  0.00    -0.118 C  
HETATM   14  C   UNL     1      -7.976   9.710  66.725  1.00  0.00    -0.105 C  
HETATM   15  C   UNL     1      -9.179  10.667  66.452  1.00  0.00    -0.190 C  
HETATM   16  C   UNL     1      -8.506   8.324  67.252  1.00  0.00    -0.124 C  
HETATM   17  C   UNL     1      -9.858   7.850  66.768  1.00  0.00    -0.248 C  
HETATM   18  C   UNL     1     -10.496   7.310  68.073  1.00  0.00    -0.249 C  
HETATM   19  O   UNL     1      -9.780   6.902  65.723  1.00  0.00    -0.345 OA 
HETATM   20  H   UNL     1     -10.630   6.604  65.418  1.00  0.00     0.000 HD 
HETATM   21  C   UNL     1      -9.640   6.272  68.830  1.00  0.00    -0.128 C  
HETATM   22  C   UNL     1      -9.054   6.542  70.486  1.00  0.00    -0.152 C  
HETATM   23  C   UNL     1     -10.479   4.898  68.395  1.00  0.00     0.063 C  
HETATM   24  O   UNL     1     -10.428   4.902  71.097  1.00  0.00    -0.183 OA 
HETATM   25  O   UNL     1      -9.965   7.176  71.328  1.00  0.00    -0.189 OA 
HETATM   26  C   UNL     1     -11.150   6.197  73.124  1.00  0.00    -0.214 C  
HETATM   27  C   UNL     1     -10.931   6.186  71.611  1.00  0.00    -0.267 C  
HETATM   28  C   UNL     1     -12.189   6.729  70.921  1.00  0.00    -0.386 C  
ENDROOT
BRANCH  22  29
HETATM   29  C   UNL     1      -7.560   6.891  71.127  1.00  0.00    -0.087 C  
HETATM   30  O   UNL     1      -6.699   6.023  71.384  1.00  0.00    -0.052 OA 
BRANCH  29  31
HETATM   31  C   UNL     1      -7.188   8.308  71.542  1.00  0.00    -0.084 C  
HETATM   32  O   UNL     1      -8.171   9.292  71.334  1.00  0.00    -0.330 OA 
HETATM   33  H   UNL     1      -7.939  10.176  71.593  1.00  0.00     0.000 HD 
ENDBRANCH  29  31
ENDBRANCH  22  29
TORSDOF 2
ENDMDL
MODEL       59
REMARK 921   NORMALIZED FREE ENERGY PREDICTED BY IDOCK:   -4.29 KCAL/MOL
REMARK 922        TOTAL FREE ENERGY PREDICTED BY IDOCK:   -4.64 KCAL/MOL
REMARK 923 INTER-LIGAND FREE ENERGY PREDICTED BY IDOCK:   -4.55 KCAL/MOL
REMARK 924 INTRA-LIGAND FREE ENERGY PREDICTED BY IDOCK:   -0.09 KCAL/MOL
REMARK 927      BINDING AFFINITY PREDICTED BY RF-SCORE:    0.00 PKD
ROOT
HETATM    1  C   UNL     1      -8.599   6.729  65.601  1.00  0.00    -0.117 C  
HETATM    2  C   UNL     1      -9.545   8.026  66.210  1.00  0.00    -0.223 C  
HETATM    3  C   UNL     1      -9.759   7.687  67.824  1.00  0.00    -0.180 C  
HETATM    4  C   UNL     1      -9.492   8.076  69.419  1.00  0.00    -0.159 C  
HETATM    5  C   UNL     1      -8.063   8.668  69.609  1.00  0.00    -0.112 C  
HETATM    6  C   UNL     1      -7.395   8.632  70.960  1.00  0.00    -0.083 C  
HETATM    7  F   UNL     1      -6.067   8.886  70.738  1.00  0.00    -0.031 F  
HETATM    8  C   UNL     1      -7.532   7.264  71.628  1.00  0.00    -0.085 C  
HETATM    9  C   UNL     1      -6.669   6.922  72.609  1.00  0.00    -0.062 C  
HETATM   10  C   UNL     1      -7.030   7.847  73.739  1.00  0.00    -0.113 C  
HETATM   11  O   UNL     1      -6.194   8.206  74.556  1.00  0.00    -0.100 OA 
HETATM   12  C   UNL     1      -8.490   8.310  73.815  1.00  0.00    -0.259 C  
HETATM   13  C   UNL     1      -9.423   7.895  72.909  1.00  0.00    -0.321 C  
HETATM   14  C   UNL     1      -9.020   6.881  71.844  1.00  0.00    -0.139 C  
HETATM   15  C   UNL     1      -9.269   5.512  72.553  1.00  0.00    -0.150 C  
HETATM   16  C   UNL     1      -9.518   6.807  70.351  1.00  0.00    -0.168 C  
HETATM   17  C   UNL     1     -10.689   5.904  70.037  1.00  0.00    -0.326 C  
HETATM   18  C   UNL     1     -10.223   5.219  68.727  1.00  0.00    -0.231 C  
HETATM   19  O   UNL     1     -11.917   6.593  69.928  1.00  0.00    -0.652 OA 
HETATM   20  H   UNL     1     -12.653   6.026  69.731  1.00  0.00     0.000 HD 
HETATM   21  C   UNL     1      -9.790   6.191  67.607  1.00  0.00    -0.131 C  
HETATM   22  C   UNL     1      -8.146   6.200  66.934  1.00  0.00    -0.109 C  
HETATM   23  C   UNL     1     -11.146   6.075  66.645  1.00  0.00    -0.118 C  
HETATM   24  O   UNL     1      -9.058   5.451  65.048  1.00  0.00    -0.096 OA 
HETATM   25  O   UNL     1      -7.577   4.938  66.774  1.00  0.00    -0.086 OA 
HETATM   26  C   UNL     1      -7.181   3.812  64.733  1.00  0.00    -0.067 C  
HETATM   27  C   UNL     1      -8.250   4.385  65.663  1.00  0.00    -0.109 C  
HETATM   28  C   UNL     1      -9.043   3.229  66.285  1.00  0.00    -0.161 C  
ENDROOT
BRANCH  22  29
HETATM   29  C   UNL     1      -6.857   7.239  67.081  1.00  0.00    -0.077 C  
HETATM   30  O   UNL     1      -6.694   8.246  66.360  1.00  0.00    -0.060 OA 
BRANCH  29  31
HETATM   31  C   UNL     1      -5.721   6.958  68.057  1.00  0.00    -0.020 C  
HETATM   32  O   UNL     1      -5.651   5.648  68.565  1.00  0.00    -0.007 OA 
HETATM   33  H   UNL     1      -4.943   5.474  69.174  1.00  0.00     0.000 HD 
ENDBRANCH  29  31
ENDBRANCH  22  29
TORSDOF 2
ENDMDL
MODEL       60
REMARK 921   NORMALIZED FREE ENERGY PREDICTED BY IDOCK:   -4.29 KCAL/MOL
REMARK 922        TOTAL FREE ENERGY PREDICTED BY IDOCK:   -4.64 KCAL/MOL
REMARK 923 INTER-LIGAND FREE ENERGY PREDICTED BY IDOCK:   -4.51 KCAL/MOL
REMARK 924 INTRA-LIGAND FREE ENERGY PREDICTED BY IDOCK:   -0.13 KCAL/MOL
REMARK 927      BINDING AFFINITY PREDICTED BY RF-SCORE:    0.00 PKD
ROOT
HETATM    1  C   UNL     1      -9.387   6.340  72.069  1.00  0.00    -0.152 C  
HETATM    2  C   UNL     1     -10.760   5.508  71.460  1.00  0.00    -0.290 C  
HETATM    3  C   UNL     1     -10.551   5.474  69.810  1.00  0.00    -0.388 C  
HETATM    4  C   UNL     1     -10.298   4.606  68.415  1.00  0.00     0.115 C  
HETATM    5  C   UNL     1      -9.345   3.402  68.681  1.00  0.00    -0.232 C  
HETATM    6  C   UNL     1      -8.570   2.776  67.550  1.00  0.00    -0.102 C  
HETATM    7  F   UNL     1      -7.592   2.012  68.131  1.00  0.00    -0.052 F  
HETATM    8  C   UNL     1      -7.911   3.829  66.658  1.00  0.00    -0.096 C  
HETATM    9  C   UNL     1      -6.867   3.472  65.880  1.00  0.00    -0.056 C  
HETATM   10  C   UNL     1      -7.483   2.555  64.859  1.00  0.00    -0.071 C  
HETATM   11  O   UNL     1      -6.835   1.655  64.342  1.00  0.00    -0.032 OA 
HETATM   12  C   UNL     1      -8.952   2.806  64.499  1.00  0.00    -0.120 C  
HETATM   13  C   UNL     1      -9.667   3.819  65.067  1.00  0.00    -0.183 C  
HETATM   14  C   UNL     1      -8.963   4.777  66.023  1.00  0.00    -0.126 C  
HETATM   15  C   UNL     1      -8.394   5.871  65.065  1.00  0.00    -0.131 C  
HETATM   16  C   UNL     1      -9.557   5.455  67.314  1.00  0.00    -0.140 C  
HETATM   17  C   UNL     1     -10.150   6.839  67.180  1.00  0.00    -0.190 C  
HETATM   18  C   UNL     1      -9.590   7.551  68.439  1.00  0.00    -0.152 C  
HETATM   19  O   UNL     1     -11.560   6.840  67.091  1.00  0.00    -0.725 OA 
HETATM   20  H   UNL     1     -11.933   7.710  67.007  1.00  0.00     0.000 HD 
HETATM   21  C   UNL     1      -9.860   6.819  69.771  1.00  0.00    -0.175 C  
HETATM   22  C   UNL     1      -8.551   6.237  70.823  1.00  0.00    -0.135 C  
HETATM   23  C   UNL     1     -11.094   7.786  70.337  1.00  0.00    -0.259 C  
HETATM   24  O   UNL     1      -9.216   7.781  72.279  1.00  0.00    -0.135 OA 
HETATM   25  O   UNL     1      -7.456   7.094  70.914  1.00  0.00    -0.078 OA 
HETATM   26  C   UNL     1      -6.836   8.403  72.782  1.00  0.00    -0.099 C  
HETATM   27  C   UNL     1      -7.909   8.160  71.721  1.00  0.00    -0.112 C  
HETATM   28  C   UNL     1      -7.923   9.344  70.745  1.00  0.00    -0.154 C  
ENDROOT
BRANCH  22  29
HETATM   29  C   UNL     1      -7.947   4.727  71.167  1.00  0.00    -0.088 C  
HETATM   30  O   UNL     1      -8.402   3.989  72.066  1.00  0.00    -0.095 OA 
BRANCH  29  31
HETATM   31  C   UNL     1      -6.712   4.187  70.458  1.00  0.00    -0.033 C  
HETATM   32  O   UNL     1      -6.313   4.877  69.298  1.00  0.00    -0.029 OA 
HETATM   33  H   UNL     1      -5.543   4.540  68.856  1.00  0.00     0.000 HD 
ENDBRANCH  29  31
ENDBRANCH  22  29
TORSDOF 2
ENDMDL
MODEL       61
REMARK 921   NORMALIZED FREE ENERGY PREDICTED BY IDOCK:   -4.21 KCAL/MOL
REMARK 922        TOTAL FREE ENERGY PREDICTED BY IDOCK:   -4.55 KCAL/MOL
REMARK 923 INTER-LIGAND FREE ENERGY PREDICTED BY IDOCK:   -4.97 KCAL/MOL
REMARK 924 INTRA-LIGAND FREE ENERGY PREDICTED BY IDOCK:    0.42 KCAL/MOL
REMARK 927      BINDING AFFINITY PREDICTED BY RF-SCORE:    0.00 PKD
ROOT
HETATM    1  C   UNL     1     -11.583  15.012  67.669  1.00  0.00    -0.312 C  
HETATM    2  C   UNL     1     -12.655  13.849  66.999  1.00  0.00     0.050 C  
HETATM    3  C   UNL     1     -11.678  12.779  66.182  1.00  0.00    -0.458 C  
HETATM    4  C   UNL     1     -11.054  11.247  66.017  1.00  0.00    -0.181 C  
HETATM    5  C   UNL     1     -10.793  10.606  67.413  1.00  0.00    -0.353 C  
HETATM    6  C   UNL     1      -9.801   9.481  67.564  1.00  0.00    -0.167 C  
HETATM    7  F   UNL     1      -9.537   9.379  68.905  1.00  0.00    -0.148 F  
HETATM    8  C   UNL     1      -8.495   9.769  66.823  1.00  0.00    -0.125 C  
HETATM    9  C   UNL     1      -7.375   9.102  67.180  1.00  0.00    -0.087 C  
HETATM   10  C   UNL     1      -7.656   7.686  66.758  1.00  0.00    -0.098 C  
HETATM   11  O   UNL     1      -7.158   6.738  67.349  1.00  0.00    -0.079 OA 
HETATM   12  C   UNL     1      -8.588   7.493  65.556  1.00  0.00    -0.102 C  
HETATM   13  C   UNL     1      -9.130   8.554  64.891  1.00  0.00     0.181 C  
HETATM   14  C   UNL     1      -8.733   9.968  65.303  1.00  0.00    -0.182 C  
HETATM   15  C   UNL     1      -7.454  10.235  64.448  1.00  0.00    -0.084 C  
HETATM   16  C   UNL     1      -9.642  11.254  65.320  1.00  0.00    -0.265 C  
HETATM   17  C   UNL     1      -9.620  12.154  64.105  1.00  0.00     0.045 C  
HETATM   18  C   UNL     1      -9.568  13.562  64.750  1.00  0.00     0.428 C  
HETATM   19  O   UNL     1     -10.717  11.952  63.237  1.00  0.00    -0.572 OA 
HETATM   20  H   UNL     1     -10.704  12.518  62.473  1.00  0.00     0.000 HD 
HETATM   21  C   UNL     1     -10.676  13.841  65.787  1.00  0.00    -0.281 C  
HETATM   22  C   UNL     1     -10.321  14.215  67.488  1.00  0.00    -0.248 C  
HETATM   23  C   UNL     1     -11.653  14.812  64.847  1.00  0.00    -0.401 C  
HETATM   24  O   UNL     1     -11.097  16.256  67.062  1.00  0.00    -0.158 OA 
HETATM   25  O   UNL     1      -9.211  15.034  67.683  1.00  0.00    -0.179 OA 
HETATM   26  C   UNL     1      -9.224  17.295  68.373  1.00  0.00    -0.268 C  
HETATM   27  C   UNL     1      -9.642  16.316  67.277  1.00  0.00    -0.230 C  
HETATM   28  C   UNL     1      -8.798  16.579  66.024  1.00  0.00    -0.267 C  
ENDROOT
BRANCH  22  29
HETATM   29  C   UNL     1     -10.478  13.357  68.903  1.00  0.00    -0.113 C  
HETATM   30  O   UNL     1      -9.634  12.529  69.307  1.00  0.00     0.443 OA 
BRANCH  29  31
HETATM   31  C   UNL     1     -11.736  13.458  69.755  1.00  0.00    -0.286 C  
HETATM   32  O   UNL     1     -11.832  12.552  70.827  1.00  0.00    -0.468 OA 
HETATM   33  H   UNL     1     -12.616  12.614  71.358  1.00  0.00     0.000 HD 
ENDBRANCH  29  31
ENDBRANCH  22  29
TORSDOF 2
ENDMDL
MODEL       62
REMARK 921   NORMALIZED FREE ENERGY PREDICTED BY IDOCK:   -4.19 KCAL/MOL
REMARK 922        TOTAL FREE ENERGY PREDICTED BY IDOCK:   -4.53 KCAL/MOL
REMARK 923 INTER-LIGAND FREE ENERGY PREDICTED BY IDOCK:   -4.47 KCAL/MOL
REMARK 924 INTRA-LIGAND FREE ENERGY PREDICTED BY IDOCK:   -0.06 KCAL/MOL
REMARK 927      BINDING AFFINITY PREDICTED BY RF-SCORE:    0.00 PKD
ROOT
HETATM    1  C   UNL     1      -9.147   5.736  65.739  1.00  0.00    -0.109 C  
HETATM    2  C   UNL     1     -10.595   5.443  66.613  1.00  0.00    -0.359 C  
HETATM    3  C   UNL     1     -10.110   5.183  68.183  1.00  0.00    -0.192 C  
HETATM    4  C   UNL     1     -10.090   5.662  69.775  1.00  0.00    -0.286 C  
HETATM    5  C   UNL     1     -10.016   7.214  69.882  1.00  0.00    -0.184 C  
HETATM    6  C   UNL     1      -9.492   7.870  71.135  1.00  0.00    -0.158 C  
HETATM    7  F   UNL     1      -9.223   9.172  70.802  1.00  0.00    -0.212 F  
HETATM    8  C   UNL     1      -8.205   7.209  71.629  1.00  0.00    -0.103 C  
HETATM    9  C   UNL     1      -7.388   7.898  72.455  1.00  0.00    -0.104 C  
HETATM   10  C   UNL     1      -8.180   8.006  73.729  1.00  0.00    -0.240 C  
HETATM   11  O   UNL     1      -8.033   8.953  74.489  1.00  0.00    -0.320 OA 
HETATM   12  C   UNL     1      -9.172   6.874  74.026  1.00  0.00    -0.243 C  
HETATM   13  C   UNL     1      -9.323   5.813  73.182  1.00  0.00    -0.139 C  
HETATM   14  C   UNL     1      -8.423   5.708  71.955  1.00  0.00    -0.126 C  
HETATM   15  C   UNL     1      -7.174   4.947  72.501  1.00  0.00    -0.083 C  
HETATM   16  C   UNL     1      -8.804   5.156  70.530  1.00  0.00    -0.142 C  
HETATM   17  C   UNL     1      -8.513   3.702  70.231  1.00  0.00    -0.056 C  
HETATM   18  C   UNL     1      -7.925   3.781  68.799  1.00  0.00    -0.065 C  
HETATM   19  O   UNL     1      -9.646   2.867  70.350  1.00  0.00    -0.153 OA 
HETATM   20  H   UNL     1      -9.464   1.953  70.163  1.00  0.00     0.000 HD 
HETATM   21  C   UNL     1      -8.810   4.524  67.776  1.00  0.00    -0.119 C  
HETATM   22  C   UNL     1      -8.268   5.991  66.932  1.00  0.00    -0.105 C  
HETATM   23  C   UNL     1      -9.411   3.199  66.962  1.00  0.00    -0.180 C  
HETATM   24  O   UNL     1      -8.272   4.763  65.076  1.00  0.00    -0.116 OA 
HETATM   25  O   UNL     1      -6.929   5.977  66.546  1.00  0.00    -0.064 OA 
HETATM   26  C   UNL     1      -6.093   5.775  64.345  1.00  0.00    -0.025 C  
HETATM   27  C   UNL     1      -6.886   5.084  65.454  1.00  0.00    -0.061 C  
HETATM   28  C   UNL     1      -6.061   3.914  66.003  1.00  0.00    -0.028 C  
ENDROOT
BRANCH  22  29
HETATM   29  C   UNL     1      -8.661   7.600  67.071  1.00  0.00    -0.122 C  
HETATM   30  O   UNL     1      -9.665   8.116  66.535  1.00  0.00    -0.222 OA 
BRANCH  29  31
HETATM   31  C   UNL     1      -7.742   8.580  67.790  1.00  0.00    -0.103 C  
HETATM   32  O   UNL     1      -6.369   8.459  67.512  1.00  0.00    -0.054 OA 
HETATM   33  H   UNL     1      -5.796   9.069  67.960  1.00  0.00     0.000 HD 
ENDBRANCH  29  31
ENDBRANCH  22  29
TORSDOF 2
ENDMDL
MODEL       63
REMARK 921   NORMALIZED FREE ENERGY PREDICTED BY IDOCK:   -4.17 KCAL/MOL
REMARK 922        TOTAL FREE ENERGY PREDICTED BY IDOCK:   -4.51 KCAL/MOL
REMARK 923 INTER-LIGAND FREE ENERGY PREDICTED BY IDOCK:   -4.29 KCAL/MOL
REMARK 924 INTRA-LIGAND FREE ENERGY PREDICTED BY IDOCK:   -0.21 KCAL/MOL
REMARK 927      BINDING AFFINITY PREDICTED BY RF-SCORE:    0.00 PKD
ROOT
HETATM    1  C   UNL     1      -6.784   5.172  65.025  1.00  0.00    -0.048 C  
HETATM    2  C   UNL     1      -7.613   6.662  64.824  1.00  0.00    -0.103 C  
HETATM    3  C   UNL     1      -8.596   6.796  66.158  1.00  0.00    -0.146 C  
HETATM    4  C   UNL     1      -9.002   7.582  67.567  1.00  0.00    -0.127 C  
HETATM    5  C   UNL     1      -7.724   8.078  68.308  1.00  0.00    -0.117 C  
HETATM    6  C   UNL     1      -7.760   8.355  69.790  1.00  0.00    -0.093 C  
HETATM    7  F   UNL     1      -6.454   8.424  70.198  1.00  0.00    -0.037 F  
HETATM    8  C   UNL     1      -8.463   7.238  70.563  1.00  0.00    -0.138 C  
HETATM    9  C   UNL     1      -8.225   7.105  71.886  1.00  0.00    -0.104 C  
HETATM   10  C   UNL     1      -8.857   8.331  72.486  1.00  0.00    -0.229 C  
HETATM   11  O   UNL     1      -8.425   8.827  73.517  1.00  0.00    -0.329 OA 
HETATM   12  C   UNL     1     -10.064   8.920  71.746  1.00  0.00    -0.407 C  
HETATM   13  C   UNL     1     -10.551   8.356  70.603  1.00  0.00    -0.234 C  
HETATM   14  C   UNL     1      -9.931   7.058  70.096  1.00  0.00    -0.189 C  
HETATM   15  C   UNL     1     -10.749   5.962  70.849  1.00  0.00    -0.338 C  
HETATM   16  C   UNL     1      -9.706   6.623  68.599  1.00  0.00    -0.129 C  
HETATM   17  C   UNL     1     -10.768   5.772  67.940  1.00  0.00    -0.213 C  
HETATM   18  C   UNL     1      -9.914   4.718  67.189  1.00  0.00    -0.224 C  
HETATM   19  O   UNL     1     -11.644   6.508  67.111  1.00  0.00    -0.743 OA 
HETATM   20  H   UNL     1     -12.311   5.974  66.697  1.00  0.00     0.000 HD 
HETATM   21  C   UNL     1      -8.834   5.306  66.256  1.00  0.00    -0.130 C  
HETATM   22  C   UNL     1      -7.100   4.989  66.484  1.00  0.00    -0.069 C  
HETATM   23  C   UNL     1      -9.602   5.048  64.799  1.00  0.00     0.185 C  
HETATM   24  O   UNL     1      -7.197   3.835  64.585  1.00  0.00    -0.063 OA 
HETATM   25  O   UNL     1      -6.794   3.688  66.877  1.00  0.00    -0.051 OA 
HETATM   26  C   UNL     1      -5.764   2.018  65.559  1.00  0.00    -0.017 C  
HETATM   27  C   UNL     1      -6.993   2.913  65.714  1.00  0.00    -0.053 C  
HETATM   28  C   UNL     1      -8.200   2.043  66.085  1.00  0.00    -0.089 C  
ENDROOT
BRANCH  22  29
HETATM   29  C   UNL     1      -5.832   5.914  67.032  1.00  0.00    -0.017 C  
HETATM   30  O   UNL     1      -5.199   6.716  66.313  1.00  0.00    -0.016 OA 
BRANCH  29  31
HETATM   31  C   UNL     1      -5.292   5.758  68.448  1.00  0.00    -0.004 C  
HETATM   32  O   UNL     1      -6.126   5.084  69.358  1.00  0.00    -0.020 OA 
HETATM   33  H   UNL     1      -5.790   4.987  70.240  1.00  0.00     0.000 HD 
ENDBRANCH  29  31
ENDBRANCH  22  29
TORSDOF 2
ENDMDL
MODEL       64
REMARK 921   NORMALIZED FREE ENERGY PREDICTED BY IDOCK:   -4.06 KCAL/MOL
REMARK 922        TOTAL FREE ENERGY PREDICTED BY IDOCK:   -4.38 KCAL/MOL
REMARK 923 INTER-LIGAND FREE ENERGY PREDICTED BY IDOCK:   -4.82 KCAL/MOL
REMARK 924 INTRA-LIGAND FREE ENERGY PREDICTED BY IDOCK:    0.43 KCAL/MOL
REMARK 927      BINDING AFFINITY PREDICTED BY RF-SCORE:    0.00 PKD
ROOT
HETATM    1  C   UNL     1      -7.888   7.681  66.290  1.00  0.00    -0.091 C  
HETATM    2  C   UNL     1      -7.532   8.009  67.937  1.00  0.00    -0.094 C  
HETATM    3  C   UNL     1      -7.532   9.668  68.059  1.00  0.00    -0.082 C  
HETATM    4  C   UNL     1      -8.205  11.061  68.669  1.00  0.00    -0.151 C  
HETATM    5  C   UNL     1      -9.756  10.935  68.744  1.00  0.00    -0.196 C  
HETATM    6  C   UNL     1     -10.623  12.169  68.773  1.00  0.00    -0.201 C  
HETATM    7  F   UNL     1     -11.895  11.751  68.486  1.00  0.00    -0.321 F  
HETATM    8  C   UNL     1     -10.190  13.194  67.724  1.00  0.00    -0.231 C  
HETATM    9  C   UNL     1     -11.070  14.137  67.323  1.00  0.00    -0.315 C  
HETATM   10  C   UNL     1     -11.240  15.004  68.541  1.00  0.00    -0.287 C  
HETATM   11  O   UNL     1     -12.286  15.603  68.752  1.00  0.00    -0.218 OA 
HETATM   12  C   UNL     1     -10.043  15.101  69.494  1.00  0.00    -0.222 C  
HETATM   13  C   UNL     1      -8.874  14.443  69.247  1.00  0.00     0.193 C  
HETATM   14  C   UNL     1      -8.726  13.657  67.948  1.00  0.00    -0.184 C  
HETATM   15  C   UNL     1      -8.197  14.732  66.947  1.00  0.00    -0.144 C  
HETATM   16  C   UNL     1      -7.958  12.300  67.729  1.00  0.00    -0.154 C  
HETATM   17  C   UNL     1      -6.524  12.365  67.252  1.00  0.00    -0.140 C  
HETATM   18  C   UNL     1      -6.494  11.249  66.177  1.00  0.00     0.027 C  
HETATM   19  O   UNL     1      -5.579  12.200  68.289  1.00  0.00    -0.052 OA 
HETATM   20  H   UNL     1      -4.678  12.241  67.989  1.00  0.00     0.000 HD 
HETATM   21  C   UNL     1      -6.990   9.869  66.662  1.00  0.00    -0.086 C  
HETATM   22  C   UNL     1      -8.394   9.053  65.941  1.00  0.00    -0.125 C  
HETATM   23  C   UNL     1      -5.510   9.119  66.824  1.00  0.00    -0.039 C  
HETATM   24  O   UNL     1      -6.953   7.545  65.168  1.00  0.00    -0.056 OA 
HETATM   25  O   UNL     1      -8.495   9.184  64.557  1.00  0.00    -0.163 OA 
HETATM   26  C   UNL     1      -8.121   7.496  62.945  1.00  0.00    -0.075 C  
HETATM   27  C   UNL     1      -7.484   8.340  64.049  1.00  0.00    -0.110 C  
HETATM   28  C   UNL     1      -6.500   9.331  63.414  1.00  0.00    -0.091 C  
ENDROOT
BRANCH  22  29
HETATM   29  C   UNL     1      -9.949   8.780  66.463  1.00  0.00    -0.290 C  
HETATM   30  O   UNL     1     -10.872   9.614  66.352  1.00  0.00     0.014 OA 
BRANCH  29  31
HETATM   31  C   UNL     1     -10.319   7.508  67.215  1.00  0.00    -0.296 C  
HETATM   32  O   UNL     1     -11.280   6.683  66.601  1.00  0.00    -0.635 OA 
HETATM   33  H   UNL     1     -11.511   5.891  67.070  1.00  0.00     0.000 HD 
ENDBRANCH  29  31
ENDBRANCH  22  29
TORSDOF 2
ENDMDL
MODEL       65
REMARK 921   NORMALIZED FREE ENERGY PREDICTED BY IDOCK:   -4.03 KCAL/MOL
REMARK 922        TOTAL FREE ENERGY PREDICTED BY IDOCK:   -4.35 KCAL/MOL
REMARK 923 INTER-LIGAND FREE ENERGY PREDICTED BY IDOCK:   -4.90 KCAL/MOL
REMARK 924 INTRA-LIGAND FREE ENERGY PREDICTED BY IDOCK:    0.55 KCAL/MOL
REMARK 927      BINDING AFFINITY PREDICTED BY RF-SCORE:    0.00 PKD
ROOT
HETATM    1  C   UNL     1     -10.210   8.613  70.842  1.00  0.00    -0.209 C  
HETATM    2  C   UNL     1     -10.976   9.121  69.392  1.00  0.00    -0.108 C  
HETATM    3  C   UNL     1      -9.987   8.584  68.167  1.00  0.00    -0.214 C  
HETATM    4  C   UNL     1      -9.743   7.599  66.850  1.00  0.00    -0.277 C  
HETATM    5  C   UNL     1     -10.438   6.220  67.057  1.00  0.00    -0.341 C  
HETATM    6  C   UNL     1      -9.975   5.007  66.289  1.00  0.00    -0.224 C  
HETATM    7  F   UNL     1     -10.515   3.921  66.925  1.00  0.00     0.027 F  
HETATM    8  C   UNL     1      -8.452   4.878  66.292  1.00  0.00    -0.111 C  
HETATM    9  C   UNL     1      -7.895   3.675  66.033  1.00  0.00    -0.089 C  
HETATM   10  C   UNL     1      -8.214   3.440  64.582  1.00  0.00    -0.090 C  
HETATM   11  O   UNL     1      -8.350   2.308  64.138  1.00  0.00    -0.081 OA 
HETATM   12  C   UNL     1      -8.357   4.682  63.695  1.00  0.00    -0.117 C  
HETATM   13  C   UNL     1      -8.191   5.942  64.191  1.00  0.00    -0.075 C  
HETATM   14  C   UNL     1      -7.772   6.114  65.648  1.00  0.00    -0.092 C  
HETATM   15  C   UNL     1      -6.213   6.064  65.571  1.00  0.00    -0.037 C  
HETATM   16  C   UNL     1      -8.222   7.244  66.649  1.00  0.00    -0.118 C  
HETATM   17  C   UNL     1      -7.338   8.463  66.786  1.00  0.00    -0.083 C  
HETATM   18  C   UNL     1      -7.325   8.679  68.321  1.00  0.00    -0.087 C  
HETATM   19  O   UNL     1      -7.798   9.576  66.046  1.00  0.00    -0.099 OA 
HETATM   20  H   UNL     1      -7.243  10.343  66.132  1.00  0.00     0.000 HD 
HETATM   21  C   UNL     1      -8.721   8.771  68.973  1.00  0.00    -0.133 C  
HETATM   22  C   UNL     1      -9.274   7.620  70.210  1.00  0.00    -0.157 C  
HETATM   23  C   UNL     1      -8.777  10.421  69.204  1.00  0.00    -0.173 C  
HETATM   24  O   UNL     1      -9.204   9.325  71.637  1.00  0.00    -0.313 OA 
HETATM   25  O   UNL     1      -8.296   7.238  71.127  1.00  0.00    -0.110 OA 
HETATM   26  C   UNL     1      -8.167   7.870  73.401  1.00  0.00    -0.246 C  
HETATM   27  C   UNL     1      -8.132   8.369  71.957  1.00  0.00    -0.141 C  
HETATM   28  C   UNL     1      -6.709   8.832  71.624  1.00  0.00    -0.078 C  
ENDROOT
BRANCH  22  29
HETATM   29  C   UNL     1     -10.366   6.367  70.197  1.00  0.00    -0.198 C  
HETATM   30  O   UNL     1     -10.081   5.205  69.838  1.00  0.00    -0.228 OA 
BRANCH  29  31
HETATM   31  C   UNL     1     -11.834   6.592  70.533  1.00  0.00    -0.370 C  
HETATM   32  O   UNL     1     -12.218   6.306  71.856  1.00  0.00    -0.329 OA 
HETATM   33  H   UNL     1     -13.133   6.447  72.065  1.00  0.00     0.000 HD 
ENDBRANCH  29  31
ENDBRANCH  22  29
TORSDOF 2
ENDMDL
MODEL       66
REMARK 921   NORMALIZED FREE ENERGY PREDICTED BY IDOCK:   -3.98 KCAL/MOL
REMARK 922        TOTAL FREE ENERGY PREDICTED BY IDOCK:   -4.30 KCAL/MOL
REMARK 923 INTER-LIGAND FREE ENERGY PREDICTED BY IDOCK:   -4.26 KCAL/MOL
REMARK 924 INTRA-LIGAND FREE ENERGY PREDICTED BY IDOCK:   -0.04 KCAL/MOL
REMARK 927      BINDING AFFINITY PREDICTED BY RF-SCORE:    0.00 PKD
ROOT
HETATM    1  C   UNL     1     -10.041   5.863  72.224  1.00  0.00    -0.182 C  
HETATM    2  C   UNL     1     -11.191   6.642  71.215  1.00  0.00    -0.329 C  
HETATM    3  C   UNL     1     -10.293   7.574  70.170  1.00  0.00    -0.217 C  
HETATM    4  C   UNL     1      -9.777   7.901  68.624  1.00  0.00    -0.162 C  
HETATM    5  C   UNL     1      -9.561   6.582  67.824  1.00  0.00    -0.125 C  
HETATM    6  C   UNL     1      -8.650   6.557  66.623  1.00  0.00    -0.118 C  
HETATM    7  F   UNL     1      -8.394   5.236  66.364  1.00  0.00    -0.107 F  
HETATM    8  C   UNL     1      -7.327   7.274  66.895  1.00  0.00    -0.092 C  
HETATM    9  C   UNL     1      -6.257   6.997  66.118  1.00  0.00    -0.039 C  
HETATM   10  C   UNL     1      -6.636   7.562  64.777  1.00  0.00    -0.040 C  
HETATM   11  O   UNL     1      -6.206   7.077  63.740  1.00  0.00    -0.042 OA 
HETATM   12  C   UNL     1      -7.580   8.770  64.776  1.00  0.00    -0.107 C  
HETATM   13  C   UNL     1      -8.047   9.317  65.936  1.00  0.00    -0.111 C  
HETATM   14  C   UNL     1      -7.552   8.763  67.268  1.00  0.00    -0.089 C  
HETATM   15  C   UNL     1      -6.257   9.595  67.533  1.00  0.00    -0.056 C  
HETATM   16  C   UNL     1      -8.368   8.606  68.605  1.00  0.00    -0.122 C  
HETATM   17  C   UNL     1      -8.284   9.720  69.623  1.00  0.00    -0.157 C  
HETATM   18  C   UNL     1      -8.133   8.932  70.950  1.00  0.00    -0.196 C  
HETATM   19  O   UNL     1      -9.393  10.596  69.591  1.00  0.00    -0.413 OA 
HETATM   20  H   UNL     1      -9.341  11.297  70.231  1.00  0.00     0.000 HD 
HETATM   21  C   UNL     1      -9.219   7.863  71.196  1.00  0.00    -0.165 C  
HETATM   22  C   UNL     1      -8.838   6.136  71.364  1.00  0.00    -0.139 C  
HETATM   23  C   UNL     1     -10.125   8.690  72.325  1.00  0.00    -0.363 C  
HETATM   24  O   UNL     1      -9.469   6.340  73.488  1.00  0.00    -0.137 OA 
HETATM   25  O   UNL     1      -7.672   5.865  72.079  1.00  0.00    -0.099 OA 
HETATM   26  C   UNL     1      -7.527   4.943  74.251  1.00  0.00    -0.086 C  
HETATM   27  C   UNL     1      -8.013   6.132  73.423  1.00  0.00    -0.106 C  
HETATM   28  C   UNL     1      -7.154   7.358  73.756  1.00  0.00    -0.096 C  
ENDROOT
BRANCH  22  29
HETATM   29  C   UNL     1      -9.053   4.816  70.376  1.00  0.00    -0.119 C  
HETATM   30  O   UNL     1     -10.115   4.160  70.320  1.00  0.00    -0.160 OA 
BRANCH  29  31
HETATM   31  C   UNL     1      -7.909   4.258  69.540  1.00  0.00    -0.057 C  
HETATM   32  O   UNL     1      -6.612   4.476  70.041  1.00  0.00    -0.031 OA 
HETATM   33  H   UNL     1      -5.899   4.127  69.520  1.00  0.00     0.000 HD 
ENDBRANCH  29  31
ENDBRANCH  22  29
TORSDOF 2
ENDMDL
MODEL       67
REMARK 921   NORMALIZED FREE ENERGY PREDICTED BY IDOCK:   -3.91 KCAL/MOL
REMARK 922        TOTAL FREE ENERGY PREDICTED BY IDOCK:   -4.22 KCAL/MOL
REMARK 923 INTER-LIGAND FREE ENERGY PREDICTED BY IDOCK:   -4.70 KCAL/MOL
REMARK 924 INTRA-LIGAND FREE ENERGY PREDICTED BY IDOCK:    0.47 KCAL/MOL
REMARK 927      BINDING AFFINITY PREDICTED BY RF-SCORE:    0.00 PKD
ROOT
HETATM    1  C   UNL     1      -8.507  11.020  67.733  1.00  0.00    -0.122 C  
HETATM    2  C   UNL     1      -6.951  10.309  67.876  1.00  0.00    -0.083 C  
HETATM    3  C   UNL     1      -7.235   8.696  68.165  1.00  0.00    -0.087 C  
HETATM    4  C   UNL     1      -7.129   7.111  67.672  1.00  0.00    -0.089 C  
HETATM    5  C   UNL     1      -7.341   6.997  66.133  1.00  0.00    -0.075 C  
HETATM    6  C   UNL     1      -7.787   5.695  65.517  1.00  0.00    -0.100 C  
HETATM    7  F   UNL     1      -8.215   5.997  64.251  1.00  0.00    -0.124 F  
HETATM    8  C   UNL     1      -8.943   5.063  66.294  1.00  0.00    -0.127 C  
HETATM    9  C   UNL     1      -9.728   4.153  65.678  1.00  0.00    -0.204 C  
HETATM   10  C   UNL     1      -8.817   2.973  65.480  1.00  0.00    -0.137 C  
HETATM   11  O   UNL     1      -8.972   2.202  64.544  1.00  0.00    -0.107 OA 
HETATM   12  C   UNL     1      -7.694   2.786  66.507  1.00  0.00    -0.076 C  
HETATM   13  C   UNL     1      -7.533   3.640  67.559  1.00  0.00    -0.067 C  
HETATM   14  C   UNL     1      -8.546   4.762  67.763  1.00  0.00    -0.103 C  
HETATM   15  C   UNL     1      -9.649   4.083  68.635  1.00  0.00    -0.190 C  
HETATM   16  C   UNL     1      -8.270   6.220  68.292  1.00  0.00    -0.115 C  
HETATM   17  C   UNL     1      -8.450   6.485  69.770  1.00  0.00    -0.131 C  
HETATM   18  C   UNL     1      -9.194   7.844  69.764  1.00  0.00    -0.150 C  
HETATM   19  O   UNL     1      -7.234   6.490  70.491  1.00  0.00    -0.070 OA 
HETATM   20  H   UNL     1      -7.347   6.656  71.420  1.00  0.00     0.000 HD 
HETATM   21  C   UNL     1      -8.501   8.958  68.950  1.00  0.00    -0.131 C  
HETATM   22  C   UNL     1      -9.272   9.739  67.551  1.00  0.00    -0.130 C  
HETATM   23  C   UNL     1      -7.867   9.832  70.220  1.00  0.00    -0.190 C  
HETATM   24  O   UNL     1      -9.350  11.583  68.793  1.00  0.00    -0.169 OA 
HETATM   25  O   UNL     1     -10.637   9.976  67.698  1.00  0.00    -0.232 OA 
HETATM   26  C   UNL     1     -11.684  12.073  68.005  1.00  0.00    -0.398 C  
HETATM   27  C   UNL     1     -10.712  11.057  68.603  1.00  0.00    -0.198 C  
HETATM   28  C   UNL     1     -11.355  10.421  69.842  1.00  0.00    -0.370 C  
ENDROOT
BRANCH  22  29
HETATM   29  C   UNL     1      -9.024   9.644  65.910  1.00  0.00    -0.167 C  
HETATM   30  O   UNL     1      -9.406   8.684  65.208  1.00  0.00    -0.067 OA 
BRANCH  29  31
HETATM   31  C   UNL     1      -8.210  10.697  65.170  1.00  0.00    -0.092 C  
HETATM   32  O   UNL     1      -8.920  11.500  64.258  1.00  0.00    -0.395 OA 
HETATM   33  H   UNL     1      -8.413  12.156  63.797  1.00  0.00     0.000 HD 
ENDBRANCH  29  31
ENDBRANCH  22  29
TORSDOF 2
ENDMDL
MODEL       68
REMARK 921   NORMALIZED FREE ENERGY PREDICTED BY IDOCK:   -3.81 KCAL/MOL
REMARK 922        TOTAL FREE ENERGY PREDICTED BY IDOCK:   -4.10 KCAL/MOL
REMARK 923 INTER-LIGAND FREE ENERGY PREDICTED BY IDOCK:   -4.99 KCAL/MOL
REMARK 924 INTRA-LIGAND FREE ENERGY PREDICTED BY IDOCK:    0.89 KCAL/MOL
REMARK 927      BINDING AFFINITY PREDICTED BY RF-SCORE:    0.00 PKD
ROOT
HETATM    1  C   UNL     1     -10.170  15.090  67.771  1.00  0.00    -0.236 C  
HETATM    2  C   UNL     1      -9.993  14.300  69.285  1.00  0.00     0.058 C  
HETATM    3  C   UNL     1      -9.954  12.676  68.926  1.00  0.00     0.090 C  
HETATM    4  C   UNL     1      -9.123  11.237  68.886  1.00  0.00    -0.064 C  
HETATM    5  C   UNL     1      -7.626  11.475  68.526  1.00  0.00    -0.130 C  
HETATM    6  C   UNL     1      -6.793  10.361  67.943  1.00  0.00    -0.070 C  
HETATM    7  F   UNL     1      -5.674  10.953  67.419  1.00  0.00    -0.043 F  
HETATM    8  C   UNL     1      -7.531   9.622  66.826  1.00  0.00    -0.094 C  
HETATM    9  C   UNL     1      -6.818   8.905  65.930  1.00  0.00    -0.072 C  
HETATM   10  C   UNL     1      -6.277   7.761  66.743  1.00  0.00    -0.049 C  
HETATM   11  O   UNL     1      -5.217   7.223  66.453  1.00  0.00    -0.022 OA 
HETATM   12  C   UNL     1      -7.116   7.304  67.942  1.00  0.00    -0.085 C  
HETATM   13  C   UNL     1      -8.305   7.897  68.253  1.00  0.00    -0.124 C  
HETATM   14  C   UNL     1      -8.851   8.987  67.337  1.00  0.00    -0.125 C  
HETATM   15  C   UNL     1      -9.665   8.178  66.278  1.00  0.00    -0.223 C  
HETATM   16  C   UNL     1      -9.650  10.279  67.752  1.00  0.00    -0.171 C  
HETATM   17  C   UNL     1     -11.161  10.217  67.727  1.00  0.00    -0.269 C  
HETATM   18  C   UNL     1     -11.526  11.575  67.074  1.00  0.00    -0.290 C  
HETATM   19  O   UNL     1     -11.736  10.012  69.002  1.00  0.00    -0.488 OA 
HETATM   20  H   UNL     1     -12.685   9.973  68.987  1.00  0.00     0.000 HD 
HETATM   21  C   UNL     1     -10.905  12.811  67.758  1.00  0.00    -0.248 C  
HETATM   22  C   UNL     1      -9.796  13.913  66.913  1.00  0.00    -0.268 C  
HETATM   23  C   UNL     1     -12.261  13.355  68.561  1.00  0.00    -0.132 C  
HETATM   24  O   UNL     1     -11.408  15.438  67.067  1.00  0.00    -0.288 OA 
HETATM   25  O   UNL     1     -10.132  14.169  65.585  1.00  0.00    -0.312 OA 
HETATM   26  C   UNL     1     -10.992  16.188  64.706  1.00  0.00    -0.330 C  
HETATM   27  C   UNL     1     -11.252  15.025  65.663  1.00  0.00    -0.327 C  
HETATM   28  C   UNL     1     -12.384  14.158  65.098  1.00  0.00    -0.460 C  
ENDROOT
BRANCH  22  29
HETATM   29  C   UNL     1      -8.157  14.173  67.001  1.00  0.00    -0.017 C  
HETATM   30  O   UNL     1      -7.303  13.285  66.795  1.00  0.00     0.300 OA 
BRANCH  29  31
HETATM   31  C   UNL     1      -7.591  15.515  67.448  1.00  0.00    -0.201 C  
HETATM   32  O   UNL     1      -6.349  15.878  66.897  1.00  0.00    -0.301 OA 
HETATM   33  H   UNL     1      -5.996  16.714  67.176  1.00  0.00     0.000 HD 
ENDBRANCH  29  31
ENDBRANCH  22  29
TORSDOF 2
ENDMDL
MODEL       69
REMARK 921   NORMALIZED FREE ENERGY PREDICTED BY IDOCK:   -3.79 KCAL/MOL
REMARK 922        TOTAL FREE ENERGY PREDICTED BY IDOCK:   -4.09 KCAL/MOL
REMARK 923 INTER-LIGAND FREE ENERGY PREDICTED BY IDOCK:   -4.49 KCAL/MOL
REMARK 924 INTRA-LIGAND FREE ENERGY PREDICTED BY IDOCK:    0.41 KCAL/MOL
REMARK 927      BINDING AFFINITY PREDICTED BY RF-SCORE:    0.00 PKD
ROOT
HETATM    1  C   UNL     1      -8.280   7.920  66.049  1.00  0.00    -0.122 C  
HETATM    2  C   UNL     1      -8.598   8.100  67.727  1.00  0.00    -0.131 C  
HETATM    3  C   UNL     1      -7.884   9.540  68.153  1.00  0.00    -0.083 C  
HETATM    4  C   UNL     1      -8.027  11.109  68.686  1.00  0.00    -0.145 C  
HETATM    5  C   UNL     1      -9.302  11.778  68.093  1.00  0.00    -0.190 C  
HETATM    6  C   UNL     1      -9.404  13.280  67.998  1.00  0.00    -0.218 C  
HETATM    7  F   UNL     1     -10.440  13.540  67.141  1.00  0.00    -0.249 F  
HETATM    8  C   UNL     1      -8.126  13.904  67.436  1.00  0.00    -0.190 C  
HETATM    9  C   UNL     1      -8.181  15.141  66.898  1.00  0.00    -0.234 C  
HETATM   10  C   UNL     1      -8.457  16.030  68.079  1.00  0.00    -0.164 C  
HETATM   11  O   UNL     1      -9.072  17.080  67.953  1.00  0.00    -0.225 OA 
HETATM   12  C   UNL     1      -7.927  15.559  69.439  1.00  0.00    -0.229 C  
HETATM   13  C   UNL     1      -7.229  14.395  69.573  1.00  0.00    -0.051 C  
HETATM   14  C   UNL     1      -6.896  13.583  68.325  1.00  0.00    -0.108 C  
HETATM   15  C   UNL     1      -5.543  14.205  67.855  1.00  0.00    -0.099 C  
HETATM   16  C   UNL     1      -6.840  12.016  68.186  1.00  0.00    -0.069 C  
HETATM   17  C   UNL     1      -5.501  11.335  68.361  1.00  0.00    -0.042 C  
HETATM   18  C   UNL     1      -5.511  10.306  67.202  1.00  0.00    -0.041 C  
HETATM   19  O   UNL     1      -5.323  10.766  69.642  1.00  0.00    -0.038 OA 
HETATM   20  H   UNL     1      -4.482  10.338  69.752  1.00  0.00     0.000 HD 
HETATM   21  C   UNL     1      -6.747   9.382  67.167  1.00  0.00    -0.076 C  
HETATM   22  C   UNL     1      -7.873   9.345  65.792  1.00  0.00    -0.099 C  
HETATM   23  C   UNL     1      -6.039   8.001  67.775  1.00  0.00    -0.047 C  
HETATM   24  O   UNL     1      -7.124   7.286  65.406  1.00  0.00    -0.058 OA 
HETATM   25  O   UNL     1      -7.266   9.447  64.542  1.00  0.00    -0.098 OA 
HETATM   26  C   UNL     1      -7.038   7.728  62.936  1.00  0.00    -0.083 C  
HETATM   27  C   UNL     1      -6.657   8.189  64.342  1.00  0.00    -0.065 C  
HETATM   28  C   UNL     1      -5.161   8.527  64.369  1.00  0.00    -0.043 C  
ENDROOT
BRANCH  22  29
HETATM   29  C   UNL     1      -9.421   9.908  65.568  1.00  0.00    -0.252 C  
HETATM   30  O   UNL     1     -10.377   9.619  66.318  1.00  0.00    -0.239 OA 
BRANCH  29  31
HETATM   31  C   UNL     1      -9.791  10.742  64.349  1.00  0.00    -0.315 C  
HETATM   32  O   UNL     1      -9.745  10.080  63.108  1.00  0.00    -0.491 OA 
HETATM   33  H   UNL     1      -9.975  10.601  62.348  1.00  0.00     0.000 HD 
ENDBRANCH  29  31
ENDBRANCH  22  29
TORSDOF 2
ENDMDL
MODEL       70
REMARK 921   NORMALIZED FREE ENERGY PREDICTED BY IDOCK:   -3.74 KCAL/MOL
REMARK 922        TOTAL FREE ENERGY PREDICTED BY IDOCK:   -4.03 KCAL/MOL
REMARK 923 INTER-LIGAND FREE ENERGY PREDICTED BY IDOCK:   -4.48 KCAL/MOL
REMARK 924 INTRA-LIGAND FREE ENERGY PREDICTED BY IDOCK:    0.45 KCAL/MOL
REMARK 927      BINDING AFFINITY PREDICTED BY RF-SCORE:    0.00 PKD
ROOT
HETATM    1  C   UNL     1     -10.504   8.374  72.295  1.00  0.00    -0.337 C  
HETATM    2  C   UNL     1      -8.894   7.988  72.753  1.00  0.00    -0.277 C  
HETATM    3  C   UNL     1      -8.640   6.444  72.191  1.00  0.00    -0.125 C  
HETATM    4  C   UNL     1      -7.839   5.403  71.172  1.00  0.00    -0.104 C  
HETATM    5  C   UNL     1      -7.576   6.077  69.792  1.00  0.00    -0.081 C  
HETATM    6  C   UNL     1      -7.338   5.236  68.563  1.00  0.00    -0.071 C  
HETATM    7  F   UNL     1      -7.491   6.074  67.490  1.00  0.00    -0.076 F  
HETATM    8  C   UNL     1      -8.348   4.094  68.450  1.00  0.00    -0.099 C  
HETATM    9  C   UNL     1      -8.554   3.517  67.246  1.00  0.00    -0.119 C  
HETATM   10  C   UNL     1      -7.260   2.805  66.966  1.00  0.00    -0.057 C  
HETATM   11  O   UNL     1      -6.868   2.626  65.821  1.00  0.00    -0.042 OA 
HETATM   12  C   UNL     1      -6.463   2.314  68.181  1.00  0.00    -0.029 C  
HETATM   13  C   UNL     1      -6.910   2.502  69.456  1.00  0.00    -0.033 C  
HETATM   14  C   UNL     1      -8.276   3.145  69.675  1.00  0.00    -0.072 C  
HETATM   15  C   UNL     1      -9.247   1.922  69.639  1.00  0.00    -0.172 C  
HETATM   16  C   UNL     1      -8.700   4.130  70.828  1.00  0.00    -0.120 C  
HETATM   17  C   UNL     1      -9.351   3.542  72.060  1.00  0.00    -0.122 C  
HETATM   18  C   UNL     1     -10.507   4.542  72.319  1.00  0.00    -0.215 C  
HETATM   19  O   UNL     1      -8.460   3.388  73.146  1.00  0.00    -0.080 OA 
HETATM   20  H   UNL     1      -8.869   3.019  73.921  1.00  0.00     0.000 HD 
HETATM   21  C   UNL     1     -10.075   6.021  72.415  1.00  0.00    -0.199 C  
HETATM   22  C   UNL     1     -10.673   7.264  71.294  1.00  0.00    -0.225 C  
HETATM   23  C   UNL     1     -10.165   6.196  74.070  1.00  0.00    -0.309 C  
HETATM   24  O   UNL     1     -11.744   8.133  73.040  1.00  0.00    -0.286 OA 
HETATM   25  O   UNL     1     -12.017   7.137  70.949  1.00  0.00    -0.326 OA 
HETATM   26  C   UNL     1     -13.794   8.531  71.647  1.00  0.00    -0.437 C  
HETATM   27  C   UNL     1     -12.718   7.548  72.104  1.00  0.00    -0.133 C  
HETATM   28  C   UNL     1     -13.392   6.253  72.573  1.00  0.00     0.565 C  
ENDROOT
BRANCH  22  29
HETATM   29  C   UNL     1      -9.980   8.091  70.030  1.00  0.00    -0.191 C  
HETATM   30  O   UNL     1      -9.946   7.660  68.857  1.00  0.00    -0.167 OA 
BRANCH  29  31
HETATM   31  C   UNL     1      -9.239   9.403  70.252  1.00  0.00    -0.245 C  
HETATM   32  O   UNL     1      -9.610  10.473  69.417  1.00  0.00    -0.293 OA 
HETATM   33  H   UNL     1      -9.148  11.290  69.556  1.00  0.00     0.000 HD 
ENDBRANCH  29  31
ENDBRANCH  22  29
TORSDOF 2
ENDMDL
MODEL       71
REMARK 921   NORMALIZED FREE ENERGY PREDICTED BY IDOCK:   -3.72 KCAL/MOL
REMARK 922        TOTAL FREE ENERGY PREDICTED BY IDOCK:   -4.00 KCAL/MOL
REMARK 923 INTER-LIGAND FREE ENERGY PREDICTED BY IDOCK:   -3.99 KCAL/MOL
REMARK 924 INTRA-LIGAND FREE ENERGY PREDICTED BY IDOCK:   -0.01 KCAL/MOL
REMARK 927      BINDING AFFINITY PREDICTED BY RF-SCORE:    0.00 PKD
ROOT
HETATM    1  C   UNL     1      -9.488   4.284  67.275  1.00  0.00    -0.181 C  
HETATM    2  C   UNL     1     -10.669   5.496  66.983  1.00  0.00    -0.286 C  
HETATM    3  C   UNL     1     -10.088   6.860  67.735  1.00  0.00    -0.199 C  
HETATM    4  C   UNL     1      -9.504   8.414  67.635  1.00  0.00    -0.176 C  
HETATM    5  C   UNL     1      -8.616   8.588  66.367  1.00  0.00    -0.136 C  
HETATM    6  C   UNL     1      -7.590   9.691  66.297  1.00  0.00    -0.101 C  
HETATM    7  F   UNL     1      -6.758   9.376  65.256  1.00  0.00    -0.072 F  
HETATM    8  C   UNL     1      -6.765   9.784  67.581  1.00  0.00    -0.069 C  
HETATM    9  C   UNL     1      -5.564  10.400  67.547  1.00  0.00    -0.044 C  
HETATM   10  C   UNL     1      -5.912  11.844  67.307  1.00  0.00    -0.134 C  
HETATM   11  O   UNL     1      -5.146  12.591  66.713  1.00  0.00    -0.330 OA 
HETATM   12  C   UNL     1      -7.264  12.328  67.844  1.00  0.00    -0.106 C  
HETATM   13  C   UNL     1      -8.109  11.496  68.518  1.00  0.00    -0.146 C  
HETATM   14  C   UNL     1      -7.660  10.069  68.816  1.00  0.00    -0.083 C  
HETATM   15  C   UNL     1      -6.907  10.216  70.176  1.00  0.00    -0.146 C  
HETATM   16  C   UNL     1      -8.547   8.767  68.835  1.00  0.00    -0.136 C  
HETATM   17  C   UNL     1      -9.119   8.318  70.160  1.00  0.00    -0.147 C  
HETATM   18  C   UNL     1      -8.876   6.787  70.111  1.00  0.00    -0.141 C  
HETATM   19  O   UNL     1     -10.471   8.686  70.343  1.00  0.00    -0.198 OA 
HETATM   20  H   UNL     1     -10.831   8.403  71.176  1.00  0.00     0.000 HD 
HETATM   21  C   UNL     1      -9.430   6.083  68.854  1.00  0.00    -0.140 C  
HETATM   22  C   UNL     1      -8.387   5.212  67.710  1.00  0.00    -0.105 C  
HETATM   23  C   UNL     1     -10.779   5.384  69.540  1.00  0.00    -0.249 C  
HETATM   24  O   UNL     1      -9.397   3.357  68.408  1.00  0.00    -0.165 OA 
HETATM   25  O   UNL     1      -7.358   4.483  68.302  1.00  0.00    -0.063 OA 
HETATM   26  C   UNL     1      -7.207   2.129  68.470  1.00  0.00    -0.044 C  
HETATM   27  C   UNL     1      -8.003   3.368  68.880  1.00  0.00    -0.053 C  
HETATM   28  C   UNL     1      -7.815   3.607  70.383  1.00  0.00    -0.047 C  
ENDROOT
BRANCH  22  29
HETATM   29  C   UNL     1      -7.850   5.545  66.172  1.00  0.00    -0.100 C  
HETATM   30  O   UNL     1      -8.453   5.189  65.137  1.00  0.00    -0.134 OA 
BRANCH  29  31
HETATM   31  C   UNL     1      -6.510   6.227  65.931  1.00  0.00    -0.046 C  
HETATM   32  O   UNL     1      -5.409   5.690  66.622  1.00  0.00    -0.011 OA 
HETATM   33  H   UNL     1      -4.573   6.116  66.472  1.00  0.00     0.000 HD 
ENDBRANCH  29  31
ENDBRANCH  22  29
TORSDOF 2
ENDMDL
MODEL       72
REMARK 921   NORMALIZED FREE ENERGY PREDICTED BY IDOCK:   -3.65 KCAL/MOL
REMARK 922        TOTAL FREE ENERGY PREDICTED BY IDOCK:   -3.92 KCAL/MOL
REMARK 923 INTER-LIGAND FREE ENERGY PREDICTED BY IDOCK:   -4.72 KCAL/MOL
REMARK 924 INTRA-LIGAND FREE ENERGY PREDICTED BY IDOCK:    0.80 KCAL/MOL
REMARK 927      BINDING AFFINITY PREDICTED BY RF-SCORE:    0.00 PKD
ROOT
HETATM    1  C   UNL     1      -7.963   4.383  72.653  1.00  0.00    -0.086 C  
HETATM    2  C   UNL     1      -6.763   5.590  72.424  1.00  0.00    -0.071 C  
HETATM    3  C   UNL     1      -7.210   6.390  71.037  1.00  0.00    -0.078 C  
HETATM    4  C   UNL     1      -7.732   7.780  70.289  1.00  0.00    -0.089 C  
HETATM    5  C   UNL     1      -8.728   8.556  71.201  1.00  0.00    -0.215 C  
HETATM    6  C   UNL     1      -9.707   9.536  70.604  1.00  0.00    -0.245 C  
HETATM    7  F   UNL     1     -10.648   9.775  71.571  1.00  0.00    -0.377 F  
HETATM    8  C   UNL     1     -10.401   8.966  69.367  1.00  0.00    -0.217 C  
HETATM    9  C   UNL     1     -11.572   9.506  68.964  1.00  0.00     0.374 C  
HETATM   10  C   UNL     1     -11.186  10.879  68.488  1.00  0.00    -0.274 C  
HETATM   11  O   UNL     1     -11.971  11.815  68.547  1.00  0.00    -0.406 OA 
HETATM   12  C   UNL     1      -9.768  11.044  67.926  1.00  0.00    -0.183 C  
HETATM   13  C   UNL     1      -8.900   9.994  67.848  1.00  0.00    -0.125 C  
HETATM   14  C   UNL     1      -9.380   8.605  68.256  1.00  0.00    -0.143 C  
HETATM   15  C   UNL     1      -9.993   8.045  66.933  1.00  0.00    -0.338 C  
HETATM   16  C   UNL     1      -8.553   7.477  68.980  1.00  0.00    -0.136 C  
HETATM   17  C   UNL     1      -7.878   6.431  68.123  1.00  0.00    -0.105 C  
HETATM   18  C   UNL     1      -8.191   5.128  68.901  1.00  0.00    -0.088 C  
HETATM   19  O   UNL     1      -6.499   6.672  67.923  1.00  0.00    -0.051 OA 
HETATM   20  H   UNL     1      -6.075   6.015  67.384  1.00  0.00     0.000 HD 
HETATM   21  C   UNL     1      -7.791   5.151  70.391  1.00  0.00    -0.075 C  
HETATM   22  C   UNL     1      -8.976   4.958  71.702  1.00  0.00    -0.138 C  
HETATM   23  C   UNL     1      -6.414   4.216  70.291  1.00  0.00    -0.032 C  
HETATM   24  O   UNL     1      -7.986   3.013  72.130  1.00  0.00    -0.054 OA 
HETATM   25  O   UNL     1      -9.975   4.020  71.448  1.00  0.00    -0.185 OA 
HETATM   26  C   UNL     1     -10.211   1.897  72.458  1.00  0.00    -0.221 C  
HETATM   27  C   UNL     1      -9.326   2.772  71.572  1.00  0.00    -0.129 C  
HETATM   28  C   UNL     1      -9.359   2.226  70.139  1.00  0.00    -0.179 C  
ENDROOT
BRANCH  22  29
HETATM   29  C   UNL     1      -9.642   6.009  72.804  1.00  0.00    -0.155 C  
HETATM   30  O   UNL     1     -10.812   6.440  72.730  1.00  0.00    -0.228 OA 
BRANCH  29  31
HETATM   31  C   UNL     1      -8.811   6.601  73.935  1.00  0.00    -0.145 C  
HETATM   32  O   UNL     1      -9.335   7.753  74.551  1.00  0.00    -0.325 OA 
HETATM   33  H   UNL     1      -8.818   8.122  75.256  1.00  0.00     0.000 HD 
ENDBRANCH  29  31
ENDBRANCH  22  29
TORSDOF 2
ENDMDL
MODEL       73
REMARK 921   NORMALIZED FREE ENERGY PREDICTED BY IDOCK:   -3.61 KCAL/MOL
REMARK 922        TOTAL FREE ENERGY PREDICTED BY IDOCK:   -3.89 KCAL/MOL
REMARK 923 INTER-LIGAND FREE ENERGY PREDICTED BY IDOCK:   -4.02 KCAL/MOL
REMARK 924 INTRA-LIGAND FREE ENERGY PREDICTED BY IDOCK:    0.14 KCAL/MOL
REMARK 927      BINDING AFFINITY PREDICTED BY RF-SCORE:    0.00 PKD
ROOT
HETATM    1  C   UNL     1      -8.331  10.227  69.746  1.00  0.00    -0.080 C  
HETATM    2  C   UNL     1      -8.756   9.007  70.876  1.00  0.00    -0.280 C  
HETATM    3  C   UNL     1      -9.250   7.714  69.954  1.00  0.00    -0.147 C  
HETATM    4  C   UNL     1      -9.018   6.151  69.436  1.00  0.00    -0.128 C  
HETATM    5  C   UNL     1      -7.499   5.848  69.265  1.00  0.00    -0.084 C  
HETATM    6  C   UNL     1      -7.040   4.732  68.361  1.00  0.00    -0.057 C  
HETATM    7  F   UNL     1      -5.702   4.938  68.147  1.00  0.00    -0.014 F  
HETATM    8  C   UNL     1      -7.766   4.753  67.015  1.00  0.00    -0.091 C  
HETATM    9  C   UNL     1      -7.209   4.123  65.958  1.00  0.00    -0.068 C  
HETATM   10  C   UNL     1      -7.296   2.667  66.326  1.00  0.00    -0.067 C  
HETATM   11  O   UNL     1      -6.475   1.858  65.915  1.00  0.00    -0.023 OA 
HETATM   12  C   UNL     1      -8.461   2.250  67.232  1.00  0.00    -0.102 C  
HETATM   13  C   UNL     1      -9.383   3.153  67.676  1.00  0.00    -0.247 C  
HETATM   14  C   UNL     1      -9.299   4.596  67.192  1.00  0.00    -0.156 C  
HETATM   15  C   UNL     1     -10.132   4.571  65.871  1.00  0.00    -0.279 C  
HETATM   16  C   UNL     1      -9.630   5.903  68.006  1.00  0.00    -0.122 C  
HETATM   17  C   UNL     1     -11.021   6.483  67.883  1.00  0.00    -0.294 C  
HETATM   18  C   UNL     1     -10.725   7.999  67.750  1.00  0.00    -0.174 C  
HETATM   19  O   UNL     1     -11.867   6.148  68.964  1.00  0.00    -0.149 OA 
HETATM   20  H   UNL     1     -12.741   6.513  68.887  1.00  0.00     0.000 HD 
HETATM   21  C   UNL     1      -9.837   8.586  68.867  1.00  0.00    -0.181 C  
HETATM   22  C   UNL     1      -8.259   9.333  68.539  1.00  0.00    -0.114 C  
HETATM   23  C   UNL     1     -11.025   9.363  69.742  1.00  0.00    -0.234 C  
HETATM   24  O   UNL     1      -9.191  11.258  69.154  1.00  0.00    -0.053 OA 
HETATM   25  O   UNL     1      -8.211  10.105  67.379  1.00  0.00    -0.114 OA 
HETATM   26  C   UNL     1      -8.077  12.461  67.252  1.00  0.00    -0.182 C  
HETATM   27  C   UNL     1      -8.928  11.276  67.706  1.00  0.00    -0.141 C  
HETATM   28  C   UNL     1     -10.167  11.179  66.807  1.00  0.00    -0.272 C  
ENDROOT
BRANCH  22  29
HETATM   29  C   UNL     1      -6.690   8.850  68.800  1.00  0.00    -0.054 C  
HETATM   30  O   UNL     1      -6.047   9.119  69.837  1.00  0.00    -0.037 OA 
BRANCH  29  31
HETATM   31  C   UNL     1      -5.895   8.125  67.722  1.00  0.00    -0.042 C  
HETATM   32  O   UNL     1      -5.130   8.937  66.865  1.00  0.00    -0.034 OA 
HETATM   33  H   UNL     1      -4.635   8.485  66.193  1.00  0.00     0.000 HD 
ENDBRANCH  29  31
ENDBRANCH  22  29
TORSDOF 2
ENDMDL
MODEL       74
REMARK 921   NORMALIZED FREE ENERGY PREDICTED BY IDOCK:   -3.57 KCAL/MOL
REMARK 922        TOTAL FREE ENERGY PREDICTED BY IDOCK:   -3.83 KCAL/MOL
REMARK 923 INTER-LIGAND FREE ENERGY PREDICTED BY IDOCK:   -4.38 KCAL/MOL
REMARK 924 INTRA-LIGAND FREE ENERGY PREDICTED BY IDOCK:    0.55 KCAL/MOL
REMARK 927      BINDING AFFINITY PREDICTED BY RF-SCORE:    0.00 PKD
ROOT
HETATM    1  C   UNL     1      -9.344   5.405  71.552  1.00  0.00    -0.147 C  
HETATM    2  C   UNL     1     -10.198   4.348  70.503  1.00  0.00    -0.081 C  
HETATM    3  C   UNL     1     -10.044   5.020  68.990  1.00  0.00    -0.238 C  
HETATM    4  C   UNL     1      -9.459   4.933  67.436  1.00  0.00    -0.156 C  
HETATM    5  C   UNL     1      -8.052   4.263  67.413  1.00  0.00    -0.099 C  
HETATM    6  C   UNL     1      -7.108   4.506  66.263  1.00  0.00    -0.075 C  
HETATM    7  F   UNL     1      -5.873   4.092  66.687  1.00  0.00    -0.020 F  
HETATM    8  C   UNL     1      -7.034   5.986  65.889  1.00  0.00    -0.062 C  
HETATM    9  C   UNL     1      -5.964   6.436  65.197  1.00  0.00    -0.029 C  
HETATM   10  C   UNL     1      -6.118   5.792  63.847  1.00  0.00    -0.025 C  
HETATM   11  O   UNL     1      -5.144   5.527  63.156  1.00  0.00    -0.012 OA 
HETATM   12  C   UNL     1      -7.548   5.489  63.383  1.00  0.00    -0.070 C  
HETATM   13  C   UNL     1      -8.632   5.799  64.151  1.00  0.00     0.097 C  
HETATM   14  C   UNL     1      -8.420   6.539  65.467  1.00  0.00    -0.139 C  
HETATM   15  C   UNL     1      -8.445   8.039  65.032  1.00  0.00    -0.089 C  
HETATM   16  C   UNL     1      -9.223   6.359  66.810  1.00  0.00    -0.154 C  
HETATM   17  C   UNL     1     -10.389   7.286  67.069  1.00  0.00    -0.306 C  
HETATM   18  C   UNL     1     -10.184   7.649  68.562  1.00  0.00    -0.220 C  
HETATM   19  O   UNL     1     -11.644   6.704  66.780  1.00  0.00    -0.718 OA 
HETATM   20  H   UNL     1     -12.378   7.286  66.943  1.00  0.00     0.000 HD 
HETATM   21  C   UNL     1     -10.049   6.440  69.511  1.00  0.00    -0.203 C  
HETATM   22  C   UNL     1      -8.590   6.146  70.482  1.00  0.00    -0.138 C  
HETATM   23  C   UNL     1     -11.574   6.485  70.185  1.00  0.00    -0.466 C  
HETATM   24  O   UNL     1      -9.850   6.585  72.263  1.00  0.00    -0.158 OA 
HETATM   25  O   UNL     1      -8.009   7.293  71.019  1.00  0.00    -0.096 OA 
HETATM   26  C   UNL     1      -8.009   7.949  73.290  1.00  0.00    -0.209 C  
HETATM   27  C   UNL     1      -8.879   7.673  72.064  1.00  0.00    -0.117 C  
HETATM   28  C   UNL     1      -9.463   8.997  71.558  1.00  0.00    -0.316 C  
ENDROOT
BRANCH  22  29
HETATM   29  C   UNL     1      -7.351   5.043  70.377  1.00  0.00    -0.055 C  
HETATM   30  O   UNL     1      -6.467   5.078  69.495  1.00  0.00    -0.035 OA 
BRANCH  29  31
HETATM   31  C   UNL     1      -7.279   3.841  71.310  1.00  0.00    -0.033 C  
HETATM   32  O   UNL     1      -6.022   3.218  71.420  1.00  0.00    -0.013 OA 
HETATM   33  H   UNL     1      -5.978   2.468  72.002  1.00  0.00     0.000 HD 
ENDBRANCH  29  31
ENDBRANCH  22  29
TORSDOF 2
ENDMDL
MODEL       75
REMARK 921   NORMALIZED FREE ENERGY PREDICTED BY IDOCK:   -3.49 KCAL/MOL
REMARK 922        TOTAL FREE ENERGY PREDICTED BY IDOCK:   -3.75 KCAL/MOL
REMARK 923 INTER-LIGAND FREE ENERGY PREDICTED BY IDOCK:   -4.11 KCAL/MOL
REMARK 924 INTRA-LIGAND FREE ENERGY PREDICTED BY IDOCK:    0.37 KCAL/MOL
REMARK 927      BINDING AFFINITY PREDICTED BY RF-SCORE:    0.00 PKD
ROOT
HETATM    1  C   UNL     1      -9.134  11.723  67.798  1.00  0.00    -0.178 C  
HETATM    2  C   UNL     1      -7.498  11.744  67.278  1.00  0.00    -0.151 C  
HETATM    3  C   UNL     1      -7.062  10.144  67.152  1.00  0.00    -0.089 C  
HETATM    4  C   UNL     1      -6.597   8.854  66.211  1.00  0.00    -0.066 C  
HETATM    5  C   UNL     1      -7.323   8.889  64.833  1.00  0.00    -0.093 C  
HETATM    6  C   UNL     1      -7.478   7.630  64.018  1.00  0.00    -0.107 C  
HETATM    7  F   UNL     1      -8.431   7.900  63.072  1.00  0.00    -0.127 F  
HETATM    8  C   UNL     1      -7.947   6.452  64.873  1.00  0.00    -0.124 C  
HETATM    9  C   UNL     1      -8.531   5.394  64.269  1.00  0.00    -0.092 C  
HETATM   10  C   UNL     1      -7.410   4.769  63.485  1.00  0.00    -0.054 C  
HETATM   11  O   UNL     1      -7.625   4.155  62.450  1.00  0.00    -0.047 OA 
HETATM   12  C   UNL     1      -5.993   4.937  64.048  1.00  0.00    -0.018 C  
HETATM   13  C   UNL     1      -5.758   5.611  65.211  1.00  0.00    -0.017 C  
HETATM   14  C   UNL     1      -6.943   6.139  66.013  1.00  0.00    -0.062 C  
HETATM   15  C   UNL     1      -7.315   4.927  66.926  1.00  0.00    -0.085 C  
HETATM   16  C   UNL     1      -7.023   7.475  66.842  1.00  0.00    -0.079 C  
HETATM   17  C   UNL     1      -6.708   7.414  68.320  1.00  0.00    -0.054 C  
HETATM   18  C   UNL     1      -7.827   8.301  68.923  1.00  0.00    -0.111 C  
HETATM   19  O   UNL     1      -5.397   7.838  68.634  1.00  0.00    -0.025 OA 
HETATM   20  H   UNL     1      -5.199   7.800  69.562  1.00  0.00     0.000 HD 
HETATM   21  C   UNL     1      -7.938   9.712  68.307  1.00  0.00    -0.096 C  
HETATM   22  C   UNL     1      -9.404  10.279  67.477  1.00  0.00    -0.148 C  
HETATM   23  C   UNL     1      -7.223  10.575  69.540  1.00  0.00    -0.137 C  
HETATM   24  O   UNL     1      -9.651  11.700  69.171  1.00  0.00     0.034 OA 
HETATM   25  O   UNL     1     -10.599   9.876  68.069  1.00  0.00    -0.211 OA 
HETATM   26  C   UNL     1     -12.119  11.242  69.259  1.00  0.00    -0.372 C  
HETATM   27  C   UNL     1     -10.701  10.671  69.232  1.00  0.00    -0.238 C  
HETATM   28  C   UNL     1     -10.556   9.643  70.361  1.00  0.00    -0.354 C  
ENDROOT
BRANCH  22  29
HETATM   29  C   UNL     1      -9.782  10.545  65.880  1.00  0.00    -0.217 C  
HETATM   30  O   UNL     1     -10.140   9.642  65.095  1.00  0.00    -0.193 OA 
BRANCH  29  31
HETATM   31  C   UNL     1      -9.611  11.918  65.244  1.00  0.00    -0.138 C  
HETATM   32  O   UNL     1      -9.215  11.931  63.894  1.00  0.00    -0.467 OA 
HETATM   33  H   UNL     1      -9.109  12.787  63.498  1.00  0.00     0.000 HD 
ENDBRANCH  29  31
ENDBRANCH  22  29
TORSDOF 2
ENDMDL
MODEL       76
REMARK 921   NORMALIZED FREE ENERGY PREDICTED BY IDOCK:   -3.16 KCAL/MOL
REMARK 922        TOTAL FREE ENERGY PREDICTED BY IDOCK:   -3.38 KCAL/MOL
REMARK 923 INTER-LIGAND FREE ENERGY PREDICTED BY IDOCK:   -3.49 KCAL/MOL
REMARK 924 INTRA-LIGAND FREE ENERGY PREDICTED BY IDOCK:    0.11 KCAL/MOL
REMARK 927      BINDING AFFINITY PREDICTED BY RF-SCORE:    0.00 PKD
ROOT
HETATM    1  C   UNL     1      -8.989   6.584  65.904  1.00  0.00    -0.085 C  
HETATM    2  C   UNL     1      -8.991   4.871  65.774  1.00  0.00    -0.142 C  
HETATM    3  C   UNL     1      -8.111   4.336  67.079  1.00  0.00    -0.101 C  
HETATM    4  C   UNL     1      -8.044   3.512  68.522  1.00  0.00    -0.077 C  
HETATM    5  C   UNL     1      -9.353   3.725  69.339  1.00  0.00    -0.245 C  
HETATM    6  C   UNL     1      -9.362   3.527  70.834  1.00  0.00    -0.147 C  
HETATM    7  F   UNL     1     -10.512   4.114  71.291  1.00  0.00    -0.186 F  
HETATM    8  C   UNL     1      -8.163   4.198  71.505  1.00  0.00    -0.087 C  
HETATM    9  C   UNL     1      -8.223   4.485  72.823  1.00  0.00    -0.099 C  
HETATM   10  C   UNL     1      -8.220   3.133  73.482  1.00  0.00    -0.074 C  
HETATM   11  O   UNL     1      -8.771   2.950  74.559  1.00  0.00    -0.074 OA 
HETATM   12  C   UNL     1      -7.493   2.004  72.742  1.00  0.00    -0.033 C  
HETATM   13  C   UNL     1      -6.868   2.214  71.548  1.00  0.00    -0.027 C  
HETATM   14  C   UNL     1      -6.820   3.628  70.976  1.00  0.00    -0.032 C  
HETATM   15  C   UNL     1      -5.531   4.224  71.625  1.00  0.00    -0.007 C  
HETATM   16  C   UNL     1      -6.903   4.054  69.462  1.00  0.00    -0.042 C  
HETATM   17  C   UNL     1      -5.606   4.259  68.711  1.00  0.00    -0.013 C  
HETATM   18  C   UNL     1      -5.896   5.561  67.922  1.00  0.00    -0.017 C  
HETATM   19  O   UNL     1      -5.245   3.157  67.903  1.00  0.00    -0.011 OA 
HETATM   20  H   UNL     1      -4.431   3.286  67.431  1.00  0.00     0.000 HD 
HETATM   21  C   UNL     1      -7.182   5.529  67.068  1.00  0.00    -0.078 C  
HETATM   22  C   UNL     1      -8.533   6.652  67.335  1.00  0.00    -0.120 C  
HETATM   23  C   UNL     1      -6.478   5.323  65.571  1.00  0.00    -0.040 C  
HETATM   24  O   UNL     1      -8.014   7.536  65.360  1.00  0.00    -0.109 OA 
HETATM   25  O   UNL     1      -8.152   7.955  67.650  1.00  0.00    -0.121 OA 
HETATM   26  C   UNL     1      -8.336   9.858  66.260  1.00  0.00    -0.125 C  
HETATM   27  C   UNL     1      -7.680   8.488  66.431  1.00  0.00    -0.098 C  
HETATM   28  C   UNL     1      -6.182   8.683  66.701  1.00  0.00    -0.058 C  
ENDROOT
BRANCH  22  29
HETATM   29  C   UNL     1     -10.052   6.477  67.988  1.00  0.00    -0.150 C  
HETATM   30  O   UNL     1     -11.016   5.975  67.372  1.00  0.00    -0.308 OA 
BRANCH  29  31
HETATM   31  C   UNL     1     -10.388   7.026  69.368  1.00  0.00    -0.207 C  
HETATM   32  O   UNL     1     -11.718   6.854  69.795  1.00  0.00    -0.581 OA 
HETATM   33  H   UNL     1     -11.928   7.197  70.656  1.00  0.00     0.000 HD 
ENDBRANCH  29  31
ENDBRANCH  22  29
TORSDOF 2
ENDMDL
MODEL       77
REMARK 921   NORMALIZED FREE ENERGY PREDICTED BY IDOCK:   -3.15 KCAL/MOL
REMARK 922        TOTAL FREE ENERGY PREDICTED BY IDOCK:   -3.37 KCAL/MOL
REMARK 923 INTER-LIGAND FREE ENERGY PREDICTED BY IDOCK:   -3.97 KCAL/MOL
REMARK 924 INTRA-LIGAND FREE ENERGY PREDICTED BY IDOCK:    0.61 KCAL/MOL
REMARK 927      BINDING AFFINITY PREDICTED BY RF-SCORE:    0.00 PKD
ROOT
HETATM    1  C   UNL     1      -8.166   8.517  67.340  1.00  0.00    -0.109 C  
HETATM    2  C   UNL     1      -7.644   9.365  65.941  1.00  0.00    -0.099 C  
HETATM    3  C   UNL     1      -8.159  10.930  66.165  1.00  0.00    -0.160 C  
HETATM    4  C   UNL     1      -7.802  12.537  66.398  1.00  0.00     0.602 C  
HETATM    5  C   UNL     1      -6.541  12.696  67.300  1.00  0.00    -0.109 C  
HETATM    6  C   UNL     1      -6.303  13.975  68.062  1.00  0.00    -0.142 C  
HETATM    7  F   UNL     1      -5.350  13.689  69.003  1.00  0.00    -0.070 F  
HETATM    8  C   UNL     1      -7.568  14.463  68.769  1.00  0.00    -0.131 C  
HETATM    9  C   UNL     1      -7.452  15.320  69.806  1.00  0.00    -0.122 C  
HETATM   10  C   UNL     1      -6.957  16.588  69.165  1.00  0.00    -0.225 C  
HETATM   11  O   UNL     1      -6.259  17.380  69.783  1.00  0.00    -0.250 OA 
HETATM   12  C   UNL     1      -7.373  16.836  67.711  1.00  0.00    -0.165 C  
HETATM   13  C   UNL     1      -8.164  15.957  67.030  1.00  0.00    -0.255 C  
HETATM   14  C   UNL     1      -8.715  14.737  67.762  1.00  0.00    -0.173 C  
HETATM   15  C   UNL     1     -10.044  15.273  68.382  1.00  0.00    -0.220 C  
HETATM   16  C   UNL     1      -8.941  13.291  67.182  1.00  0.00    -0.229 C  
HETATM   17  C   UNL     1     -10.313  12.948  66.645  1.00  0.00    -0.251 C  
HETATM   18  C   UNL     1     -10.536  11.526  67.220  1.00  0.00    -0.266 C  
HETATM   19  O   UNL     1     -10.400  13.027  65.236  1.00  0.00    -0.294 OA 
HETATM   20  H   UNL     1     -11.262  12.811  64.898  1.00  0.00     0.000 HD 
HETATM   21  C   UNL     1      -9.410  10.517  66.908  1.00  0.00    -0.181 C  
HETATM   22  C   UNL     1      -8.456   9.728  68.183  1.00  0.00    -0.114 C  
HETATM   23  C   UNL     1     -10.178   9.654  65.707  1.00  0.00    -0.172 C  
HETATM   24  O   UNL     1      -9.445   7.833  67.564  1.00  0.00    -0.137 OA 
HETATM   25  O   UNL     1      -9.187   9.358  69.310  1.00  0.00    -0.148 OA 
HETATM   26  C   UNL     1      -9.766   7.160  69.962  1.00  0.00    -0.171 C  
HETATM   27  C   UNL     1      -9.937   8.237  68.891  1.00  0.00    -0.186 C  
HETATM   28  C   UNL     1     -11.379   8.757  68.933  1.00  0.00     0.517 C  
ENDROOT
BRANCH  22  29
HETATM   29  C   UNL     1      -6.895   9.915  68.724  1.00  0.00    -0.054 C  
HETATM   30  O   UNL     1      -5.896   9.891  67.975  1.00  0.00    -0.040 OA 
BRANCH  29  31
HETATM   31  C   UNL     1      -6.580  10.025  70.210  1.00  0.00    -0.127 C  
HETATM   32  O   UNL     1      -6.510  11.329  70.733  1.00  0.00    -0.492 OA 
HETATM   33  H   UNL     1      -6.313  11.398  71.660  1.00  0.00     0.000 HD 
ENDBRANCH  29  31
ENDBRANCH  22  29
TORSDOF 2
ENDMDL
MODEL       78
REMARK 921   NORMALIZED FREE ENERGY PREDICTED BY IDOCK:   -3.14 KCAL/MOL
REMARK 922        TOTAL FREE ENERGY PREDICTED BY IDOCK:   -3.35 KCAL/MOL
REMARK 923 INTER-LIGAND FREE ENERGY PREDICTED BY IDOCK:   -3.16 KCAL/MOL
REMARK 924 INTRA-LIGAND FREE ENERGY PREDICTED BY IDOCK:   -0.19 KCAL/MOL
REMARK 927      BINDING AFFINITY PREDICTED BY RF-SCORE:    0.00 PKD
ROOT
HETATM    1  C   UNL     1     -10.116  15.264  67.259  1.00  0.00    -0.236 C  
HETATM    2  C   UNL     1      -8.687  14.936  66.364  1.00  0.00    -0.117 C  
HETATM    3  C   UNL     1      -8.180  13.441  66.888  1.00  0.00     0.040 C  
HETATM    4  C   UNL     1      -7.890  11.835  66.573  1.00  0.00     0.020 C  
HETATM    5  C   UNL     1      -8.960  11.263  65.596  1.00  0.00    -0.173 C  
HETATM    6  C   UNL     1      -9.232   9.781  65.543  1.00  0.00    -0.215 C  
HETATM    7  F   UNL     1     -10.423   9.633  64.882  1.00  0.00    -0.095 F  
HETATM    8  C   UNL     1      -9.362   9.174  66.941  1.00  0.00    -0.199 C  
HETATM    9  C   UNL     1     -10.005   7.995  67.088  1.00  0.00    -0.303 C  
HETATM   10  C   UNL     1      -9.092   7.007  66.415  1.00  0.00    -0.160 C  
HETATM   11  O   UNL     1      -9.531   5.993  65.890  1.00  0.00    -0.098 OA 
HETATM   12  C   UNL     1      -7.593   7.332  66.422  1.00  0.00    -0.092 C  
HETATM   13  C   UNL     1      -7.106   8.457  67.020  1.00  0.00    -0.079 C  
HETATM   14  C   UNL     1      -8.067   9.372  67.771  1.00  0.00    -0.107 C  
HETATM   15  C   UNL     1      -8.085   8.757  69.207  1.00  0.00    -0.110 C  
HETATM   16  C   UNL     1      -8.022  10.944  67.865  1.00  0.00    -0.111 C  
HETATM   17  C   UNL     1      -7.317  11.565  69.049  1.00  0.00    -0.094 C  
HETATM   18  C   UNL     1      -8.296  12.698  69.447  1.00  0.00     1.096 C  
HETATM   19  O   UNL     1      -6.006  12.004  68.756  1.00  0.00    -0.053 OA 
HETATM   20  H   UNL     1      -5.563  12.395  69.500  1.00  0.00     0.000 HD 
HETATM   21  C   UNL     1      -8.677  13.658  68.300  1.00  0.00    -0.171 C  
HETATM   22  C   UNL     1     -10.351  13.858  67.738  1.00  0.00    -0.240 C  
HETATM   23  C   UNL     1      -7.723  14.954  68.737  1.00  0.00    -0.139 C  
HETATM   24  O   UNL     1     -10.240  15.921  68.564  1.00  0.00    -0.217 OA 
HETATM   25  O   UNL     1     -11.308  13.856  68.751  1.00  0.00    -0.244 OA 
HETATM   26  C   UNL     1     -12.550  15.711  69.528  1.00  0.00     0.103 C  
HETATM   27  C   UNL     1     -11.153  15.108  69.385  1.00  0.00    -0.276 C  
HETATM   28  C   UNL     1     -10.630  14.725  70.775  1.00  0.00     0.343 C  
ENDROOT
BRANCH  22  29
HETATM   29  C   UNL     1     -11.165  13.366  66.375  1.00  0.00    -0.304 C  
HETATM   30  O   UNL     1     -11.218  14.035  65.321  1.00  0.00    -0.302 OA 
BRANCH  29  31
HETATM   31  C   UNL     1     -11.997  12.090  66.367  1.00  0.00    -0.013 C  
HETATM   32  O   UNL     1     -11.980  11.332  67.552  1.00  0.00    -0.612 OA 
HETATM   33  H   UNL     1     -12.499  10.537  67.547  1.00  0.00     0.000 HD 
ENDBRANCH  29  31
ENDBRANCH  22  29
TORSDOF 2
ENDMDL
MODEL       79
REMARK 921   NORMALIZED FREE ENERGY PREDICTED BY IDOCK:   -3.13 KCAL/MOL
REMARK 922        TOTAL FREE ENERGY PREDICTED BY IDOCK:   -3.35 KCAL/MOL
REMARK 923 INTER-LIGAND FREE ENERGY PREDICTED BY IDOCK:   -4.05 KCAL/MOL
REMARK 924 INTRA-LIGAND FREE ENERGY PREDICTED BY IDOCK:    0.70 KCAL/MOL
REMARK 927      BINDING AFFINITY PREDICTED BY RF-SCORE:    0.00 PKD
ROOT
HETATM    1  C   UNL     1      -8.304   3.315  66.543  1.00  0.00    -0.103 C  
HETATM    2  C   UNL     1      -9.951   3.763  66.362  1.00  0.00     0.044 C  
HETATM    3  C   UNL     1     -10.124   5.154  67.258  1.00  0.00    -0.235 C  
HETATM    4  C   UNL     1     -10.428   6.787  67.325  1.00  0.00    -0.352 C  
HETATM    5  C   UNL     1      -9.811   7.513  66.092  1.00  0.00     0.067 C  
HETATM    6  C   UNL     1      -9.503   8.989  66.149  1.00  0.00    -0.253 C  
HETATM    7  F   UNL     1      -8.672   9.248  65.092  1.00  0.00    -0.148 F  
HETATM    8  C   UNL     1      -8.790   9.372  67.446  1.00  0.00    -0.135 C  
HETATM    9  C   UNL     1      -8.080  10.521  67.490  1.00  0.00    -0.107 C  
HETATM   10  C   UNL     1      -9.131  11.592  67.396  1.00  0.00    -0.169 C  
HETATM   11  O   UNL     1      -8.885  12.679  66.892  1.00  0.00    -0.210 OA 
HETATM   12  C   UNL     1     -10.516  11.256  67.963  1.00  0.00    -0.215 C  
HETATM   13  C   UNL     1     -10.782  10.047  68.537  1.00  0.00    -0.264 C  
HETATM   14  C   UNL     1      -9.651   9.036  68.692  1.00  0.00    -0.158 C  
HETATM   15  C   UNL     1      -9.024   9.421  70.070  1.00  0.00    -0.234 C  
HETATM   16  C   UNL     1      -9.740   7.469  68.566  1.00  0.00    -0.159 C  
HETATM   17  C   UNL     1      -9.942   6.665  69.831  1.00  0.00    -0.171 C  
HETATM   18  C   UNL     1      -8.948   5.493  69.629  1.00  0.00    -0.134 C  
HETATM   19  O   UNL     1     -11.282   6.264  70.034  1.00  0.00    -0.350 OA 
HETATM   20  H   UNL     1     -11.409   5.759  70.829  1.00  0.00     0.000 HD 
HETATM   21  C   UNL     1      -9.114   4.726  68.299  1.00  0.00    -0.145 C  
HETATM   22  C   UNL     1      -7.820   4.631  67.084  1.00  0.00    -0.094 C  
HETATM   23  C   UNL     1      -9.880   3.369  68.892  1.00  0.00     0.183 C  
HETATM   24  O   UNL     1      -7.701   2.465  67.575  1.00  0.00    -0.060 OA 
HETATM   25  O   UNL     1      -6.538   4.486  67.611  1.00  0.00    -0.044 OA 
HETATM   26  C   UNL     1      -5.191   2.545  67.539  1.00  0.00    -0.012 C  
HETATM   27  C   UNL     1      -6.493   3.149  68.064  1.00  0.00    -0.037 C  
HETATM   28  C   UNL     1      -6.391   3.308  69.586  1.00  0.00    -0.029 C  
ENDROOT
BRANCH  22  29
HETATM   29  C   UNL     1      -7.597   5.337  65.596  1.00  0.00    -0.082 C  
HETATM   30  O   UNL     1      -6.929   6.377  65.417  1.00  0.00    -0.050 OA 
BRANCH  29  31
HETATM   31  C   UNL     1      -8.294   4.800  64.353  1.00  0.00    -0.126 C  
HETATM   32  O   UNL     1      -9.111   5.711  63.658  1.00  0.00    -0.270 OA 
HETATM   33  H   UNL     1      -9.545   5.376  62.883  1.00  0.00     0.000 HD 
ENDBRANCH  29  31
ENDBRANCH  22  29
TORSDOF 2
ENDMDL
MODEL       80
REMARK 921   NORMALIZED FREE ENERGY PREDICTED BY IDOCK:   -3.01 KCAL/MOL
REMARK 922        TOTAL FREE ENERGY PREDICTED BY IDOCK:   -3.22 KCAL/MOL
REMARK 923 INTER-LIGAND FREE ENERGY PREDICTED BY IDOCK:   -4.58 KCAL/MOL
REMARK 924 INTRA-LIGAND FREE ENERGY PREDICTED BY IDOCK:    1.36 KCAL/MOL
REMARK 927      BINDING AFFINITY PREDICTED BY RF-SCORE:    0.00 PKD
ROOT
HETATM    1  C   UNL     1      -9.254   8.340  65.772  1.00  0.00    -0.078 C  
HETATM    2  C   UNL     1     -10.875   8.651  66.246  1.00  0.00     1.042 C  
HETATM    3  C   UNL     1     -10.816  10.088  67.081  1.00  0.00    -0.240 C  
HETATM    4  C   UNL     1     -11.227  11.695  67.200  1.00  0.00    -0.371 C  
HETATM    5  C   UNL     1     -11.218  12.371  65.796  1.00  0.00    -0.370 C  
HETATM    6  C   UNL     1     -11.058  13.865  65.668  1.00  0.00    -0.298 C  
HETATM    7  F   UNL     1     -10.740  14.106  64.358  1.00  0.00    -0.399 F  
HETATM    8  C   UNL     1      -9.933  14.396  66.557  1.00  0.00    -0.291 C  
HETATM    9  C   UNL     1      -9.378  15.594  66.270  1.00  0.00    -0.358 C  
HETATM   10  C   UNL     1     -10.481  16.575  66.560  1.00  0.00    -0.270 C  
HETATM   11  O   UNL     1     -10.560  17.636  65.958  1.00  0.00    -0.338 OA 
HETATM   12  C   UNL     1     -11.491  16.180  67.645  1.00  0.00     0.038 C  
HETATM   13  C   UNL     1     -11.391  15.001  68.324  1.00  0.00    -0.331 C  
HETATM   14  C   UNL     1     -10.197  14.091  68.055  1.00  0.00    -0.238 C  
HETATM   15  C   UNL     1      -9.120  14.623  69.052  1.00  0.00    -0.097 C  
HETATM   16  C   UNL     1     -10.176  12.516  68.036  1.00  0.00    -0.225 C  
HETATM   17  C   UNL     1      -9.784  11.797  69.308  1.00  0.00     0.429 C  
HETATM   18  C   UNL     1      -8.842  10.689  68.772  1.00  0.00    -0.161 C  
HETATM   19  O   UNL     1     -10.891  11.313  70.043  1.00  0.00    -0.466 OA 
HETATM   20  H   UNL     1     -10.645  10.861  70.842  1.00  0.00     0.000 HD 
HETATM   21  C   UNL     1      -9.441   9.815  67.649  1.00  0.00    -0.164 C  
HETATM   22  C   UNL     1      -8.727   9.726  66.024  1.00  0.00    -0.141 C  
HETATM   23  C   UNL     1      -9.776   8.454  68.551  1.00  0.00    -0.169 C  
HETATM   24  O   UNL     1      -8.214   7.617  66.511  1.00  0.00    -0.117 OA 
HETATM   25  O   UNL     1      -7.334   9.715  66.002  1.00  0.00    -0.095 OA 
HETATM   26  C   UNL     1      -5.942   7.879  65.475  1.00  0.00    -0.038 C  
HETATM   27  C   UNL     1      -6.984   8.423  66.451  1.00  0.00    -0.074 C  
HETATM   28  C   UNL     1      -6.308   8.702  67.799  1.00  0.00    -0.057 C  
ENDROOT
BRANCH  22  29
HETATM   29  C   UNL     1      -9.178  10.333  64.544  1.00  0.00    -0.250 C  
HETATM   30  O   UNL     1      -9.661  11.473  64.382  1.00  0.00    -0.219 OA 
BRANCH  29  31
HETATM   31  C   UNL     1      -9.121   9.476  63.286  1.00  0.00    -0.113 C  
HETATM   32  O   UNL     1      -7.840   9.237  62.757  1.00  0.00    -0.117 OA 
HETATM   33  H   UNL     1      -7.804   8.702  61.973  1.00  0.00     0.000 HD 
ENDBRANCH  29  31
ENDBRANCH  22  29
TORSDOF 2
ENDMDL
MODEL       81
REMARK 921   NORMALIZED FREE ENERGY PREDICTED BY IDOCK:   -2.64 KCAL/MOL
REMARK 922        TOTAL FREE ENERGY PREDICTED BY IDOCK:   -2.80 KCAL/MOL
REMARK 923 INTER-LIGAND FREE ENERGY PREDICTED BY IDOCK:   -2.71 KCAL/MOL
REMARK 924 INTRA-LIGAND FREE ENERGY PREDICTED BY IDOCK:   -0.09 KCAL/MOL
REMARK 927      BINDING AFFINITY PREDICTED BY RF-SCORE:    0.00 PKD
ROOT
HETATM    1  C   UNL     1      -9.635   7.181  67.200  1.00  0.00    -0.151 C  
HETATM    2  C   UNL     1     -10.444   7.990  68.480  1.00  0.00    -0.200 C  
HETATM    3  C   UNL     1      -9.354   9.112  69.043  1.00  0.00    -0.151 C  
HETATM    4  C   UNL     1      -8.920  10.702  69.268  1.00  0.00    -0.098 C  
HETATM    5  C   UNL     1      -9.379  11.574  68.061  1.00  0.00    -0.175 C  
HETATM    6  C   UNL     1      -8.704  12.890  67.769  1.00  0.00    -0.188 C  
HETATM    7  F   UNL     1      -9.068  13.233  66.494  1.00  0.00    -0.237 F  
HETATM    8  C   UNL     1      -7.180  12.777  67.837  1.00  0.00    -0.120 C  
HETATM    9  C   UNL     1      -6.425  13.705  67.211  1.00  0.00     0.254 C  
HETATM   10  C   UNL     1      -6.670  14.958  68.006  1.00  0.00    -0.141 C  
HETATM   11  O   UNL     1      -6.605  16.063  67.485  1.00  0.00    -0.147 OA 
HETATM   12  C   UNL     1      -6.999  14.781  69.493  1.00  0.00    -0.176 C  
HETATM   13  C   UNL     1      -7.057  13.548  70.074  1.00  0.00     0.609 C  
HETATM   14  C   UNL     1      -6.704  12.320  69.240  1.00  0.00    -0.075 C  
HETATM   15  C   UNL     1      -5.157  12.206  69.424  1.00  0.00    -0.065 C  
HETATM   16  C   UNL     1      -7.357  10.889  69.315  1.00  0.00    -0.125 C  
HETATM   17  C   UNL     1      -6.693   9.850  70.190  1.00  0.00    -0.112 C  
HETATM   18  C   UNL     1      -6.749   8.589  69.290  1.00  0.00    -0.050 C  
HETATM   19  O   UNL     1      -7.317   9.695  71.449  1.00  0.00    -0.302 OA 
HETATM   20  H   UNL     1      -6.899   9.042  72.000  1.00  0.00     0.000 HD 
HETATM   21  C   UNL     1      -8.154   8.236  68.758  1.00  0.00    -0.115 C  
HETATM   22  C   UNL     1      -8.533   8.189  67.022  1.00  0.00    -0.120 C  
HETATM   23  C   UNL     1      -8.490   6.961  69.778  1.00  0.00    -0.133 C  
HETATM   24  O   UNL     1      -8.779   5.992  67.272  1.00  0.00    -0.107 OA 
HETATM   25  O   UNL     1      -7.525   7.654  66.222  1.00  0.00    -0.080 OA 
HETATM   26  C   UNL     1      -7.551   5.560  65.124  1.00  0.00    -0.080 C  
HETATM   27  C   UNL     1      -7.570   6.266  66.480  1.00  0.00    -0.094 C  
HETATM   28  C   UNL     1      -6.237   6.009  67.194  1.00  0.00    -0.029 C  
ENDROOT
BRANCH  22  29
HETATM   29  C   UNL     1      -9.399   9.187  66.014  1.00  0.00    -0.238 C  
HETATM   30  O   UNL     1     -10.642   9.137  65.892  1.00  0.00     0.227 OA 
BRANCH  29  31
HETATM   31  C   UNL     1      -8.703  10.172  65.085  1.00  0.00    -0.173 C  
HETATM   32  O   UNL     1      -7.743   9.627  64.212  1.00  0.00    -0.117 OA 
HETATM   33  H   UNL     1      -7.308  10.241  63.633  1.00  0.00     0.000 HD 
ENDBRANCH  29  31
ENDBRANCH  22  29
TORSDOF 2
ENDMDL
MODEL       82
REMARK 921   NORMALIZED FREE ENERGY PREDICTED BY IDOCK:   -2.32 KCAL/MOL
REMARK 922        TOTAL FREE ENERGY PREDICTED BY IDOCK:   -2.44 KCAL/MOL
REMARK 923 INTER-LIGAND FREE ENERGY PREDICTED BY IDOCK:   -3.67 KCAL/MOL
REMARK 924 INTRA-LIGAND FREE ENERGY PREDICTED BY IDOCK:    1.24 KCAL/MOL
REMARK 927      BINDING AFFINITY PREDICTED BY RF-SCORE:    0.00 PKD
ROOT
HETATM    1  C   UNL     1      -5.547  18.975  67.233  1.00  0.00    -0.164 C  
HETATM    2  C   UNL     1      -6.048  19.081  68.872  1.00  0.00    -0.251 C  
HETATM    3  C   UNL     1      -7.638  18.592  68.872  1.00  0.00    -0.283 C  
HETATM    4  C   UNL     1      -8.801  17.497  69.334  1.00  0.00     0.427 C  
HETATM    5  C   UNL     1      -8.230  16.048  69.316  1.00  0.00    -0.212 C  
HETATM    6  C   UNL     1      -9.156  14.863  69.197  1.00  0.00    -0.140 C  
HETATM    7  F   UNL     1      -8.369  13.794  68.859  1.00  0.00    -0.128 F  
HETATM    8  C   UNL     1     -10.208  15.069  68.107  1.00  0.00    -0.221 C  
HETATM    9  C   UNL     1     -10.829  13.990  67.583  1.00  0.00    -0.270 C  
HETATM   10  C   UNL     1     -11.669  13.476  68.720  1.00  0.00    -0.337 C  
HETATM   11  O   UNL     1     -11.945  12.288  68.818  1.00  0.00    -0.302 OA 
HETATM   12  C   UNL     1     -12.161  14.510  69.740  1.00  0.00    -0.360 C  
HETATM   13  C   UNL     1     -11.863  15.836  69.619  1.00  0.00    -0.352 C  
HETATM   14  C   UNL     1     -11.090  16.312  68.393  1.00  0.00    -0.362 C  
HETATM   15  C   UNL     1     -12.222  16.590  67.353  1.00  0.00     1.847 C  
HETATM   16  C   UNL     1     -10.009  17.455  68.324  1.00  0.00    -0.320 C  
HETATM   17  C   UNL     1     -10.467  18.843  67.939  1.00  0.00    -0.388 C  
HETATM   18  C   UNL     1      -9.356  19.285  66.952  1.00  0.00    -0.371 C  
HETATM   19  O   UNL     1     -10.639  19.706  69.045  1.00  0.00    -0.490 OA 
HETATM   20  H   UNL     1     -10.927  20.578  68.803  1.00  0.00     0.000 HD 
HETATM   21  C   UNL     1      -7.918  19.169  67.502  1.00  0.00    -0.284 C  
HETATM   22  C   UNL     1      -6.691  18.125  66.752  1.00  0.00    -0.191 C  
HETATM   23  C   UNL     1      -7.644  20.783  67.815  1.00  0.00    -0.168 C  
HETATM   24  O   UNL     1      -5.635  20.000  66.187  1.00  0.00    -0.167 OA 
HETATM   25  O   UNL     1      -6.716  18.107  65.359  1.00  0.00    -0.437 OA 
HETATM   26  C   UNL     1      -5.133  19.086  63.902  1.00  0.00    -0.260 C  
HETATM   27  C   UNL     1      -6.181  19.357  64.981  1.00  0.00    -0.279 C  
HETATM   28  C   UNL     1      -7.383  20.063  64.341  1.00  0.00     1.138 C  
ENDROOT
BRANCH  22  29
HETATM   29  C   UNL     1      -6.000  16.677  67.190  1.00  0.00    -0.163 C  
HETATM   30  O   UNL     1      -6.213  15.601  66.592  1.00  0.00     0.008 OA 
BRANCH  29  31
HETATM   31  C   UNL     1      -5.130  16.559  68.434  1.00  0.00    -0.100 C  
HETATM   32  O   UNL     1      -5.347  15.423  69.235  1.00  0.00    -0.096 OA 
HETATM   33  H   UNL     1      -4.804  15.350  70.011  1.00  0.00     0.000 HD 
ENDBRANCH  29  31
ENDBRANCH  22  29
TORSDOF 2
ENDMDL
MODEL       83
REMARK 921   NORMALIZED FREE ENERGY PREDICTED BY IDOCK:   -2.32 KCAL/MOL
REMARK 922        TOTAL FREE ENERGY PREDICTED BY IDOCK:   -2.44 KCAL/MOL
REMARK 923 INTER-LIGAND FREE ENERGY PREDICTED BY IDOCK:   -2.85 KCAL/MOL
REMARK 924 INTRA-LIGAND FREE ENERGY PREDICTED BY IDOCK:    0.41 KCAL/MOL
REMARK 927      BINDING AFFINITY PREDICTED BY RF-SCORE:    0.00 PKD
ROOT
HETATM    1  C   UNL     1      -8.244  11.408  65.779  1.00  0.00     0.153 C  
HETATM    2  C   UNL     1      -6.587  10.966  65.861  1.00  0.00    -0.048 C  
HETATM    3  C   UNL     1      -6.361  10.414  67.414  1.00  0.00    -0.058 C  
HETATM    4  C   UNL     1      -6.007   9.166  68.454  1.00  0.00    -0.045 C  
HETATM    5  C   UNL     1      -6.621   7.829  67.939  1.00  0.00    -0.056 C  
HETATM    6  C   UNL     1      -6.884   6.692  68.893  1.00  0.00    -0.062 C  
HETATM    7  F   UNL     1      -7.723   5.829  68.238  1.00  0.00    -0.086 F  
HETATM    8  C   UNL     1      -7.567   7.169  70.175  1.00  0.00    -0.091 C  
HETATM    9  C   UNL     1      -8.242   6.277  70.931  1.00  0.00    -0.126 C  
HETATM   10  C   UNL     1      -7.162   5.385  71.479  1.00  0.00    -0.076 C  
HETATM   11  O   UNL     1      -7.383   4.213  71.750  1.00  0.00    -0.056 OA 
HETATM   12  C   UNL     1      -5.779   6.017  71.682  1.00  0.00    -0.026 C  
HETATM   13  C   UNL     1      -5.540   7.329  71.391  1.00  0.00    -0.035 C  
HETATM   14  C   UNL     1      -6.698   8.208  70.931  1.00  0.00    -0.038 C  
HETATM   15  C   UNL     1      -7.293   8.735  72.276  1.00  0.00     0.033 C  
HETATM   16  C   UNL     1      -6.657   9.374  69.873  1.00  0.00    -0.055 C  
HETATM   17  C   UNL     1      -6.460  10.785  70.379  1.00  0.00    -0.074 C  
HETATM   18  C   UNL     1      -7.491  11.576  69.533  1.00  0.00     0.199 C  
HETATM   19  O   UNL     1      -5.130  11.246  70.255  1.00  0.00    -0.066 OA 
HETATM   20  H   UNL     1      -5.006  12.133  70.572  1.00  0.00     0.000 HD 
HETATM   21  C   UNL     1      -7.367  11.374  68.007  1.00  0.00    -0.090 C  
HETATM   22  C   UNL     1      -8.681  10.689  67.026  1.00  0.00    -0.128 C  
HETATM   23  C   UNL     1      -6.633  12.821  67.627  1.00  0.00    -0.150 C  
HETATM   24  O   UNL     1      -8.857  12.703  66.097  1.00  0.00     0.008 OA 
HETATM   25  O   UNL     1      -9.959  11.107  67.392  1.00  0.00    -0.176 OA 
HETATM   26  C   UNL     1     -11.363  12.581  66.191  1.00  0.00    -0.388 C  
HETATM   27  C   UNL     1     -10.037  12.442  66.937  1.00  0.00    -0.219 C  
HETATM   28  C   UNL     1     -10.111  13.244  68.242  1.00  0.00    -0.250 C  
ENDROOT
BRANCH  22  29
HETATM   29  C   UNL     1      -8.905   9.219  66.284  1.00  0.00    -0.146 C  
HETATM   30  O   UNL     1      -9.356   8.211  66.868  1.00  0.00    -0.153 OA 
BRANCH  29  31
HETATM   31  C   UNL     1      -8.468   8.983  64.844  1.00  0.00    -0.178 C  
HETATM   32  O   UNL     1      -8.451   7.644  64.413  1.00  0.00    -0.365 OA 
HETATM   33  H   UNL     1      -8.179   7.498  63.515  1.00  0.00     0.000 HD 
ENDBRANCH  29  31
ENDBRANCH  22  29
TORSDOF 2
ENDMDL
MODEL       84
REMARK 921   NORMALIZED FREE ENERGY PREDICTED BY IDOCK:   -2.18 KCAL/MOL
REMARK 922        TOTAL FREE ENERGY PREDICTED BY IDOCK:   -2.29 KCAL/MOL
REMARK 923 INTER-LIGAND FREE ENERGY PREDICTED BY IDOCK:   -2.51 KCAL/MOL
REMARK 924 INTRA-LIGAND FREE ENERGY PREDICTED BY IDOCK:    0.22 KCAL/MOL
REMARK 927      BINDING AFFINITY PREDICTED BY RF-SCORE:    0.00 PKD
ROOT
HETATM    1  C   UNL     1      -7.658   6.356  71.662  1.00  0.00    -0.095 C  
HETATM    2  C   UNL     1      -6.759   4.897  71.547  1.00  0.00    -0.039 C  
HETATM    3  C   UNL     1      -7.379   4.109  70.220  1.00  0.00    -0.045 C  
HETATM    4  C   UNL     1      -7.175   3.517  68.680  1.00  0.00    -0.050 C  
HETATM    5  C   UNL     1      -6.266   4.465  67.842  1.00  0.00    -0.036 C  
HETATM    6  C   UNL     1      -6.327   4.448  66.335  1.00  0.00    -0.036 C  
HETATM    7  F   UNL     1      -5.705   5.593  65.913  1.00  0.00    -0.012 F  
HETATM    8  C   UNL     1      -7.768   4.449  65.822  1.00  0.00    -0.090 C  
HETATM    9  C   UNL     1      -8.014   4.851  64.557  1.00  0.00    -0.103 C  
HETATM   10  C   UNL     1      -7.395   3.771  63.714  1.00  0.00    -0.051 C  
HETATM   11  O   UNL     1      -6.955   4.011  62.597  1.00  0.00    -0.034 OA 
HETATM   12  C   UNL     1      -7.346   2.363  64.318  1.00  0.00    -0.058 C  
HETATM   13  C   UNL     1      -7.850   2.096  65.558  1.00  0.00    -0.073 C  
HETATM   14  C   UNL     1      -8.554   3.210  66.326  1.00  0.00    -0.119 C  
HETATM   15  C   UNL     1     -10.030   3.099  65.829  1.00  0.00     0.366 C  
HETATM   16  C   UNL     1      -8.531   3.467  67.880  1.00  0.00    -0.106 C  
HETATM   17  C   UNL     1      -9.652   2.886  68.712  1.00  0.00    -0.003 C  
HETATM   18  C   UNL     1      -9.988   4.062  69.664  1.00  0.00    -0.006 C  
HETATM   19  O   UNL     1      -9.299   1.686  69.370  1.00  0.00    -0.106 OA 
HETATM   20  H   UNL     1     -10.004   1.321  69.893  1.00  0.00     0.000 HD 
HETATM   21  C   UNL     1      -8.782   4.628  70.444  1.00  0.00    -0.120 C  
HETATM   22  C   UNL     1      -8.243   6.313  70.277  1.00  0.00    -0.125 C  
HETATM   23  C   UNL     1      -9.103   3.938  71.927  1.00  0.00    -0.165 C  
HETATM   24  O   UNL     1      -8.915   6.595  72.380  1.00  0.00    -0.136 OA 
HETATM   25  O   UNL     1      -9.274   7.244  70.169  1.00  0.00    -0.152 OA 
HETATM   26  C   UNL     1      -9.941   8.814  71.806  1.00  0.00    -0.396 C  
HETATM   27  C   UNL     1      -9.812   7.328  71.472  1.00  0.00    -0.174 C  
HETATM   28  C   UNL     1     -11.214   6.732  71.302  1.00  0.00    -0.319 C  
ENDROOT
BRANCH  22  29
HETATM   29  C   UNL     1      -6.938   7.027  69.537  1.00  0.00    -0.062 C  
HETATM   30  O   UNL     1      -5.773   6.972  69.985  1.00  0.00    -0.022 OA 
BRANCH  29  31
HETATM   31  C   UNL     1      -7.107   7.896  68.298  1.00  0.00    -0.088 C  
HETATM   32  O   UNL     1      -6.610   9.209  68.389  1.00  0.00    -0.058 OA 
HETATM   33  H   UNL     1      -6.716   9.751  67.616  1.00  0.00     0.000 HD 
ENDBRANCH  29  31
ENDBRANCH  22  29
TORSDOF 2
ENDMDL
MODEL       85
REMARK 921   NORMALIZED FREE ENERGY PREDICTED BY IDOCK:   -1.87 KCAL/MOL
REMARK 922        TOTAL FREE ENERGY PREDICTED BY IDOCK:   -1.94 KCAL/MOL
REMARK 923 INTER-LIGAND FREE ENERGY PREDICTED BY IDOCK:   -3.23 KCAL/MOL
REMARK 924 INTRA-LIGAND FREE ENERGY PREDICTED BY IDOCK:    1.29 KCAL/MOL
REMARK 927      BINDING AFFINITY PREDICTED BY RF-SCORE:    0.00 PKD
ROOT
HETATM    1  C   UNL     1      -8.788   7.791  67.240  1.00  0.00    -0.128 C  
HETATM    2  C   UNL     1      -7.441   6.738  67.398  1.00  0.00    -0.096 C  
HETATM    3  C   UNL     1      -7.345   6.396  69.023  1.00  0.00    -0.089 C  
HETATM    4  C   UNL     1      -7.444   5.294  70.264  1.00  0.00    -0.071 C  
HETATM    5  C   UNL     1      -8.572   4.255  69.989  1.00  0.00    -0.101 C  
HETATM    6  C   UNL     1      -9.198   3.487  71.126  1.00  0.00    -0.121 C  
HETATM    7  F   UNL     1     -10.353   2.943  70.631  1.00  0.00     0.136 F  
HETATM    8  C   UNL     1      -9.544   4.396  72.305  1.00  0.00    -0.200 C  
HETATM    9  C   UNL     1     -10.463   3.984  73.205  1.00  0.00    -0.251 C  
HETATM   10  C   UNL     1      -9.790   2.833  73.899  1.00  0.00    -0.099 C  
HETATM   11  O   UNL     1     -10.438   1.908  74.370  1.00  0.00    -0.119 OA 
HETATM   12  C   UNL     1      -8.260   2.878  73.990  1.00  0.00    -0.069 C  
HETATM   13  C   UNL     1      -7.541   3.918  73.476  1.00  0.00    -0.071 C  
HETATM   14  C   UNL     1      -8.284   5.104  72.870  1.00  0.00    -0.109 C  
HETATM   15  C   UNL     1      -8.526   6.031  74.102  1.00  0.00    -0.115 C  
HETATM   16  C   UNL     1      -7.858   5.969  71.625  1.00  0.00    -0.102 C  
HETATM   17  C   UNL     1      -7.082   7.243  71.878  1.00  0.00    -0.063 C  
HETATM   18  C   UNL     1      -7.771   8.236  70.908  1.00  0.00    -0.082 C  
HETATM   19  O   UNL     1      -5.690   7.102  71.677  1.00  0.00    -0.036 OA 
HETATM   20  H   UNL     1      -5.203   7.902  71.835  1.00  0.00     0.000 HD 
HETATM   21  C   UNL     1      -7.844   7.761  69.441  1.00  0.00    -0.115 C  
HETATM   22  C   UNL     1      -9.387   7.517  68.592  1.00  0.00    -0.143 C  
HETATM   23  C   UNL     1      -6.624   8.710  68.815  1.00  0.00    -0.054 C  
HETATM   24  O   UNL     1      -8.813   9.255  67.328  1.00  0.00    -0.123 OA 
HETATM   25  O   UNL     1     -10.365   8.467  68.880  1.00  0.00    -0.214 OA 
HETATM   26  C   UNL     1     -11.149  10.170  67.441  1.00  0.00    -0.219 C  
HETATM   27  C   UNL     1      -9.938   9.628  68.200  1.00  0.00    -0.159 C  
HETATM   28  C   UNL     1      -9.597  10.589  69.346  1.00  0.00    -0.170 C  
ENDROOT
BRANCH  22  29
HETATM   29  C   UNL     1     -10.227   6.164  68.117  1.00  0.00    -0.175 C  
HETATM   30  O   UNL     1     -10.439   5.184  68.862  1.00  0.00    -0.165 OA 
BRANCH  29  31
HETATM   31  C   UNL     1     -10.708   5.994  66.682  1.00  0.00    -0.244 C  
HETATM   32  O   UNL     1     -11.621   6.958  66.217  1.00  0.00     0.335 OA 
HETATM   33  H   UNL     1     -11.921   6.852  65.322  1.00  0.00     0.000 HD 
ENDBRANCH  29  31
ENDBRANCH  22  29
TORSDOF 2
ENDMDL
MODEL       86
REMARK 921   NORMALIZED FREE ENERGY PREDICTED BY IDOCK:   -1.02 KCAL/MOL
REMARK 922        TOTAL FREE ENERGY PREDICTED BY IDOCK:   -0.98 KCAL/MOL
REMARK 923 INTER-LIGAND FREE ENERGY PREDICTED BY IDOCK:   -0.80 KCAL/MOL
REMARK 924 INTRA-LIGAND FREE ENERGY PREDICTED BY IDOCK:   -0.18 KCAL/MOL
REMARK 927      BINDING AFFINITY PREDICTED BY RF-SCORE:    0.00 PKD
ROOT
HETATM    1  C   UNL     1     -10.793  11.684  66.023  1.00  0.00    -0.289 C  
HETATM    2  C   UNL     1     -11.011  12.972  64.908  1.00  0.00    -0.329 C  
HETATM    3  C   UNL     1     -10.755  14.358  65.790  1.00  0.00    -0.312 C  
HETATM    4  C   UNL     1      -9.849  15.720  66.089  1.00  0.00    -0.341 C  
HETATM    5  C   UNL     1      -8.333  15.430  65.878  1.00  0.00     0.936 C  
HETATM    6  C   UNL     1      -7.290  16.294  66.541  1.00  0.00    -0.083 C  
HETATM    7  F   UNL     1      -6.111  15.600  66.462  1.00  0.00     0.421 F  
HETATM    8  C   UNL     1      -7.615  16.552  68.013  1.00  0.00    -0.166 C  
HETATM    9  C   UNL     1      -6.623  16.928  68.849  1.00  0.00    -0.193 C  
HETATM   10  C   UNL     1      -6.263  18.309  68.373  1.00  0.00    -0.195 C  
HETATM   11  O   UNL     1      -5.130  18.750  68.505  1.00  0.00    -0.179 OA 
HETATM   12  C   UNL     1      -7.382  19.131  67.722  1.00  0.00    -0.276 C  
HETATM   13  C   UNL     1      -8.649  18.641  67.590  1.00  0.00    -0.288 C  
HETATM   14  C   UNL     1      -8.979  17.273  68.178  1.00  0.00    -0.254 C  
HETATM   15  C   UNL     1      -9.389  17.613  69.646  1.00  0.00     0.739 C  
HETATM   16  C   UNL     1      -9.953  16.184  67.590  1.00  0.00    -0.241 C  
HETATM   17  C   UNL     1     -11.383  16.171  68.084  1.00  0.00    -0.270 C  
HETATM   18  C   UNL     1     -11.636  14.656  68.291  1.00  0.00    -0.353 C  
HETATM   19  O   UNL     1     -12.289  16.797  67.198  1.00  0.00     1.938 OA 
HETATM   20  H   UNL     1     -13.187  16.788  67.508  1.00  0.00     0.000 HD 
HETATM   21  C   UNL     1     -11.330  13.774  67.061  1.00  0.00    -0.345 C  
HETATM   22  C   UNL     1     -10.103  12.489  67.089  1.00  0.00    -0.214 C  
HETATM   23  C   UNL     1     -12.896  13.500  66.560  1.00  0.00     0.293 C  
HETATM   24  O   UNL     1     -11.793  11.055  66.892  1.00  0.00    -0.237 OA 
HETATM   25  O   UNL     1     -10.053  11.760  68.276  1.00  0.00    -0.186 OA 
HETATM   26  C   UNL     1     -10.759   9.526  68.595  1.00  0.00    -0.218 C  
HETATM   27  C   UNL     1     -11.205  10.943  68.237  1.00  0.00    -0.286 C  
HETATM   28  C   UNL     1     -12.058  11.502  69.382  1.00  0.00    -0.345 C  
ENDROOT
BRANCH  22  29
HETATM   29  C   UNL     1      -8.584  12.345  66.431  1.00  0.00     0.083 C  
HETATM   30  O   UNL     1      -8.365  11.890  65.288  1.00  0.00     0.616 OA 
BRANCH  29  31
HETATM   31  C   UNL     1      -7.335  12.670  67.241  1.00  0.00    -0.104 C  
HETATM   32  O   UNL     1      -7.552  13.215  68.520  1.00  0.00    -0.125 OA 
HETATM   33  H   UNL     1      -6.774  13.418  69.025  1.00  0.00     0.000 HD 
ENDBRANCH  29  31
ENDBRANCH  22  29
TORSDOF 2
ENDMDL
MODEL       87
REMARK 921   NORMALIZED FREE ENERGY PREDICTED BY IDOCK:   -0.73 KCAL/MOL
REMARK 922        TOTAL FREE ENERGY PREDICTED BY IDOCK:   -0.66 KCAL/MOL
REMARK 923 INTER-LIGAND FREE ENERGY PREDICTED BY IDOCK:   -1.01 KCAL/MOL
REMARK 924 INTRA-LIGAND FREE ENERGY PREDICTED BY IDOCK:    0.35 KCAL/MOL
REMARK 927      BINDING AFFINITY PREDICTED BY RF-SCORE:    0.00 PKD
ROOT
HETATM    1  C   UNL     1      -9.433  11.834  68.623  1.00  0.00    -0.100 C  
HETATM    2  C   UNL     1      -9.199  12.882  69.963  1.00  0.00     3.458 C  
HETATM    3  C   UNL     1      -8.597  14.290  69.314  1.00  0.00     0.264 C  
HETATM    4  C   UNL     1      -8.777  15.911  68.990  1.00  0.00    -0.236 C  
HETATM    5  C   UNL     1     -10.259  16.242  68.640  1.00  0.00    -0.254 C  
HETATM    6  C   UNL     1     -10.599  17.475  67.842  1.00  0.00    -0.390 C  
HETATM    7  F   UNL     1     -11.886  17.307  67.406  1.00  0.00     0.492 F  
HETATM    8  C   UNL     1      -9.682  17.641  66.630  1.00  0.00    -0.304 C  
HETATM    9  C   UNL     1     -10.088  18.415  65.600  1.00  0.00     0.174 C  
HETATM   10  C   UNL     1     -10.080  19.805  66.176  1.00  0.00    -0.499 C  
HETATM   11  O   UNL     1     -10.845  20.666  65.766  1.00  0.00     0.278 OA 
HETATM   12  C   UNL     1      -9.068  20.085  67.294  1.00  0.00    -0.459 C  
HETATM   13  C   UNL     1      -8.207  19.125  67.740  1.00  0.00    -0.319 C  
HETATM   14  C   UNL     1      -8.194  17.764  67.051  1.00  0.00    -0.239 C  
HETATM   15  C   UNL     1      -7.177  17.972  65.885  1.00  0.00    -0.278 C  
HETATM   16  C   UNL     1      -7.965  16.355  67.715  1.00  0.00    -0.160 C  
HETATM   17  C   UNL     1      -6.562  15.792  67.720  1.00  0.00    -0.159 C  
HETATM   18  C   UNL     1      -6.809  14.311  67.334  1.00  0.00    -0.042 C  
HETATM   19  O   UNL     1      -5.890  15.968  68.951  1.00  0.00    -0.110 OA 
HETATM   20  H   UNL     1      -5.007  15.615  68.954  1.00  0.00     0.000 HD 
HETATM   21  C   UNL     1      -7.842  13.576  68.215  1.00  0.00    -0.145 C  
HETATM   22  C   UNL     1      -9.342  12.889  67.555  1.00  0.00    -0.190 C  
HETATM   23  C   UNL     1      -6.782  12.680  69.139  1.00  0.00    -0.086 C  
HETATM   24  O   UNL     1      -8.478  10.894  68.026  1.00  0.00    -0.123 OA 
HETATM   25  O   UNL     1      -9.205  12.289  66.305  1.00  0.00    -0.225 OA 
HETATM   26  C   UNL     1      -9.280   9.974  65.832  1.00  0.00    -0.211 C  
HETATM   27  C   UNL     1      -8.524  11.080  66.567  1.00  0.00    -0.161 C  
HETATM   28  C   UNL     1      -7.168  11.298  65.884  1.00  0.00     0.217 C  
ENDROOT
BRANCH  22  29
HETATM   29  C   UNL     1     -10.940  13.337  67.646  1.00  0.00    -0.262 C  
HETATM   30  O   UNL     1     -11.459  14.202  66.908  1.00  0.00    -0.325 OA 
BRANCH  29  31
HETATM   31  C   UNL     1     -11.859  12.781  68.725  1.00  0.00    -0.307 C  
HETATM   32  O   UNL     1     -12.624  13.725  69.435  1.00  0.00    -0.313 OA 
HETATM   33  H   UNL     1     -13.196  13.377  70.108  1.00  0.00     0.000 HD 
ENDBRANCH  29  31
ENDBRANCH  22  29
TORSDOF 2
ENDMDL
MODEL       88
REMARK 921   NORMALIZED FREE ENERGY PREDICTED BY IDOCK:    0.29 KCAL/MOL
REMARK 922        TOTAL FREE ENERGY PREDICTED BY IDOCK:    0.47 KCAL/MOL
REMARK 923 INTER-LIGAND FREE ENERGY PREDICTED BY IDOCK:    0.19 KCAL/MOL
REMARK 924 INTRA-LIGAND FREE ENERGY PREDICTED BY IDOCK:    0.28 KCAL/MOL
REMARK 927      BINDING AFFINITY PREDICTED BY RF-SCORE:    0.00 PKD
ROOT
HETATM    1  C   UNL     1     -11.133   6.389  66.673  1.00  0.00    -0.023 C  
HETATM    2  C   UNL     1     -11.764   6.913  68.182  1.00  0.00     0.892 C  
HETATM    3  C   UNL     1     -10.431   7.226  69.125  1.00  0.00    -0.222 C  
HETATM    4  C   UNL     1      -9.485   8.314  69.953  1.00  0.00    -0.167 C  
HETATM    5  C   UNL     1      -9.420   9.675  69.197  1.00  0.00    -0.172 C  
HETATM    6  C   UNL     1      -8.278  10.630  69.439  1.00  0.00    -0.078 C  
HETATM    7  F   UNL     1      -8.309  11.533  68.409  1.00  0.00    -0.127 F  
HETATM    8  C   UNL     1      -6.926   9.916  69.432  1.00  0.00    -0.063 C  
HETATM    9  C   UNL     1      -5.804  10.635  69.212  1.00  0.00    -0.041 C  
HETATM   10  C   UNL     1      -5.686  11.493  70.441  1.00  0.00    -0.155 C  
HETATM   11  O   UNL     1      -5.150  12.593  70.398  1.00  0.00    -0.087 OA 
HETATM   12  C   UNL     1      -6.263  10.923  71.742  1.00  0.00     1.437 C  
HETATM   13  C   UNL     1      -6.846   9.690  71.789  1.00  0.00     0.548 C  
HETATM   14  C   UNL     1      -6.851   8.825  70.533  1.00  0.00    -0.046 C  
HETATM   15  C   UNL     1      -5.494   8.058  70.631  1.00  0.00    -0.025 C  
HETATM   16  C   UNL     1      -7.984   7.846  70.045  1.00  0.00    -0.111 C  
HETATM   17  C   UNL     1      -7.874   6.387  70.428  1.00  0.00    -0.107 C  
HETATM   18  C   UNL     1      -8.258   5.678  69.104  1.00  0.00    -0.100 C  
HETATM   19  O   UNL     1      -8.681   6.034  71.533  1.00  0.00    -0.131 OA 
HETATM   20  H   UNL     1      -8.612   5.117  71.774  1.00  0.00     0.000 HD 
HETATM   21  C   UNL     1      -9.605   6.125  68.498  1.00  0.00    -0.127 C  
HETATM   22  C   UNL     1      -9.727   6.875  66.891  1.00  0.00    -0.171 C  
HETATM   23  C   UNL     1     -10.522   4.803  68.936  1.00  0.00     0.159 C  
HETATM   24  O   UNL     1     -10.789   5.025  66.256  1.00  0.00    -0.285 OA 
HETATM   25  O   UNL     1      -8.881   6.327  65.929  1.00  0.00    -0.156 OA 
HETATM   26  C   UNL     1      -9.513   4.977  64.093  1.00  0.00     0.312 C  
HETATM   27  C   UNL     1      -9.464   5.079  65.618  1.00  0.00    -0.141 C  
HETATM   28  C   UNL     1      -8.431   4.078  66.151  1.00  0.00    -0.109 C  
ENDROOT
BRANCH  22  29
HETATM   29  C   UNL     1     -10.020   8.427  66.374  1.00  0.00    -0.221 C  
HETATM   30  O   UNL     1     -11.087   9.039  66.591  1.00  0.00     0.235 OA 
BRANCH  29  31
HETATM   31  C   UNL     1      -9.020   9.172  65.499  1.00  0.00    -0.205 C  
HETATM   32  O   UNL     1      -8.496   8.453  64.409  1.00  0.00    -0.321 OA 
HETATM   33  H   UNL     1      -7.873   8.917  63.863  1.00  0.00     0.000 HD 
ENDBRANCH  29  31
ENDBRANCH  22  29
TORSDOF 2
ENDMDL
MODEL       89
REMARK 921   NORMALIZED FREE ENERGY PREDICTED BY IDOCK:    0.38 KCAL/MOL
REMARK 922        TOTAL FREE ENERGY PREDICTED BY IDOCK:    0.57 KCAL/MOL
REMARK 923 INTER-LIGAND FREE ENERGY PREDICTED BY IDOCK:    0.65 KCAL/MOL
REMARK 924 INTRA-LIGAND FREE ENERGY PREDICTED BY IDOCK:   -0.08 KCAL/MOL
REMARK 927      BINDING AFFINITY PREDICTED BY RF-SCORE:    0.00 PKD
ROOT
HETATM    1  C   UNL     1      -9.897   5.621  70.496  1.00  0.00    -0.191 C  
HETATM    2  C   UNL     1     -10.495   6.816  71.575  1.00  0.00    -0.236 C  
HETATM    3  C   UNL     1      -9.331   8.004  71.596  1.00  0.00    -0.208 C  
HETATM    4  C   UNL     1      -8.870   9.565  71.256  1.00  0.00     0.358 C  
HETATM    5  C   UNL     1      -9.515  10.052  69.924  1.00  0.00    -0.221 C  
HETATM    6  C   UNL     1      -8.897  11.186  69.145  1.00  0.00     0.073 C  
HETATM    7  F   UNL     1      -9.459  11.144  67.896  1.00  0.00    -0.161 F  
HETATM    8  C   UNL     1      -7.382  11.027  69.012  1.00  0.00    -0.123 C  
HETATM    9  C   UNL     1      -6.736  11.686  68.026  1.00  0.00    -0.064 C  
HETATM   10  C   UNL     1      -6.854  13.131  68.427  1.00  0.00    -0.098 C  
HETATM   11  O   UNL     1      -6.874  14.022  67.590  1.00  0.00    -0.166 OA 
HETATM   12  C   UNL     1      -6.944  13.427  69.929  1.00  0.00     0.402 C  
HETATM   13  C   UNL     1      -6.907  12.431  70.861  1.00  0.00     2.649 C  
HETATM   14  C   UNL     1      -6.688  10.994  70.400  1.00  0.00     0.231 C  
HETATM   15  C   UNL     1      -5.132  10.868  70.373  1.00  0.00    -0.067 C  
HETATM   16  C   UNL     1      -7.319   9.684  71.006  1.00  0.00     0.108 C  
HETATM   17  C   UNL     1      -6.523   8.929  72.046  1.00  0.00    -0.024 C  
HETATM   18  C   UNL     1      -6.719   7.459  71.594  1.00  0.00    -0.050 C  
HETATM   19  O   UNL     1      -6.939   9.190  73.371  1.00  0.00    -0.262 OA 
HETATM   20  H   UNL     1      -6.439   8.715  74.025  1.00  0.00     0.000 HD 
HETATM   21  C   UNL     1      -8.190   7.027  71.414  1.00  0.00    -0.109 C  
HETATM   22  C   UNL     1      -8.839   6.476  69.854  1.00  0.00    -0.143 C  
HETATM   23  C   UNL     1      -8.358   6.137  72.814  1.00  0.00    -0.117 C  
HETATM   24  O   UNL     1      -9.039   4.471  70.798  1.00  0.00    -0.115 OA 
HETATM   25  O   UNL     1      -7.970   5.677  69.114  1.00  0.00    -0.094 OA 
HETATM   26  C   UNL     1      -8.166   3.354  68.726  1.00  0.00    -0.075 C  
HETATM   27  C   UNL     1      -7.970   4.436  69.787  1.00  0.00    -0.056 C  
HETATM   28  C   UNL     1      -6.541   4.345  70.335  1.00  0.00    -0.032 C  
ENDROOT
BRANCH  22  29
HETATM   29  C   UNL     1      -9.856   7.162  68.733  1.00  0.00    -0.158 C  
HETATM   30  O   UNL     1     -11.101   7.088  68.792  1.00  0.00    -0.144 OA 
BRANCH  29  31
HETATM   31  C   UNL     1      -9.312   7.847  67.486  1.00  0.00    -0.143 C  
HETATM   32  O   UNL     1      -8.449   7.079  66.684  1.00  0.00    -0.114 OA 
HETATM   33  H   UNL     1      -8.110   7.506  65.906  1.00  0.00     0.000 HD 
ENDBRANCH  29  31
ENDBRANCH  22  29
TORSDOF 2
ENDMDL
MODEL       90
REMARK 921   NORMALIZED FREE ENERGY PREDICTED BY IDOCK:    0.52 KCAL/MOL
REMARK 922        TOTAL FREE ENERGY PREDICTED BY IDOCK:    0.73 KCAL/MOL
REMARK 923 INTER-LIGAND FREE ENERGY PREDICTED BY IDOCK:    0.76 KCAL/MOL
REMARK 924 INTRA-LIGAND FREE ENERGY PREDICTED BY IDOCK:   -0.03 KCAL/MOL
REMARK 927      BINDING AFFINITY PREDICTED BY RF-SCORE:    0.00 PKD
ROOT
HETATM    1  C   UNL     1      -7.602   8.666  67.106  1.00  0.00    -0.092 C  
HETATM    2  C   UNL     1      -6.361   9.284  68.119  1.00  0.00    -0.054 C  
HETATM    3  C   UNL     1      -6.682   8.661  69.628  1.00  0.00    -0.039 C  
HETATM    4  C   UNL     1      -6.243   7.678  70.895  1.00  0.00    -0.035 C  
HETATM    5  C   UNL     1      -5.550   6.383  70.375  1.00  0.00    -0.018 C  
HETATM    6  C   UNL     1      -5.513   5.141  71.228  1.00  0.00    -0.005 C  
HETATM    7  F   UNL     1      -5.172   4.111  70.392  1.00  0.00    -0.003 F  
HETATM    8  C   UNL     1      -6.873   4.839  71.857  1.00  0.00    -0.051 C  
HETATM    9  C   UNL     1      -7.135   3.586  72.287  1.00  0.00    -0.046 C  
HETATM   10  C   UNL     1      -6.214   3.415  73.464  1.00  0.00    -0.023 C  
HETATM   11  O   UNL     1      -5.781   2.314  73.777  1.00  0.00     0.000 OA 
HETATM   12  C   UNL     1      -5.852   4.682  74.250  1.00  0.00    -0.025 C  
HETATM   13  C   UNL     1      -6.348   5.905  73.907  1.00  0.00    -0.069 C  
HETATM   14  C   UNL     1      -7.354   6.003  72.764  1.00  0.00    -0.090 C  
HETATM   15  C   UNL     1      -8.722   5.778  73.482  1.00  0.00    -0.123 C  
HETATM   16  C   UNL     1      -7.491   7.158  71.702  1.00  0.00    -0.086 C  
HETATM   17  C   UNL     1      -8.480   8.267  71.984  1.00  0.00    -0.170 C  
HETATM   18  C   UNL     1      -9.157   8.451  70.601  1.00  0.00    -0.174 C  
HETATM   19  O   UNL     1      -7.879   9.438  72.498  1.00  0.00     0.295 OA 
HETATM   20  H   UNL     1      -8.500  10.135  72.675  1.00  0.00     0.000 HD 
HETATM   21  C   UNL     1      -8.181   8.688  69.429  1.00  0.00    -0.113 C  
HETATM   22  C   UNL     1      -8.072   7.585  68.040  1.00  0.00    -0.124 C  
HETATM   23  C   UNL     1      -8.409  10.330  69.247  1.00  0.00    -0.167 C  
HETATM   24  O   UNL     1      -8.920   9.245  66.826  1.00  0.00    -0.128 OA 
HETATM   25  O   UNL     1      -9.295   7.079  67.603  1.00  0.00    -0.123 OA 
HETATM   26  C   UNL     1     -10.431   7.650  65.611  1.00  0.00     2.450 C  
HETATM   27  C   UNL     1      -9.915   8.168  66.952  1.00  0.00    -0.273 C  
HETATM   28  C   UNL     1     -11.110   8.474  67.863  1.00  0.00     0.307 C  
ENDROOT
BRANCH  22  29
HETATM   29  C   UNL     1      -6.944   6.464  67.557  1.00  0.00    -0.078 C  
HETATM   30  O   UNL     1      -5.913   6.753  66.912  1.00  0.00    -0.017 OA 
BRANCH  29  31
HETATM   31  C   UNL     1      -7.158   4.974  67.789  1.00  0.00    -0.066 C  
HETATM   32  O   UNL     1      -8.493   4.531  67.769  1.00  0.00    -0.102 OA 
HETATM   33  H   UNL     1      -8.627   3.602  67.913  1.00  0.00     0.000 HD 
ENDBRANCH  29  31
ENDBRANCH  22  29
TORSDOF 2
ENDMDL
MODEL       91
REMARK 921   NORMALIZED FREE ENERGY PREDICTED BY IDOCK:    0.93 KCAL/MOL
REMARK 922        TOTAL FREE ENERGY PREDICTED BY IDOCK:    1.19 KCAL/MOL
REMARK 923 INTER-LIGAND FREE ENERGY PREDICTED BY IDOCK:   -0.64 KCAL/MOL
REMARK 924 INTRA-LIGAND FREE ENERGY PREDICTED BY IDOCK:    1.83 KCAL/MOL
REMARK 927      BINDING AFFINITY PREDICTED BY RF-SCORE:    0.00 PKD
ROOT
HETATM    1  C   UNL     1      -7.485   5.332  63.387  1.00  0.00    -0.054 C  
HETATM    2  C   UNL     1      -8.850   6.363  63.538  1.00  0.00     0.734 C  
HETATM    3  C   UNL     1      -9.306   6.249  65.133  1.00  0.00     0.582 C  
HETATM    4  C   UNL     1      -9.499   6.963  66.623  1.00  0.00    -0.209 C  
HETATM    5  C   UNL     1      -8.354   7.983  66.897  1.00  0.00    -0.116 C  
HETATM    6  C   UNL     1      -8.005   8.379  68.310  1.00  0.00    -0.119 C  
HETATM    7  F   UNL     1      -6.778   8.983  68.246  1.00  0.00    -0.057 F  
HETATM    8  C   UNL     1      -7.913   7.165  69.236  1.00  0.00    -0.119 C  
HETATM    9  C   UNL     1      -7.220   7.271  70.390  1.00  0.00    -0.069 C  
HETATM   10  C   UNL     1      -8.048   8.218  71.216  1.00  0.00    -0.120 C  
HETATM   11  O   UNL     1      -7.532   8.946  72.053  1.00  0.00    -0.314 OA 
HETATM   12  C   UNL     1      -9.559   8.221  70.958  1.00  0.00    -0.197 C  
HETATM   13  C   UNL     1     -10.132   7.398  70.034  1.00  0.00    -0.191 C  
HETATM   14  C   UNL     1      -9.256   6.390  69.296  1.00  0.00    -0.135 C  
HETATM   15  C   UNL     1      -9.277   5.149  70.244  1.00  0.00    -0.193 C  
HETATM   16  C   UNL     1      -9.385   5.921  67.798  1.00  0.00    -0.106 C  
HETATM   17  C   UNL     1     -10.178   4.665  67.514  1.00  0.00    -0.009 C  
HETATM   18  C   UNL     1      -9.277   3.945  66.478  1.00  0.00    -0.175 C  
HETATM   19  O   UNL     1     -11.493   4.920  67.065  1.00  0.00     0.924 OA 
HETATM   20  H   UNL     1     -11.991   4.131  66.886  1.00  0.00     0.000 HD 
HETATM   21  C   UNL     1      -8.891   4.800  65.252  1.00  0.00    -0.149 C  
HETATM   22  C   UNL     1      -7.203   5.196  64.858  1.00  0.00    -0.063 C  
HETATM   23  C   UNL     1      -9.928   4.118  64.140  1.00  0.00    -0.125 C  
HETATM   24  O   UNL     1      -7.458   3.900  63.067  1.00  0.00    -0.049 OA 
HETATM   25  O   UNL     1      -6.298   4.158  65.074  1.00  0.00    -0.032 OA 
HETATM   26  C   UNL     1      -5.191   2.881  63.421  1.00  0.00    -0.008 C  
HETATM   27  C   UNL     1      -6.547   3.249  64.022  1.00  0.00    -0.032 C  
HETATM   28  C   UNL     1      -7.117   2.028  64.754  1.00  0.00    -0.052 C  
ENDROOT
BRANCH  22  29
HETATM   29  C   UNL     1      -6.300   6.586  64.970  1.00  0.00    -0.041 C  
HETATM   30  O   UNL     1      -5.170   6.636  65.501  1.00  0.00    -0.017 OA 
BRANCH  29  31
HETATM   31  C   UNL     1      -6.854   7.929  64.514  1.00  0.00    -0.062 C  
HETATM   32  O   UNL     1      -5.970   8.749  63.787  1.00  0.00    -0.071 OA 
HETATM   33  H   UNL     1      -6.316   9.586  63.502  1.00  0.00     0.000 HD 
ENDBRANCH  29  31
ENDBRANCH  22  29
TORSDOF 2
ENDMDL
MODEL       92
REMARK 921   NORMALIZED FREE ENERGY PREDICTED BY IDOCK:    1.09 KCAL/MOL
REMARK 922        TOTAL FREE ENERGY PREDICTED BY IDOCK:    1.37 KCAL/MOL
REMARK 923 INTER-LIGAND FREE ENERGY PREDICTED BY IDOCK:    1.00 KCAL/MOL
REMARK 924 INTRA-LIGAND FREE ENERGY PREDICTED BY IDOCK:    0.37 KCAL/MOL
REMARK 927      BINDING AFFINITY PREDICTED BY RF-SCORE:    0.00 PKD
ROOT
HETATM    1  C   UNL     1      -7.163   5.517  64.348  1.00  0.00    -0.055 C  
HETATM    2  C   UNL     1      -6.596   6.848  63.422  1.00  0.00    -0.043 C  
HETATM    3  C   UNL     1      -7.304   8.187  64.109  1.00  0.00    -0.095 C  
HETATM    4  C   UNL     1      -7.154   9.620  64.940  1.00  0.00    -0.114 C  
HETATM    5  C   UNL     1      -6.020   9.524  66.004  1.00  0.00    -0.062 C  
HETATM    6  C   UNL     1      -6.006  10.453  67.191  1.00  0.00    -0.050 C  
HETATM    7  F   UNL     1      -5.130   9.908  68.093  1.00  0.00    -0.036 F  
HETATM    8  C   UNL     1      -7.385  10.564  67.844  1.00  0.00    -0.089 C  
HETATM    9  C   UNL     1      -7.473  10.992  69.122  1.00  0.00    -0.121 C  
HETATM   10  C   UNL     1      -7.060  12.436  69.043  1.00  0.00    -0.041 C  
HETATM   11  O   UNL     1      -6.522  12.995  69.989  1.00  0.00    -0.051 OA 
HETATM   12  C   UNL     1      -7.348  13.167  67.726  1.00  0.00    -0.143 C  
HETATM   13  C   UNL     1      -7.960  12.544  66.678  1.00  0.00     0.186 C  
HETATM   14  C   UNL     1      -8.444  11.108  66.851  1.00  0.00    -0.147 C  
HETATM   15  C   UNL     1      -9.882  11.291  67.432  1.00  0.00    -0.201 C  
HETATM   16  C   UNL     1      -8.446   9.959  65.774  1.00  0.00    -0.142 C  
HETATM   17  C   UNL     1      -9.708   9.744  64.968  1.00  0.00    -0.233 C  
HETATM   18  C   UNL     1      -9.829   8.198  64.969  1.00  0.00     1.840 C  
HETATM   19  O   UNL     1      -9.657  10.322  63.680  1.00  0.00    -0.292 OA 
HETATM   20  H   UNL     1     -10.449  10.187  63.173  1.00  0.00     0.000 HD 
HETATM   21  C   UNL     1      -8.571   7.449  64.481  1.00  0.00     0.283 C  
HETATM   22  C   UNL     1      -7.672   6.317  65.515  1.00  0.00    -0.095 C  
HETATM   23  C   UNL     1      -9.109   7.031  62.960  1.00  0.00     1.441 C  
HETATM   24  O   UNL     1      -8.374   4.714  64.139  1.00  0.00    -0.107 OA 
HETATM   25  O   UNL     1      -8.471   5.515  66.328  1.00  0.00    -0.117 OA 
HETATM   26  C   UNL     1      -8.864   3.197  66.079  1.00  0.00    -0.140 C  
HETATM   27  C   UNL     1      -9.043   4.575  65.443  1.00  0.00    -0.146 C  
HETATM   28  C   UNL     1     -10.531   4.946  65.466  1.00  0.00    -0.091 C  
ENDROOT
BRANCH  22  29
HETATM   29  C   UNL     1      -6.207   6.399  66.295  1.00  0.00    -0.037 C  
HETATM   30  O   UNL     1      -5.128   6.646  65.716  1.00  0.00    -0.016 OA 
BRANCH  29  31
HETATM   31  C   UNL     1      -6.079   6.068  67.776  1.00  0.00    -0.021 C  
HETATM   32  O   UNL     1      -6.848   6.854  68.655  1.00  0.00    -0.064 OA 
HETATM   33  H   UNL     1      -6.768   6.648  69.578  1.00  0.00     0.000 HD 
ENDBRANCH  29  31
ENDBRANCH  22  29
TORSDOF 2
ENDMDL
MODEL       93
REMARK 921   NORMALIZED FREE ENERGY PREDICTED BY IDOCK:    1.88 KCAL/MOL
REMARK 922        TOTAL FREE ENERGY PREDICTED BY IDOCK:    2.25 KCAL/MOL
REMARK 923 INTER-LIGAND FREE ENERGY PREDICTED BY IDOCK:    1.11 KCAL/MOL
REMARK 924 INTRA-LIGAND FREE ENERGY PREDICTED BY IDOCK:    1.13 KCAL/MOL
REMARK 927      BINDING AFFINITY PREDICTED BY RF-SCORE:    0.00 PKD
ROOT
HETATM    1  C   UNL     1      -6.718  12.804  67.347  1.00  0.00    -0.134 C  
HETATM    2  C   UNL     1      -7.669  14.026  66.605  1.00  0.00     0.886 C  
HETATM    3  C   UNL     1      -9.168  13.900  67.314  1.00  0.00    -0.235 C  
HETATM    4  C   UNL     1     -10.361  14.553  68.271  1.00  0.00    -0.236 C  
HETATM    5  C   UNL     1      -9.740  15.366  69.447  1.00  0.00    -0.273 C  
HETATM    6  C   UNL     1     -10.536  15.626  70.700  1.00  0.00    -0.112 C  
HETATM    7  F   UNL     1      -9.635  16.034  71.649  1.00  0.00     2.287 F  
HETATM    8  C   UNL     1     -11.243  14.365  71.198  1.00  0.00     0.362 C  
HETATM    9  C   UNL     1     -11.638  14.299  72.489  1.00  0.00     0.939 C  
HETATM   10  C   UNL     1     -12.741  15.318  72.575  1.00  0.00    -0.362 C  
HETATM   11  O   UNL     1     -12.976  15.911  73.619  1.00  0.00    -0.532 OA 
HETATM   12  C   UNL     1     -13.551  15.572  71.299  1.00  0.00    -0.520 C  
HETATM   13  C   UNL     1     -13.295  14.898  70.140  1.00  0.00     0.276 C  
HETATM   14  C   UNL     1     -12.229  13.807  70.138  1.00  0.00    -0.425 C  
HETATM   15  C   UNL     1     -13.029  12.536  70.564  1.00  0.00     0.240 C  
HETATM   16  C   UNL     1     -11.228  13.445  68.978  1.00  0.00    -0.323 C  
HETATM   17  C   UNL     1     -11.623  12.345  68.018  1.00  0.00    -0.347 C  
HETATM   18  C   UNL     1     -10.300  11.550  67.878  1.00  0.00    -0.203 C  
HETATM   19  O   UNL     1     -12.144  12.826  66.795  1.00  0.00    -0.457 OA 
HETATM   20  H   UNL     1     -12.393  12.135  66.192  1.00  0.00     0.000 HD 
HETATM   21  C   UNL     1      -9.074  12.399  67.477  1.00  0.00    -0.185 C  
HETATM   22  C   UNL     1      -7.636  12.546  68.510  1.00  0.00    -0.119 C  
HETATM   23  C   UNL     1      -8.978  11.948  65.875  1.00  0.00    -0.009 C  
HETATM   24  O   UNL     1      -6.553  11.405  66.937  1.00  0.00    -0.118 OA 
HETATM   25  O   UNL     1      -7.263  11.370  69.158  1.00  0.00    -0.114 OA 
HETATM   26  C   UNL     1      -5.379  10.026  68.677  1.00  0.00    -0.039 C  
HETATM   27  C   UNL     1      -6.703  10.569  68.140  1.00  0.00    -0.064 C  
HETATM   28  C   UNL     1      -7.705   9.414  68.023  1.00  0.00    -0.084 C  
ENDROOT
BRANCH  22  29
HETATM   29  C   UNL     1      -7.030  13.771  69.457  1.00  0.00     0.058 C  
HETATM   30  O   UNL     1      -7.076  14.978  69.140  1.00  0.00    -0.124 OA 
BRANCH  29  31
HETATM   31  C   UNL     1      -6.276  13.475  70.747  1.00  0.00     0.112 C  
HETATM   32  O   UNL     1      -6.638  12.293  71.419  1.00  0.00     0.967 OA 
HETATM   33  H   UNL     1      -6.167  12.109  72.223  1.00  0.00     0.000 HD 
ENDBRANCH  29  31
ENDBRANCH  22  29
TORSDOF 2
ENDMDL
MODEL       94
REMARK 921   NORMALIZED FREE ENERGY PREDICTED BY IDOCK:    2.33 KCAL/MOL
REMARK 922        TOTAL FREE ENERGY PREDICTED BY IDOCK:    2.76 KCAL/MOL
REMARK 923 INTER-LIGAND FREE ENERGY PREDICTED BY IDOCK:    0.72 KCAL/MOL
REMARK 924 INTRA-LIGAND FREE ENERGY PREDICTED BY IDOCK:    2.04 KCAL/MOL
REMARK 927      BINDING AFFINITY PREDICTED BY RF-SCORE:    0.00 PKD
ROOT
HETATM    1  C   UNL     1     -10.357  13.531  64.294  1.00  0.00    -0.143 C  
HETATM    2  C   UNL     1      -9.081  14.210  65.223  1.00  0.00     1.269 C  
HETATM    3  C   UNL     1      -9.076  13.350  66.646  1.00  0.00    -0.180 C  
HETATM    4  C   UNL     1      -8.311  12.298  67.682  1.00  0.00    -0.166 C  
HETATM    5  C   UNL     1      -7.523  11.215  66.885  1.00  0.00    -0.138 C  
HETATM    6  C   UNL     1      -7.174   9.896  67.527  1.00  0.00    -0.089 C  
HETATM    7  F   UNL     1      -6.817   9.056  66.505  1.00  0.00    -0.074 F  
HETATM    8  C   UNL     1      -8.366   9.292  68.271  1.00  0.00    -0.120 C  
HETATM    9  C   UNL     1      -8.373   7.967  68.535  1.00  0.00    -0.127 C  
HETATM   10  C   UNL     1      -7.270   7.800  69.544  1.00  0.00    -0.079 C  
HETATM   11  O   UNL     1      -6.638   6.756  69.626  1.00  0.00    -0.045 OA 
HETATM   12  C   UNL     1      -6.983   8.996  70.460  1.00  0.00    -0.069 C  
HETATM   13  C   UNL     1      -7.699  10.154  70.375  1.00  0.00     0.139 C  
HETATM   14  C   UNL     1      -8.869  10.230  69.399  1.00  0.00    -0.177 C  
HETATM   15  C   UNL     1     -10.065   9.689  70.244  1.00  0.00    -0.331 C  
HETATM   16  C   UNL     1      -9.333  11.475  68.553  1.00  0.00    -0.171 C  
HETATM   17  C   UNL     1     -10.420  12.357  69.125  1.00  0.00     0.098 C  
HETATM   18  C   UNL     1     -11.317  12.605  67.886  1.00  0.00    -0.337 C  
HETATM   19  O   UNL     1      -9.927  13.534  69.732  1.00  0.00     0.254 OA 
HETATM   20  H   UNL     1     -10.610  14.089  70.092  1.00  0.00     0.000 HD 
HETATM   21  C   UNL     1     -10.575  13.153  66.648  1.00  0.00    -0.284 C  
HETATM   22  C   UNL     1     -10.516  12.275  65.105  1.00  0.00    -0.288 C  
HETATM   23  C   UNL     1     -11.067  14.742  66.751  1.00  0.00    -0.338 C  
HETATM   24  O   UNL     1     -11.773  13.914  64.277  1.00  0.00    -0.397 OA 
HETATM   25  O   UNL     1     -11.703  11.633  64.756  1.00  0.00    -0.190 OA 
HETATM   26  C   UNL     1     -13.199  12.261  63.037  1.00  0.00     0.698 C  
HETATM   27  C   UNL     1     -12.568  12.679  64.364  1.00  0.00    -0.387 C  
HETATM   28  C   UNL     1     -13.644  12.659  65.457  1.00  0.00     2.787 C  
ENDROOT
BRANCH  22  29
HETATM   29  C   UNL     1      -9.322  11.430  64.315  1.00  0.00    -0.063 C  
HETATM   30  O   UNL     1      -8.189  11.220  64.798  1.00  0.00     0.286 OA 
BRANCH  29  31
HETATM   31  C   UNL     1      -9.510  10.942  62.885  1.00  0.00    -0.355 C  
HETATM   32  O   UNL     1      -9.137   9.609  62.631  1.00  0.00    -0.263 OA 
HETATM   33  H   UNL     1      -9.255   9.305  61.739  1.00  0.00     0.000 HD 
ENDBRANCH  29  31
ENDBRANCH  22  29
TORSDOF 2
ENDMDL
MODEL       95
REMARK 921   NORMALIZED FREE ENERGY PREDICTED BY IDOCK:    2.57 KCAL/MOL
REMARK 922        TOTAL FREE ENERGY PREDICTED BY IDOCK:    3.02 KCAL/MOL
REMARK 923 INTER-LIGAND FREE ENERGY PREDICTED BY IDOCK:    2.08 KCAL/MOL
REMARK 924 INTRA-LIGAND FREE ENERGY PREDICTED BY IDOCK:    0.94 KCAL/MOL
REMARK 927      BINDING AFFINITY PREDICTED BY RF-SCORE:    0.00 PKD
ROOT
HETATM    1  C   UNL     1      -9.826  12.957  69.009  1.00  0.00     0.304 C  
HETATM    2  C   UNL     1     -10.385  11.745  70.090  1.00  0.00     1.657 C  
HETATM    3  C   UNL     1     -10.269  10.319  69.242  1.00  0.00    -0.244 C  
HETATM    4  C   UNL     1      -9.579   8.819  69.048  1.00  0.00    -0.162 C  
HETATM    5  C   UNL     1      -8.069   8.853  69.433  1.00  0.00    -0.105 C  
HETATM    6  C   UNL     1      -7.119   7.814  68.893  1.00  0.00    -0.075 C  
HETATM    7  F   UNL     1      -5.857   8.300  69.108  1.00  0.00    -0.032 F  
HETATM    8  C   UNL     1      -7.314   7.588  67.393  1.00  0.00    -0.099 C  
HETATM    9  C   UNL     1      -6.312   7.033  66.677  1.00  0.00    -0.050 C  
HETATM   10  C   UNL     1      -6.248   5.621  67.189  1.00  0.00    -0.034 C  
HETATM   11  O   UNL     1      -5.199   4.993  67.189  1.00  0.00    -0.007 OA 
HETATM   12  C   UNL     1      -7.557   5.012  67.706  1.00  0.00    -0.083 C  
HETATM   13  C   UNL     1      -8.729   5.711  67.693  1.00  0.00    -0.107 C  
HETATM   14  C   UNL     1      -8.753   7.103  67.072  1.00  0.00    -0.123 C  
HETATM   15  C   UNL     1      -9.045   6.810  65.566  1.00  0.00     0.174 C  
HETATM   16  C   UNL     1      -9.589   8.351  67.544  1.00  0.00    -0.194 C  
HETATM   17  C   UNL     1     -10.930   8.596  66.889  1.00  0.00     0.337 C  
HETATM   18  C   UNL     1     -10.897  10.129  66.656  1.00  0.00    -0.084 C  
HETATM   19  O   UNL     1     -12.024   8.149  67.664  1.00  0.00     1.996 OA 
HETATM   20  H   UNL     1     -12.867   8.303  67.253  1.00  0.00     0.000 HD 
HETATM   21  C   UNL     1     -10.588  10.969  67.914  1.00  0.00    -0.244 C  
HETATM   22  C   UNL     1      -9.166  12.028  68.028  1.00  0.00    -0.192 C  
HETATM   23  C   UNL     1     -12.132  11.513  68.231  1.00  0.00    -0.073 C  
HETATM   24  O   UNL     1     -10.600  13.729  68.031  1.00  0.00    -0.242 OA 
HETATM   25  O   UNL     1      -8.858  12.716  66.856  1.00  0.00    -0.210 OA 
HETATM   26  C   UNL     1      -9.134  15.030  66.461  1.00  0.00    -0.319 C  
HETATM   27  C   UNL     1      -9.852  13.715  66.763  1.00  0.00    -0.271 C  
HETATM   28  C   UNL     1     -10.652  13.287  65.527  1.00  0.00    -0.295 C  
ENDROOT
BRANCH  22  29
HETATM   29  C   UNL     1      -7.729  11.926  68.857  1.00  0.00    -0.016 C  
HETATM   30  O   UNL     1      -6.938  10.964  68.755  1.00  0.00    -0.067 OA 
BRANCH  29  31
HETATM   31  C   UNL     1      -7.334  12.973  69.890  1.00  0.00     1.047 C  
HETATM   32  O   UNL     1      -6.187  13.733  69.594  1.00  0.00    -0.111 OA 
HETATM   33  H   UNL     1      -5.941  14.386  70.238  1.00  0.00     0.000 HD 
ENDBRANCH  29  31
ENDBRANCH  22  29
TORSDOF 2
ENDMDL
MODEL       96
REMARK 921   NORMALIZED FREE ENERGY PREDICTED BY IDOCK:    4.00 KCAL/MOL
REMARK 922        TOTAL FREE ENERGY PREDICTED BY IDOCK:    4.62 KCAL/MOL
REMARK 923 INTER-LIGAND FREE ENERGY PREDICTED BY IDOCK:    4.27 KCAL/MOL
REMARK 924 INTRA-LIGAND FREE ENERGY PREDICTED BY IDOCK:    0.36 KCAL/MOL
REMARK 927      BINDING AFFINITY PREDICTED BY RF-SCORE:    0.00 PKD
ROOT
HETATM    1  C   UNL     1      -9.645   8.288  64.536  1.00  0.00     1.923 C  
HETATM    2  C   UNL     1      -9.869   6.587  64.457  1.00  0.00     2.944 C  
HETATM    3  C   UNL     1      -8.850   5.961  65.613  1.00  0.00    -0.126 C  
HETATM    4  C   UNL     1      -8.638   5.148  67.048  1.00  0.00    -0.105 C  
HETATM    5  C   UNL     1      -9.757   5.524  68.065  1.00  0.00    -0.159 C  
HETATM    6  C   UNL     1      -9.537   5.342  69.546  1.00  0.00    -0.149 C  
HETATM    7  F   UNL     1     -10.518   6.067  70.171  1.00  0.00    -0.228 F  
HETATM    8  C   UNL     1      -8.172   5.870  69.988  1.00  0.00    -0.121 C  
HETATM    9  C   UNL     1      -7.976   6.174  71.290  1.00  0.00    -0.113 C  
HETATM   10  C   UNL     1      -8.020   4.837  71.977  1.00  0.00    -0.105 C  
HETATM   11  O   UNL     1      -8.400   4.731  73.135  1.00  0.00    -0.100 OA 
HETATM   12  C   UNL     1      -7.565   3.622  71.159  1.00  0.00    -0.044 C  
HETATM   13  C   UNL     1      -7.129   3.746  69.873  1.00  0.00    -0.042 C  
HETATM   14  C   UNL     1      -7.014   5.138  69.260  1.00  0.00    -0.055 C  
HETATM   15  C   UNL     1      -5.573   5.581  69.669  1.00  0.00    -0.008 C  
HETATM   16  C   UNL     1      -7.300   5.558  67.770  1.00  0.00    -0.076 C  
HETATM   17  C   UNL     1      -6.133   5.599  66.808  1.00  0.00    -0.029 C  
HETATM   18  C   UNL     1      -6.397   6.920  66.041  1.00  0.00    -0.050 C  
HETATM   19  O   UNL     1      -6.044   4.455  65.984  1.00  0.00    -0.029 OA 
HETATM   20  H   UNL     1      -5.312   4.481  65.379  1.00  0.00     0.000 HD 
HETATM   21  C   UNL     1      -7.803   7.035  65.414  1.00  0.00    -0.119 C  
HETATM   22  C   UNL     1      -8.950   8.314  65.869  1.00  0.00    -0.163 C  
HETATM   23  C   UNL     1      -7.390   6.732  63.827  1.00  0.00    -0.079 C  
HETATM   24  O   UNL     1      -8.671   9.111  63.811  1.00  0.00    -0.197 OA 
HETATM   25  O   UNL     1      -8.372   9.564  66.079  1.00  0.00    -0.116 OA 
HETATM   26  C   UNL     1      -8.564  11.463  64.684  1.00  0.00     0.462 C  
HETATM   27  C   UNL     1      -8.052  10.026  64.783  1.00  0.00    -0.155 C  
HETATM   28  C   UNL     1      -6.519  10.042  64.795  1.00  0.00    -0.127 C  
ENDROOT
BRANCH  22  29
HETATM   29  C   UNL     1     -10.347   8.328  66.770  1.00  0.00    -0.290 C  
HETATM   30  O   UNL     1     -11.492   8.272  66.272  1.00  0.00     2.365 OA 
BRANCH  29  31
HETATM   31  C   UNL     1     -10.313   8.519  68.280  1.00  0.00    -0.201 C  
HETATM   32  O   UNL     1     -11.349   9.296  68.830  1.00  0.00    -0.441 OA 
HETATM   33  H   UNL     1     -11.328   9.415  69.771  1.00  0.00     0.000 HD 
ENDBRANCH  29  31
ENDBRANCH  22  29
TORSDOF 2
ENDMDL
MODEL       97
REMARK 921   NORMALIZED FREE ENERGY PREDICTED BY IDOCK:    4.06 KCAL/MOL
REMARK 922        TOTAL FREE ENERGY PREDICTED BY IDOCK:    4.68 KCAL/MOL
REMARK 923 INTER-LIGAND FREE ENERGY PREDICTED BY IDOCK:    2.62 KCAL/MOL
REMARK 924 INTRA-LIGAND FREE ENERGY PREDICTED BY IDOCK:    2.06 KCAL/MOL
REMARK 927      BINDING AFFINITY PREDICTED BY RF-SCORE:    0.00 PKD
ROOT
HETATM    1  C   UNL     1      -8.640  16.590  66.453  1.00  0.00    -0.312 C  
HETATM    2  C   UNL     1      -7.035  16.084  66.110  1.00  0.00     1.451 C  
HETATM    3  C   UNL     1      -6.739  14.835  67.167  1.00  0.00     0.335 C  
HETATM    4  C   UNL     1      -6.428  13.222  67.429  1.00  0.00    -0.047 C  
HETATM    5  C   UNL     1      -7.215  12.338  66.416  1.00  0.00     0.705 C  
HETATM    6  C   UNL     1      -7.513  10.894  66.732  1.00  0.00    -0.134 C  
HETATM    7  F   UNL     1      -8.486  10.502  65.851  1.00  0.00    -0.138 F  
HETATM    8  C   UNL     1      -8.035  10.718  68.158  1.00  0.00    -0.114 C  
HETATM    9  C   UNL     1      -8.732   9.604  68.470  1.00  0.00    -0.120 C  
HETATM   10  C   UNL     1      -7.706   8.508  68.387  1.00  0.00    -0.101 C  
HETATM   11  O   UNL     1      -8.022   7.364  68.087  1.00  0.00    -0.119 OA 
HETATM   12  C   UNL     1      -6.255   8.893  68.698  1.00  0.00    -0.046 C  
HETATM   13  C   UNL     1      -5.908  10.166  69.045  1.00  0.00    -0.037 C  
HETATM   14  C   UNL     1      -7.005  11.213  69.208  1.00  0.00    -0.118 C  
HETATM   15  C   UNL     1      -7.430  11.045  70.701  1.00  0.00     2.005 C  
HETATM   16  C   UNL     1      -6.934  12.743  68.842  1.00  0.00    -0.084 C  
HETATM   17  C   UNL     1      -6.554  13.717  69.934  1.00  0.00     0.005 C  
HETATM   18  C   UNL     1      -7.565  14.869  69.703  1.00  0.00    -0.098 C  
HETATM   19  O   UNL     1      -5.198  14.115  69.885  1.00  0.00    -0.092 OA 
HETATM   20  H   UNL     1      -4.959  14.727  70.571  1.00  0.00     0.000 HD 
HETATM   21  C   UNL     1      -7.590  15.431  68.266  1.00  0.00    -0.115 C  
HETATM   22  C   UNL     1      -9.043  15.376  67.244  1.00  0.00    -0.206 C  
HETATM   23  C   UNL     1      -6.746  16.842  68.540  1.00  0.00    -0.168 C  
HETATM   24  O   UNL     1      -9.090  17.593  67.424  1.00  0.00    -0.236 OA 
HETATM   25  O   UNL     1     -10.237  15.624  67.919  1.00  0.00    -0.234 OA 
HETATM   26  C   UNL     1     -11.579  17.563  67.753  1.00  0.00     0.952 C  
HETATM   27  C   UNL     1     -10.216  17.013  68.172  1.00  0.00    -0.322 C  
HETATM   28  C   UNL     1     -10.100  17.079  69.700  1.00  0.00     0.062 C  
ENDROOT
BRANCH  22  29
HETATM   29  C   UNL     1      -9.476  14.467  65.921  1.00  0.00    -0.184 C  
HETATM   30  O   UNL     1      -8.785  13.529  65.470  1.00  0.00     1.112 OA 
BRANCH  29  31
HETATM   31  C   UNL     1     -10.717  14.800  65.104  1.00  0.00    -0.415 C  
HETATM   32  O   UNL     1     -11.013  13.925  64.043  1.00  0.00    -0.567 OA 
HETATM   33  H   UNL     1     -11.787  14.132  63.533  1.00  0.00     0.000 HD 
ENDBRANCH  29  31
ENDBRANCH  22  29
TORSDOF 2
ENDMDL
MODEL       98
REMARK 921   NORMALIZED FREE ENERGY PREDICTED BY IDOCK:    4.33 KCAL/MOL
REMARK 922        TOTAL FREE ENERGY PREDICTED BY IDOCK:    4.99 KCAL/MOL
REMARK 923 INTER-LIGAND FREE ENERGY PREDICTED BY IDOCK:   -0.81 KCAL/MOL
REMARK 924 INTRA-LIGAND FREE ENERGY PREDICTED BY IDOCK:    5.80 KCAL/MOL
REMARK 927      BINDING AFFINITY PREDICTED BY RF-SCORE:    0.00 PKD
ROOT
HETATM    1  C   UNL     1     -10.216  17.595  67.093  1.00  0.00    -0.342 C  
HETATM    2  C   UNL     1      -9.787  16.655  65.721  1.00  0.00    -0.241 C  
HETATM    3  C   UNL     1      -8.775  15.471  66.305  1.00  0.00    -0.283 C  
HETATM    4  C   UNL     1      -8.474  13.864  66.609  1.00  0.00     0.128 C  
HETATM    5  C   UNL     1      -9.779  13.132  67.045  1.00  0.00    -0.241 C  
HETATM    6  C   UNL     1      -9.709  11.853  67.839  1.00  0.00    -0.192 C  
HETATM    7  F   UNL     1     -10.961  11.654  68.358  1.00  0.00    -0.196 F  
HETATM    8  C   UNL     1      -8.706  11.949  68.989  1.00  0.00     0.296 C  
HETATM    9  C   UNL     1      -8.812  11.092  70.027  1.00  0.00     1.328 C  
HETATM   10  C   UNL     1      -8.454   9.760  69.426  1.00  0.00    -0.159 C  
HETATM   11  O   UNL     1      -8.920   8.719  69.867  1.00  0.00    -0.143 OA 
HETATM   12  C   UNL     1      -7.479   9.774  68.242  1.00  0.00    -0.080 C  
HETATM   13  C   UNL     1      -6.950  10.937  67.762  1.00  0.00    -0.077 C  
HETATM   14  C   UNL     1      -7.273  12.247  68.473  1.00  0.00    -0.103 C  
HETATM   15  C   UNL     1      -6.165  12.331  69.570  1.00  0.00    -0.127 C  
HETATM   16  C   UNL     1      -7.490  13.664  67.822  1.00  0.00    -0.172 C  
HETATM   17  C   UNL     1      -6.302  14.597  67.741  1.00  0.00    -0.152 C  
HETATM   18  C   UNL     1      -6.927  15.949  68.169  1.00  0.00    -0.124 C  
HETATM   19  O   UNL     1      -5.689  14.616  66.468  1.00  0.00     1.337 OA 
HETATM   20  H   UNL     1      -4.943  15.202  66.416  1.00  0.00     0.000 HD 
HETATM   21  C   UNL     1      -8.179  16.367  67.368  1.00  0.00    -0.178 C  
HETATM   22  C   UNL     1      -9.765  16.607  68.133  1.00  0.00    -0.244 C  
HETATM   23  C   UNL     1      -7.474  17.524  66.397  1.00  0.00    -0.334 C  
HETATM   24  O   UNL     1      -9.524  18.764  67.646  1.00  0.00    -0.294 OA 
HETATM   25  O   UNL     1      -9.720  17.221  69.383  1.00  0.00    -0.088 OA 
HETATM   26  C   UNL     1     -10.406  19.423  69.903  1.00  0.00     0.663 C  
HETATM   27  C   UNL     1      -9.422  18.572  69.101  1.00  0.00    -0.054 C  
HETATM   28  C   UNL     1      -8.018  18.742  69.694  1.00  0.00     0.534 C  
ENDROOT
BRANCH  22  29
HETATM   29  C   UNL     1     -11.177  15.730  68.133  1.00  0.00    -0.344 C  
HETATM   30  O   UNL     1     -11.981  15.714  69.090  1.00  0.00    -0.368 OA 
BRANCH  29  31
HETATM   31  C   UNL     1     -11.530  14.795  66.984  1.00  0.00    -0.353 C  
HETATM   32  O   UNL     1     -11.489  15.357  65.695  1.00  0.00    -0.208 OA 
HETATM   33  H   UNL     1     -11.709  14.774  64.978  1.00  0.00     0.000 HD 
ENDBRANCH  29  31
ENDBRANCH  22  29
TORSDOF 2
ENDMDL
MODEL       99
REMARK 921   NORMALIZED FREE ENERGY PREDICTED BY IDOCK:    5.29 KCAL/MOL
REMARK 922        TOTAL FREE ENERGY PREDICTED BY IDOCK:    6.06 KCAL/MOL
REMARK 923 INTER-LIGAND FREE ENERGY PREDICTED BY IDOCK:    4.82 KCAL/MOL
REMARK 924 INTRA-LIGAND FREE ENERGY PREDICTED BY IDOCK:    1.23 KCAL/MOL
REMARK 927      BINDING AFFINITY PREDICTED BY RF-SCORE:    0.00 PKD
ROOT
HETATM    1  C   UNL     1     -10.387  11.998  67.606  1.00  0.00    -0.198 C  
HETATM    2  C   UNL     1     -11.451  11.464  68.843  1.00  0.00    -0.363 C  
HETATM    3  C   UNL     1     -10.976   9.907  69.183  1.00  0.00    -0.233 C  
HETATM    4  C   UNL     1     -10.333   8.805  70.249  1.00  0.00    -0.227 C  
HETATM    5  C   UNL     1      -9.217   9.463  71.115  1.00  0.00    -0.100 C  
HETATM    6  C   UNL     1      -8.160   8.613  71.774  1.00  0.00    -0.114 C  
HETATM    7  F   UNL     1      -7.158   9.469  72.147  1.00  0.00     0.208 F  
HETATM    8  C   UNL     1      -7.588   7.568  70.815  1.00  0.00    -0.081 C  
HETATM    9  C   UNL     1      -6.382   7.022  71.081  1.00  0.00    -0.041 C  
HETATM   10  C   UNL     1      -6.630   6.196  72.313  1.00  0.00    -0.063 C  
HETATM   11  O   UNL     1      -5.742   5.992  73.129  1.00  0.00    -0.035 OA 
HETATM   12  C   UNL     1      -8.042   5.625  72.491  1.00  0.00    -0.103 C  
HETATM   13  C   UNL     1      -9.026   5.844  71.572  1.00  0.00    -0.147 C  
HETATM   14  C   UNL     1      -8.689   6.607  70.295  1.00  0.00    -0.147 C  
HETATM   15  C   UNL     1      -8.201   5.479  69.332  1.00  0.00    -0.098 C  
HETATM   16  C   UNL     1      -9.607   7.618  69.510  1.00  0.00    -0.163 C  
HETATM   17  C   UNL     1     -10.433   7.083  68.362  1.00  0.00    -0.201 C  
HETATM   18  C   UNL     1     -10.236   8.182  67.287  1.00  0.00    -0.348 C  
HETATM   19  O   UNL     1     -11.782   6.841  68.706  1.00  0.00    -0.478 OA 
HETATM   20  H   UNL     1     -12.301   6.504  67.984  1.00  0.00     0.000 HD 
HETATM   21  C   UNL     1     -10.568   9.615  67.756  1.00  0.00    -0.320 C  
HETATM   22  C   UNL     1      -9.357  10.916  67.780  1.00  0.00    -0.157 C  
HETATM   23  C   UNL     1     -12.044   9.785  67.001  1.00  0.00     4.678 C  
HETATM   24  O   UNL     1     -10.542  11.866  66.153  1.00  0.00    -0.241 OA 
HETATM   25  O   UNL     1      -8.483  10.915  66.695  1.00  0.00    -0.140 OA 
HETATM   26  C   UNL     1      -8.445  12.461  64.906  1.00  0.00     2.113 C  
HETATM   27  C   UNL     1      -9.262  11.379  65.613  1.00  0.00    -0.193 C  
HETATM   28  C   UNL     1      -9.353  10.148  64.704  1.00  0.00    -0.334 C  
ENDROOT
BRANCH  22  29
HETATM   29  C   UNL     1      -8.530  11.686  68.999  1.00  0.00     0.168 C  
HETATM   30  O   UNL     1      -8.980  11.830  70.156  1.00  0.00     2.324 OA 
BRANCH  29  31
HETATM   31  C   UNL     1      -7.191  12.364  68.742  1.00  0.00    -0.094 C  
HETATM   32  O   UNL     1      -6.061  11.526  68.747  1.00  0.00    -0.047 OA 
HETATM   33  H   UNL     1      -5.226  11.949  68.587  1.00  0.00     0.000 HD 
ENDBRANCH  29  31
ENDBRANCH  22  29
TORSDOF 2
ENDMDL
MODEL      100
REMARK 921   NORMALIZED FREE ENERGY PREDICTED BY IDOCK:    6.91 KCAL/MOL
REMARK 922        TOTAL FREE ENERGY PREDICTED BY IDOCK:    7.87 KCAL/MOL
REMARK 923 INTER-LIGAND FREE ENERGY PREDICTED BY IDOCK:    5.44 KCAL/MOL
REMARK 924 INTRA-LIGAND FREE ENERGY PREDICTED BY IDOCK:    2.43 KCAL/MOL
REMARK 927      BINDING AFFINITY PREDICTED BY RF-SCORE:    0.00 PKD
ROOT
HETATM    1  C   UNL     1     -10.904  13.459  65.565  1.00  0.00    -0.289 C  
HETATM    2  C   UNL     1     -10.682  11.879  64.932  1.00  0.00    -0.350 C  
HETATM    3  C   UNL     1      -9.300  11.309  65.661  1.00  0.00    -0.245 C  
HETATM    4  C   UNL     1      -8.562  10.228  66.687  1.00  0.00    -0.130 C  
HETATM    5  C   UNL     1      -9.482   9.908  67.904  1.00  0.00    -0.149 C  
HETATM    6  C   UNL     1      -8.893   9.384  69.190  1.00  0.00    -0.143 C  
HETATM    7  F   UNL     1      -9.863   9.537  70.145  1.00  0.00    -0.198 F  
HETATM    8  C   UNL     1      -7.653  10.173  69.612  1.00  0.00    -0.158 C  
HETATM    9  C   UNL     1      -7.256  10.131  70.902  1.00  0.00     0.500 C  
HETATM   10  C   UNL     1      -6.788   8.713  71.084  1.00  0.00    -0.071 C  
HETATM   11  O   UNL     1      -6.855   8.158  72.172  1.00  0.00    -0.066 OA 
HETATM   12  C   UNL     1      -6.225   8.005  69.846  1.00  0.00    -0.029 C  
HETATM   13  C   UNL     1      -6.139   8.632  68.638  1.00  0.00    -0.045 C  
HETATM   14  C   UNL     1      -6.538  10.101  68.536  1.00  0.00    -0.053 C  
HETATM   15  C   UNL     1      -5.212  10.848  68.887  1.00  0.00    -0.041 C  
HETATM   16  C   UNL     1      -7.253  10.821  67.331  1.00  0.00    -0.093 C  
HETATM   17  C   UNL     1      -6.387  11.516  66.305  1.00  0.00     0.097 C  
HETATM   18  C   UNL     1      -7.157  12.842  66.081  1.00  0.00     2.701 C  
HETATM   19  O   UNL     1      -6.187  10.754  65.131  1.00  0.00    -0.330 OA 
HETATM   20  H   UNL     1      -5.643  11.191  64.485  1.00  0.00     0.000 HD 
HETATM   21  C   UNL     1      -8.647  12.672  65.715  1.00  0.00     0.915 C  
HETATM   22  C   UNL     1      -9.958  13.320  66.726  1.00  0.00    -0.263 C  
HETATM   23  C   UNL     1      -8.538  12.996  64.084  1.00  0.00     4.476 C  
HETATM   24  O   UNL     1     -10.372  14.727  65.053  1.00  0.00    -0.400 OA 
HETATM   25  O   UNL     1      -9.700  14.572  67.281  1.00  0.00    -0.225 OA 
HETATM   26  C   UNL     1     -10.697  16.625  66.665  1.00  0.00    -0.124 C  
HETATM   27  C   UNL     1      -9.815  15.468  66.196  1.00  0.00    -0.316 C  
HETATM   28  C   UNL     1      -8.378  15.976  66.019  1.00  0.00     0.027 C  
ENDROOT
BRANCH  22  29
HETATM   29  C   UNL     1     -11.069  12.618  67.744  1.00  0.00    -0.247 C  
HETATM   30  O   UNL     1     -11.017  11.423  68.107  1.00  0.00    -0.202 OA 
BRANCH  29  31
HETATM   31  C   UNL     1     -12.297  13.380  68.222  1.00  0.00     0.120 C  
HETATM   32  O   UNL     1     -13.203  13.783  67.224  1.00  0.00     0.768 OA 
HETATM   33  H   UNL     1     -13.969  14.259  67.522  1.00  0.00     0.000 HD 
ENDBRANCH  29  31
ENDBRANCH  22  29
TORSDOF 2
ENDMDL
MODEL      101
REMARK 921   NORMALIZED FREE ENERGY PREDICTED BY IDOCK:    7.89 KCAL/MOL
REMARK 922        TOTAL FREE ENERGY PREDICTED BY IDOCK:    8.97 KCAL/MOL
REMARK 923 INTER-LIGAND FREE ENERGY PREDICTED BY IDOCK:    9.13 KCAL/MOL
REMARK 924 INTRA-LIGAND FREE ENERGY PREDICTED BY IDOCK:   -0.16 KCAL/MOL
REMARK 927      BINDING AFFINITY PREDICTED BY RF-SCORE:    0.00 PKD
ROOT
HETATM    1  C   UNL     1      -9.426  15.396  67.604  1.00  0.00    -0.205 C  
HETATM    2  C   UNL     1     -10.511  14.850  66.391  1.00  0.00    -0.301 C  
HETATM    3  C   UNL     1     -10.077  13.271  66.097  1.00  0.00    -0.293 C  
HETATM    4  C   UNL     1     -10.444  11.650  66.147  1.00  0.00    -0.289 C  
HETATM    5  C   UNL     1     -11.269  11.312  67.425  1.00  0.00    -0.370 C  
HETATM    6  C   UNL     1     -11.298   9.905  67.965  1.00  0.00     0.081 C  
HETATM    7  F   UNL     1     -11.790   9.994  69.240  1.00  0.00    -0.179 F  
HETATM    8  C   UNL     1      -9.902   9.284  68.015  1.00  0.00    -0.191 C  
HETATM    9  C   UNL     1      -9.678   8.233  68.834  1.00  0.00    -0.164 C  
HETATM   10  C   UNL     1     -10.480   7.122  68.214  1.00  0.00    -0.198 C  
HETATM   11  O   UNL     1     -10.949   6.221  68.896  1.00  0.00    -0.306 OA 
HETATM   12  C   UNL     1     -10.677   7.175  66.694  1.00  0.00    -0.092 C  
HETATM   13  C   UNL     1     -10.140   8.174  65.935  1.00  0.00     0.530 C  
HETATM   14  C   UNL     1      -9.255   9.220  66.606  1.00  0.00    -0.190 C  
HETATM   15  C   UNL     1      -7.837   8.569  66.543  1.00  0.00    -0.096 C  
HETATM   16  C   UNL     1      -9.154  10.754  66.265  1.00  0.00    -0.192 C  
HETATM   17  C   UNL     1      -8.072  11.198  65.307  1.00  0.00     0.268 C  
HETATM   18  C   UNL     1      -7.532  12.474  66.003  1.00  0.00     1.843 C  
HETATM   19  O   UNL     1      -8.539  11.407  63.990  1.00  0.00    -0.319 OA 
HETATM   20  H   UNL     1      -7.859  11.687  63.387  1.00  0.00     0.000 HD 
HETATM   21  C   UNL     1      -8.607  13.525  66.353  1.00  0.00     0.342 C  
HETATM   22  C   UNL     1      -8.932  14.038  68.023  1.00  0.00    -0.182 C  
HETATM   23  C   UNL     1      -8.293  14.614  65.131  1.00  0.00     4.887 C  
HETATM   24  O   UNL     1      -8.109  16.019  67.432  1.00  0.00    -0.146 OA 
HETATM   25  O   UNL     1      -7.797  14.172  68.821  1.00  0.00    -0.137 OA 
HETATM   26  C   UNL     1      -6.839  16.191  69.591  1.00  0.00    -0.139 C  
HETATM   27  C   UNL     1      -7.179  15.354  68.358  1.00  0.00    -0.114 C  
HETATM   28  C   UNL     1      -5.877  14.837  67.733  1.00  0.00    -0.105 C  
ENDROOT
BRANCH  22  29
HETATM   29  C   UNL     1     -10.174  13.746  69.088  1.00  0.00     0.079 C  
HETATM   30  O   UNL     1     -11.293  14.298  69.015  1.00  0.00    -0.243 OA 
BRANCH  29  31
HETATM   31  C   UNL     1      -9.982  12.845  70.301  1.00  0.00     3.607 C  
HETATM   32  O   UNL     1      -8.972  11.871  70.195  1.00  0.00     1.940 OA 
HETATM   33  H   UNL     1      -8.852  11.310  70.951  1.00  0.00     0.000 HD 
ENDBRANCH  29  31
ENDBRANCH  22  29
TORSDOF 2
ENDMDL
MODEL      102
REMARK 921   NORMALIZED FREE ENERGY PREDICTED BY IDOCK:    9.65 KCAL/MOL
REMARK 922        TOTAL FREE ENERGY PREDICTED BY IDOCK:   10.93 KCAL/MOL
REMARK 923 INTER-LIGAND FREE ENERGY PREDICTED BY IDOCK:   10.97 KCAL/MOL
REMARK 924 INTRA-LIGAND FREE ENERGY PREDICTED BY IDOCK:   -0.04 KCAL/MOL
REMARK 927      BINDING AFFINITY PREDICTED BY RF-SCORE:    0.00 PKD
ROOT
HETATM    1  C   UNL     1     -12.727  12.678  68.437  1.00  0.00     1.477 C  
HETATM    2  C   UNL     1     -13.240  13.977  67.438  1.00  0.00     3.024 C  
HETATM    3  C   UNL     1     -12.241  15.247  67.830  1.00  0.00     0.380 C  
HETATM    4  C   UNL     1     -11.050  16.322  67.392  1.00  0.00    -0.095 C  
HETATM    5  C   UNL     1     -10.015  15.643  66.446  1.00  0.00    -0.298 C  
HETATM    6  C   UNL     1      -8.621  16.201  66.312  1.00  0.00    -0.338 C  
HETATM    7  F   UNL     1      -7.872  15.221  65.716  1.00  0.00     0.811 F  
HETATM    8  C   UNL     1      -8.007  16.536  67.672  1.00  0.00    -0.178 C  
HETATM    9  C   UNL     1      -6.665  16.639  67.779  1.00  0.00    -0.157 C  
HETATM   10  C   UNL     1      -6.339  17.875  66.988  1.00  0.00    -0.163 C  
HETATM   11  O   UNL     1      -5.260  18.002  66.425  1.00  0.00    -0.133 OA 
HETATM   12  C   UNL     1      -7.418  18.963  66.926  1.00  0.00    -0.234 C  
HETATM   13  C   UNL     1      -8.614  18.824  67.567  1.00  0.00    -0.292 C  
HETATM   14  C   UNL     1      -8.851  17.592  68.434  1.00  0.00    -0.276 C  
HETATM   15  C   UNL     1      -8.290  18.029  69.824  1.00  0.00     1.277 C  
HETATM   16  C   UNL     1     -10.198  16.798  68.628  1.00  0.00    -0.298 C  
HETATM   17  C   UNL     1     -11.072  17.163  69.806  1.00  0.00     0.507 C  
HETATM   18  C   UNL     1     -11.492  15.768  70.337  1.00  0.00    -0.380 C  
HETATM   19  O   UNL     1     -12.155  18.005  69.464  1.00  0.00     3.853 OA 
HETATM   20  H   UNL     1     -12.705  18.233  70.204  1.00  0.00     0.000 HD 
HETATM   21  C   UNL     1     -12.123  14.836  69.281  1.00  0.00    -0.296 C  
HETATM   22  C   UNL     1     -11.405  13.273  68.835  1.00  0.00    -0.288 C  
HETATM   23  C   UNL     1     -13.718  14.984  69.744  1.00  0.00     1.734 C  
HETATM   24  O   UNL     1     -13.184  12.336  69.788  1.00  0.00     1.100 OA 
HETATM   25  O   UNL     1     -10.865  12.557  69.902  1.00  0.00     0.296 OA 
HETATM   26  C   UNL     1     -11.743  10.589  70.874  1.00  0.00    -0.431 C  
HETATM   27  C   UNL     1     -11.989  12.073  70.607  1.00  0.00    -0.160 C  
HETATM   28  C   UNL     1     -11.914  12.838  71.934  1.00  0.00     1.538 C  
ENDROOT
BRANCH  22  29
HETATM   29  C   UNL     1     -10.584  12.733  67.495  1.00  0.00    -0.229 C  
HETATM   30  O   UNL     1     -11.139  12.191  66.516  1.00  0.00    -0.276 OA 
BRANCH  29  31
HETATM   31  C   UNL     1      -9.063  12.776  67.427  1.00  0.00    -0.192 C  
HETATM   32  O   UNL     1      -8.388  12.788  68.661  1.00  0.00    -0.315 OA 
HETATM   33  H   UNL     1      -7.440  12.815  68.619  1.00  0.00     0.000 HD 
ENDBRANCH  29  31
ENDBRANCH  22  29
TORSDOF 2
ENDMDL
MODEL      103
REMARK 921   NORMALIZED FREE ENERGY PREDICTED BY IDOCK:   12.09 KCAL/MOL
REMARK 922        TOTAL FREE ENERGY PREDICTED BY IDOCK:   13.66 KCAL/MOL
REMARK 923 INTER-LIGAND FREE ENERGY PREDICTED BY IDOCK:   13.67 KCAL/MOL
REMARK 924 INTRA-LIGAND FREE ENERGY PREDICTED BY IDOCK:   -0.01 KCAL/MOL
REMARK 927      BINDING AFFINITY PREDICTED BY RF-SCORE:    0.00 PKD
ROOT
HETATM    1  C   UNL     1     -10.754  16.945  65.671  1.00  0.00    -0.167 C  
HETATM    2  C   UNL     1      -9.489  15.951  65.071  1.00  0.00     0.945 C  
HETATM    3  C   UNL     1      -8.300  16.013  66.232  1.00  0.00    -0.287 C  
HETATM    4  C   UNL     1      -7.386  15.246  67.390  1.00  0.00    -0.241 C  
HETATM    5  C   UNL     1      -8.236  14.181  68.146  1.00  0.00    -0.149 C  
HETATM    6  C   UNL     1      -7.832  13.718  69.523  1.00  0.00     0.581 C  
HETATM    7  F   UNL     1      -8.925  13.080  70.049  1.00  0.00     1.882 F  
HETATM    8  C   UNL     1      -7.458  14.890  70.432  1.00  0.00     0.589 C  
HETATM    9  C   UNL     1      -7.483  14.717  71.771  1.00  0.00     3.278 C  
HETATM   10  C   UNL     1      -6.348  13.763  72.027  1.00  0.00     1.381 C  
HETATM   11  O   UNL     1      -6.374  12.986  72.972  1.00  0.00     1.752 OA 
HETATM   12  C   UNL     1      -5.166  13.815  71.052  1.00  0.00    -0.146 C  
HETATM   13  C   UNL     1      -5.135  14.692  70.007  1.00  0.00    -0.093 C  
HETATM   14  C   UNL     1      -6.268  15.702  69.855  1.00  0.00    -0.157 C  
HETATM   15  C   UNL     1      -5.785  16.904  70.727  1.00  0.00     0.164 C  
HETATM   16  C   UNL     1      -6.905  16.236  68.517  1.00  0.00    -0.137 C  
HETATM   17  C   UNL     1      -6.367  17.525  67.940  1.00  0.00    -0.165 C  
HETATM   18  C   UNL     1      -7.668  18.259  67.526  1.00  0.00    -0.223 C  
HETATM   19  O   UNL     1      -5.449  17.328  66.883  1.00  0.00    -0.142 OA 
HETATM   20  H   UNL     1      -5.111  18.138  66.520  1.00  0.00     0.000 HD 
HETATM   21  C   UNL     1      -8.610  17.443  66.614  1.00  0.00    -0.283 C  
HETATM   22  C   UNL     1     -10.266  17.013  67.092  1.00  0.00    -0.306 C  
HETATM   23  C   UNL     1      -8.268  18.200  65.168  1.00  0.00     2.298 C  
HETATM   24  O   UNL     1     -10.945  18.387  65.479  1.00  0.00    -0.374 OA 
HETATM   25  O   UNL     1     -10.950  18.014  67.781  1.00  0.00    -0.317 OA 
HETATM   26  C   UNL     1     -12.741  19.323  66.965  1.00  0.00     5.437 C  
HETATM   27  C   UNL     1     -11.263  18.971  66.792  1.00  0.00     0.296 C  
HETATM   28  C   UNL     1     -10.412  20.178  67.204  1.00  0.00    -0.429 C  
ENDROOT
BRANCH  22  29
HETATM   29  C   UNL     1     -10.986  15.593  67.569  1.00  0.00    -0.309 C  
HETATM   30  O   UNL     1     -11.204  14.635  66.797  1.00  0.00    -0.328 OA 
BRANCH  29  31
HETATM   31  C   UNL     1     -11.525  15.414  68.982  1.00  0.00    -0.337 C  
HETATM   32  O   UNL     1     -10.957  16.238  69.971  1.00  0.00    -0.343 OA 
HETATM   33  H   UNL     1     -11.293  16.127  70.852  1.00  0.00     0.000 HD 
ENDBRANCH  29  31
ENDBRANCH  22  29
TORSDOF 2
ENDMDL
MODEL      104
REMARK 921   NORMALIZED FREE ENERGY PREDICTED BY IDOCK:   13.41 KCAL/MOL
REMARK 922        TOTAL FREE ENERGY PREDICTED BY IDOCK:   15.13 KCAL/MOL
REMARK 923 INTER-LIGAND FREE ENERGY PREDICTED BY IDOCK:   12.68 KCAL/MOL
REMARK 924 INTRA-LIGAND FREE ENERGY PREDICTED BY IDOCK:    2.45 KCAL/MOL
REMARK 927      BINDING AFFINITY PREDICTED BY RF-SCORE:    0.00 PKD
ROOT
HETATM    1  C   UNL     1      -9.140  16.836  69.891  1.00  0.00     1.090 C  
HETATM    2  C   UNL     1     -10.853  16.715  69.872  1.00  0.00    -0.206 C  
HETATM    3  C   UNL     1     -11.244  16.326  68.303  1.00  0.00    -0.324 C  
HETATM    4  C   UNL     1     -11.869  15.241  67.209  1.00  0.00     0.025 C  
HETATM    5  C   UNL     1     -11.497  13.781  67.605  1.00  0.00    -0.354 C  
HETATM    6  C   UNL     1     -11.492  12.685  66.570  1.00  0.00    -0.353 C  
HETATM    7  F   UNL     1     -10.805  11.638  67.123  1.00  0.00    -0.242 F  
HETATM    8  C   UNL     1     -10.786  13.118  65.284  1.00  0.00    -0.314 C  
HETATM    9  C   UNL     1     -10.323  12.172  64.439  1.00  0.00    -0.348 C  
HETATM   10  C   UNL     1     -11.574  11.537  63.897  1.00  0.00    -0.212 C  
HETATM   11  O   UNL     1     -11.589  10.367  63.542  1.00  0.00     2.071 OA 
HETATM   12  C   UNL     1     -12.820  12.427  63.809  1.00  0.00    -0.379 C  
HETATM   13  C   UNL     1     -12.796  13.736  64.193  1.00  0.00     0.243 C  
HETATM   14  C   UNL     1     -11.475  14.351  64.643  1.00  0.00    -0.390 C  
HETATM   15  C   UNL     1     -10.849  14.853  63.303  1.00  0.00     4.124 C  
HETATM   16  C   UNL     1     -11.252  15.426  65.772  1.00  0.00    -0.196 C  
HETATM   17  C   UNL     1     -11.200  16.882  65.366  1.00  0.00     0.255 C  
HETATM   18  C   UNL     1     -10.005  17.406  66.202  1.00  0.00    -0.281 C  
HETATM   19  O   UNL     1     -12.414  17.571  65.590  1.00  0.00     4.624 OA 
HETATM   20  H   UNL     1     -12.382  18.486  65.336  1.00  0.00     0.000 HD 
HETATM   21  C   UNL     1     -10.100  17.123  67.716  1.00  0.00    -0.306 C  
HETATM   22  C   UNL     1      -8.899  16.139  68.581  1.00  0.00    -0.218 C  
HETATM   23  C   UNL     1     -10.532  18.650  68.225  1.00  0.00    -0.315 C  
HETATM   24  O   UNL     1      -8.309  18.014  69.622  1.00  0.00     0.549 OA 
HETATM   25  O   UNL     1      -7.582  16.339  68.172  1.00  0.00    -0.143 OA 
HETATM   26  C   UNL     1      -5.876  17.438  69.384  1.00  0.00    -0.224 C  
HETATM   27  C   UNL     1      -7.235  17.600  68.704  1.00  0.00    -0.255 C  
HETATM   28  C   UNL     1      -7.066  18.465  67.449  1.00  0.00    -0.209 C  
ENDROOT
BRANCH  22  29
HETATM   29  C   UNL     1      -8.925  14.603  69.217  1.00  0.00     0.048 C  
HETATM   30  O   UNL     1      -9.601  13.668  68.739  1.00  0.00    -0.143 OA 
BRANCH  29  31
HETATM   31  C   UNL     1      -8.189  14.269  70.508  1.00  0.00     2.353 C  
HETATM   32  O   UNL     1      -8.702  14.851  71.682  1.00  0.00     2.713 OA 
HETATM   33  H   UNL     1      -8.244  14.643  72.486  1.00  0.00     0.000 HD 
ENDBRANCH  29  31
ENDBRANCH  22  29
TORSDOF 2
ENDMDL
MODEL      105
REMARK 921   NORMALIZED FREE ENERGY PREDICTED BY IDOCK:   15.14 KCAL/MOL
REMARK 922        TOTAL FREE ENERGY PREDICTED BY IDOCK:   17.06 KCAL/MOL
REMARK 923 INTER-LIGAND FREE ENERGY PREDICTED BY IDOCK:   15.33 KCAL/MOL
REMARK 924 INTRA-LIGAND FREE ENERGY PREDICTED BY IDOCK:    1.73 KCAL/MOL
REMARK 927      BINDING AFFINITY PREDICTED BY RF-SCORE:    0.00 PKD
ROOT
HETATM    1  C   UNL     1      -8.549  14.318  70.914  1.00  0.00     3.930 C  
HETATM    2  C   UNL     1      -7.882  15.822  71.408  1.00  0.00     4.582 C  
HETATM    3  C   UNL     1      -7.622  16.665  69.998  1.00  0.00     1.168 C  
HETATM    4  C   UNL     1      -7.977  17.958  69.015  1.00  0.00    -0.070 C  
HETATM    5  C   UNL     1      -9.496  18.298  69.080  1.00  0.00    -0.037 C  
HETATM    6  C   UNL     1     -10.158  19.056  67.957  1.00  0.00    -0.385 C  
HETATM    7  F   UNL     1     -11.508  18.892  68.128  1.00  0.00     0.130 F  
HETATM    8  C   UNL     1      -9.761  18.507  66.587  1.00  0.00    -0.353 C  
HETATM    9  C   UNL     1     -10.551  18.766  65.522  1.00  0.00    -0.038 C  
HETATM   10  C   UNL     1     -10.390  20.246  65.311  1.00  0.00     0.287 C  
HETATM   11  O   UNL     1     -11.289  20.919  64.826  1.00  0.00     0.934 OA 
HETATM   12  C   UNL     1      -9.050  20.864  65.730  1.00  0.00     0.998 C  
HETATM   13  C   UNL     1      -8.045  20.107  66.258  1.00  0.00    -0.268 C  
HETATM   14  C   UNL     1      -8.230  18.596  66.358  1.00  0.00    -0.295 C  
HETATM   15  C   UNL     1      -7.724  18.090  64.970  1.00  0.00     2.437 C  
HETATM   16  C   UNL     1      -7.712  17.638  67.496  1.00  0.00    -0.210 C  
HETATM   17  C   UNL     1      -6.383  16.946  67.291  1.00  0.00    -0.171 C  
HETATM   18  C   UNL     1      -6.692  15.508  67.781  1.00  0.00    -0.186 C  
HETATM   19  O   UNL     1      -5.313  17.574  67.968  1.00  0.00    -0.131 OA 
HETATM   20  H   UNL     1      -4.478  17.139  67.839  1.00  0.00     0.000 HD 
HETATM   21  C   UNL     1      -7.295  15.423  69.199  1.00  0.00    -0.175 C  
HETATM   22  C   UNL     1      -8.903  14.733  69.513  1.00  0.00     0.124 C  
HETATM   23  C   UNL     1      -5.933  14.914  70.015  1.00  0.00    -0.143 C  
HETATM   24  O   UNL     1      -7.842  13.082  70.562  1.00  0.00     2.870 OA 
HETATM   25  O   UNL     1      -9.211  13.608  68.749  1.00  0.00    -0.097 OA 
HETATM   26  C   UNL     1      -9.357  11.376  69.513  1.00  0.00     0.681 C  
HETATM   27  C   UNL     1      -8.431  12.575  69.312  1.00  0.00     0.881 C  
HETATM   28  C   UNL     1      -7.433  12.253  68.192  1.00  0.00    -0.112 C  
ENDROOT
BRANCH  22  29
HETATM   29  C   UNL     1     -10.372  15.396  69.916  1.00  0.00    -0.285 C  
HETATM   30  O   UNL     1     -10.747  16.527  69.540  1.00  0.00    -0.300 OA 
BRANCH  29  31
HETATM   31  C   UNL     1     -11.324  14.691  70.873  1.00  0.00    -0.095 C  
HETATM   32  O   UNL     1     -11.949  15.503  71.837  1.00  0.00    -0.342 OA 
HETATM   33  H   UNL     1     -12.542  15.063  72.433  1.00  0.00     0.000 HD 
ENDBRANCH  29  31
ENDBRANCH  22  29
TORSDOF 2
ENDMDL
MODEL      106
REMARK 921   NORMALIZED FREE ENERGY PREDICTED BY IDOCK:   15.64 KCAL/MOL
REMARK 922        TOTAL FREE ENERGY PREDICTED BY IDOCK:   17.62 KCAL/MOL
REMARK 923 INTER-LIGAND FREE ENERGY PREDICTED BY IDOCK:   17.33 KCAL/MOL
REMARK 924 INTRA-LIGAND FREE ENERGY PREDICTED BY IDOCK:    0.29 KCAL/MOL
REMARK 927      BINDING AFFINITY PREDICTED BY RF-SCORE:    0.00 PKD
ROOT
HETATM    1  C   UNL     1      -9.941  14.598  70.986  1.00  0.00     2.011 C  
HETATM    2  C   UNL     1      -9.572  12.925  71.109  1.00  0.00    10.686 C  
HETATM    3  C   UNL     1     -10.137  12.250  69.699  1.00  0.00     1.123 C  
HETATM    4  C   UNL     1      -9.835  11.479  68.257  1.00  0.00    -0.203 C  
HETATM    5  C   UNL     1      -8.515  12.004  67.618  1.00  0.00    -0.160 C  
HETATM    6  C   UNL     1      -8.273  11.861  66.136  1.00  0.00     0.236 C  
HETATM    7  F   UNL     1      -7.236  12.703  65.834  1.00  0.00     1.261 F  
HETATM    8  C   UNL     1      -9.498  12.270  65.317  1.00  0.00     0.057 C  
HETATM    9  C   UNL     1      -9.338  12.605  64.018  1.00  0.00     0.827 C  
HETATM   10  C   UNL     1      -8.954  11.308  63.361  1.00  0.00    -0.033 C  
HETATM   11  O   UNL     1      -8.245  11.287  62.365  1.00  0.00    -0.185 OA 
HETATM   12  C   UNL     1      -9.497  10.023  63.997  1.00  0.00    -0.299 C  
HETATM   13  C   UNL     1     -10.299  10.051  65.100  1.00  0.00     0.010 C  
HETATM   14  C   UNL     1     -10.734  11.399  65.665  1.00  0.00    -0.301 C  
HETATM   15  C   UNL     1     -12.032  11.715  64.856  1.00  0.00     0.068 C  
HETATM   16  C   UNL     1     -10.941  11.784  67.178  1.00  0.00    -0.326 C  
HETATM   17  C   UNL     1     -12.334  11.672  67.755  1.00  0.00     0.880 C  
HETATM   18  C   UNL     1     -12.446  12.980  68.579  1.00  0.00     0.421 C  
HETATM   19  O   UNL     1     -12.538  10.492  68.505  1.00  0.00    -0.310 OA 
HETATM   20  H   UNL     1     -13.414  10.421  68.868  1.00  0.00     0.000 HD 
HETATM   21  C   UNL     1     -11.304  13.206  69.593  1.00  0.00    -0.182 C  
HETATM   22  C   UNL     1     -10.217  14.609  69.507  1.00  0.00    -0.022 C  
HETATM   23  C   UNL     1     -12.127  12.801  70.985  1.00  0.00    -0.027 C  
HETATM   24  O   UNL     1     -11.166  15.292  71.400  1.00  0.00    -0.356 OA 
HETATM   25  O   UNL     1     -10.837  15.804  69.149  1.00  0.00    -0.222 OA 
HETATM   26  C   UNL     1     -11.262  17.655  70.558  1.00  0.00     2.120 C  
HETATM   27  C   UNL     1     -11.567  16.180  70.298  1.00  0.00    -0.259 C  
HETATM   28  C   UNL     1     -13.023  16.046  69.836  1.00  0.00     0.975 C  
ENDROOT
BRANCH  22  29
HETATM   29  C   UNL     1      -8.627  14.797  69.057  1.00  0.00    -0.137 C  
HETATM   30  O   UNL     1      -7.662  14.585  69.821  1.00  0.00     0.037 OA 
BRANCH  29  31
HETATM   31  C   UNL     1      -8.252  15.350  67.689  1.00  0.00    -0.157 C  
HETATM   32  O   UNL     1      -6.968  15.020  67.218  1.00  0.00    -0.202 OA 
HETATM   33  H   UNL     1      -6.734  15.365  66.365  1.00  0.00     0.000 HD 
ENDBRANCH  29  31
ENDBRANCH  22  29
TORSDOF 2
ENDMDL
MODEL      107
REMARK 921   NORMALIZED FREE ENERGY PREDICTED BY IDOCK:   21.86 KCAL/MOL
REMARK 922        TOTAL FREE ENERGY PREDICTED BY IDOCK:   24.57 KCAL/MOL
REMARK 923 INTER-LIGAND FREE ENERGY PREDICTED BY IDOCK:   23.28 KCAL/MOL
REMARK 924 INTRA-LIGAND FREE ENERGY PREDICTED BY IDOCK:    1.28 KCAL/MOL
REMARK 927      BINDING AFFINITY PREDICTED BY RF-SCORE:    0.00 PKD
ROOT
HETATM    1  C   UNL     1      -7.468  14.745  70.260  1.00  0.00     0.464 C  
HETATM    2  C   UNL     1      -5.898  14.057  70.359  1.00  0.00    -0.159 C  
HETATM    3  C   UNL     1      -6.062  12.513  69.763  1.00  0.00    -0.134 C  
HETATM    4  C   UNL     1      -5.707  11.381  68.598  1.00  0.00    -0.042 C  
HETATM    5  C   UNL     1      -5.626  12.045  67.191  1.00  0.00    -0.132 C  
HETATM    6  C   UNL     1      -5.818  11.219  65.944  1.00  0.00     0.058 C  
HETATM    7  F   UNL     1      -6.040  12.108  64.926  1.00  0.00     2.561 F  
HETATM    8  C   UNL     1      -7.023  10.285  66.058  1.00  0.00    -0.120 C  
HETATM    9  C   UNL     1      -7.587   9.799  64.931  1.00  0.00    -0.128 C  
HETATM   10  C   UNL     1      -6.538   8.873  64.380  1.00  0.00    -0.071 C  
HETATM   11  O   UNL     1      -6.442   8.667  63.178  1.00  0.00    -0.089 OA 
HETATM   12  C   UNL     1      -5.605   8.201  65.394  1.00  0.00    -0.040 C  
HETATM   13  C   UNL     1      -5.724   8.422  66.735  1.00  0.00    -0.044 C  
HETATM   14  C   UNL     1      -6.867   9.295  67.243  1.00  0.00    -0.080 C  
HETATM   15  C   UNL     1      -8.033   8.272  67.425  1.00  0.00    -0.106 C  
HETATM   16  C   UNL     1      -6.843  10.299  68.456  1.00  0.00    -0.061 C  
HETATM   17  C   UNL     1      -7.311   9.796  69.803  1.00  0.00    -0.116 C  
HETATM   18  C   UNL     1      -8.178  10.980  70.303  1.00  0.00     1.830 C  
HETATM   19  O   UNL     1      -6.252   9.444  70.670  1.00  0.00    -0.051 OA 
HETATM   20  H   UNL     1      -6.546   9.128  71.517  1.00  0.00     0.000 HD 
HETATM   21  C   UNL     1      -7.469  12.351  70.295  1.00  0.00     2.445 C  
HETATM   22  C   UNL     1      -8.052  13.721  69.326  1.00  0.00     0.423 C  
HETATM   23  C   UNL     1      -7.166  12.480  71.930  1.00  0.00     8.247 C  
HETATM   24  O   UNL     1      -8.542  14.708  71.259  1.00  0.00     2.847 OA 
HETATM   25  O   UNL     1      -9.438  13.854  69.283  1.00  0.00     0.193 OA 
HETATM   26  C   UNL     1     -10.733  15.523  70.344  1.00  0.00    -0.342 C  
HETATM   27  C   UNL     1      -9.785  14.344  70.561  1.00  0.00     1.896 C  
HETATM   28  C   UNL     1     -10.571  13.178  71.172  1.00  0.00     5.085 C  
ENDROOT
BRANCH  22  29
HETATM   29  C   UNL     1      -7.505  14.453  67.937  1.00  0.00    -0.152 C  
HETATM   30  O   UNL     1      -6.299  14.518  67.618  1.00  0.00    -0.213 OA 
BRANCH  29  31
HETATM   31  C   UNL     1      -8.456  15.192  67.004  1.00  0.00    -0.229 C  
HETATM   32  O   UNL     1      -8.984  14.442  65.938  1.00  0.00    -0.455 OA 
HETATM   33  H   UNL     1      -9.577  14.903  65.356  1.00  0.00     0.000 HD 
ENDBRANCH  29  31
ENDBRANCH  22  29
TORSDOF 2
ENDMDL
MODEL      108
REMARK 921   NORMALIZED FREE ENERGY PREDICTED BY IDOCK:   23.28 KCAL/MOL
REMARK 922        TOTAL FREE ENERGY PREDICTED BY IDOCK:   26.15 KCAL/MOL
REMARK 923 INTER-LIGAND FREE ENERGY PREDICTED BY IDOCK:   25.82 KCAL/MOL
REMARK 924 INTRA-LIGAND FREE ENERGY PREDICTED BY IDOCK:    0.32 KCAL/MOL
REMARK 927      BINDING AFFINITY PREDICTED BY RF-SCORE:    0.00 PKD
ROOT
HETATM    1  C   UNL     1      -7.173  10.747  71.724  1.00  0.00     4.379 C  
HETATM    2  C   UNL     1      -7.423  10.007  73.253  1.00  0.00     4.074 C  
HETATM    3  C   UNL     1      -8.443   8.727  72.955  1.00  0.00     0.254 C  
HETATM    4  C   UNL     1      -8.710   7.086  72.918  1.00  0.00    -0.137 C  
HETATM    5  C   UNL     1      -7.429   6.330  72.455  1.00  0.00    -0.093 C  
HETATM    6  C   UNL     1      -7.530   4.946  71.863  1.00  0.00    -0.085 C  
HETATM    7  F   UNL     1      -6.330   4.704  71.248  1.00  0.00    -0.016 F  
HETATM    8  C   UNL     1      -8.648   4.850  70.825  1.00  0.00    -0.127 C  
HETATM    9  C   UNL     1      -8.615   3.853  69.914  1.00  0.00    -0.104 C  
HETATM   10  C   UNL     1      -8.857   2.615  70.734  1.00  0.00    -0.083 C  
HETATM   11  O   UNL     1      -8.398   1.532  70.399  1.00  0.00    -0.041 OA 
HETATM   12  C   UNL     1      -9.706   2.779  72.001  1.00  0.00    -0.223 C  
HETATM   13  C   UNL     1     -10.228   3.986  72.364  1.00  0.00    -0.232 C  
HETATM   14  C   UNL     1     -10.031   5.186  71.443  1.00  0.00    -0.252 C  
HETATM   15  C   UNL     1     -11.248   5.083  70.469  1.00  0.00     1.042 C  
HETATM   16  C   UNL     1      -9.804   6.688  71.857  1.00  0.00    -0.174 C  
HETATM   17  C   UNL     1     -11.013   7.594  71.931  1.00  0.00    -0.241 C  
HETATM   18  C   UNL     1     -10.488   8.884  71.250  1.00  0.00    -0.357 C  
HETATM   19  O   UNL     1     -11.493   7.784  73.246  1.00  0.00    -0.615 OA 
HETATM   20  H   UNL     1     -12.253   8.354  73.293  1.00  0.00     0.000 HD 
HETATM   21  C   UNL     1      -9.179   9.443  71.845  1.00  0.00     0.731 C  
HETATM   22  C   UNL     1      -7.689   9.607  70.890  1.00  0.00     0.137 C  
HETATM   23  C   UNL     1      -9.825  10.713  72.711  1.00  0.00    11.770 C  
HETATM   24  O   UNL     1      -7.963  11.806  71.087  1.00  0.00     5.628 OA 
HETATM   25  O   UNL     1      -7.885  10.030  69.577  1.00  0.00    -0.121 OA 
HETATM   26  C   UNL     1      -7.342  12.148  68.678  1.00  0.00    -0.109 C  
HETATM   27  C   UNL     1      -8.206  11.401  69.693  1.00  0.00     0.804 C  
HETATM   28  C   UNL     1      -9.668  11.449  69.234  1.00  0.00     0.183 C  
ENDROOT
BRANCH  22  29
HETATM   29  C   UNL     1      -6.251   8.773  70.864  1.00  0.00    -0.043 C  
HETATM   30  O   UNL     1      -5.318   8.978  71.669  1.00  0.00    -0.039 OA 
BRANCH  29  31
HETATM   31  C   UNL     1      -5.943   7.761  69.769  1.00  0.00    -0.023 C  
HETATM   32  O   UNL     1      -7.020   6.962  69.342  1.00  0.00    -0.062 OA 
HETATM   33  H   UNL     1      -6.827   6.331  68.660  1.00  0.00     0.000 HD 
ENDBRANCH  29  31
ENDBRANCH  22  29
TORSDOF 2
ENDMDL
MODEL      109
REMARK 921   NORMALIZED FREE ENERGY PREDICTED BY IDOCK:   24.14 KCAL/MOL
REMARK 922        TOTAL FREE ENERGY PREDICTED BY IDOCK:   27.11 KCAL/MOL
REMARK 923 INTER-LIGAND FREE ENERGY PREDICTED BY IDOCK:   26.78 KCAL/MOL
REMARK 924 INTRA-LIGAND FREE ENERGY PREDICTED BY IDOCK:    0.33 KCAL/MOL
REMARK 927      BINDING AFFINITY PREDICTED BY RF-SCORE:    0.00 PKD
ROOT
HETATM    1  C   UNL     1     -10.253   8.231  67.210  1.00  0.00    -0.274 C  
HETATM    2  C   UNL     1     -11.078   8.264  68.716  1.00  0.00     0.289 C  
HETATM    3  C   UNL     1      -9.885   8.430  69.862  1.00  0.00    -0.186 C  
HETATM    4  C   UNL     1      -9.157   9.333  71.053  1.00  0.00    -0.253 C  
HETATM    5  C   UNL     1      -9.187  10.848  70.692  1.00  0.00     3.029 C  
HETATM    6  C   UNL     1      -8.196  11.802  71.310  1.00  0.00     9.868 C  
HETATM    7  F   UNL     1      -8.241  12.944  70.555  1.00  0.00     3.168 F  
HETATM    8  C   UNL     1      -6.773  11.243  71.280  1.00  0.00     2.411 C  
HETATM    9  C   UNL     1      -5.731  12.095  71.392  1.00  0.00     0.393 C  
HETATM   10  C   UNL     1      -5.830  12.593  72.808  1.00  0.00     1.832 C  
HETATM   11  O   UNL     1      -5.429  13.706  73.119  1.00  0.00    -0.418 OA 
HETATM   12  C   UNL     1      -6.451  11.639  73.836  1.00  0.00     4.440 C  
HETATM   13  C   UNL     1      -6.884  10.393  73.489  1.00  0.00     3.692 C  
HETATM   14  C   UNL     1      -6.668   9.906  72.059  1.00  0.00     1.083 C  
HETATM   15  C   UNL     1      -5.244   9.269  72.118  1.00  0.00    -0.074 C  
HETATM   16  C   UNL     1      -7.625   8.997  71.200  1.00  0.00    -0.130 C  
HETATM   17  C   UNL     1      -7.376   7.505  71.200  1.00  0.00    -0.071 C  
HETATM   18  C   UNL     1      -7.548   7.152  69.701  1.00  0.00    -0.104 C  
HETATM   19  O   UNL     1      -8.233   6.792  72.068  1.00  0.00    -0.105 OA 
HETATM   20  H   UNL     1      -8.076   5.854  72.068  1.00  0.00     0.000 HD 
HETATM   21  C   UNL     1      -8.878   7.621  69.073  1.00  0.00    -0.135 C  
HETATM   22  C   UNL     1      -8.942   8.766  67.715  1.00  0.00    -0.135 C  
HETATM   23  C   UNL     1      -9.665   6.152  69.037  1.00  0.00    -0.157 C  
HETATM   24  O   UNL     1      -9.710   7.070  66.497  1.00  0.00    -0.177 OA 
HETATM   25  O   UNL     1      -7.951   8.580  66.753  1.00  0.00    -0.093 OA 
HETATM   26  C   UNL     1      -8.244   7.730  64.567  1.00  0.00    -0.060 C  
HETATM   27  C   UNL     1      -8.348   7.416  66.059  1.00  0.00    -0.143 C  
HETATM   28  C   UNL     1      -7.255   6.407  66.434  1.00  0.00    -0.073 C  
ENDROOT
BRANCH  22  29
HETATM   29  C   UNL     1      -9.371  10.367  67.590  1.00  0.00    -0.148 C  
HETATM   30  O   UNL     1     -10.506  10.753  67.239  1.00  0.00    -0.211 OA 
BRANCH  29  31
HETATM   31  C   UNL     1      -8.351  11.479  67.800  1.00  0.00    -0.136 C  
HETATM   32  O   UNL     1      -8.210  12.397  66.744  1.00  0.00    -0.343 OA 
HETATM   33  H   UNL     1      -7.574  13.090  66.875  1.00  0.00     0.000 HD 
ENDBRANCH  29  31
ENDBRANCH  22  29
TORSDOF 2
ENDMDL
MODEL      110
REMARK 921   NORMALIZED FREE ENERGY PREDICTED BY IDOCK:   25.01 KCAL/MOL
REMARK 922        TOTAL FREE ENERGY PREDICTED BY IDOCK:   28.09 KCAL/MOL
REMARK 923 INTER-LIGAND FREE ENERGY PREDICTED BY IDOCK:   21.25 KCAL/MOL
REMARK 924 INTRA-LIGAND FREE ENERGY PREDICTED BY IDOCK:    6.83 KCAL/MOL
REMARK 927      BINDING AFFINITY PREDICTED BY RF-SCORE:    0.00 PKD
ROOT
HETATM    1  C   UNL     1     -11.591  10.614  65.522  1.00  0.00     1.439 C  
HETATM    2  C   UNL     1     -12.156   9.016  65.798  1.00  0.00     9.929 C  
HETATM    3  C   UNL     1     -10.784   8.091  65.956  1.00  0.00     1.802 C  
HETATM    4  C   UNL     1      -9.797   7.140  66.898  1.00  0.00    -0.271 C  
HETATM    5  C   UNL     1      -9.754   7.671  68.362  1.00  0.00    -0.164 C  
HETATM    6  C   UNL     1      -8.597   7.327  69.265  1.00  0.00    -0.137 C  
HETATM    7  F   UNL     1      -8.663   8.197  70.321  1.00  0.00    -0.125 F  
HETATM    8  C   UNL     1      -7.251   7.504  68.561  1.00  0.00    -0.090 C  
HETATM    9  C   UNL     1      -6.134   7.652  69.306  1.00  0.00    -0.034 C  
HETATM   10  C   UNL     1      -5.960   6.307  69.956  1.00  0.00    -0.026 C  
HETATM   11  O   UNL     1      -5.419   6.196  71.048  1.00  0.00    -0.017 OA 
HETATM   12  C   UNL     1      -6.487   5.091  69.185  1.00  0.00    -0.035 C  
HETATM   13  C   UNL     1      -7.077   5.218  67.961  1.00  0.00    -0.066 C  
HETATM   14  C   UNL     1      -7.139   6.595  67.309  1.00  0.00    -0.080 C  
HETATM   15  C   UNL     1      -5.784   6.677  66.535  1.00  0.00    -0.014 C  
HETATM   16  C   UNL     1      -8.297   7.186  66.420  1.00  0.00    -0.125 C  
HETATM   17  C   UNL     1      -8.181   7.046  64.919  1.00  0.00    -0.074 C  
HETATM   18  C   UNL     1      -8.624   8.449  64.431  1.00  0.00     0.017 C  
HETATM   19  O   UNL     1      -8.946   5.979  64.393  1.00  0.00    -0.318 OA 
HETATM   20  H   UNL     1      -8.874   5.891  63.450  1.00  0.00     0.000 HD 
HETATM   21  C   UNL     1      -9.992   8.920  64.969  1.00  0.00     1.086 C  
HETATM   22  C   UNL     1     -10.174  10.380  65.966  1.00  0.00    -0.228 C  
HETATM   23  C   UNL     1     -10.899   8.662  63.595  1.00  0.00    10.368 C  
HETATM   24  O   UNL     1     -11.273  11.258  64.243  1.00  0.00    -0.299 OA 
HETATM   25  O   UNL     1      -9.372  11.451  65.579  1.00  0.00    -0.221 OA 
HETATM   26  C   UNL     1     -10.087  13.451  64.541  1.00  0.00    -0.220 C  
HETATM   27  C   UNL     1      -9.975  11.934  64.397  1.00  0.00    -0.234 C  
HETATM   28  C   UNL     1      -8.928  11.610  63.324  1.00  0.00     0.135 C  
ENDROOT
BRANCH  22  29
HETATM   29  C   UNL     1     -10.477  10.630  67.582  1.00  0.00    -0.227 C  
HETATM   30  O   UNL     1     -10.312  11.728  68.154  1.00  0.00    -0.187 OA 
BRANCH  29  31
HETATM   31  C   UNL     1     -10.882   9.483  68.498  1.00  0.00    -0.132 C  
HETATM   32  O   UNL     1     -10.258   9.447  69.758  1.00  0.00    -0.196 OA 
HETATM   33  H   UNL     1     -10.511   8.732  70.329  1.00  0.00     0.000 HD 
ENDBRANCH  29  31
ENDBRANCH  22  29
TORSDOF 2
ENDMDL
MODEL      111
REMARK 921   NORMALIZED FREE ENERGY PREDICTED BY IDOCK:   26.76 KCAL/MOL
REMARK 922        TOTAL FREE ENERGY PREDICTED BY IDOCK:   30.04 KCAL/MOL
REMARK 923 INTER-LIGAND FREE ENERGY PREDICTED BY IDOCK:   29.62 KCAL/MOL
REMARK 924 INTRA-LIGAND FREE ENERGY PREDICTED BY IDOCK:    0.42 KCAL/MOL
REMARK 927      BINDING AFFINITY PREDICTED BY RF-SCORE:    0.00 PKD
ROOT
HETATM    1  C   UNL     1      -7.872   8.905  73.342  1.00  0.00     0.519 C  
HETATM    2  C   UNL     1      -7.165   7.351  73.531  1.00  0.00    -0.096 C  
HETATM    3  C   UNL     1      -7.818   6.426  72.312  1.00  0.00    -0.102 C  
HETATM    4  C   UNL     1      -7.619   5.559  70.907  1.00  0.00    -0.090 C  
HETATM    5  C   UNL     1      -6.556   6.234  69.990  1.00  0.00    -0.048 C  
HETATM    6  C   UNL     1      -6.545   5.965  68.506  1.00  0.00    -0.055 C  
HETATM    7  F   UNL     1      -5.760   6.938  67.946  1.00  0.00    -0.016 F  
HETATM    8  C   UNL     1      -7.947   6.051  67.902  1.00  0.00    -0.106 C  
HETATM    9  C   UNL     1      -8.078   6.257  66.573  1.00  0.00    -0.110 C  
HETATM   10  C   UNL     1      -7.565   4.982  65.964  1.00  0.00    -0.087 C  
HETATM   11  O   UNL     1      -7.044   4.972  64.856  1.00  0.00    -0.059 OA 
HETATM   12  C   UNL     1      -7.728   3.703  66.793  1.00  0.00    -0.081 C  
HETATM   13  C   UNL     1      -8.322   3.715  68.022  1.00  0.00    -0.101 C  
HETATM   14  C   UNL     1      -8.911   5.021  68.546  1.00  0.00    -0.112 C  
HETATM   15  C   UNL     1     -10.363   5.004  67.973  1.00  0.00    -0.096 C  
HETATM   16  C   UNL     1      -8.930   5.536  70.034  1.00  0.00    -0.149 C  
HETATM   17  C   UNL     1     -10.156   5.244  70.870  1.00  0.00    -0.226 C  
HETATM   18  C   UNL     1     -10.381   6.598  71.591  1.00  0.00    -0.227 C  
HETATM   19  O   UNL     1      -9.994   4.142  71.740  1.00  0.00    -0.177 OA 
HETATM   20  H   UNL     1     -10.764   3.959  72.266  1.00  0.00     0.000 HD 
HETATM   21  C   UNL     1      -9.151   7.141  72.350  1.00  0.00    -0.150 C  
HETATM   22  C   UNL     1      -8.390   8.695  71.946  1.00  0.00    -0.124 C  
HETATM   23  C   UNL     1      -9.630   6.759  73.900  1.00  0.00    -0.258 C  
HETATM   24  O   UNL     1      -9.120   9.412  73.922  1.00  0.00     2.159 OA 
HETATM   25  O   UNL     1      -9.285   9.711  71.615  1.00  0.00     0.047 OA 
HETATM   26  C   UNL     1      -9.820  11.607  72.922  1.00  0.00    20.712 C  
HETATM   27  C   UNL     1      -9.869  10.081  72.846  1.00  0.00     7.030 C  
HETATM   28  C   UNL     1     -11.327   9.637  72.679  1.00  0.00     1.923 C  
ENDROOT
BRANCH  22  29
HETATM   29  C   UNL     1      -6.969   9.110  71.191  1.00  0.00    -0.081 C  
HETATM   30  O   UNL     1      -5.838   8.847  71.653  1.00  0.00    -0.049 OA 
BRANCH  29  31
HETATM   31  C   UNL     1      -6.963   9.944  69.917  1.00  0.00    -0.105 C  
HETATM   32  O   UNL     1      -5.980  10.947  69.837  1.00  0.00    -0.063 OA 
HETATM   33  H   UNL     1      -5.977  11.467  69.043  1.00  0.00     0.000 HD 
ENDBRANCH  29  31
ENDBRANCH  22  29
TORSDOF 2
ENDMDL
MODEL      112
REMARK 921   NORMALIZED FREE ENERGY PREDICTED BY IDOCK:   30.80 KCAL/MOL
REMARK 922        TOTAL FREE ENERGY PREDICTED BY IDOCK:   34.55 KCAL/MOL
REMARK 923 INTER-LIGAND FREE ENERGY PREDICTED BY IDOCK:   30.16 KCAL/MOL
REMARK 924 INTRA-LIGAND FREE ENERGY PREDICTED BY IDOCK:    4.39 KCAL/MOL
REMARK 927      BINDING AFFINITY PREDICTED BY RF-SCORE:    0.00 PKD
ROOT
HETATM    1  C   UNL     1     -10.430  11.681  63.885  1.00  0.00    -0.382 C  
HETATM    2  C   UNL     1      -9.049  11.582  62.868  1.00  0.00    -0.163 C  
HETATM    3  C   UNL     1      -8.025  10.516  63.630  1.00  0.00    -0.023 C  
HETATM    4  C   UNL     1      -7.232   9.055  63.647  1.00  0.00    -0.093 C  
HETATM    5  C   UNL     1      -8.117   7.940  63.014  1.00  0.00    -0.108 C  
HETATM    6  C   UNL     1      -7.873   6.489  63.346  1.00  0.00    -0.106 C  
HETATM    7  F   UNL     1      -8.990   5.809  62.939  1.00  0.00     0.008 F  
HETATM    8  C   UNL     1      -7.680   6.272  64.847  1.00  0.00    -0.099 C  
HETATM    9  C   UNL     1      -7.869   5.038  65.362  1.00  0.00    -0.088 C  
HETATM   10  C   UNL     1      -6.731   4.237  64.793  1.00  0.00    -0.045 C  
HETATM   11  O   UNL     1      -6.839   3.035  64.592  1.00  0.00    -0.039 OA 
HETATM   12  C   UNL     1      -5.436   4.997  64.482  1.00  0.00    -0.013 C  
HETATM   13  C   UNL     1      -5.315   6.335  64.720  1.00  0.00    -0.018 C  
HETATM   14  C   UNL     1      -6.468   7.076  65.389  1.00  0.00    -0.047 C  
HETATM   15  C   UNL     1      -6.165   6.895  66.910  1.00  0.00    -0.041 C  
HETATM   16  C   UNL     1      -6.953   8.548  65.112  1.00  0.00    -0.075 C  
HETATM   17  C   UNL     1      -6.410   9.651  65.993  1.00  0.00    -0.073 C  
HETATM   18  C   UNL     1      -7.683  10.491  66.276  1.00  0.00    -0.135 C  
HETATM   19  O   UNL     1      -5.354  10.378  65.398  1.00  0.00    -0.072 OA 
HETATM   20  H   UNL     1      -5.013  11.071  65.952  1.00  0.00     0.000 HD 
HETATM   21  C   UNL     1      -8.454  10.940  65.017  1.00  0.00    -0.009 C  
HETATM   22  C   UNL     1     -10.135  10.455  64.704  1.00  0.00    -0.308 C  
HETATM   23  C   UNL     1      -7.967  12.534  64.986  1.00  0.00     3.629 C  
HETATM   24  O   UNL     1     -10.668  12.594  65.008  1.00  0.00    -0.277 OA 
HETATM   25  O   UNL     1     -10.952  10.431  65.832  1.00  0.00     0.068 OA 
HETATM   26  C   UNL     1     -12.687  11.949  66.356  1.00  0.00     2.597 C  
HETATM   27  C   UNL     1     -11.183  11.792  66.130  1.00  0.00    -0.306 C  
HETATM   28  C   UNL     1     -10.455  11.977  67.466  1.00  0.00    -0.234 C  
ENDROOT
BRANCH  22  29
HETATM   29  C   UNL     1     -10.837   9.388  63.640  1.00  0.00     6.118 C  
HETATM   30  O   UNL     1     -11.861   9.649  62.973  1.00  0.00     7.265 OA 
BRANCH  29  31
HETATM   31  C   UNL     1     -10.321   7.963  63.492  1.00  0.00     8.806 C  
HETATM   32  O   UNL     1     -10.523   7.113  64.595  1.00  0.00     4.423 OA 
HETATM   33  H   UNL     1     -10.201   6.225  64.502  1.00  0.00     0.000 HD 
ENDBRANCH  29  31
ENDBRANCH  22  29
TORSDOF 2
ENDMDL
MODEL      113
REMARK 921   NORMALIZED FREE ENERGY PREDICTED BY IDOCK:   36.49 KCAL/MOL
REMARK 922        TOTAL FREE ENERGY PREDICTED BY IDOCK:   40.90 KCAL/MOL
REMARK 923 INTER-LIGAND FREE ENERGY PREDICTED BY IDOCK:   39.73 KCAL/MOL
REMARK 924 INTRA-LIGAND FREE ENERGY PREDICTED BY IDOCK:    1.17 KCAL/MOL
REMARK 927      BINDING AFFINITY PREDICTED BY RF-SCORE:    0.00 PKD
ROOT
HETATM    1  C   UNL     1      -5.612  13.004  66.303  1.00  0.00     3.117 C  
HETATM    2  C   UNL     1      -5.989  14.566  65.698  1.00  0.00    10.053 C  
HETATM    3  C   UNL     1      -7.647  14.672  65.774  1.00  0.00     4.740 C  
HETATM    4  C   UNL     1      -9.011  15.374  66.416  1.00  0.00    -0.351 C  
HETATM    5  C   UNL     1      -8.801  15.708  67.923  1.00  0.00    -0.171 C  
HETATM    6  C   UNL     1      -9.985  15.870  68.843  1.00  0.00    -0.225 C  
HETATM    7  F   UNL     1      -9.491  15.804  70.119  1.00  0.00    -0.196 F  
HETATM    8  C   UNL     1     -11.013  14.755  68.650  1.00  0.00    -0.262 C  
HETATM    9  C   UNL     1     -11.898  14.499  69.639  1.00  0.00    -0.367 C  
HETATM   10  C   UNL     1     -12.776  15.720  69.653  1.00  0.00     0.324 C  
HETATM   11  O   UNL     1     -13.320  16.098  70.682  1.00  0.00     0.086 OA 
HETATM   12  C   UNL     1     -12.958  16.459  68.322  1.00  0.00     3.325 C  
HETATM   13  C   UNL     1     -12.361  16.026  67.174  1.00  0.00     1.802 C  
HETATM   14  C   UNL     1     -11.561  14.728  67.199  1.00  0.00    -0.373 C  
HETATM   15  C   UNL     1     -12.646  13.643  66.907  1.00  0.00    -0.012 C  
HETATM   16  C   UNL     1     -10.245  14.395  66.401  1.00  0.00    -0.294 C  
HETATM   17  C   UNL     1     -10.381  13.685  65.073  1.00  0.00    -0.374 C  
HETATM   18  C   UNL     1      -9.249  12.630  65.157  1.00  0.00     0.554 C  
HETATM   19  O   UNL     1     -10.288  14.551  63.960  1.00  0.00    -0.112 OA 
HETATM   20  H   UNL     1     -10.374  14.104  63.125  1.00  0.00     0.000 HD 
HETATM   21  C   UNL     1      -7.853  13.202  65.484  1.00  0.00     4.099 C  
HETATM   22  C   UNL     1      -6.947  12.733  66.940  1.00  0.00     0.375 C  
HETATM   23  C   UNL     1      -7.190  13.121  63.957  1.00  0.00    14.766 C  
HETATM   24  O   UNL     1      -5.508  11.743  65.562  1.00  0.00     0.206 OA 
HETATM   25  O   UNL     1      -7.047  11.385  67.277  1.00  0.00    -0.102 OA 
HETATM   26  C   UNL     1      -5.353   9.748  67.079  1.00  0.00    -0.042 C  
HETATM   27  C   UNL     1      -6.251  10.722  66.317  1.00  0.00    -0.130 C  
HETATM   28  C   UNL     1      -7.284   9.923  65.512  1.00  0.00    -0.122 C  
ENDROOT
BRANCH  22  29
HETATM   29  C   UNL     1      -6.597  13.510  68.367  1.00  0.00    -0.095 C  
HETATM   30  O   UNL     1      -6.343  14.730  68.446  1.00  0.00    -0.089 OA 
BRANCH  29  31
HETATM   31  C   UNL     1      -6.462  12.740  69.674  1.00  0.00    -0.046 C  
HETATM   32  O   UNL     1      -7.210  11.553  69.774  1.00  0.00    -0.353 OA 
HETATM   33  H   UNL     1      -7.125  11.073  70.590  1.00  0.00     0.000 HD 
ENDBRANCH  29  31
ENDBRANCH  22  29
TORSDOF 2
ENDMDL
MODEL      114
REMARK 921   NORMALIZED FREE ENERGY PREDICTED BY IDOCK:   56.88 KCAL/MOL
REMARK 922        TOTAL FREE ENERGY PREDICTED BY IDOCK:   63.68 KCAL/MOL
REMARK 923 INTER-LIGAND FREE ENERGY PREDICTED BY IDOCK:   62.92 KCAL/MOL
REMARK 924 INTRA-LIGAND FREE ENERGY PREDICTED BY IDOCK:    0.75 KCAL/MOL
REMARK 927      BINDING AFFINITY PREDICTED BY RF-SCORE:    0.00 PKD
ROOT
HETATM    1  C   UNL     1     -10.886  18.450  65.237  1.00  0.00     0.552 C  
HETATM    2  C   UNL     1     -11.749  18.582  66.716  1.00  0.00     2.036 C  
HETATM    3  C   UNL     1     -11.286  17.258  67.608  1.00  0.00     0.165 C  
HETATM    4  C   UNL     1     -10.517  16.624  68.940  1.00  0.00    -0.322 C  
HETATM    5  C   UNL     1      -9.247  17.455  69.290  1.00  0.00     0.149 C  
HETATM    6  C   UNL     1      -8.129  16.841  70.094  1.00  0.00     2.004 C  
HETATM    7  F   UNL     1      -7.045  17.663  69.935  1.00  0.00    -0.005 F  
HETATM    8  C   UNL     1      -7.768  15.442  69.593  1.00  0.00    -0.156 C  
HETATM    9  C   UNL     1      -6.557  14.927  69.897  1.00  0.00    -0.175 C  
HETATM   10  C   UNL     1      -6.628  14.706  71.383  1.00  0.00     0.787 C  
HETATM   11  O   UNL     1      -5.625  14.759  72.081  1.00  0.00     0.013 OA 
HETATM   12  C   UNL     1      -8.012  14.410  71.974  1.00  0.00     5.769 C  
HETATM   13  C   UNL     1      -9.126  14.339  71.190  1.00  0.00     4.857 C  
HETATM   14  C   UNL     1      -8.978  14.475  69.678  1.00  0.00     0.456 C  
HETATM   15  C   UNL     1      -8.704  13.008  69.220  1.00  0.00     0.916 C  
HETATM   16  C   UNL     1      -9.974  15.170  68.675  1.00  0.00    -0.220 C  
HETATM   17  C   UNL     1     -11.001  14.305  67.980  1.00  0.00    -0.249 C  
HETATM   18  C   UNL     1     -10.943  14.843  66.528  1.00  0.00    -0.327 C  
HETATM   19  O   UNL     1     -12.282  14.367  68.574  1.00  0.00    -0.555 OA 
HETATM   20  H   UNL     1     -12.928  13.823  68.137  1.00  0.00     0.000 HD 
HETATM   21  C   UNL     1     -11.134  16.369  66.394  1.00  0.00     0.181 C  
HETATM   22  C   UNL     1      -9.886  17.430  65.706  1.00  0.00    -0.005 C  
HETATM   23  C   UNL     1     -12.708  16.372  65.845  1.00  0.00     4.066 C  
HETATM   24  O   UNL     1     -11.288  17.755  64.009  1.00  0.00     0.917 OA 
HETATM   25  O   UNL     1      -9.206  16.894  64.613  1.00  0.00     2.451 OA 
HETATM   26  C   UNL     1      -9.408  17.564  62.355  1.00  0.00    24.548 C  
HETATM   27  C   UNL     1     -10.137  16.958  63.554  1.00  0.00     9.316 C  
HETATM   28  C   UNL     1     -10.427  15.480  63.266  1.00  0.00     6.580 C  
ENDROOT
BRANCH  22  29
HETATM   29  C   UNL     1      -8.836  18.537  66.366  1.00  0.00    -0.256 C  
HETATM   30  O   UNL     1      -7.719  18.235  66.837  1.00  0.00    -0.212 OA 
BRANCH  29  31
HETATM   31  C   UNL     1      -9.228  19.999  66.531  1.00  0.00    -0.368 C  
HETATM   32  O   UNL     1      -9.077  20.813  65.393  1.00  0.00     0.012 OA 
HETATM   33  H   UNL     1      -9.322  21.725  65.496  1.00  0.00     0.000 HD 
ENDBRANCH  29  31
ENDBRANCH  22  29
TORSDOF 2
ENDMDL
MODEL      115
REMARK 921   NORMALIZED FREE ENERGY PREDICTED BY IDOCK:   57.81 KCAL/MOL
REMARK 922        TOTAL FREE ENERGY PREDICTED BY IDOCK:   64.72 KCAL/MOL
REMARK 923 INTER-LIGAND FREE ENERGY PREDICTED BY IDOCK:   62.81 KCAL/MOL
REMARK 924 INTRA-LIGAND FREE ENERGY PREDICTED BY IDOCK:    1.91 KCAL/MOL
REMARK 927      BINDING AFFINITY PREDICTED BY RF-SCORE:    0.00 PKD
ROOT
HETATM    1  C   UNL     1     -11.456  17.613  66.431  1.00  0.00     1.486 C  
HETATM    2  C   UNL     1     -13.072  17.509  67.002  1.00  0.00     8.154 C  
HETATM    3  C   UNL     1     -13.200  15.990  67.669  1.00  0.00     4.481 C  
HETATM    4  C   UNL     1     -13.422  15.025  69.004  1.00  0.00     2.858 C  
HETATM    5  C   UNL     1     -12.730  15.647  70.254  1.00  0.00    -0.248 C  
HETATM    6  C   UNL     1     -12.349  14.780  71.427  1.00  0.00    -0.337 C  
HETATM    7  F   UNL     1     -11.474  15.517  72.181  1.00  0.00    -0.437 F  
HETATM    8  C   UNL     1     -11.657  13.491  70.983  1.00  0.00     0.609 C  
HETATM    9  C   UNL     1     -10.891  12.817  71.868  1.00  0.00     7.611 C  
HETATM   10  C   UNL     1     -11.882  12.296  72.872  1.00  0.00     6.406 C  
HETATM   11  O   UNL     1     -11.565  12.111  74.039  1.00  0.00    11.351 OA 
HETATM   12  C   UNL     1     -13.299  12.008  72.361  1.00  0.00    -0.042 C  
HETATM   13  C   UNL     1     -13.644  12.203  71.056  1.00  0.00     0.989 C  
HETATM   14  C   UNL     1     -12.572  12.640  70.063  1.00  0.00     0.093 C  
HETATM   15  C   UNL     1     -11.969  11.283  69.580  1.00  0.00    -0.423 C  
HETATM   16  C   UNL     1     -12.737  13.616  68.838  1.00  0.00     0.802 C  
HETATM   17  C   UNL     1     -13.019  13.011  67.482  1.00  0.00     2.514 C  
HETATM   18  C   UNL     1     -12.082  13.835  66.562  1.00  0.00    -0.483 C  
HETATM   19  O   UNL     1     -14.384  13.062  67.116  1.00  0.00     9.455 OA 
HETATM   20  H   UNL     1     -14.561  12.683  66.263  1.00  0.00     0.000 HD 
HETATM   21  C   UNL     1     -12.245  15.366  66.675  1.00  0.00     0.775 C  
HETATM   22  C   UNL     1     -10.922  16.432  67.194  1.00  0.00    -0.082 C  
HETATM   23  C   UNL     1     -13.098  15.626  65.266  1.00  0.00     1.833 C  
HETATM   24  O   UNL     1     -10.929  17.230  65.117  1.00  0.00    -0.555 OA 
HETATM   25  O   UNL     1      -9.666  16.079  66.704  1.00  0.00    -0.225 OA 
HETATM   26  C   UNL     1      -8.419  17.224  65.053  1.00  0.00     3.441 C  
HETATM   27  C   UNL     1      -9.703  16.447  65.341  1.00  0.00     0.191 C  
HETATM   28  C   UNL     1      -9.641  15.094  64.621  1.00  0.00     1.493 C  
ENDROOT
BRANCH  22  29
HETATM   29  C   UNL     1     -10.617  17.277  68.592  1.00  0.00    -0.329 C  
HETATM   30  O   UNL     1      -9.939  16.826  69.539  1.00  0.00    -0.177 OA 
BRANCH  29  31
HETATM   31  C   UNL     1     -11.247  18.640  68.847  1.00  0.00     1.851 C  
HETATM   32  O   UNL     1     -11.082  19.598  67.830  1.00  0.00    -0.245 OA 
HETATM   33  H   UNL     1     -11.475  20.448  67.989  1.00  0.00     0.000 HD 
ENDBRANCH  29  31
ENDBRANCH  22  29
TORSDOF 2
ENDMDL
MODEL      116
REMARK 921   NORMALIZED FREE ENERGY PREDICTED BY IDOCK:   76.14 KCAL/MOL
REMARK 922        TOTAL FREE ENERGY PREDICTED BY IDOCK:   85.19 KCAL/MOL
REMARK 923 INTER-LIGAND FREE ENERGY PREDICTED BY IDOCK:   85.15 KCAL/MOL
REMARK 924 INTRA-LIGAND FREE ENERGY PREDICTED BY IDOCK:    0.04 KCAL/MOL
REMARK 927      BINDING AFFINITY PREDICTED BY RF-SCORE:    0.00 PKD
ROOT
HETATM    1  C   UNL     1     -12.285  10.400  66.991  1.00  0.00     3.773 C  
HETATM    2  C   UNL     1     -11.842  11.931  66.351  1.00  0.00    -0.115 C  
HETATM    3  C   UNL     1     -11.373  12.833  67.666  1.00  0.00    -0.359 C  
HETATM    4  C   UNL     1     -10.181  13.637  68.502  1.00  0.00    -0.234 C  
HETATM    5  C   UNL     1      -8.821  12.886  68.381  1.00  0.00    -0.120 C  
HETATM    6  C   UNL     1      -7.738  13.096  69.408  1.00  0.00     0.599 C  
HETATM    7  F   UNL     1      -6.844  12.072  69.238  1.00  0.00    -0.096 F  
HETATM    8  C   UNL     1      -8.286  13.044  70.834  1.00  0.00     8.140 C  
HETATM    9  C   UNL     1      -7.438  12.792  71.855  1.00  0.00     9.565 C  
HETATM   10  C   UNL     1      -6.573  14.022  71.910  1.00  0.00     1.730 C  
HETATM   11  O   UNL     1      -5.418  13.968  72.309  1.00  0.00    -0.214 OA 
HETATM   12  C   UNL     1      -7.210  15.337  71.446  1.00  0.00     2.335 C  
HETATM   13  C   UNL     1      -8.503  15.396  71.014  1.00  0.00     2.898 C  
HETATM   14  C   UNL     1      -9.361  14.136  71.073  1.00  0.00     4.694 C  
HETATM   15  C   UNL     1      -9.962  14.189  72.514  1.00  0.00     7.313 C  
HETATM   16  C   UNL     1     -10.468  13.680  70.050  1.00  0.00     1.042 C  
HETATM   17  C   UNL     1     -11.904  14.052  70.344  1.00  0.00    -0.286 C  
HETATM   18  C   UNL     1     -12.651  12.737  70.006  1.00  0.00     0.073 C  
HETATM   19  O   UNL     1     -12.352  15.180  69.619  1.00  0.00    -0.494 OA 
HETATM   20  H   UNL     1     -13.254  15.414  69.804  1.00  0.00     0.000 HD 
HETATM   21  C   UNL     1     -12.368  12.175  68.597  1.00  0.00     0.323 C  
HETATM   22  C   UNL     1     -11.636  10.577  68.336  1.00  0.00    -0.128 C  
HETATM   23  C   UNL     1     -13.789  12.635  67.858  1.00  0.00    10.384 C  
HETATM   24  O   UNL     1     -13.597   9.966  67.482  1.00  0.00    11.462 OA 
HETATM   25  O   UNL     1     -12.078   9.586  69.210  1.00  0.00     0.613 OA 
HETATM   26  C   UNL     1     -13.491   7.765  68.686  1.00  0.00    12.398 C  
HETATM   27  C   UNL     1     -13.386   9.287  68.771  1.00  0.00     7.996 C  
HETATM   28  C   UNL     1     -14.258   9.783  69.932  1.00  0.00     2.565 C  
ENDROOT
BRANCH  22  29
HETATM   29  C   UNL     1     -10.129  10.076  67.845  1.00  0.00    -0.169 C  
HETATM   30  O   UNL     1      -9.671  10.280  66.701  1.00  0.00    -0.172 OA 
BRANCH  29  31
HETATM   31  C   UNL     1      -9.240   9.233  68.750  1.00  0.00    -0.136 C  
HETATM   32  O   UNL     1      -9.215   9.599  70.108  1.00  0.00    -0.226 OA 
HETATM   33  H   UNL     1      -8.661   9.073  70.673  1.00  0.00     0.000 HD 
ENDBRANCH  29  31
ENDBRANCH  22  29
TORSDOF 2
ENDMDL
MODEL      117
REMARK 921   NORMALIZED FREE ENERGY PREDICTED BY IDOCK:   86.50 KCAL/MOL
REMARK 922        TOTAL FREE ENERGY PREDICTED BY IDOCK:   96.77 KCAL/MOL
REMARK 923 INTER-LIGAND FREE ENERGY PREDICTED BY IDOCK:   95.68 KCAL/MOL
REMARK 924 INTRA-LIGAND FREE ENERGY PREDICTED BY IDOCK:    1.08 KCAL/MOL
REMARK 927      BINDING AFFINITY PREDICTED BY RF-SCORE:    0.00 PKD
ROOT
HETATM    1  C   UNL     1      -9.312  15.794  71.281  1.00  0.00     3.406 C  
HETATM    2  C   UNL     1      -9.726  14.328  70.488  1.00  0.00     2.160 C  
HETATM    3  C   UNL     1     -10.933  14.737  69.420  1.00  0.00    -0.282 C  
HETATM    4  C   UNL     1     -11.466  14.901  67.853  1.00  0.00    -0.357 C  
HETATM    5  C   UNL     1     -10.314  15.395  66.928  1.00  0.00    -0.277 C  
HETATM    6  C   UNL     1     -10.625  16.089  65.626  1.00  0.00    -0.377 C  
HETATM    7  F   UNL     1      -9.464  16.699  65.230  1.00  0.00    -0.026 F  
HETATM    8  C   UNL     1     -11.712  17.151  65.790  1.00  0.00     1.994 C  
HETATM    9  C   UNL     1     -11.817  18.132  64.867  1.00  0.00     4.260 C  
HETATM   10  C   UNL     1     -12.285  17.410  63.633  1.00  0.00     7.532 C  
HETATM   11  O   UNL     1     -12.001  17.816  62.515  1.00  0.00    12.116 OA 
HETATM   12  C   UNL     1     -13.132  16.150  63.847  1.00  0.00     2.843 C  
HETATM   13  C   UNL     1     -13.458  15.708  65.096  1.00  0.00     2.482 C  
HETATM   14  C   UNL     1     -13.038  16.535  66.307  1.00  0.00     6.247 C  
HETATM   15  C   UNL     1     -14.226  17.534  66.477  1.00  0.00    14.775 C  
HETATM   16  C   UNL     1     -12.580  16.006  67.718  1.00  0.00     1.981 C  
HETATM   17  C   UNL     1     -13.624  15.888  68.805  1.00  0.00     4.452 C  
HETATM   18  C   UNL     1     -12.873  16.462  70.034  1.00  0.00     1.997 C  
HETATM   19  O   UNL     1     -14.105  14.570  68.981  1.00  0.00     4.278 OA 
HETATM   20  H   UNL     1     -14.761  14.495  69.665  1.00  0.00     0.000 HD 
HETATM   21  C   UNL     1     -11.508  15.804  70.325  1.00  0.00    -0.369 C  
HETATM   22  C   UNL     1      -9.984  16.719  70.304  1.00  0.00     1.053 C  
HETATM   23  C   UNL     1     -11.961  14.859  71.621  1.00  0.00    -0.427 C  
HETATM   24  O   UNL     1      -9.897  16.365  72.499  1.00  0.00     6.003 OA 
HETATM   25  O   UNL     1     -10.068  18.000  70.845  1.00  0.00     2.235 OA 
HETATM   26  C   UNL     1      -9.157  18.731  72.900  1.00  0.00     8.874 C  
HETATM   27  C   UNL     1     -10.162  17.790  72.238  1.00  0.00     6.013 C  
HETATM   28  C   UNL     1     -11.582  18.269  72.561  1.00  0.00     3.680 C  
ENDROOT
BRANCH  22  29
HETATM   29  C   UNL     1      -8.703  16.781  69.246  1.00  0.00     0.024 C  
HETATM   30  O   UNL     1      -8.414  17.790  68.568  1.00  0.00    -0.290 OA 
BRANCH  29  31
HETATM   31  C   UNL     1      -7.852  15.551  68.960  1.00  0.00    -0.201 C  
HETATM   32  O   UNL     1      -6.645  15.779  68.274  1.00  0.00    -0.111 OA 
HETATM   33  H   UNL     1      -6.115  15.012  68.095  1.00  0.00     0.000 HD 
ENDBRANCH  29  31
ENDBRANCH  22  29
TORSDOF 2
ENDMDL
MODEL      118
REMARK 921   NORMALIZED FREE ENERGY PREDICTED BY IDOCK:  100.65 KCAL/MOL
REMARK 922        TOTAL FREE ENERGY PREDICTED BY IDOCK:  112.57 KCAL/MOL
REMARK 923 INTER-LIGAND FREE ENERGY PREDICTED BY IDOCK:  112.33 KCAL/MOL
REMARK 924 INTRA-LIGAND FREE ENERGY PREDICTED BY IDOCK:    0.23 KCAL/MOL
REMARK 927      BINDING AFFINITY PREDICTED BY RF-SCORE:    0.00 PKD
ROOT
HETATM    1  C   UNL     1     -13.694   9.773  71.131  1.00  0.00    -0.081 C  
HETATM    2  C   UNL     1     -13.302  10.380  72.688  1.00  0.00     0.478 C  
HETATM    3  C   UNL     1     -11.640  10.391  72.745  1.00  0.00     4.372 C  
HETATM    4  C   UNL     1     -10.214  11.241  72.839  1.00  0.00    16.332 C  
HETATM    5  C   UNL     1     -10.316  12.577  72.043  1.00  0.00    12.581 C  
HETATM    6  C   UNL     1      -9.071  13.270  71.551  1.00  0.00    13.673 C  
HETATM    7  F   UNL     1      -9.484  14.183  70.617  1.00  0.00     1.617 F  
HETATM    8  C   UNL     1      -8.096  12.293  70.892  1.00  0.00     7.726 C  
HETATM    9  C   UNL     1      -7.160  12.771  70.044  1.00  0.00     0.912 C  
HETATM   10  C   UNL     1      -6.240  13.558  70.938  1.00  0.00     0.204 C  
HETATM   11  O   UNL     1      -5.619  14.524  70.516  1.00  0.00    -0.124 OA 
HETATM   12  C   UNL     1      -6.119  13.088  72.392  1.00  0.00     1.995 C  
HETATM   13  C   UNL     1      -6.802  12.002  72.855  1.00  0.00     8.259 C  
HETATM   14  C   UNL     1      -7.644  11.186  71.880  1.00  0.00     8.025 C  
HETATM   15  C   UNL     1      -6.618  10.154  71.312  1.00  0.00     0.419 C  
HETATM   16  C   UNL     1      -9.019  10.472  72.162  1.00  0.00     8.430 C  
HETATM   17  C   UNL     1      -8.993   9.013  72.560  1.00  0.00     0.602 C  
HETATM   18  C   UNL     1     -10.153   8.429  71.714  1.00  0.00    -0.317 C  
HETATM   19  O   UNL     1      -9.127   8.808  73.952  1.00  0.00     0.047 OA 
HETATM   20  H   UNL     1      -9.110   7.892  74.202  1.00  0.00     0.000 HD 
HETATM   21  C   UNL     1     -11.504   9.158  71.879  1.00  0.00    -0.423 C  
HETATM   22  C   UNL     1     -12.331   9.954  70.522  1.00  0.00    -0.150 C  
HETATM   23  C   UNL     1     -12.267   8.043  72.857  1.00  0.00     0.037 C  
HETATM   24  O   UNL     1     -13.889   8.377  70.722  1.00  0.00     0.208 OA 
HETATM   25  O   UNL     1     -12.257   9.265  69.313  1.00  0.00     1.066 OA 
HETATM   26  C   UNL     1     -14.016   8.118  68.227  1.00  0.00    20.750 C  
HETATM   27  C   UNL     1     -13.135   8.171  69.475  1.00  0.00     4.356 C  
HETATM   28  C   UNL     1     -12.185   6.967  69.467  1.00  0.00     0.824 C  
ENDROOT
BRANCH  22  29
HETATM   29  C   UNL     1     -12.562  11.544  70.099  1.00  0.00    -0.071 C  
HETATM   30  O   UNL     1     -13.348  12.311  70.695  1.00  0.00     0.414 OA 
BRANCH  29  31
HETATM   31  C   UNL     1     -11.891  12.143  68.870  1.00  0.00    -0.304 C  
HETATM   32  O   UNL     1     -12.750  12.700  67.905  1.00  0.00     0.477 OA 
HETATM   33  H   UNL     1     -12.331  13.072  67.138  1.00  0.00     0.000 HD 
ENDBRANCH  29  31
ENDBRANCH  22  29
TORSDOF 2
ENDMDL
