MODEL        1
REMARK 921   NORMALIZED FREE ENERGY PREDICTED BY IDOCK:   -7.76 KCAL/MOL
REMARK 922        TOTAL FREE ENERGY PREDICTED BY IDOCK:  -10.68 KCAL/MOL
REMARK 923 INTER-LIGAND FREE ENERGY PREDICTED BY IDOCK:  -10.48 KCAL/MOL
REMARK 924 INTRA-LIGAND FREE ENERGY PREDICTED BY IDOCK:   -0.19 KCAL/MOL
REMARK 927      BINDING AFFINITY PREDICTED BY RF-SCORE:    0.00 PKD
ROOT
HETATM    1  F   UNL     1     -13.801  16.637  73.656  1.00  0.00    -0.361 F  
HETATM    2  C   UNL     1     -13.418  15.723  72.756  1.00  0.00    -0.574 A  
HETATM    3  C   UNL     1     -12.071  15.401  72.640  1.00  0.00    -0.535 A  
HETATM    4  C   UNL     1     -11.665  14.476  71.675  1.00  0.00    -0.146 A  
HETATM    5  C   UNL     1     -12.605  13.862  70.822  1.00  0.00    -0.424 A  
HETATM    6  C   UNL     1     -13.966  14.175  70.993  1.00  0.00     0.060 A  
HETATM    7  C   UNL     1     -14.369  15.109  71.949  1.00  0.00    -0.693 A  
ENDROOT
BRANCH   5   8
HETATM    8  C   UNL     1     -12.136  12.862  69.754  1.00  0.00    -0.245 C  
BRANCH   8   9
HETATM    9  N   UNL     1     -10.935  13.351  69.008  1.00  0.00    -0.249 NA 
HETATM   10  C   UNL     1     -11.092  14.759  68.550  1.00  0.00    -0.264 C  
HETATM   11  C   UNL     1     -10.640  12.542  67.799  1.00  0.00    -0.219 C  
HETATM   12  C   UNL     1     -12.056  14.965  67.353  1.00  0.00     0.004 C  
HETATM   13  N   UNL     1     -11.822  14.089  66.181  1.00  0.00    -0.387 NA 
HETATM   14  C   UNL     1     -11.663  12.698  66.650  1.00  0.00    -0.398 C  
BRANCH  13  15
HETATM   15  C   UNL     1     -10.654  14.480  65.373  1.00  0.00    -0.370 C  
BRANCH  15  16
HETATM   16  C   UNL     1     -10.288  15.914  65.580  1.00  0.00    -0.413 C  
HETATM   17  C   UNL     1      -9.120  16.308  66.110  1.00  0.00    -0.377 C  
BRANCH  17  18
HETATM   18  C   UNL     1      -8.938  17.709  66.470  1.00  0.00    -0.283 A  
HETATM   19  C   UNL     1     -10.037  18.415  66.974  1.00  0.00    -0.382 A  
HETATM   20  C   UNL     1      -9.934  19.781  67.229  1.00  0.00    -0.530 A  
HETATM   21  C   UNL     1      -8.731  20.440  66.984  1.00  0.00    -0.385 A  
HETATM   22  C   UNL     1      -7.629  19.736  66.495  1.00  0.00    -0.295 A  
HETATM   23  C   UNL     1      -7.731  18.368  66.238  1.00  0.00    -0.279 A  
ENDBRANCH  17  18
ENDBRANCH  15  16
ENDBRANCH  13  15
ENDBRANCH   8   9
BRANCH   8  24
HETATM   24  C   UNL     1     -11.969  11.449  70.355  1.00  0.00    -0.465 A  
HETATM   25  C   UNL     1     -12.838   9.673  71.792  1.00  0.00    -0.514 A  
HETATM   26  F   UNL     1     -11.812   7.550  71.765  1.00  0.00    -0.271 F  
HETATM   27  C   UNL     1     -12.899  10.984  71.307  1.00  0.00    -0.528 A  
HETATM   28  C   UNL     1     -10.889   9.261  70.434  1.00  0.00    -0.302 A  
HETATM   29  C   UNL     1     -10.935  10.577  69.959  1.00  0.00    -0.351 A  
HETATM   30  C   UNL     1     -11.844   8.819  71.338  1.00  0.00    -0.308 A  
ENDBRANCH   8  24
ENDBRANCH   5   8
TORSDOF 6
ENDMDL
MODEL        2
REMARK 921   NORMALIZED FREE ENERGY PREDICTED BY IDOCK:   -7.57 KCAL/MOL
REMARK 922        TOTAL FREE ENERGY PREDICTED BY IDOCK:  -10.42 KCAL/MOL
REMARK 923 INTER-LIGAND FREE ENERGY PREDICTED BY IDOCK:   -9.83 KCAL/MOL
REMARK 924 INTRA-LIGAND FREE ENERGY PREDICTED BY IDOCK:   -0.59 KCAL/MOL
REMARK 927      BINDING AFFINITY PREDICTED BY RF-SCORE:    0.00 PKD
ROOT
HETATM    1  F   UNL     1     -11.251  12.958  63.240  1.00  0.00    -0.472 F  
HETATM    2  C   UNL     1     -11.158  13.675  64.368  1.00  0.00    -0.364 A  
HETATM    3  C   UNL     1     -12.308  14.211  64.934  1.00  0.00    -0.446 A  
HETATM    4  C   UNL     1     -12.207  14.990  66.089  1.00  0.00     0.241 A  
HETATM    5  C   UNL     1     -10.955  15.236  66.688  1.00  0.00    -0.297 A  
HETATM    6  C   UNL     1      -9.814  14.643  66.117  1.00  0.00    -0.334 A  
HETATM    7  C   UNL     1      -9.915  13.875  64.955  1.00  0.00    -0.213 A  
ENDROOT
BRANCH   5   8
HETATM    8  C   UNL     1     -10.863  16.114  67.946  1.00  0.00    -0.332 C  
BRANCH   8   9
HETATM    9  N   UNL     1     -10.442  15.334  69.152  1.00  0.00    -0.236 NA 
HETATM   10  C   UNL     1     -10.747  13.883  69.019  1.00  0.00    -0.195 C  
HETATM   11  C   UNL     1     -11.107  15.795  70.395  1.00  0.00    -0.366 C  
HETATM   12  C   UNL     1     -12.244  13.502  69.159  1.00  0.00    -0.194 C  
HETATM   13  N   UNL     1     -12.935  14.044  70.354  1.00  0.00    -0.175 NA 
HETATM   14  C   UNL     1     -12.619  15.481  70.476  1.00  0.00    -0.416 C  
BRANCH  13  15
HETATM   15  C   UNL     1     -12.588  13.348  71.605  1.00  0.00    -0.187 C  
BRANCH  15  16
HETATM   16  C   UNL     1     -12.427  11.877  71.397  1.00  0.00    -0.261 C  
HETATM   17  C   UNL     1     -13.276  10.964  71.894  1.00  0.00    -0.508 C  
BRANCH  17  18
HETATM   18  C   UNL     1     -12.925   9.551  71.823  1.00  0.00    -0.502 A  
HETATM   19  C   UNL     1     -11.581   9.208  71.632  1.00  0.00    -0.449 A  
HETATM   20  C   UNL     1     -11.219   7.875  71.451  1.00  0.00    -0.280 A  
HETATM   21  C   UNL     1     -12.199   6.884  71.467  1.00  0.00    -0.415 A  
HETATM   22  C   UNL     1     -13.537   7.223  71.671  1.00  0.00    -0.435 A  
HETATM   23  C   UNL     1     -13.903   8.557  71.850  1.00  0.00    -0.473 A  
ENDBRANCH  17  18
ENDBRANCH  15  16
ENDBRANCH  13  15
ENDBRANCH   8   9
BRANCH   8  24
HETATM   24  C   UNL     1     -10.007  17.371  67.681  1.00  0.00    -0.300 A  
HETATM   25  C   UNL     1      -9.810  19.594  66.684  1.00  0.00    -0.518 A  
HETATM   26  F   UNL     1      -7.938  20.935  67.194  1.00  0.00    -0.363 F  
HETATM   27  C   UNL     1     -10.514  18.397  66.859  1.00  0.00    -0.419 A  
HETATM   28  C   UNL     1      -8.046  18.764  68.103  1.00  0.00    -0.327 A  
HETATM   29  C   UNL     1      -8.738  17.557  68.267  1.00  0.00    -0.270 A  
HETATM   30  C   UNL     1      -8.591  19.773  67.322  1.00  0.00    -0.321 A  
ENDBRANCH   8  24
ENDBRANCH   5   8
TORSDOF 6
ENDMDL
MODEL        3
REMARK 921   NORMALIZED FREE ENERGY PREDICTED BY IDOCK:   -7.55 KCAL/MOL
REMARK 922        TOTAL FREE ENERGY PREDICTED BY IDOCK:  -10.39 KCAL/MOL
REMARK 923 INTER-LIGAND FREE ENERGY PREDICTED BY IDOCK:   -9.68 KCAL/MOL
REMARK 924 INTRA-LIGAND FREE ENERGY PREDICTED BY IDOCK:   -0.71 KCAL/MOL
REMARK 927      BINDING AFFINITY PREDICTED BY RF-SCORE:    0.00 PKD
ROOT
HETATM    1  F   UNL     1      -8.514  20.701  67.682  1.00  0.00    -0.347 F  
HETATM    2  C   UNL     1      -9.103  19.511  67.858  1.00  0.00    -0.325 A  
HETATM    3  C   UNL     1      -8.389  18.475  68.446  1.00  0.00    -0.355 A  
HETATM    4  C   UNL     1      -8.990  17.223  68.596  1.00  0.00    -0.265 A  
HETATM    5  C   UNL     1     -10.312  16.999  68.162  1.00  0.00    -0.347 A  
HETATM    6  C   UNL     1     -11.025  18.080  67.611  1.00  0.00    -0.115 A  
HETATM    7  C   UNL     1     -10.419  19.327  67.450  1.00  0.00    -0.564 A  
ENDROOT
BRANCH   5   8
HETATM    8  C   UNL     1     -10.948  15.609  68.317  1.00  0.00    -0.315 C  
BRANCH   8   9
HETATM    9  N   UNL     1      -9.993  14.508  67.981  1.00  0.00    -0.219 NA 
HETATM   10  C   UNL     1      -9.626  14.501  66.538  1.00  0.00    -0.293 C  
HETATM   11  C   UNL     1     -10.537  13.162  68.286  1.00  0.00    -0.248 C  
HETATM   12  C   UNL     1     -10.728  13.989  65.574  1.00  0.00    -0.313 C  
HETATM   13  N   UNL     1     -11.341  12.688  65.933  1.00  0.00    -0.317 NA 
HETATM   14  C   UNL     1     -11.694  12.707  67.366  1.00  0.00    -0.369 C  
BRANCH  13  15
HETATM   15  C   UNL     1     -10.479  11.528  65.646  1.00  0.00    -0.266 C  
BRANCH  15  16
HETATM   16  C   UNL     1     -10.549  10.501  66.729  1.00  0.00    -0.284 C  
HETATM   17  C   UNL     1     -10.085   9.249  66.590  1.00  0.00    -0.341 C  
BRANCH  17  18
HETATM   18  C   UNL     1     -10.386   8.259  67.617  1.00  0.00    -0.313 A  
HETATM   19  C   UNL     1     -10.671   6.949  67.214  1.00  0.00    -0.421 A  
HETATM   20  C   UNL     1     -11.068   6.000  68.154  1.00  0.00    -0.246 A  
HETATM   21  C   UNL     1     -11.177   6.359  69.496  1.00  0.00    -0.477 A  
HETATM   22  C   UNL     1     -10.880   7.662  69.901  1.00  0.00    -0.241 A  
HETATM   23  C   UNL     1     -10.484   8.614  68.962  1.00  0.00    -0.216 A  
ENDBRANCH  17  18
ENDBRANCH  15  16
ENDBRANCH  13  15
ENDBRANCH   8   9
BRANCH   8  24
HETATM   24  C   UNL     1     -11.617  15.459  69.701  1.00  0.00    -0.344 A  
HETATM   25  C   UNL     1     -11.416  15.520  72.136  1.00  0.00    -0.512 A  
HETATM   26  F   UNL     1     -13.362  15.423  73.466  1.00  0.00    -0.535 F  
HETATM   27  C   UNL     1     -10.829  15.545  70.867  1.00  0.00    -0.248 A  
HETATM   28  C   UNL     1     -13.591  15.270  71.126  1.00  0.00    -0.540 A  
HETATM   29  C   UNL     1     -13.006  15.277  69.853  1.00  0.00     0.079 A  
HETATM   30  C   UNL     1     -12.793  15.400  72.253  1.00  0.00    -0.380 A  
ENDBRANCH   8  24
ENDBRANCH   5   8
TORSDOF 6
ENDMDL
MODEL        4
REMARK 921   NORMALIZED FREE ENERGY PREDICTED BY IDOCK:   -7.53 KCAL/MOL
REMARK 922        TOTAL FREE ENERGY PREDICTED BY IDOCK:  -10.36 KCAL/MOL
REMARK 923 INTER-LIGAND FREE ENERGY PREDICTED BY IDOCK:  -10.75 KCAL/MOL
REMARK 924 INTRA-LIGAND FREE ENERGY PREDICTED BY IDOCK:    0.39 KCAL/MOL
REMARK 927      BINDING AFFINITY PREDICTED BY RF-SCORE:    0.00 PKD
ROOT
HETATM    1  F   UNL     1      -7.654  19.520  68.569  1.00  0.00    -0.327 F  
HETATM    2  C   UNL     1      -8.540  18.528  68.414  1.00  0.00    -0.331 A  
HETATM    3  C   UNL     1      -8.162  17.222  68.702  1.00  0.00    -0.262 A  
HETATM    4  C   UNL     1      -9.074  16.183  68.505  1.00  0.00    -0.208 A  
HETATM    5  C   UNL     1     -10.372  16.442  68.021  1.00  0.00    -0.288 A  
HETATM    6  C   UNL     1     -10.741  17.778  67.781  1.00  0.00    -0.332 A  
HETATM    7  C   UNL     1      -9.824  18.816  67.966  1.00  0.00    -0.386 A  
ENDROOT
BRANCH   5   8
HETATM    8  C   UNL     1     -11.353  15.282  67.791  1.00  0.00    -0.326 C  
BRANCH   8   9
HETATM    9  N   UNL     1     -10.819  14.270  66.827  1.00  0.00    -0.295 NA 
HETATM   10  C   UNL     1     -10.348  14.894  65.560  1.00  0.00    -0.365 C  
HETATM   11  C   UNL     1     -11.827  13.249  66.449  1.00  0.00    -0.396 C  
HETATM   12  C   UNL     1     -11.468  15.379  64.602  1.00  0.00    -0.337 C  
HETATM   13  N   UNL     1     -12.528  14.388  64.300  1.00  0.00    -0.691 NA 
HETATM   14  C   UNL     1     -12.981  13.775  65.564  1.00  0.00    -0.315 C  
BRANCH  13  15
HETATM   15  C   UNL     1     -12.106  13.338  63.357  1.00  0.00    -0.439 C  
BRANCH  15  16
HETATM   16  C   UNL     1     -11.349  12.247  64.042  1.00  0.00    -0.469 C  
HETATM   17  C   UNL     1     -10.262  11.661  63.517  1.00  0.00    -0.474 C  
BRANCH  17  18
HETATM   18  C   UNL     1      -9.718  10.467  64.154  1.00  0.00    -0.388 A  
HETATM   19  C   UNL     1      -9.999  10.249  65.509  1.00  0.00    -0.364 A  
HETATM   20  C   UNL     1      -9.412   9.180  66.181  1.00  0.00    -0.309 A  
HETATM   21  C   UNL     1      -8.547   8.325  65.499  1.00  0.00    -0.183 A  
HETATM   22  C   UNL     1      -8.276   8.533  64.145  1.00  0.00    -0.141 A  
HETATM   23  C   UNL     1      -8.862   9.605  63.470  1.00  0.00    -0.255 A  
ENDBRANCH  17  18
ENDBRANCH  15  16
ENDBRANCH  13  15
ENDBRANCH   8   9
BRANCH   8  24
HETATM   24  C   UNL     1     -11.823  14.681  69.135  1.00  0.00    -0.347 A  
HETATM   25  C   UNL     1     -12.988  14.977  71.262  1.00  0.00    -0.448 A  
HETATM   26  F   UNL     1     -13.433  13.097  72.616  1.00  0.00    -0.606 F  
HETATM   27  C   UNL     1     -12.457  15.509  70.083  1.00  0.00    -0.351 A  
HETATM   28  C   UNL     1     -12.227  12.782  70.616  1.00  0.00    -0.374 A  
HETATM   29  C   UNL     1     -11.678  13.313  69.442  1.00  0.00    -0.383 A  
HETATM   30  C   UNL     1     -12.884  13.616  71.510  1.00  0.00    -0.359 A  
ENDBRANCH   8  24
ENDBRANCH   5   8
TORSDOF 6
ENDMDL
MODEL        5
REMARK 921   NORMALIZED FREE ENERGY PREDICTED BY IDOCK:   -7.51 KCAL/MOL
REMARK 922        TOTAL FREE ENERGY PREDICTED BY IDOCK:  -10.34 KCAL/MOL
REMARK 923 INTER-LIGAND FREE ENERGY PREDICTED BY IDOCK:   -9.50 KCAL/MOL
REMARK 924 INTRA-LIGAND FREE ENERGY PREDICTED BY IDOCK:   -0.84 KCAL/MOL
REMARK 927      BINDING AFFINITY PREDICTED BY RF-SCORE:    0.00 PKD
ROOT
HETATM    1  F   UNL     1     -12.617  11.825  63.083  1.00  0.00    -0.664 F  
HETATM    2  C   UNL     1     -12.159  12.365  64.220  1.00  0.00    -0.433 A  
HETATM    3  C   UNL     1     -10.907  11.996  64.697  1.00  0.00    -0.357 A  
HETATM    4  C   UNL     1     -10.445  12.530  65.902  1.00  0.00    -0.289 A  
HETATM    5  C   UNL     1     -11.230  13.441  66.637  1.00  0.00    -0.330 A  
HETATM    6  C   UNL     1     -12.474  13.830  66.106  1.00  0.00    -0.466 A  
HETATM    7  C   UNL     1     -12.940  13.286  64.909  1.00  0.00    -0.199 A  
ENDROOT
BRANCH   5   8
HETATM    8  C   UNL     1     -10.711  14.002  67.971  1.00  0.00    -0.246 C  
BRANCH   8   9
HETATM    9  N   UNL     1     -10.578  15.492  67.946  1.00  0.00    -0.267 NA 
HETATM   10  C   UNL     1      -9.818  15.969  66.758  1.00  0.00    -0.250 C  
HETATM   11  C   UNL     1      -9.877  16.025  69.140  1.00  0.00    -0.247 C  
HETATM   12  C   UNL     1      -8.288  15.722  66.804  1.00  0.00    -0.274 C  
HETATM   13  N   UNL     1      -7.602  16.169  68.040  1.00  0.00    -0.130 NA 
HETATM   14  C   UNL     1      -8.369  15.693  69.208  1.00  0.00    -0.256 C  
BRANCH  13  15
HETATM   15  C   UNL     1      -7.420  17.628  68.122  1.00  0.00    -0.231 C  
BRANCH  15  16
HETATM   16  C   UNL     1      -6.669  18.163  66.946  1.00  0.00    -0.212 C  
HETATM   17  C   UNL     1      -6.997  19.302  66.317  1.00  0.00    -0.242 C  
BRANCH  17  18
HETATM   18  C   UNL     1      -6.343  19.633  65.056  1.00  0.00    -0.315 A  
HETATM   19  C   UNL     1      -6.472  20.937  64.562  1.00  0.00    -0.260 A  
HETATM   20  C   UNL     1      -5.954  21.265  63.311  1.00  0.00    -0.347 A  
HETATM   21  C   UNL     1      -5.304  20.291  62.555  1.00  0.00    -0.264 A  
HETATM   22  C   UNL     1      -5.163  18.994  63.052  1.00  0.00    -0.291 A  
HETATM   23  C   UNL     1      -5.681  18.663  64.304  1.00  0.00    -0.068 A  
ENDBRANCH  17  18
ENDBRANCH  15  16
ENDBRANCH  13  15
ENDBRANCH   8   9
BRANCH   8  24
HETATM   24  C   UNL     1     -11.545  13.466  69.156  1.00  0.00    -0.365 A  
HETATM   25  C   UNL     1     -12.246  11.570  70.529  1.00  0.00    -0.469 A  
HETATM   26  F   UNL     1     -13.460  11.958  72.514  1.00  0.00    -0.548 F  
HETATM   27  C   UNL     1     -11.589  12.079  69.404  1.00  0.00    -0.393 A  
HETATM   28  C   UNL     1     -12.881  13.805  71.171  1.00  0.00    -0.409 A  
HETATM   29  C   UNL     1     -12.240  14.319  70.036  1.00  0.00    -0.417 A  
HETATM   30  C   UNL     1     -12.871  12.439  71.411  1.00  0.00    -0.260 A  
ENDBRANCH   8  24
ENDBRANCH   5   8
TORSDOF 6
ENDMDL
MODEL        6
REMARK 921   NORMALIZED FREE ENERGY PREDICTED BY IDOCK:   -7.39 KCAL/MOL
REMARK 922        TOTAL FREE ENERGY PREDICTED BY IDOCK:  -10.18 KCAL/MOL
REMARK 923 INTER-LIGAND FREE ENERGY PREDICTED BY IDOCK:   -9.84 KCAL/MOL
REMARK 924 INTRA-LIGAND FREE ENERGY PREDICTED BY IDOCK:   -0.34 KCAL/MOL
REMARK 927      BINDING AFFINITY PREDICTED BY RF-SCORE:    0.00 PKD
ROOT
HETATM    1  F   UNL     1     -14.241  15.871  72.954  1.00  0.00    -0.657 F  
HETATM    2  C   UNL     1     -13.551  15.094  72.110  1.00  0.00    -0.455 A  
HETATM    3  C   UNL     1     -12.709  15.680  71.173  1.00  0.00    -0.525 A  
HETATM    4  C   UNL     1     -12.018  14.872  70.268  1.00  0.00    -0.365 A  
HETATM    5  C   UNL     1     -12.162  13.470  70.295  1.00  0.00    -0.417 A  
HETATM    6  C   UNL     1     -12.987  12.902  71.283  1.00  0.00    -0.317 A  
HETATM    7  C   UNL     1     -13.687  13.712  72.179  1.00  0.00    -0.649 A  
ENDROOT
BRANCH   5   8
HETATM    8  C   UNL     1     -11.409  12.600  69.276  1.00  0.00    -0.245 C  
BRANCH   8   9
HETATM    9  N   UNL     1     -12.064  11.270  69.072  1.00  0.00    -0.454 NA 
HETATM   10  C   UNL     1     -11.888  10.370  70.244  1.00  0.00    -0.312 C  
HETATM   11  C   UNL     1     -11.531  10.542  67.894  1.00  0.00    -0.109 C  
HETATM   12  C   UNL     1     -10.468   9.768  70.413  1.00  0.00    -0.297 C  
HETATM   13  N   UNL     1      -9.896   9.124  69.207  1.00  0.00    -0.170 NA 
HETATM   14  C   UNL     1     -10.082  10.025  68.053  1.00  0.00    -0.167 C  
BRANCH  13  15
HETATM   15  C   UNL     1     -10.476   7.804  68.909  1.00  0.00    -0.194 C  
BRANCH  15  16
HETATM   16  C   UNL     1     -10.538   6.936  70.124  1.00  0.00    -0.249 C  
HETATM   17  C   UNL     1      -9.787   5.835  70.284  1.00  0.00    -0.244 C  
BRANCH  17  18
HETATM   18  C   UNL     1     -10.067   4.938  71.398  1.00  0.00    -0.268 A  
HETATM   19  C   UNL     1      -9.615   3.615  71.317  1.00  0.00    -0.244 A  
HETATM   20  C   UNL     1      -9.954   2.698  72.310  1.00  0.00    -0.237 A  
HETATM   21  C   UNL     1     -10.740   3.105  73.387  1.00  0.00    -0.299 A  
HETATM   22  C   UNL     1     -11.180   4.426  73.477  1.00  0.00    -0.375 A  
HETATM   23  C   UNL     1     -10.843   5.346  72.482  1.00  0.00    -0.304 A  
ENDBRANCH  17  18
ENDBRANCH  15  16
ENDBRANCH  13  15
ENDBRANCH   8   9
BRANCH   8  24
HETATM   24  C   UNL     1     -11.151  13.379  67.968  1.00  0.00    -0.281 A  
HETATM   25  C   UNL     1     -12.045  14.440  65.956  1.00  0.00    -0.370 A  
HETATM   26  F   UNL     1     -10.630  15.765  64.613  1.00  0.00    -0.425 F  
HETATM   27  C   UNL     1     -12.224  13.647  67.094  1.00  0.00    -0.340 A  
HETATM   28  C   UNL     1      -9.708  14.686  66.493  1.00  0.00    -0.297 A  
HETATM   29  C   UNL     1      -9.877  13.877  67.625  1.00  0.00    -0.236 A  
HETATM   30  C   UNL     1     -10.793  14.966  65.676  1.00  0.00    -0.341 A  
ENDBRANCH   8  24
ENDBRANCH   5   8
TORSDOF 6
ENDMDL
MODEL        7
REMARK 921   NORMALIZED FREE ENERGY PREDICTED BY IDOCK:   -7.32 KCAL/MOL
REMARK 922        TOTAL FREE ENERGY PREDICTED BY IDOCK:  -10.08 KCAL/MOL
REMARK 923 INTER-LIGAND FREE ENERGY PREDICTED BY IDOCK:   -9.58 KCAL/MOL
REMARK 924 INTRA-LIGAND FREE ENERGY PREDICTED BY IDOCK:   -0.51 KCAL/MOL
REMARK 927      BINDING AFFINITY PREDICTED BY RF-SCORE:    0.00 PKD
ROOT
HETATM    1  F   UNL     1     -13.497  11.351  72.405  1.00  0.00    -0.552 F  
HETATM    2  C   UNL     1     -12.914  11.989  71.382  1.00  0.00    -0.262 A  
HETATM    3  C   UNL     1     -12.238  11.255  70.415  1.00  0.00    -0.453 A  
HETATM    4  C   UNL     1     -11.598  11.922  69.367  1.00  0.00    -0.388 A  
HETATM    5  C   UNL     1     -11.634  13.329  69.277  1.00  0.00    -0.370 A  
HETATM    6  C   UNL     1     -12.364  14.042  70.246  1.00  0.00    -0.425 A  
HETATM    7  C   UNL     1     -12.992  13.374  71.300  1.00  0.00    -0.368 A  
ENDROOT
BRANCH   5   8
HETATM    8  C   UNL     1     -10.906  14.045  68.129  1.00  0.00    -0.248 C  
BRANCH   8   9
HETATM    9  N   UNL     1      -9.426  14.103  68.344  1.00  0.00    -0.211 NA 
HETATM   10  C   UNL     1      -9.040  15.167  69.311  1.00  0.00    -0.201 C  
HETATM   11  C   UNL     1      -8.674  14.372  67.094  1.00  0.00    -0.226 C  
HETATM   12  C   UNL     1      -9.131  16.619  68.773  1.00  0.00    -0.256 C  
HETATM   13  N   UNL     1      -8.460  16.866  67.475  1.00  0.00    -0.193 NA 
HETATM   14  C   UNL     1      -8.848  15.801  66.529  1.00  0.00    -0.310 C  
BRANCH  13  15
HETATM   15  C   UNL     1      -6.992  16.939  67.571  1.00  0.00    -0.142 C  
BRANCH  15  16
HETATM   16  C   UNL     1      -6.394  17.675  66.416  1.00  0.00    -0.265 C  
HETATM   17  C   UNL     1      -6.716  18.938  66.099  1.00  0.00    -0.256 C  
BRANCH  17  18
HETATM   18  C   UNL     1      -6.246  19.498  64.838  1.00  0.00    -0.319 A  
HETATM   19  C   UNL     1      -6.646  20.796  64.496  1.00  0.00    -0.236 A  
HETATM   20  C   UNL     1      -6.307  21.327  63.253  1.00  0.00    -0.312 A  
HETATM   21  C   UNL     1      -5.564  20.564  62.355  1.00  0.00    -0.270 A  
HETATM   22  C   UNL     1      -5.152  19.276  62.699  1.00  0.00    -0.332 A  
HETATM   23  C   UNL     1      -5.491  18.741  63.943  1.00  0.00    -0.149 A  
ENDBRANCH  17  18
ENDBRANCH  15  16
ENDBRANCH  13  15
ENDBRANCH   8   9
BRANCH   8  24
HETATM   24  C   UNL     1     -11.318  13.455  66.762  1.00  0.00    -0.353 A  
HETATM   25  C   UNL     1     -11.151  11.641  65.132  1.00  0.00    -0.300 A  
HETATM   26  F   UNL     1     -12.608  11.606  63.278  1.00  0.00    -0.659 F  
HETATM   27  C   UNL     1     -10.725  12.258  66.314  1.00  0.00    -0.293 A  
HETATM   28  C   UNL     1     -12.740  13.419  64.777  1.00  0.00    -0.310 A  
HETATM   29  C   UNL     1     -12.305  14.050  65.950  1.00  0.00    -0.515 A  
HETATM   30  C   UNL     1     -12.166  12.219  64.384  1.00  0.00    -0.402 A  
ENDBRANCH   8  24
ENDBRANCH   5   8
TORSDOF 6
ENDMDL
MODEL        8
REMARK 921   NORMALIZED FREE ENERGY PREDICTED BY IDOCK:   -7.30 KCAL/MOL
REMARK 922        TOTAL FREE ENERGY PREDICTED BY IDOCK:  -10.06 KCAL/MOL
REMARK 923 INTER-LIGAND FREE ENERGY PREDICTED BY IDOCK:   -8.97 KCAL/MOL
REMARK 924 INTRA-LIGAND FREE ENERGY PREDICTED BY IDOCK:   -1.09 KCAL/MOL
REMARK 927      BINDING AFFINITY PREDICTED BY RF-SCORE:    0.00 PKD
ROOT
HETATM    1  F   UNL     1     -11.140   5.421  73.858  1.00  0.00    -0.320 F  
HETATM    2  C   UNL     1     -10.969   6.102  72.717  1.00  0.00    -0.260 A  
HETATM    3  C   UNL     1     -12.048   6.286  71.862  1.00  0.00    -0.311 A  
HETATM    4  C   UNL     1     -11.862   6.963  70.654  1.00  0.00    -0.418 A  
HETATM    5  C   UNL     1     -10.595   7.465  70.295  1.00  0.00    -0.241 A  
HETATM    6  C   UNL     1      -9.531   7.303  71.202  1.00  0.00    -0.156 A  
HETATM    7  C   UNL     1      -9.716   6.614  72.402  1.00  0.00    -0.162 A  
ENDROOT
BRANCH   5   8
HETATM    8  C   UNL     1     -10.407   8.189  68.953  1.00  0.00    -0.211 C  
BRANCH   8   9
HETATM    9  N   UNL     1      -9.909   9.589  69.128  1.00  0.00    -0.169 NA 
HETATM   10  C   UNL     1     -10.840  10.420  69.939  1.00  0.00    -0.298 C  
HETATM   11  C   UNL     1      -9.721  10.298  67.838  1.00  0.00    -0.145 C  
HETATM   12  C   UNL     1     -12.142  10.856  69.218  1.00  0.00    -0.261 C  
HETATM   13  N   UNL     1     -11.960  11.478  67.885  1.00  0.00    -0.641 NA 
HETATM   14  C   UNL     1     -11.031  10.646  67.094  1.00  0.00    -0.247 C  
BRANCH  13  15
HETATM   15  C   UNL     1     -11.467  12.864  67.940  1.00  0.00    -0.318 C  
BRANCH  15  16
HETATM   16  C   UNL     1     -12.140  13.652  69.017  1.00  0.00    -0.348 C  
HETATM   17  C   UNL     1     -11.489  14.500  69.827  1.00  0.00    -0.327 C  
BRANCH  17  18
HETATM   18  C   UNL     1     -12.185  15.061  70.979  1.00  0.00    -0.386 A  
HETATM   19  C   UNL     1     -11.424  15.668  71.986  1.00  0.00    -0.495 A  
HETATM   20  C   UNL     1     -12.040  16.120  73.151  1.00  0.00    -0.621 A  
HETATM   21  C   UNL     1     -13.416  15.968  73.309  1.00  0.00    -0.570 A  
HETATM   22  C   UNL     1     -14.178  15.375  72.301  1.00  0.00    -0.639 A  
HETATM   23  C   UNL     1     -13.564  14.921  71.134  1.00  0.00    -0.467 A  
ENDBRANCH  17  18
ENDBRANCH  15  16
ENDBRANCH  13  15
ENDBRANCH   8   9
BRANCH   8  24
HETATM   24  C   UNL     1      -9.559   7.339  67.981  1.00  0.00    -0.148 A  
HETATM   25  C   UNL     1      -9.470   5.772  66.107  1.00  0.00    -0.144 A  
HETATM   26  F   UNL     1      -7.395   5.283  65.098  1.00  0.00    -0.063 F  
HETATM   27  C   UNL     1     -10.201   6.475  67.071  1.00  0.00    -0.277 A  
HETATM   28  C   UNL     1      -7.427   6.727  66.960  1.00  0.00    -0.087 A  
HETATM   29  C   UNL     1      -8.152   7.420  67.938  1.00  0.00    -0.119 A  
HETATM   30  C   UNL     1      -8.091   5.918  66.050  1.00  0.00    -0.115 A  
ENDBRANCH   8  24
ENDBRANCH   5   8
TORSDOF 6
ENDMDL
MODEL        9
REMARK 921   NORMALIZED FREE ENERGY PREDICTED BY IDOCK:   -7.23 KCAL/MOL
REMARK 922        TOTAL FREE ENERGY PREDICTED BY IDOCK:   -9.97 KCAL/MOL
REMARK 923 INTER-LIGAND FREE ENERGY PREDICTED BY IDOCK:   -9.47 KCAL/MOL
REMARK 924 INTRA-LIGAND FREE ENERGY PREDICTED BY IDOCK:   -0.49 KCAL/MOL
REMARK 927      BINDING AFFINITY PREDICTED BY RF-SCORE:    0.00 PKD
ROOT
HETATM    1  F   UNL     1      -7.961   5.932  66.296  1.00  0.00    -0.096 F  
HETATM    2  C   UNL     1      -8.573   7.017  66.787  1.00  0.00    -0.120 A  
HETATM    3  C   UNL     1      -7.810   8.072  67.272  1.00  0.00    -0.109 A  
HETATM    4  C   UNL     1      -8.448   9.188  67.818  1.00  0.00    -0.117 A  
HETATM    5  C   UNL     1      -9.854   9.259  67.880  1.00  0.00    -0.200 A  
HETATM    6  C   UNL     1     -10.601   8.195  67.341  1.00  0.00    -0.325 A  
HETATM    7  C   UNL     1      -9.962   7.074  66.806  1.00  0.00    -0.266 A  
ENDROOT
BRANCH   5   8
HETATM    8  C   UNL     1     -10.536  10.487  68.504  1.00  0.00    -0.206 C  
BRANCH   8   9
HETATM    9  N   UNL     1     -11.411  11.207  67.527  1.00  0.00    -0.510 NA 
HETATM   10  C   UNL     1     -10.855  11.180  66.147  1.00  0.00    -0.185 C  
HETATM   11  C   UNL     1     -11.608  12.636  67.877  1.00  0.00    -0.349 C  
HETATM   12  C   UNL     1      -9.634  12.104  65.903  1.00  0.00    -0.214 C  
HETATM   13  N   UNL     1      -9.796  13.511  66.341  1.00  0.00    -0.289 NA 
HETATM   14  C   UNL     1     -10.352  13.523  67.709  1.00  0.00    -0.241 C  
BRANCH  13  15
HETATM   15  C   UNL     1     -10.647  14.315  65.448  1.00  0.00    -0.354 C  
BRANCH  15  16
HETATM   16  C   UNL     1     -10.524  15.778  65.729  1.00  0.00    -0.384 C  
HETATM   17  C   UNL     1      -9.355  16.383  65.992  1.00  0.00    -0.335 C  
BRANCH  17  18
HETATM   18  C   UNL     1      -9.358  17.763  66.461  1.00  0.00    -0.291 A  
HETATM   19  C   UNL     1     -10.584  18.351  66.793  1.00  0.00    -0.367 A  
HETATM   20  C   UNL     1     -10.642  19.699  67.143  1.00  0.00    -0.611 A  
HETATM   21  C   UNL     1      -9.473  20.457  67.165  1.00  0.00    -0.567 A  
HETATM   22  C   UNL     1      -8.247  19.869  66.848  1.00  0.00    -0.358 A  
HETATM   23  C   UNL     1      -8.187  18.521  66.496  1.00  0.00    -0.299 A  
ENDBRANCH  17  18
ENDBRANCH  15  16
ENDBRANCH  13  15
ENDBRANCH   8   9
BRANCH   8  24
HETATM   24  C   UNL     1     -11.245  10.113  69.825  1.00  0.00    -0.325 A  
HETATM   25  C   UNL     1     -13.248  10.211  71.222  1.00  0.00    -0.453 A  
HETATM   26  F   UNL     1     -13.372   8.889  73.171  1.00  0.00    -0.392 F  
HETATM   27  C   UNL     1     -12.536  10.614  70.087  1.00  0.00    -0.342 A  
HETATM   28  C   UNL     1     -11.388   8.835  71.900  1.00  0.00    -0.431 A  
HETATM   29  C   UNL     1     -10.664   9.249  70.774  1.00  0.00    -0.350 A  
HETATM   30  C   UNL     1     -12.674   9.312  72.109  1.00  0.00    -0.390 A  
ENDBRANCH   8  24
ENDBRANCH   5   8
TORSDOF 6
ENDMDL
MODEL       10
REMARK 921   NORMALIZED FREE ENERGY PREDICTED BY IDOCK:   -7.16 KCAL/MOL
REMARK 922        TOTAL FREE ENERGY PREDICTED BY IDOCK:   -9.87 KCAL/MOL
REMARK 923 INTER-LIGAND FREE ENERGY PREDICTED BY IDOCK:   -8.89 KCAL/MOL
REMARK 924 INTRA-LIGAND FREE ENERGY PREDICTED BY IDOCK:   -0.98 KCAL/MOL
REMARK 927      BINDING AFFINITY PREDICTED BY RF-SCORE:    0.00 PKD
ROOT
HETATM    1  F   UNL     1     -14.142  15.662  73.304  1.00  0.00    -0.465 F  
HETATM    2  C   UNL     1     -13.291  15.602  72.271  1.00  0.00    -0.478 A  
HETATM    3  C   UNL     1     -13.786  15.389  70.990  1.00  0.00    -0.420 A  
HETATM    4  C   UNL     1     -12.897  15.289  69.918  1.00  0.00    -0.036 A  
HETATM    5  C   UNL     1     -11.506  15.405  70.118  1.00  0.00    -0.338 A  
HETATM    6  C   UNL     1     -11.039  15.665  71.419  1.00  0.00    -0.293 A  
HETATM    7  C   UNL     1     -11.927  15.752  72.493  1.00  0.00    -0.600 A  
ENDROOT
BRANCH   5   8
HETATM    8  C   UNL     1     -10.544  15.272  68.927  1.00  0.00    -0.242 C  
BRANCH   8   9
HETATM    9  N   UNL     1     -11.144  14.495  67.798  1.00  0.00    -0.275 NA 
HETATM   10  C   UNL     1     -11.370  13.068  68.154  1.00  0.00    -0.294 C  
HETATM   11  C   UNL     1     -10.293  14.501  66.582  1.00  0.00    -0.274 C  
HETATM   12  C   UNL     1     -10.093  12.190  68.224  1.00  0.00    -0.210 C  
HETATM   13  N   UNL     1      -9.193  12.269  67.049  1.00  0.00    -0.198 NA 
HETATM   14  C   UNL     1      -8.983  13.689  66.705  1.00  0.00    -0.120 C  
BRANCH  13  15
HETATM   15  C   UNL     1      -9.692  11.538  65.871  1.00  0.00    -0.232 C  
BRANCH  15  16
HETATM   16  C   UNL     1     -10.010  10.114  66.193  1.00  0.00    -0.310 C  
HETATM   17  C   UNL     1      -9.076   9.159  66.317  1.00  0.00    -0.222 C  
BRANCH  17  18
HETATM   18  C   UNL     1      -9.491   7.765  66.420  1.00  0.00    -0.245 A  
HETATM   19  C   UNL     1     -10.644   7.467  67.157  1.00  0.00    -0.415 A  
HETATM   20  C   UNL     1     -11.015   6.141  67.370  1.00  0.00    -0.409 A  
HETATM   21  C   UNL     1     -10.236   5.112  66.842  1.00  0.00    -0.279 A  
HETATM   22  C   UNL     1      -9.094   5.408  66.095  1.00  0.00    -0.154 A  
HETATM   23  C   UNL     1      -8.720   6.735  65.882  1.00  0.00    -0.147 A  
ENDBRANCH  17  18
ENDBRANCH  15  16
ENDBRANCH  13  15
ENDBRANCH   8   9
BRANCH   8  24
HETATM   24  C   UNL     1      -9.983  16.650  68.513  1.00  0.00    -0.261 A  
HETATM   25  C   UNL     1     -10.401  18.925  67.725  1.00  0.00    -0.490 A  
HETATM   26  F   UNL     1      -8.638  20.492  67.707  1.00  0.00    -0.339 F  
HETATM   27  C   UNL     1     -10.857  17.633  68.009  1.00  0.00    -0.240 A  
HETATM   28  C   UNL     1      -8.173  18.285  68.389  1.00  0.00    -0.326 A  
HETATM   29  C   UNL     1      -8.621  16.985  68.658  1.00  0.00    -0.265 A  
HETATM   30  C   UNL     1      -9.067  19.243  67.934  1.00  0.00    -0.313 A  
ENDBRANCH   8  24
ENDBRANCH   5   8
TORSDOF 6
ENDMDL
MODEL       11
REMARK 921   NORMALIZED FREE ENERGY PREDICTED BY IDOCK:   -7.04 KCAL/MOL
REMARK 922        TOTAL FREE ENERGY PREDICTED BY IDOCK:   -9.70 KCAL/MOL
REMARK 923 INTER-LIGAND FREE ENERGY PREDICTED BY IDOCK:   -8.81 KCAL/MOL
REMARK 924 INTRA-LIGAND FREE ENERGY PREDICTED BY IDOCK:   -0.89 KCAL/MOL
REMARK 927      BINDING AFFINITY PREDICTED BY RF-SCORE:    0.00 PKD
ROOT
HETATM    1  F   UNL     1      -8.293   5.305  65.311  1.00  0.00    -0.114 F  
HETATM    2  C   UNL     1      -8.722   6.348  66.033  1.00  0.00    -0.151 A  
HETATM    3  C   UNL     1      -7.898   7.456  66.190  1.00  0.00    -0.107 A  
HETATM    4  C   UNL     1      -8.329   8.529  66.974  1.00  0.00    -0.110 A  
HETATM    5  C   UNL     1      -9.590   8.503  67.604  1.00  0.00    -0.187 A  
HETATM    6  C   UNL     1     -10.420   7.387  67.390  1.00  0.00    -0.366 A  
HETATM    7  C   UNL     1      -9.983   6.310  66.617  1.00  0.00    -0.207 A  
ENDROOT
BRANCH   5   8
HETATM    8  C   UNL     1     -10.037   9.684  68.479  1.00  0.00    -0.175 C  
BRANCH   8   9
HETATM    9  N   UNL     1     -11.168  10.449  67.865  1.00  0.00    -0.304 NA 
HETATM   10  C   UNL     1     -10.865  10.878  66.472  1.00  0.00    -0.171 C  
HETATM   11  C   UNL     1     -11.508  11.678  68.623  1.00  0.00    -0.290 C  
HETATM   12  C   UNL     1      -9.856  12.049  66.341  1.00  0.00    -0.220 C  
HETATM   13  N   UNL     1     -10.145  13.241  67.172  1.00  0.00    -0.237 NA 
HETATM   14  C   UNL     1     -10.448  12.800  68.548  1.00  0.00    -0.238 C  
BRANCH  13  15
HETATM   15  C   UNL     1     -11.250  14.069  66.658  1.00  0.00    -0.323 C  
BRANCH  15  16
HETATM   16  C   UNL     1     -10.885  15.517  66.610  1.00  0.00    -0.285 C  
HETATM   17  C   UNL     1     -10.478  16.212  67.684  1.00  0.00    -0.292 C  
BRANCH  17  18
HETATM   18  C   UNL     1     -10.350  17.661  67.588  1.00  0.00    -0.368 A  
HETATM   19  C   UNL     1     -10.361  18.247  66.316  1.00  0.00    -0.422 A  
HETATM   20  C   UNL     1     -10.134  19.615  66.175  1.00  0.00    -0.574 A  
HETATM   21  C   UNL     1      -9.901  20.397  67.305  1.00  0.00    -0.597 A  
HETATM   22  C   UNL     1      -9.903  19.816  68.574  1.00  0.00    -0.506 A  
HETATM   23  C   UNL     1     -10.128  18.447  68.718  1.00  0.00    -0.393 A  
ENDBRANCH  17  18
ENDBRANCH  15  16
ENDBRANCH  13  15
ENDBRANCH   8   9
BRANCH   8  24
HETATM   24  C   UNL     1     -10.305   9.227  69.930  1.00  0.00    -0.241 A  
HETATM   25  C   UNL     1     -11.889   8.430  71.611  1.00  0.00    -0.357 A  
HETATM   26  F   UNL     1     -11.086   7.656  73.690  1.00  0.00    -0.394 F  
HETATM   27  C   UNL     1     -11.624   8.947  70.339  1.00  0.00    -0.123 A  
HETATM   28  C   UNL     1      -9.535   8.501  72.131  1.00  0.00    -0.375 A  
HETATM   29  C   UNL     1      -9.266   9.036  70.864  1.00  0.00    -0.320 A  
HETATM   30  C   UNL     1     -10.840   8.196  72.489  1.00  0.00    -0.361 A  
ENDBRANCH   8  24
ENDBRANCH   5   8
TORSDOF 6
ENDMDL
MODEL       12
REMARK 921   NORMALIZED FREE ENERGY PREDICTED BY IDOCK:   -7.01 KCAL/MOL
REMARK 922        TOTAL FREE ENERGY PREDICTED BY IDOCK:   -9.66 KCAL/MOL
REMARK 923 INTER-LIGAND FREE ENERGY PREDICTED BY IDOCK:   -9.32 KCAL/MOL
REMARK 924 INTRA-LIGAND FREE ENERGY PREDICTED BY IDOCK:   -0.33 KCAL/MOL
REMARK 927      BINDING AFFINITY PREDICTED BY RF-SCORE:    0.00 PKD
ROOT
HETATM    1  F   UNL     1     -14.008  16.195  73.145  1.00  0.00    -0.679 F  
HETATM    2  C   UNL     1     -13.420  15.346  72.291  1.00  0.00    -0.472 A  
HETATM    3  C   UNL     1     -13.886  14.041  72.195  1.00  0.00    -0.627 A  
HETATM    4  C   UNL     1     -13.249  13.145  71.333  1.00  0.00    -0.290 A  
HETATM    5  C   UNL     1     -12.143  13.550  70.558  1.00  0.00    -0.409 A  
HETATM    6  C   UNL     1     -11.723  14.890  70.644  1.00  0.00    -0.357 A  
HETATM    7  C   UNL     1     -12.352  15.781  71.515  1.00  0.00    -0.514 A  
ENDROOT
BRANCH   5   8
HETATM    8  C   UNL     1     -11.444  12.543  69.631  1.00  0.00    -0.185 C  
BRANCH   8   9
HETATM    9  N   UNL     1     -12.220  11.272  69.486  1.00  0.00    -0.291 NA 
HETATM   10  C   UNL     1     -12.470  10.613  70.797  1.00  0.00    -0.385 C  
HETATM   11  C   UNL     1     -11.530  10.273  68.633  1.00  0.00    -0.112 C  
HETATM   12  C   UNL     1     -11.240   9.918  71.438  1.00  0.00    -0.209 C  
HETATM   13  N   UNL     1     -10.494   8.991  70.554  1.00  0.00    -0.209 NA 
HETATM   14  C   UNL     1     -10.257   9.656  69.258  1.00  0.00    -0.205 C  
BRANCH  13  15
HETATM   15  C   UNL     1     -11.173   7.703  70.339  1.00  0.00    -0.244 C  
BRANCH  15  16
HETATM   16  C   UNL     1     -10.425   6.831  69.383  1.00  0.00    -0.244 C  
HETATM   17  C   UNL     1     -11.014   6.153  68.386  1.00  0.00    -0.391 C  
BRANCH  17  18
HETATM   18  C   UNL     1     -10.240   5.167  67.641  1.00  0.00    -0.197 A  
HETATM   19  C   UNL     1     -10.366   5.138  66.247  1.00  0.00    -0.313 A  
HETATM   20  C   UNL     1      -9.729   4.144  65.508  1.00  0.00    -0.202 A  
HETATM   21  C   UNL     1      -8.961   3.181  66.161  1.00  0.00    -0.149 A  
HETATM   22  C   UNL     1      -8.823   3.217  67.550  1.00  0.00    -0.160 A  
HETATM   23  C   UNL     1      -9.462   4.211  68.293  1.00  0.00    -0.213 A  
ENDBRANCH  17  18
ENDBRANCH  15  16
ENDBRANCH  13  15
ENDBRANCH   8   9
BRANCH   8  24
HETATM   24  C   UNL     1     -11.062  13.202  68.288  1.00  0.00    -0.295 A  
HETATM   25  C   UNL     1     -11.773  14.271  66.207  1.00  0.00    -0.404 A  
HETATM   26  F   UNL     1     -10.165  15.295  64.818  1.00  0.00    -0.382 F  
HETATM   27  C   UNL     1     -12.076  13.576  67.384  1.00  0.00    -0.360 A  
HETATM   28  C   UNL     1      -9.429  14.197  66.768  1.00  0.00    -0.290 A  
HETATM   29  C   UNL     1      -9.726  13.487  67.939  1.00  0.00    -0.225 A  
HETATM   30  C   UNL     1     -10.454  14.589  65.920  1.00  0.00    -0.312 A  
ENDBRANCH   8  24
ENDBRANCH   5   8
TORSDOF 6
ENDMDL
MODEL       13
REMARK 921   NORMALIZED FREE ENERGY PREDICTED BY IDOCK:   -6.99 KCAL/MOL
REMARK 922        TOTAL FREE ENERGY PREDICTED BY IDOCK:   -9.63 KCAL/MOL
REMARK 923 INTER-LIGAND FREE ENERGY PREDICTED BY IDOCK:   -8.72 KCAL/MOL
REMARK 924 INTRA-LIGAND FREE ENERGY PREDICTED BY IDOCK:   -0.91 KCAL/MOL
REMARK 927      BINDING AFFINITY PREDICTED BY RF-SCORE:    0.00 PKD
ROOT
HETATM    1  F   UNL     1     -14.033  16.100  73.434  1.00  0.00    -0.631 F  
HETATM    2  C   UNL     1     -13.251  15.722  72.414  1.00  0.00    -0.462 A  
HETATM    3  C   UNL     1     -13.833  15.289  71.230  1.00  0.00    -0.562 A  
HETATM    4  C   UNL     1     -13.019  14.859  70.179  1.00  0.00    -0.103 A  
HETATM    5  C   UNL     1     -11.614  14.863  70.305  1.00  0.00    -0.332 A  
HETATM    6  C   UNL     1     -11.053  15.349  71.500  1.00  0.00    -0.295 A  
HETATM    7  C   UNL     1     -11.868  15.766  72.554  1.00  0.00    -0.605 A  
ENDROOT
BRANCH   5   8
HETATM    8  C   UNL     1     -10.737  14.366  69.145  1.00  0.00    -0.238 C  
BRANCH   8   9
HETATM    9  N   UNL     1     -11.464  13.411  68.253  1.00  0.00    -0.293 NA 
HETATM   10  C   UNL     1     -11.759  12.119  68.933  1.00  0.00    -0.327 C  
HETATM   11  C   UNL     1     -10.702  13.079  67.024  1.00  0.00    -0.258 C  
HETATM   12  C   UNL     1     -10.541  11.179  69.132  1.00  0.00    -0.204 C  
HETATM   13  N   UNL     1      -9.723  10.925  67.923  1.00  0.00    -0.163 NA 
HETATM   14  C   UNL     1      -9.443  12.212  67.257  1.00  0.00    -0.184 C  
BRANCH  13  15
HETATM   15  C   UNL     1     -10.350   9.994  66.968  1.00  0.00    -0.243 C  
BRANCH  15  16
HETATM   16  C   UNL     1      -9.989   8.573  67.257  1.00  0.00    -0.289 C  
HETATM   17  C   UNL     1     -10.846   7.551  67.114  1.00  0.00    -0.298 C  
BRANCH  17  18
HETATM   18  C   UNL     1     -10.476   6.235  67.620  1.00  0.00    -0.288 A  
HETATM   19  C   UNL     1     -10.544   6.009  69.001  1.00  0.00    -0.357 A  
HETATM   20  C   UNL     1     -10.097   4.802  69.535  1.00  0.00    -0.260 A  
HETATM   21  C   UNL     1      -9.588   3.819  68.689  1.00  0.00    -0.173 A  
HETATM   22  C   UNL     1      -9.533   4.036  67.311  1.00  0.00    -0.229 A  
HETATM   23  C   UNL     1      -9.978   5.244  66.774  1.00  0.00    -0.224 A  
ENDBRANCH  17  18
ENDBRANCH  15  16
ENDBRANCH  13  15
ENDBRANCH   8   9
BRANCH   8  24
HETATM   24  C   UNL     1     -10.087  15.552  68.398  1.00  0.00    -0.214 A  
HETATM   25  C   UNL     1      -8.059  16.680  67.632  1.00  0.00    -0.184 A  
HETATM   26  F   UNL     1      -8.232  18.491  66.131  1.00  0.00    -0.280 F  
HETATM   27  C   UNL     1      -8.684  15.681  68.387  1.00  0.00    -0.178 A  
HETATM   28  C   UNL     1     -10.215  17.489  66.917  1.00  0.00    -0.329 A  
HETATM   29  C   UNL     1     -10.846  16.501  67.684  1.00  0.00    -0.269 A  
HETATM   30  C   UNL     1      -8.830  17.564  66.891  1.00  0.00    -0.251 A  
ENDBRANCH   8  24
ENDBRANCH   5   8
TORSDOF 6
ENDMDL
MODEL       14
REMARK 921   NORMALIZED FREE ENERGY PREDICTED BY IDOCK:   -6.98 KCAL/MOL
REMARK 922        TOTAL FREE ENERGY PREDICTED BY IDOCK:   -9.62 KCAL/MOL
REMARK 923 INTER-LIGAND FREE ENERGY PREDICTED BY IDOCK:   -9.02 KCAL/MOL
REMARK 924 INTRA-LIGAND FREE ENERGY PREDICTED BY IDOCK:   -0.60 KCAL/MOL
REMARK 927      BINDING AFFINITY PREDICTED BY RF-SCORE:    0.00 PKD
ROOT
HETATM    1  F   UNL     1     -11.158   5.432  69.846  1.00  0.00    -0.380 F  
HETATM    2  C   UNL     1     -10.854   6.468  69.054  1.00  0.00    -0.306 A  
HETATM    3  C   UNL     1     -10.373   7.643  69.618  1.00  0.00    -0.213 A  
HETATM    4  C   UNL     1     -10.092   8.736  68.796  1.00  0.00    -0.213 A  
HETATM    5  C   UNL     1     -10.287   8.661  67.402  1.00  0.00    -0.353 A  
HETATM    6  C   UNL     1     -10.733   7.444  66.855  1.00  0.00    -0.324 A  
HETATM    7  C   UNL     1     -11.026   6.356  67.679  1.00  0.00    -0.441 A  
ENDROOT
BRANCH   5   8
HETATM    8  C   UNL     1      -9.991   9.883  66.517  1.00  0.00    -0.228 C  
BRANCH   8   9
HETATM    9  N   UNL     1      -9.633  11.093  67.322  1.00  0.00    -0.165 NA 
HETATM   10  C   UNL     1     -10.782  11.595  68.124  1.00  0.00    -0.213 C  
HETATM   11  C   UNL     1      -9.174  12.226  66.482  1.00  0.00    -0.219 C  
HETATM   12  C   UNL     1     -11.889  12.324  67.316  1.00  0.00    -0.260 C  
HETATM   13  N   UNL     1     -11.419  13.393  66.404  1.00  0.00    -0.317 NA 
HETATM   14  C   UNL     1     -10.277  12.882  65.620  1.00  0.00    -0.285 C  
BRANCH  13  15
HETATM   15  C   UNL     1     -11.034  14.635  67.095  1.00  0.00    -0.316 C  
BRANCH  15  16
HETATM   16  C   UNL     1     -11.700  14.760  68.427  1.00  0.00    -0.343 C  
HETATM   17  C   UNL     1     -11.043  15.073  69.554  1.00  0.00    -0.292 C  
BRANCH  17  18
HETATM   18  C   UNL     1     -11.733  14.964  70.835  1.00  0.00    -0.374 A  
HETATM   19  C   UNL     1     -12.577  13.866  71.044  1.00  0.00    -0.444 A  
HETATM   20  C   UNL     1     -13.335  13.781  72.210  1.00  0.00    -0.617 A  
HETATM   21  C   UNL     1     -13.247  14.789  73.168  1.00  0.00    -0.543 A  
HETATM   22  C   UNL     1     -12.395  15.877  72.967  1.00  0.00    -0.605 A  
HETATM   23  C   UNL     1     -11.636  15.966  71.800  1.00  0.00    -0.541 A  
ENDBRANCH  17  18
ENDBRANCH  15  16
ENDBRANCH  13  15
ENDBRANCH   8   9
BRANCH   8  24
HETATM   24  C   UNL     1      -8.963   9.533  65.419  1.00  0.00    -0.244 A  
HETATM   25  C   UNL     1      -8.306   9.625  63.066  1.00  0.00    -0.168 A  
HETATM   26  F   UNL     1      -6.131   8.959  62.441  1.00  0.00    -0.093 F  
HETATM   27  C   UNL     1      -9.256   9.830  64.072  1.00  0.00    -0.267 A  
HETATM   28  C   UNL     1      -6.756   8.771  64.704  1.00  0.00    -0.069 A  
HETATM   29  C   UNL     1      -7.710   8.958  65.713  1.00  0.00    -0.094 A  
HETATM   30  C   UNL     1      -7.059   9.113  63.395  1.00  0.00    -0.089 A  
ENDBRANCH   8  24
ENDBRANCH   5   8
TORSDOF 6
ENDMDL
MODEL       15
REMARK 921   NORMALIZED FREE ENERGY PREDICTED BY IDOCK:   -6.95 KCAL/MOL
REMARK 922        TOTAL FREE ENERGY PREDICTED BY IDOCK:   -9.58 KCAL/MOL
REMARK 923 INTER-LIGAND FREE ENERGY PREDICTED BY IDOCK:   -8.69 KCAL/MOL
REMARK 924 INTRA-LIGAND FREE ENERGY PREDICTED BY IDOCK:   -0.89 KCAL/MOL
REMARK 927      BINDING AFFINITY PREDICTED BY RF-SCORE:    0.00 PKD
ROOT
HETATM    1  F   UNL     1      -9.874   8.339  73.425  1.00  0.00    -0.338 F  
HETATM    2  C   UNL     1      -9.927   8.558  72.104  1.00  0.00    -0.317 A  
HETATM    3  C   UNL     1     -11.074   9.113  71.549  1.00  0.00    -0.436 A  
HETATM    4  C   UNL     1     -11.145   9.307  70.168  1.00  0.00    -0.260 A  
HETATM    5  C   UNL     1     -10.068   8.951  69.332  1.00  0.00    -0.202 A  
HETATM    6  C   UNL     1      -8.903   8.432  69.927  1.00  0.00    -0.137 A  
HETATM    7  C   UNL     1      -8.838   8.227  71.307  1.00  0.00    -0.193 A  
ENDROOT
BRANCH   5   8
HETATM    8  C   UNL     1     -10.175   9.153  67.812  1.00  0.00    -0.224 C  
BRANCH   8   9
HETATM    9  N   UNL     1      -9.271  10.239  67.320  1.00  0.00    -0.141 NA 
HETATM   10  C   UNL     1      -9.385  11.479  68.136  1.00  0.00    -0.185 C  
HETATM   11  C   UNL     1      -9.553  10.628  65.915  1.00  0.00    -0.205 C  
HETATM   12  C   UNL     1     -10.680  12.304  67.914  1.00  0.00    -0.215 C  
HETATM   13  N   UNL     1     -11.013  12.610  66.503  1.00  0.00    -0.261 NA 
HETATM   14  C   UNL     1     -10.891  11.374  65.706  1.00  0.00    -0.230 C  
BRANCH  13  15
HETATM   15  C   UNL     1     -10.177  13.670  65.914  1.00  0.00    -0.311 C  
BRANCH  15  16
HETATM   16  C   UNL     1     -10.391  14.987  66.586  1.00  0.00    -0.278 C  
HETATM   17  C   UNL     1     -10.407  16.157  65.930  1.00  0.00    -0.384 C  
BRANCH  17  18
HETATM   18  C   UNL     1     -10.408  17.401  66.690  1.00  0.00    -0.306 A  
HETATM   19  C   UNL     1     -10.533  18.608  65.991  1.00  0.00    -0.456 A  
HETATM   20  C   UNL     1     -10.432  19.821  66.668  1.00  0.00    -0.615 A  
HETATM   21  C   UNL     1     -10.210  19.829  68.044  1.00  0.00    -0.581 A  
HETATM   22  C   UNL     1     -10.099  18.627  68.744  1.00  0.00    -0.398 A  
HETATM   23  C   UNL     1     -10.199  17.410  68.069  1.00  0.00    -0.345 A  
ENDBRANCH  17  18
ENDBRANCH  15  16
ENDBRANCH  13  15
ENDBRANCH   8   9
BRANCH   8  24
HETATM   24  C   UNL     1     -10.009   7.812  67.064  1.00  0.00    -0.314 A  
HETATM   25  C   UNL     1      -8.593   6.309  65.756  1.00  0.00    -0.153 A  
HETATM   26  F   UNL     1      -9.323   4.109  65.320  1.00  0.00    -0.130 F  
HETATM   27  C   UNL     1      -8.819   7.553  66.355  1.00  0.00    -0.178 A  
HETATM   28  C   UNL     1     -10.756   5.555  66.506  1.00  0.00    -0.309 A  
HETATM   29  C   UNL     1     -10.995   6.805  67.092  1.00  0.00    -0.458 A  
HETATM   30  C   UNL     1      -9.557   5.316  65.852  1.00  0.00    -0.125 A  
ENDBRANCH   8  24
ENDBRANCH   5   8
TORSDOF 6
ENDMDL
MODEL       16
REMARK 921   NORMALIZED FREE ENERGY PREDICTED BY IDOCK:   -6.91 KCAL/MOL
REMARK 922        TOTAL FREE ENERGY PREDICTED BY IDOCK:   -9.52 KCAL/MOL
REMARK 923 INTER-LIGAND FREE ENERGY PREDICTED BY IDOCK:   -9.21 KCAL/MOL
REMARK 924 INTRA-LIGAND FREE ENERGY PREDICTED BY IDOCK:   -0.32 KCAL/MOL
REMARK 927      BINDING AFFINITY PREDICTED BY RF-SCORE:    0.00 PKD
ROOT
HETATM    1  F   UNL     1     -11.345  15.926  64.178  1.00  0.00    -0.388 F  
HETATM    2  C   UNL     1     -11.383  15.051  65.191  1.00  0.00    -0.372 A  
HETATM    3  C   UNL     1     -10.442  15.144  66.209  1.00  0.00    -0.312 A  
HETATM    4  C   UNL     1     -10.457  14.209  67.247  1.00  0.00    -0.272 A  
HETATM    5  C   UNL     1     -11.417  13.176  67.275  1.00  0.00    -0.375 A  
HETATM    6  C   UNL     1     -12.384  13.135  66.254  1.00  0.00    -0.346 A  
HETATM    7  C   UNL     1     -12.359  14.062  65.211  1.00  0.00    -0.480 A  
ENDROOT
BRANCH   5   8
HETATM    8  C   UNL     1     -11.403  12.145  68.415  1.00  0.00    -0.286 C  
BRANCH   8   9
HETATM    9  N   UNL     1     -10.072  11.478  68.560  1.00  0.00    -0.203 NA 
HETATM   10  C   UNL     1      -9.648  10.789  67.311  1.00  0.00    -0.160 C  
HETATM   11  C   UNL     1     -10.056  10.455  69.636  1.00  0.00    -0.190 C  
HETATM   12  C   UNL     1     -10.398   9.469  66.992  1.00  0.00    -0.250 C  
HETATM   13  N   UNL     1     -10.466   8.486  68.099  1.00  0.00    -0.207 NA 
HETATM   14  C   UNL     1     -10.882   9.184  69.332  1.00  0.00    -0.151 C  
BRANCH  13  15
HETATM   15  C   UNL     1      -9.200   7.770  68.333  1.00  0.00    -0.137 C  
BRANCH  15  16
HETATM   16  C   UNL     1      -9.286   6.858  69.514  1.00  0.00    -0.148 C  
HETATM   17  C   UNL     1     -10.209   5.893  69.636  1.00  0.00    -0.281 C  
BRANCH  17  18
HETATM   18  C   UNL     1     -10.350   5.198  70.910  1.00  0.00    -0.282 A  
HETATM   19  C   UNL     1      -9.755   3.938  71.050  1.00  0.00    -0.252 A  
HETATM   20  C   UNL     1      -9.955   3.195  72.211  1.00  0.00    -0.236 A  
HETATM   21  C   UNL     1     -10.746   3.713  73.235  1.00  0.00    -0.291 A  
HETATM   22  C   UNL     1     -11.329   4.974  73.103  1.00  0.00    -0.397 A  
HETATM   23  C   UNL     1     -11.131   5.720  71.941  1.00  0.00    -0.308 A  
ENDBRANCH  17  18
ENDBRANCH  15  16
ENDBRANCH  13  15
ENDBRANCH   8   9
BRANCH   8  24
HETATM   24  C   UNL     1     -11.942  12.762  69.724  1.00  0.00    -0.362 A  
HETATM   25  C   UNL     1     -12.413  14.758  71.055  1.00  0.00    -0.400 A  
HETATM   26  F   UNL     1     -13.672  14.560  73.040  1.00  0.00    -0.515 F  
HETATM   27  C   UNL     1     -11.841  14.153  69.930  1.00  0.00    -0.387 A  
HETATM   28  C   UNL     1     -13.161  12.602  71.834  1.00  0.00    -0.504 A  
HETATM   29  C   UNL     1     -12.575  11.989  70.719  1.00  0.00    -0.312 A  
HETATM   30  C   UNL     1     -13.083  13.978  71.987  1.00  0.00    -0.401 A  
ENDBRANCH   8  24
ENDBRANCH   5   8
TORSDOF 6
ENDMDL
MODEL       17
REMARK 921   NORMALIZED FREE ENERGY PREDICTED BY IDOCK:   -6.85 KCAL/MOL
REMARK 922        TOTAL FREE ENERGY PREDICTED BY IDOCK:   -9.44 KCAL/MOL
REMARK 923 INTER-LIGAND FREE ENERGY PREDICTED BY IDOCK:  -10.02 KCAL/MOL
REMARK 924 INTRA-LIGAND FREE ENERGY PREDICTED BY IDOCK:    0.58 KCAL/MOL
REMARK 927      BINDING AFFINITY PREDICTED BY RF-SCORE:    0.00 PKD
ROOT
HETATM    1  F   UNL     1     -10.960  19.781  67.424  1.00  0.00    -0.547 F  
HETATM    2  C   UNL     1     -10.631  18.493  67.260  1.00  0.00    -0.413 A  
HETATM    3  C   UNL     1     -10.303  18.026  65.994  1.00  0.00    -0.333 A  
HETATM    4  C   UNL     1      -9.996  16.675  65.816  1.00  0.00    -0.271 A  
HETATM    5  C   UNL     1     -10.011  15.781  66.906  1.00  0.00    -0.247 A  
HETATM    6  C   UNL     1     -10.304  16.292  68.184  1.00  0.00    -0.277 A  
HETATM    7  C   UNL     1     -10.623  17.640  68.358  1.00  0.00    -0.318 A  
ENDROOT
BRANCH   5   8
HETATM    8  C   UNL     1      -9.691  14.294  66.686  1.00  0.00    -0.287 C  
BRANCH   8   9
HETATM    9  N   UNL     1      -9.613  13.534  67.972  1.00  0.00    -0.214 NA 
HETATM   10  C   UNL     1      -8.214  13.397  68.461  1.00  0.00    -0.093 C  
HETATM   11  C   UNL     1     -10.161  12.160  67.861  1.00  0.00    -0.198 C  
HETATM   12  C   UNL     1      -7.334  12.385  67.682  1.00  0.00    -0.132 C  
HETATM   13  N   UNL     1      -7.922  11.039  67.487  1.00  0.00    -0.114 NA 
HETATM   14  C   UNL     1      -9.310  11.191  67.008  1.00  0.00    -0.170 C  
BRANCH  13  15
HETATM   15  C   UNL     1      -7.901  10.202  68.699  1.00  0.00    -0.097 C  
BRANCH  15  16
HETATM   16  C   UNL     1      -9.202  10.250  69.432  1.00  0.00    -0.206 C  
HETATM   17  C   UNL     1      -9.496   9.450  70.468  1.00  0.00    -0.327 C  
BRANCH  17  18
HETATM   18  C   UNL     1     -10.860   9.420  70.982  1.00  0.00    -0.406 A  
HETATM   19  C   UNL     1     -11.718  10.476  70.653  1.00  0.00    -0.453 A  
HETATM   20  C   UNL     1     -12.994  10.540  71.209  1.00  0.00    -0.532 A  
HETATM   21  C   UNL     1     -13.413   9.546  72.091  1.00  0.00    -0.535 A  
HETATM   22  C   UNL     1     -12.565   8.484  72.409  1.00  0.00    -0.409 A  
HETATM   23  C   UNL     1     -11.286   8.419  71.854  1.00  0.00    -0.382 A  
ENDBRANCH  17  18
ENDBRANCH  15  16
ENDBRANCH  13  15
ENDBRANCH   8   9
BRANCH   8  24
HETATM   24  C   UNL     1     -10.649  13.672  65.646  1.00  0.00    -0.294 A  
HETATM   25  C   UNL     1     -10.950  12.453  63.549  1.00  0.00    -0.506 A  
HETATM   26  F   UNL     1     -13.094  11.665  62.960  1.00  0.00    -0.631 F  
HETATM   27  C   UNL     1     -10.123  13.118  64.461  1.00  0.00    -0.244 A  
HETATM   28  C   UNL     1     -12.861  12.914  64.944  1.00  0.00    -0.370 A  
HETATM   29  C   UNL     1     -12.041  13.596  65.852  1.00  0.00    -0.476 A  
HETATM   30  C   UNL     1     -12.308  12.342  63.808  1.00  0.00    -0.538 A  
ENDBRANCH   8  24
ENDBRANCH   5   8
TORSDOF 6
ENDMDL
MODEL       18
REMARK 921   NORMALIZED FREE ENERGY PREDICTED BY IDOCK:   -6.85 KCAL/MOL
REMARK 922        TOTAL FREE ENERGY PREDICTED BY IDOCK:   -9.44 KCAL/MOL
REMARK 923 INTER-LIGAND FREE ENERGY PREDICTED BY IDOCK:   -8.95 KCAL/MOL
REMARK 924 INTRA-LIGAND FREE ENERGY PREDICTED BY IDOCK:   -0.49 KCAL/MOL
REMARK 927      BINDING AFFINITY PREDICTED BY RF-SCORE:    0.00 PKD
ROOT
HETATM    1  F   UNL     1     -11.471  16.242  64.197  1.00  0.00    -0.522 F  
HETATM    2  C   UNL     1     -11.423  15.194  65.030  1.00  0.00    -0.339 A  
HETATM    3  C   UNL     1     -10.445  15.150  66.017  1.00  0.00    -0.330 A  
HETATM    4  C   UNL     1     -10.371  14.041  66.862  1.00  0.00    -0.269 A  
HETATM    5  C   UNL     1     -11.276  12.968  66.729  1.00  0.00    -0.333 A  
HETATM    6  C   UNL     1     -12.282  13.062  65.750  1.00  0.00    -0.511 A  
HETATM    7  C   UNL     1     -12.348  14.165  64.897  1.00  0.00    -0.446 A  
ENDROOT
BRANCH   5   8
HETATM    8  C   UNL     1     -11.164  11.747  67.655  1.00  0.00    -0.281 C  
BRANCH   8   9
HETATM    9  N   UNL     1      -9.778  11.183  67.684  1.00  0.00    -0.168 NA 
HETATM   10  C   UNL     1      -9.273  10.863  66.321  1.00  0.00    -0.177 C  
HETATM   11  C   UNL     1      -9.684   9.931  68.476  1.00  0.00    -0.154 C  
HETATM   12  C   UNL     1      -9.891   9.603  65.660  1.00  0.00    -0.299 C  
HETATM   13  N   UNL     1      -9.884   8.375  66.489  1.00  0.00    -0.263 NA 
HETATM   14  C   UNL     1     -10.382   8.708  67.838  1.00  0.00    -0.229 C  
BRANCH  13  15
HETATM   15  C   UNL     1      -8.561   7.735  66.589  1.00  0.00    -0.136 C  
BRANCH  15  16
HETATM   16  C   UNL     1      -8.597   6.511  67.445  1.00  0.00    -0.118 C  
HETATM   17  C   UNL     1      -9.153   5.354  67.055  1.00  0.00    -0.112 C  
BRANCH  17  18
HETATM   18  C   UNL     1      -9.331   4.285  68.030  1.00  0.00    -0.200 A  
HETATM   19  C   UNL     1      -9.432   4.628  69.384  1.00  0.00    -0.239 A  
HETATM   20  C   UNL     1      -9.495   3.631  70.355  1.00  0.00    -0.255 A  
HETATM   21  C   UNL     1      -9.462   2.291  69.974  1.00  0.00    -0.131 A  
HETATM   22  C   UNL     1      -9.375   1.947  68.624  1.00  0.00    -0.234 A  
HETATM   23  C   UNL     1      -9.311   2.943  67.649  1.00  0.00    -0.234 A  
ENDBRANCH  17  18
ENDBRANCH  15  16
ENDBRANCH  13  15
ENDBRANCH   8   9
BRANCH   8  24
HETATM   24  C   UNL     1     -11.743  12.059  69.053  1.00  0.00    -0.382 A  
HETATM   25  C   UNL     1     -12.427  13.723  70.707  1.00  0.00    -0.441 A  
HETATM   26  F   UNL     1     -13.601  13.033  72.633  1.00  0.00    -0.616 F  
HETATM   27  C   UNL     1     -11.812  13.396  69.494  1.00  0.00    -0.391 A  
HETATM   28  C   UNL     1     -12.880  11.389  71.107  1.00  0.00    -0.440 A  
HETATM   29  C   UNL     1     -12.249  11.055  69.902  1.00  0.00    -0.408 A  
HETATM   30  C   UNL     1     -12.970  12.718  71.494  1.00  0.00    -0.292 A  
ENDBRANCH   8  24
ENDBRANCH   5   8
TORSDOF 6
ENDMDL
MODEL       19
REMARK 921   NORMALIZED FREE ENERGY PREDICTED BY IDOCK:   -6.84 KCAL/MOL
REMARK 922        TOTAL FREE ENERGY PREDICTED BY IDOCK:   -9.44 KCAL/MOL
REMARK 923 INTER-LIGAND FREE ENERGY PREDICTED BY IDOCK:   -8.40 KCAL/MOL
REMARK 924 INTRA-LIGAND FREE ENERGY PREDICTED BY IDOCK:   -1.04 KCAL/MOL
REMARK 927      BINDING AFFINITY PREDICTED BY RF-SCORE:    0.00 PKD
ROOT
HETATM    1  F   UNL     1     -12.078  16.128  63.963  1.00  0.00    -0.451 F  
HETATM    2  C   UNL     1     -11.640  15.056  64.636  1.00  0.00    -0.386 A  
HETATM    3  C   UNL     1     -10.435  15.125  65.324  1.00  0.00    -0.434 A  
HETATM    4  C   UNL     1      -9.959  13.996  65.994  1.00  0.00    -0.331 A  
HETATM    5  C   UNL     1     -10.687  12.789  65.984  1.00  0.00    -0.295 A  
HETATM    6  C   UNL     1     -11.925  12.762  65.316  1.00  0.00    -0.473 A  
HETATM    7  C   UNL     1     -12.394  13.888  64.636  1.00  0.00    -0.421 A  
ENDROOT
BRANCH   5   8
HETATM    8  C   UNL     1     -10.136  11.552  66.710  1.00  0.00    -0.215 C  
BRANCH   8   9
HETATM    9  N   UNL     1     -11.222  10.710  67.301  1.00  0.00    -0.356 NA 
HETATM   10  C   UNL     1     -12.024  11.453  68.311  1.00  0.00    -0.164 C  
HETATM   11  C   UNL     1     -10.704   9.497  67.980  1.00  0.00    -0.212 C  
HETATM   12  C   UNL     1     -11.321  11.695  69.672  1.00  0.00    -0.236 C  
HETATM   13  N   UNL     1     -10.718  10.498  70.305  1.00  0.00    -0.195 NA 
HETATM   14  C   UNL     1      -9.931   9.769  69.291  1.00  0.00    -0.192 C  
BRANCH  13  15
HETATM   15  C   UNL     1     -11.704   9.593  70.918  1.00  0.00    -0.334 C  
BRANCH  15  16
HETATM   16  C   UNL     1     -11.103   8.271  71.271  1.00  0.00    -0.296 C  
HETATM   17  C   UNL     1     -11.716   7.098  71.049  1.00  0.00    -0.358 C  
BRANCH  17  18
HETATM   18  C   UNL     1     -11.151   5.880  71.617  1.00  0.00    -0.319 A  
HETATM   19  C   UNL     1     -11.439   5.573  72.952  1.00  0.00    -0.327 A  
HETATM   20  C   UNL     1     -10.834   4.477  73.564  1.00  0.00    -0.360 A  
HETATM   21  C   UNL     1      -9.944   3.686  72.839  1.00  0.00    -0.210 A  
HETATM   22  C   UNL     1      -9.666   3.983  71.504  1.00  0.00    -0.246 A  
HETATM   23  C   UNL     1     -10.270   5.080  70.890  1.00  0.00    -0.287 A  
ENDBRANCH  17  18
ENDBRANCH  15  16
ENDBRANCH  13  15
ENDBRANCH   8   9
BRANCH   8  24
HETATM   24  C   UNL     1      -9.158  10.771  65.805  1.00  0.00    -0.208 A  
HETATM   25  C   UNL     1      -8.757   9.549  63.727  1.00  0.00    -0.237 A  
HETATM   26  F   UNL     1      -6.553   8.956  63.133  1.00  0.00    -0.090 F  
HETATM   27  C   UNL     1      -9.634  10.172  64.621  1.00  0.00    -0.379 A  
HETATM   28  C   UNL     1      -6.907  10.053  65.188  1.00  0.00    -0.130 A  
HETATM   29  C   UNL     1      -7.783  10.663  66.096  1.00  0.00    -0.145 A  
HETATM   30  C   UNL     1      -7.400   9.511  64.010  1.00  0.00    -0.115 A  
ENDBRANCH   8  24
ENDBRANCH   5   8
TORSDOF 6
ENDMDL
MODEL       20
REMARK 921   NORMALIZED FREE ENERGY PREDICTED BY IDOCK:   -6.83 KCAL/MOL
REMARK 922        TOTAL FREE ENERGY PREDICTED BY IDOCK:   -9.42 KCAL/MOL
REMARK 923 INTER-LIGAND FREE ENERGY PREDICTED BY IDOCK:   -8.47 KCAL/MOL
REMARK 924 INTRA-LIGAND FREE ENERGY PREDICTED BY IDOCK:   -0.95 KCAL/MOL
REMARK 927      BINDING AFFINITY PREDICTED BY RF-SCORE:    0.00 PKD
ROOT
HETATM    1  F   UNL     1      -8.463   5.644  65.234  1.00  0.00    -0.127 F  
HETATM    2  C   UNL     1      -8.835   6.584  66.113  1.00  0.00    -0.150 A  
HETATM    3  C   UNL     1     -10.112   6.543  66.658  1.00  0.00    -0.201 A  
HETATM    4  C   UNL     1     -10.514   7.544  67.545  1.00  0.00    -0.341 A  
HETATM    5  C   UNL     1      -9.639   8.592  67.897  1.00  0.00    -0.173 A  
HETATM    6  C   UNL     1      -8.337   8.582  67.363  1.00  0.00    -0.120 A  
HETATM    7  C   UNL     1      -7.941   7.588  66.467  1.00  0.00    -0.107 A  
ENDROOT
BRANCH   5   8
HETATM    8  C   UNL     1     -10.107   9.695  68.859  1.00  0.00    -0.187 C  
BRANCH   8   9
HETATM    9  N   UNL     1     -11.285  10.449  68.326  1.00  0.00    -0.285 NA 
HETATM   10  C   UNL     1     -11.166  10.723  66.868  1.00  0.00    -0.032 C  
HETATM   11  C   UNL     1     -11.474  11.763  68.991  1.00  0.00    -0.297 C  
HETATM   12  C   UNL     1     -10.145  11.824  66.479  1.00  0.00    -0.203 C  
HETATM   13  N   UNL     1     -10.273  13.106  67.212  1.00  0.00    -0.241 NA 
HETATM   14  C   UNL     1     -10.396  12.819  68.655  1.00  0.00    -0.179 C  
BRANCH  13  15
HETATM   15  C   UNL     1     -11.410  13.931  66.768  1.00  0.00    -0.333 C  
BRANCH  15  16
HETATM   16  C   UNL     1     -11.188  15.382  67.049  1.00  0.00    -0.229 C  
HETATM   17  C   UNL     1     -10.394  16.165  66.303  1.00  0.00    -0.337 C  
BRANCH  17  18
HETATM   18  C   UNL     1     -10.071  17.506  66.773  1.00  0.00    -0.320 A  
HETATM   19  C   UNL     1      -9.377  17.638  67.983  1.00  0.00    -0.274 A  
HETATM   20  C   UNL     1      -9.144  18.903  68.520  1.00  0.00    -0.392 A  
HETATM   21  C   UNL     1      -9.600  20.035  67.847  1.00  0.00    -0.488 A  
HETATM   22  C   UNL     1     -10.279  19.906  66.635  1.00  0.00    -0.609 A  
HETATM   23  C   UNL     1     -10.516  18.641  66.095  1.00  0.00    -0.473 A  
ENDBRANCH  17  18
ENDBRANCH  15  16
ENDBRANCH  13  15
ENDBRANCH   8   9
BRANCH   8  24
HETATM   24  C   UNL     1     -10.313   9.135  70.283  1.00  0.00    -0.253 A  
HETATM   25  C   UNL     1     -11.827   8.230  71.975  1.00  0.00    -0.408 A  
HETATM   26  F   UNL     1     -10.939   7.300  73.952  1.00  0.00    -0.369 F  
HETATM   27  C   UNL     1     -11.615   8.837  70.732  1.00  0.00    -0.288 A  
HETATM   28  C   UNL     1      -9.452   8.244  72.387  1.00  0.00    -0.357 A  
HETATM   29  C   UNL     1      -9.235   8.867  71.152  1.00  0.00    -0.324 A  
HETATM   30  C   UNL     1     -10.742   7.923  72.783  1.00  0.00    -0.371 A  
ENDBRANCH   8  24
ENDBRANCH   5   8
TORSDOF 6
ENDMDL
MODEL       21
REMARK 921   NORMALIZED FREE ENERGY PREDICTED BY IDOCK:   -6.81 KCAL/MOL
REMARK 922        TOTAL FREE ENERGY PREDICTED BY IDOCK:   -9.40 KCAL/MOL
REMARK 923 INTER-LIGAND FREE ENERGY PREDICTED BY IDOCK:   -8.48 KCAL/MOL
REMARK 924 INTRA-LIGAND FREE ENERGY PREDICTED BY IDOCK:   -0.91 KCAL/MOL
REMARK 927      BINDING AFFINITY PREDICTED BY RF-SCORE:    0.00 PKD
ROOT
HETATM    1  F   UNL     1     -10.360   4.584  69.537  1.00  0.00    -0.287 F  
HETATM    2  C   UNL     1     -10.293   5.802  68.983  1.00  0.00    -0.245 A  
HETATM    3  C   UNL     1      -9.623   6.820  69.649  1.00  0.00    -0.150 A  
HETATM    4  C   UNL     1      -9.585   8.100  69.091  1.00  0.00    -0.157 A  
HETATM    5  C   UNL     1     -10.216   8.370  67.859  1.00  0.00    -0.273 A  
HETATM    6  C   UNL     1     -10.849   7.308  67.187  1.00  0.00    -0.378 A  
HETATM    7  C   UNL     1     -10.897   6.033  67.752  1.00  0.00    -0.380 A  
ENDROOT
BRANCH   5   8
HETATM    8  C   UNL     1     -10.180   9.789  67.272  1.00  0.00    -0.232 C  
BRANCH   8   9
HETATM    9  N   UNL     1      -9.748  10.809  68.278  1.00  0.00    -0.159 NA 
HETATM   10  C   UNL     1     -10.748  10.983  69.367  1.00  0.00    -0.205 C  
HETATM   11  C   UNL     1      -9.533  12.150  67.681  1.00  0.00    -0.187 C  
HETATM   12  C   UNL     1     -12.033  11.757  68.972  1.00  0.00    -0.280 C  
HETATM   13  N   UNL     1     -11.818  13.054  68.288  1.00  0.00    -0.349 NA 
HETATM   14  C   UNL     1     -10.821  12.866  67.215  1.00  0.00    -0.255 C  
BRANCH  13  15
HETATM   15  C   UNL     1     -11.384  14.134  69.190  1.00  0.00    -0.279 C  
BRANCH  15  16
HETATM   16  C   UNL     1     -11.274  15.443  68.479  1.00  0.00    -0.321 C  
HETATM   17  C   UNL     1     -10.198  16.241  68.563  1.00  0.00    -0.247 C  
BRANCH  17  18
HETATM   18  C   UNL     1     -10.265  17.588  68.010  1.00  0.00    -0.354 A  
HETATM   19  C   UNL     1     -10.481  17.734  66.635  1.00  0.00    -0.300 A  
HETATM   20  C   UNL     1     -10.445  18.998  66.051  1.00  0.00    -0.530 A  
HETATM   21  C   UNL     1     -10.198  20.118  66.843  1.00  0.00    -0.566 A  
HETATM   22  C   UNL     1      -9.996  19.977  68.217  1.00  0.00    -0.508 A  
HETATM   23  C   UNL     1     -10.031  18.711  68.804  1.00  0.00    -0.427 A  
ENDBRANCH  17  18
ENDBRANCH  15  16
ENDBRANCH  13  15
ENDBRANCH   8   9
BRANCH   8  24
HETATM   24  C   UNL     1      -9.370   9.823  65.957  1.00  0.00    -0.249 A  
HETATM   25  C   UNL     1      -7.295   9.322  64.768  1.00  0.00    -0.103 A  
HETATM   26  F   UNL     1      -7.218   9.541  62.420  1.00  0.00    -0.105 F  
HETATM   27  C   UNL     1      -8.024   9.405  65.959  1.00  0.00    -0.110 A  
HETATM   28  C   UNL     1      -9.209  10.120  63.539  1.00  0.00    -0.322 A  
HETATM   29  C   UNL     1      -9.939  10.222  64.730  1.00  0.00    -0.392 A  
HETATM   30  C   UNL     1      -7.899   9.664  63.567  1.00  0.00    -0.136 A  
ENDBRANCH   8  24
ENDBRANCH   5   8
TORSDOF 6
ENDMDL
MODEL       22
REMARK 921   NORMALIZED FREE ENERGY PREDICTED BY IDOCK:   -6.81 KCAL/MOL
REMARK 922        TOTAL FREE ENERGY PREDICTED BY IDOCK:   -9.39 KCAL/MOL
REMARK 923 INTER-LIGAND FREE ENERGY PREDICTED BY IDOCK:   -8.86 KCAL/MOL
REMARK 924 INTRA-LIGAND FREE ENERGY PREDICTED BY IDOCK:   -0.53 KCAL/MOL
REMARK 927      BINDING AFFINITY PREDICTED BY RF-SCORE:    0.00 PKD
ROOT
HETATM    1  F   UNL     1      -8.440  19.796  66.660  1.00  0.00    -0.289 F  
HETATM    2  C   UNL     1      -9.100  18.727  67.123  1.00  0.00    -0.284 A  
HETATM    3  C   UNL     1      -8.645  18.086  68.269  1.00  0.00    -0.293 A  
HETATM    4  C   UNL     1      -9.311  16.948  68.731  1.00  0.00    -0.260 A  
HETATM    5  C   UNL     1     -10.439  16.445  68.051  1.00  0.00    -0.303 A  
HETATM    6  C   UNL     1     -10.902  17.141  66.920  1.00  0.00    -0.005 A  
HETATM    7  C   UNL     1     -10.228  18.271  66.452  1.00  0.00    -0.417 A  
ENDROOT
BRANCH   5   8
HETATM    8  C   UNL     1     -11.145  15.180  68.564  1.00  0.00    -0.276 C  
BRANCH   8   9
HETATM    9  N   UNL     1     -10.232  13.994  68.593  1.00  0.00    -0.239 NA 
HETATM   10  C   UNL     1      -9.761  13.613  67.233  1.00  0.00    -0.243 C  
HETATM   11  C   UNL     1     -10.875  12.789  69.173  1.00  0.00    -0.075 C  
HETATM   12  C   UNL     1     -10.816  12.918  66.334  1.00  0.00    -0.274 C  
HETATM   13  N   UNL     1     -11.528  11.772  66.948  1.00  0.00    -0.477 NA 
HETATM   14  C   UNL     1     -11.985  12.162  68.297  1.00  0.00    -0.187 C  
BRANCH  13  15
HETATM   15  C   UNL     1     -10.716  10.546  67.031  1.00  0.00    -0.250 C  
BRANCH  15  16
HETATM   16  C   UNL     1     -10.800   9.912  68.382  1.00  0.00    -0.263 C  
HETATM   17  C   UNL     1     -10.391   8.660  68.636  1.00  0.00    -0.219 C  
BRANCH  17  18
HETATM   18  C   UNL     1     -10.706   8.056  69.925  1.00  0.00    -0.242 A  
HETATM   19  C   UNL     1     -10.680   6.660  70.029  1.00  0.00    -0.287 A  
HETATM   20  C   UNL     1     -11.078   6.039  71.211  1.00  0.00    -0.337 A  
HETATM   21  C   UNL     1     -11.498   6.814  72.291  1.00  0.00    -0.314 A  
HETATM   22  C   UNL     1     -11.511   8.207  72.194  1.00  0.00    -0.412 A  
HETATM   23  C   UNL     1     -11.114   8.830  71.011  1.00  0.00    -0.328 A  
ENDBRANCH  17  18
ENDBRANCH  15  16
ENDBRANCH  13  15
ENDBRANCH   8   9
BRANCH   8  24
HETATM   24  C   UNL     1     -11.862  15.452  69.905  1.00  0.00    -0.373 A  
HETATM   25  C   UNL     1     -13.912  15.367  71.233  1.00  0.00    -0.491 A  
HETATM   26  F   UNL     1     -13.817  15.815  73.547  1.00  0.00    -0.470 F  
HETATM   27  C   UNL     1     -13.250  15.232  70.008  1.00  0.00     0.206 A  
HETATM   28  C   UNL     1     -11.836  15.997  72.285  1.00  0.00    -0.628 A  
HETATM   29  C   UNL     1     -11.172  15.880  71.057  1.00  0.00    -0.371 A  
HETATM   30  C   UNL     1     -13.195  15.731  72.363  1.00  0.00    -0.462 A  
ENDBRANCH   8  24
ENDBRANCH   5   8
TORSDOF 6
ENDMDL
MODEL       23
REMARK 921   NORMALIZED FREE ENERGY PREDICTED BY IDOCK:   -6.75 KCAL/MOL
REMARK 922        TOTAL FREE ENERGY PREDICTED BY IDOCK:   -9.31 KCAL/MOL
REMARK 923 INTER-LIGAND FREE ENERGY PREDICTED BY IDOCK:   -9.36 KCAL/MOL
REMARK 924 INTRA-LIGAND FREE ENERGY PREDICTED BY IDOCK:    0.05 KCAL/MOL
REMARK 927      BINDING AFFINITY PREDICTED BY RF-SCORE:    0.00 PKD
ROOT
HETATM    1  F   UNL     1     -12.395  11.719  63.302  1.00  0.00    -0.607 F  
HETATM    2  C   UNL     1     -11.933  12.107  64.497  1.00  0.00    -0.337 A  
HETATM    3  C   UNL     1     -12.600  13.105  65.197  1.00  0.00    -0.525 A  
HETATM    4  C   UNL     1     -12.098  13.537  66.427  1.00  0.00    -0.467 A  
HETATM    5  C   UNL     1     -10.925  12.971  66.968  1.00  0.00    -0.289 A  
HETATM    6  C   UNL     1     -10.297  11.931  66.257  1.00  0.00    -0.259 A  
HETATM    7  C   UNL     1     -10.793  11.509  65.022  1.00  0.00    -0.336 A  
ENDROOT
BRANCH   5   8
HETATM    8  C   UNL     1     -10.377  13.474  68.312  1.00  0.00    -0.252 C  
BRANCH   8   9
HETATM    9  N   UNL     1      -9.777  14.841  68.203  1.00  0.00    -0.213 NA 
HETATM   10  C   UNL     1      -8.789  14.935  67.095  1.00  0.00    -0.217 C  
HETATM   11  C   UNL     1      -9.070  15.257  69.440  1.00  0.00    -0.228 C  
HETATM   12  C   UNL     1      -7.428  14.237  67.356  1.00  0.00    -0.149 C  
HETATM   13  N   UNL     1      -6.766  14.580  68.637  1.00  0.00    -0.083 NA 
HETATM   14  C   UNL     1      -7.759  14.488  69.725  1.00  0.00     0.223 C  
BRANCH  13  15
HETATM   15  C   UNL     1      -6.142  15.914  68.642  1.00  0.00    -0.101 C  
BRANCH  15  16
HETATM   16  C   UNL     1      -6.971  16.921  67.913  1.00  0.00    -0.158 C  
HETATM   17  C   UNL     1      -7.494  18.009  68.498  1.00  0.00    -0.283 C  
BRANCH  17  18
HETATM   18  C   UNL     1      -8.461  18.817  67.765  1.00  0.00    -0.298 A  
HETATM   19  C   UNL     1      -9.792  18.821  68.202  1.00  0.00    -0.396 A  
HETATM   20  C   UNL     1     -10.766  19.494  67.467  1.00  0.00    -0.565 A  
HETATM   21  C   UNL     1     -10.410  20.166  66.299  1.00  0.00    -0.512 A  
HETATM   22  C   UNL     1      -9.082  20.175  65.870  1.00  0.00    -0.131 A  
HETATM   23  C   UNL     1      -8.105  19.501  66.603  1.00  0.00    -0.324 A  
ENDBRANCH  17  18
ENDBRANCH  15  16
ENDBRANCH  13  15
ENDBRANCH   8   9
BRANCH   8  24
HETATM   24  C   UNL     1     -11.440  13.342  69.425  1.00  0.00    -0.333 A  
HETATM   25  C   UNL     1     -12.628  11.924  71.023  1.00  0.00    -0.381 A  
HETATM   26  F   UNL     1     -14.013  12.917  72.653  1.00  0.00    -0.622 F  
HETATM   27  C   UNL     1     -11.750  12.068  69.943  1.00  0.00    -0.374 A  
HETATM   28  C   UNL     1     -12.957  14.312  71.075  1.00  0.00    -0.411 A  
HETATM   29  C   UNL     1     -12.093  14.460  69.982  1.00  0.00    -0.401 A  
HETATM   30  C   UNL     1     -13.210  13.049  71.589  1.00  0.00    -0.336 A  
ENDBRANCH   8  24
ENDBRANCH   5   8
TORSDOF 6
ENDMDL
MODEL       24
REMARK 921   NORMALIZED FREE ENERGY PREDICTED BY IDOCK:   -6.73 KCAL/MOL
REMARK 922        TOTAL FREE ENERGY PREDICTED BY IDOCK:   -9.28 KCAL/MOL
REMARK 923 INTER-LIGAND FREE ENERGY PREDICTED BY IDOCK:   -9.91 KCAL/MOL
REMARK 924 INTRA-LIGAND FREE ENERGY PREDICTED BY IDOCK:    0.63 KCAL/MOL
REMARK 927      BINDING AFFINITY PREDICTED BY RF-SCORE:    0.00 PKD
ROOT
HETATM    1  F   UNL     1     -13.779  13.099  73.078  1.00  0.00    -0.420 F  
HETATM    2  C   UNL     1     -13.175  12.709  71.948  1.00  0.00    -0.403 A  
HETATM    3  C   UNL     1     -13.076  11.353  71.658  1.00  0.00    -0.498 A  
HETATM    4  C   UNL     1     -12.414  10.944  70.499  1.00  0.00    -0.438 A  
HETATM    5  C   UNL     1     -11.848  11.888  69.618  1.00  0.00    -0.406 A  
HETATM    6  C   UNL     1     -12.002  13.255  69.916  1.00  0.00    -0.400 A  
HETATM    7  C   UNL     1     -12.654  13.662  71.081  1.00  0.00    -0.452 A  
ENDROOT
BRANCH   5   8
HETATM    8  C   UNL     1     -11.104  11.416  68.359  1.00  0.00    -0.242 C  
BRANCH   8   9
HETATM    9  N   UNL     1     -10.331  12.520  67.710  1.00  0.00    -0.217 NA 
HETATM   10  C   UNL     1     -11.117  13.781  67.620  1.00  0.00    -0.273 C  
HETATM   11  C   UNL     1      -9.904  12.187  66.328  1.00  0.00    -0.234 C  
HETATM   12  C   UNL     1     -12.240  13.790  66.550  1.00  0.00    -0.430 C  
HETATM   13  N   UNL     1     -11.834  13.364  65.190  1.00  0.00    -0.335 NA 
HETATM   14  C   UNL     1     -11.052  12.117  65.295  1.00  0.00    -0.321 C  
BRANCH  13  15
HETATM   15  C   UNL     1     -11.059  14.380  64.458  1.00  0.00    -0.291 C  
BRANCH  15  16
HETATM   16  C   UNL     1     -11.054  15.695  65.168  1.00  0.00    -0.357 C  
HETATM   17  C   UNL     1      -9.965  16.212  65.758  1.00  0.00    -0.370 C  
BRANCH  17  18
HETATM   18  C   UNL     1     -10.105  17.391  66.604  1.00  0.00    -0.317 A  
HETATM   19  C   UNL     1     -10.435  18.609  65.999  1.00  0.00    -0.456 A  
HETATM   20  C   UNL     1     -10.472  19.778  66.756  1.00  0.00    -0.610 A  
HETATM   21  C   UNL     1     -10.185  19.729  68.119  1.00  0.00    -0.577 A  
HETATM   22  C   UNL     1      -9.870  18.512  68.727  1.00  0.00    -0.411 A  
HETATM   23  C   UNL     1      -9.830  17.341  67.971  1.00  0.00    -0.284 A  
ENDBRANCH  17  18
ENDBRANCH  15  16
ENDBRANCH  13  15
ENDBRANCH   8   9
BRANCH   8  24
HETATM   24  C   UNL     1     -10.267  10.152  68.653  1.00  0.00    -0.193 A  
HETATM   25  C   UNL     1      -9.782   7.807  68.166  1.00  0.00    -0.171 A  
HETATM   26  F   UNL     1      -7.868   6.796  69.104  1.00  0.00    -0.101 F  
HETATM   27  C   UNL     1     -10.584   8.942  68.004  1.00  0.00    -0.226 A  
HETATM   28  C   UNL     1      -8.351   9.032  69.670  1.00  0.00    -0.125 A  
HETATM   29  C   UNL     1      -9.160  10.166  69.525  1.00  0.00    -0.213 A  
HETATM   30  C   UNL     1      -8.663   7.867  68.984  1.00  0.00    -0.138 A  
ENDBRANCH   8  24
ENDBRANCH   5   8
TORSDOF 6
ENDMDL
MODEL       25
REMARK 921   NORMALIZED FREE ENERGY PREDICTED BY IDOCK:   -6.69 KCAL/MOL
REMARK 922        TOTAL FREE ENERGY PREDICTED BY IDOCK:   -9.24 KCAL/MOL
REMARK 923 INTER-LIGAND FREE ENERGY PREDICTED BY IDOCK:   -8.79 KCAL/MOL
REMARK 924 INTRA-LIGAND FREE ENERGY PREDICTED BY IDOCK:   -0.44 KCAL/MOL
REMARK 927      BINDING AFFINITY PREDICTED BY RF-SCORE:    0.00 PKD
ROOT
HETATM    1  F   UNL     1     -12.651  13.029  62.871  1.00  0.00    -0.443 F  
HETATM    2  C   UNL     1     -11.875  12.530  63.842  1.00  0.00    -0.463 A  
HETATM    3  C   UNL     1     -12.348  12.498  65.148  1.00  0.00    -0.496 A  
HETATM    4  C   UNL     1     -11.524  12.013  66.166  1.00  0.00    -0.401 A  
HETATM    5  C   UNL     1     -10.222  11.551  65.885  1.00  0.00    -0.286 A  
HETATM    6  C   UNL     1      -9.787  11.554  64.547  1.00  0.00    -0.278 A  
HETATM    7  C   UNL     1     -10.607  12.052  63.531  1.00  0.00    -0.514 A  
ENDROOT
BRANCH   5   8
HETATM    8  C   UNL     1      -9.324  11.040  67.023  1.00  0.00    -0.172 C  
BRANCH   8   9
HETATM    9  N   UNL     1      -9.214  12.025  68.144  1.00  0.00    -0.191 NA 
HETATM   10  C   UNL     1      -9.517  13.415  67.704  1.00  0.00    -0.216 C  
HETATM   11  C   UNL     1      -7.859  12.058  68.748  1.00  0.00    -0.033 C  
HETATM   12  C   UNL     1      -8.417  14.097  66.849  1.00  0.00    -0.091 C  
HETATM   13  N   UNL     1      -7.045  14.045  67.408  1.00  0.00    -0.150 NA 
HETATM   14  C   UNL     1      -6.761  12.664  67.844  1.00  0.00    -0.109 C  
BRANCH  13  15
HETATM   15  C   UNL     1      -6.826  14.978  68.526  1.00  0.00    -0.102 C  
BRANCH  15  16
HETATM   16  C   UNL     1      -7.270  16.364  68.191  1.00  0.00    -0.148 C  
HETATM   17  C   UNL     1      -8.266  16.996  68.831  1.00  0.00    -0.204 C  
BRANCH  17  18
HETATM   18  C   UNL     1      -8.770  18.256  68.299  1.00  0.00    -0.302 A  
HETATM   19  C   UNL     1     -10.136  18.357  68.008  1.00  0.00    -0.392 A  
HETATM   20  C   UNL     1     -10.638  19.505  67.399  1.00  0.00    -0.607 A  
HETATM   21  C   UNL     1      -9.776  20.554  67.084  1.00  0.00    -0.581 A  
HETATM   22  C   UNL     1      -8.416  20.461  67.385  1.00  0.00    -0.394 A  
HETATM   23  C   UNL     1      -7.911  19.311  67.994  1.00  0.00    -0.333 A  
ENDBRANCH  17  18
ENDBRANCH  15  16
ENDBRANCH  13  15
ENDBRANCH   8   9
BRANCH   8  24
HETATM   24  C   UNL     1      -9.752   9.625  67.471  1.00  0.00    -0.195 A  
HETATM   25  C   UNL     1     -10.534   8.144  69.250  1.00  0.00    -0.221 A  
HETATM   26  F   UNL     1     -11.248   5.960  68.716  1.00  0.00    -0.371 F  
HETATM   27  C   UNL     1     -10.042   9.384  68.829  1.00  0.00    -0.208 A  
HETATM   28  C   UNL     1     -10.416   7.326  66.986  1.00  0.00    -0.398 A  
HETATM   29  C   UNL     1      -9.906   8.560  66.561  1.00  0.00    -0.342 A  
HETATM   30  C   UNL     1     -10.733   7.133  68.322  1.00  0.00    -0.153 A  
ENDBRANCH   8  24
ENDBRANCH   5   8
TORSDOF 6
ENDMDL
MODEL       26
REMARK 921   NORMALIZED FREE ENERGY PREDICTED BY IDOCK:   -6.65 KCAL/MOL
REMARK 922        TOTAL FREE ENERGY PREDICTED BY IDOCK:   -9.18 KCAL/MOL
REMARK 923 INTER-LIGAND FREE ENERGY PREDICTED BY IDOCK:   -8.97 KCAL/MOL
REMARK 924 INTRA-LIGAND FREE ENERGY PREDICTED BY IDOCK:   -0.21 KCAL/MOL
REMARK 927      BINDING AFFINITY PREDICTED BY RF-SCORE:    0.00 PKD
ROOT
HETATM    1  F   UNL     1     -12.516  13.039  62.893  1.00  0.00    -0.516 F  
HETATM    2  C   UNL     1     -11.765  12.568  63.898  1.00  0.00    -0.452 A  
HETATM    3  C   UNL     1     -10.468  12.142  63.640  1.00  0.00    -0.495 A  
HETATM    4  C   UNL     1      -9.697  11.616  64.679  1.00  0.00    -0.210 A  
HETATM    5  C   UNL     1     -10.218  11.516  65.986  1.00  0.00    -0.283 A  
HETATM    6  C   UNL     1     -11.518  11.996  66.225  1.00  0.00    -0.408 A  
HETATM    7  C   UNL     1     -12.292  12.510  65.182  1.00  0.00    -0.496 A  
ENDROOT
BRANCH   5   8
HETATM    8  C   UNL     1      -9.360  10.915  67.111  1.00  0.00    -0.159 C  
BRANCH   8   9
HETATM    9  N   UNL     1      -9.149  11.876  68.238  1.00  0.00    -0.182 NA 
HETATM   10  C   UNL     1      -9.549  13.264  67.876  1.00  0.00    -0.217 C  
HETATM   11  C   UNL     1      -7.733  11.943  68.678  1.00  0.00    -0.113 C  
HETATM   12  C   UNL     1      -8.582  14.006  66.916  1.00  0.00    -0.125 C  
HETATM   13  N   UNL     1      -7.152  13.990  67.306  1.00  0.00    -0.128 NA 
HETATM   14  C   UNL     1      -6.772  12.610  67.667  1.00  0.00    -0.144 C  
BRANCH  13  15
HETATM   15  C   UNL     1      -6.831  14.903  68.416  1.00  0.00    -0.110 C  
BRANCH  15  16
HETATM   16  C   UNL     1      -7.280  16.301  68.136  1.00  0.00    -0.147 C  
HETATM   17  C   UNL     1      -8.267  16.908  68.810  1.00  0.00    -0.244 C  
BRANCH  17  18
HETATM   18  C   UNL     1      -8.777  18.187  68.329  1.00  0.00    -0.294 A  
HETATM   19  C   UNL     1     -10.153  18.310  68.099  1.00  0.00    -0.397 A  
HETATM   20  C   UNL     1     -10.666  19.478  67.539  1.00  0.00    -0.565 A  
HETATM   21  C   UNL     1      -9.805  20.524  67.212  1.00  0.00    -0.581 A  
HETATM   22  C   UNL     1      -8.435  20.408  67.453  1.00  0.00    -0.394 A  
HETATM   23  C   UNL     1      -7.918  19.239  68.013  1.00  0.00    -0.339 A  
ENDBRANCH  17  18
ENDBRANCH  15  16
ENDBRANCH  13  15
ENDBRANCH   8   9
BRANCH   8  24
HETATM   24  C   UNL     1      -9.913   9.542  67.553  1.00  0.00    -0.235 A  
HETATM   25  C   UNL     1     -10.554   7.259  66.961  1.00  0.00    -0.415 A  
HETATM   26  F   UNL     1     -11.059   5.714  68.670  1.00  0.00    -0.313 F  
HETATM   27  C   UNL     1     -10.155   8.546  66.585  1.00  0.00    -0.364 A  
HETATM   28  C   UNL     1     -10.535   7.929  69.277  1.00  0.00    -0.221 A  
HETATM   29  C   UNL     1     -10.152   9.224  68.905  1.00  0.00    -0.207 A  
HETATM   30  C   UNL     1     -10.723   6.958  68.305  1.00  0.00    -0.214 A  
ENDBRANCH   8  24
ENDBRANCH   5   8
TORSDOF 6
ENDMDL
MODEL       27
REMARK 921   NORMALIZED FREE ENERGY PREDICTED BY IDOCK:   -6.64 KCAL/MOL
REMARK 922        TOTAL FREE ENERGY PREDICTED BY IDOCK:   -9.17 KCAL/MOL
REMARK 923 INTER-LIGAND FREE ENERGY PREDICTED BY IDOCK:   -8.17 KCAL/MOL
REMARK 924 INTRA-LIGAND FREE ENERGY PREDICTED BY IDOCK:   -0.99 KCAL/MOL
REMARK 927      BINDING AFFINITY PREDICTED BY RF-SCORE:    0.00 PKD
ROOT
HETATM    1  F   UNL     1      -9.364   3.650  65.663  1.00  0.00    -0.137 F  
HETATM    2  C   UNL     1      -9.472   4.816  66.313  1.00  0.00    -0.160 A  
HETATM    3  C   UNL     1     -10.714   5.430  66.414  1.00  0.00    -0.284 A  
HETATM    4  C   UNL     1     -10.821   6.665  67.059  1.00  0.00    -0.467 A  
HETATM    5  C   UNL     1      -9.685   7.292  67.612  1.00  0.00    -0.173 A  
HETATM    6  C   UNL     1      -8.449   6.625  67.533  1.00  0.00    -0.121 A  
HETATM    7  C   UNL     1      -8.341   5.397  66.877  1.00  0.00    -0.108 A  
ENDROOT
BRANCH   5   8
HETATM    8  C   UNL     1      -9.821   8.660  68.299  1.00  0.00    -0.165 C  
BRANCH   8   9
HETATM    9  N   UNL     1     -10.782   9.560  67.587  1.00  0.00    -0.278 NA 
HETATM   10  C   UNL     1     -10.312   9.915  66.220  1.00  0.00    -0.163 C  
HETATM   11  C   UNL     1     -11.010  10.838  68.304  1.00  0.00    -0.255 C  
HETATM   12  C   UNL     1      -9.144  10.934  66.162  1.00  0.00    -0.183 C  
HETATM   13  N   UNL     1      -9.332  12.171  66.956  1.00  0.00    -0.195 NA 
HETATM   14  C   UNL     1      -9.802  11.804  68.307  1.00  0.00    -0.198 C  
BRANCH  13  15
HETATM   15  C   UNL     1     -10.267  13.131  66.346  1.00  0.00    -0.286 C  
BRANCH  15  16
HETATM   16  C   UNL     1      -9.961  14.538  66.746  1.00  0.00    -0.267 C  
HETATM   17  C   UNL     1     -10.906  15.463  66.974  1.00  0.00    -0.320 C  
BRANCH  17  18
HETATM   18  C   UNL     1     -10.513  16.856  67.150  1.00  0.00    -0.296 A  
HETATM   19  C   UNL     1     -10.227  17.308  68.444  1.00  0.00    -0.358 A  
HETATM   20  C   UNL     1      -9.953  18.656  68.668  1.00  0.00    -0.431 A  
HETATM   21  C   UNL     1      -9.959  19.550  67.599  1.00  0.00    -0.498 A  
HETATM   22  C   UNL     1     -10.229  19.098  66.306  1.00  0.00    -0.527 A  
HETATM   23  C   UNL     1     -10.506  17.749  66.079  1.00  0.00    -0.286 A  
ENDBRANCH  17  18
ENDBRANCH  15  16
ENDBRANCH  13  15
ENDBRANCH   8   9
BRANCH   8  24
HETATM   24  C   UNL     1     -10.116   8.494  69.806  1.00  0.00    -0.197 A  
HETATM   25  C   UNL     1     -11.574   7.631  71.567  1.00  0.00    -0.304 A  
HETATM   26  F   UNL     1     -10.844   7.683  73.810  1.00  0.00    -0.385 F  
HETATM   27  C   UNL     1     -11.323   7.893  70.216  1.00  0.00    -0.158 A  
HETATM   28  C   UNL     1      -9.448   8.606  72.152  1.00  0.00    -0.373 A  
HETATM   29  C   UNL     1      -9.199   8.887  70.802  1.00  0.00    -0.272 A  
HETATM   30  C   UNL     1     -10.626   7.975  72.521  1.00  0.00    -0.329 A  
ENDBRANCH   8  24
ENDBRANCH   5   8
TORSDOF 6
ENDMDL
MODEL       28
REMARK 921   NORMALIZED FREE ENERGY PREDICTED BY IDOCK:   -6.62 KCAL/MOL
REMARK 922        TOTAL FREE ENERGY PREDICTED BY IDOCK:   -9.14 KCAL/MOL
REMARK 923 INTER-LIGAND FREE ENERGY PREDICTED BY IDOCK:   -8.16 KCAL/MOL
REMARK 924 INTRA-LIGAND FREE ENERGY PREDICTED BY IDOCK:   -0.98 KCAL/MOL
REMARK 927      BINDING AFFINITY PREDICTED BY RF-SCORE:    0.00 PKD
ROOT
HETATM    1  F   UNL     1      -6.103   8.832  62.420  1.00  0.00    -0.092 F  
HETATM    2  C   UNL     1      -6.891   9.135  63.460  1.00  0.00    -0.090 A  
HETATM    3  C   UNL     1      -6.321   9.369  64.705  1.00  0.00    -0.078 A  
HETATM    4  C   UNL     1      -7.145   9.648  65.798  1.00  0.00    -0.099 A  
HETATM    5  C   UNL     1      -8.546   9.698  65.652  1.00  0.00    -0.149 A  
HETATM    6  C   UNL     1      -9.092   9.500  64.371  1.00  0.00    -0.234 A  
HETATM    7  C   UNL     1      -8.268   9.209  63.282  1.00  0.00    -0.177 A  
ENDROOT
BRANCH   5   8
HETATM    8  C   UNL     1      -9.436   9.985  66.872  1.00  0.00    -0.166 C  
BRANCH   8   9
HETATM    9  N   UNL     1     -10.605  10.854  66.529  1.00  0.00    -0.250 NA 
HETATM   10  C   UNL     1     -10.184  12.174  65.983  1.00  0.00    -0.237 C  
HETATM   11  C   UNL     1     -11.474  11.135  67.698  1.00  0.00    -0.250 C  
HETATM   12  C   UNL     1      -9.608  13.170  67.024  1.00  0.00    -0.241 C  
HETATM   13  N   UNL     1     -10.432  13.378  68.238  1.00  0.00    -0.244 NA 
HETATM   14  C   UNL     1     -10.846  12.062  68.764  1.00  0.00    -0.230 C  
BRANCH  13  15
HETATM   15  C   UNL     1     -11.618  14.221  68.012  1.00  0.00    -0.332 C  
BRANCH  15  16
HETATM   16  C   UNL     1     -11.245  15.599  67.570  1.00  0.00    -0.245 C  
HETATM   17  C   UNL     1     -10.470  16.422  68.293  1.00  0.00    -0.302 C  
BRANCH  17  18
HETATM   18  C   UNL     1     -10.336  17.816  67.885  1.00  0.00    -0.388 A  
HETATM   19  C   UNL     1     -10.639  18.154  66.561  1.00  0.00    -0.290 A  
HETATM   20  C   UNL     1     -10.421  19.452  66.103  1.00  0.00    -0.600 A  
HETATM   21  C   UNL     1      -9.905  20.413  66.971  1.00  0.00    -0.594 A  
HETATM   22  C   UNL     1      -9.616  20.081  68.296  1.00  0.00    -0.381 A  
HETATM   23  C   UNL     1      -9.831  18.782  68.756  1.00  0.00    -0.434 A  
ENDBRANCH  17  18
ENDBRANCH  15  16
ENDBRANCH  13  15
ENDBRANCH   8   9
BRANCH   8  24
HETATM   24  C   UNL     1      -9.819   8.676  67.597  1.00  0.00    -0.229 A  
HETATM   25  C   UNL     1      -9.972   7.409  69.681  1.00  0.00    -0.182 A  
HETATM   26  F   UNL     1     -11.123   5.350  69.708  1.00  0.00    -0.384 F  
HETATM   27  C   UNL     1      -9.544   8.536  68.972  1.00  0.00    -0.167 A  
HETATM   28  C   UNL     1     -10.920   6.497  67.660  1.00  0.00    -0.426 A  
HETATM   29  C   UNL     1     -10.478   7.615  66.942  1.00  0.00    -0.388 A  
HETATM   30  C   UNL     1     -10.671   6.408  69.022  1.00  0.00    -0.286 A  
ENDBRANCH   8  24
ENDBRANCH   5   8
TORSDOF 6
ENDMDL
MODEL       29
REMARK 921   NORMALIZED FREE ENERGY PREDICTED BY IDOCK:   -6.62 KCAL/MOL
REMARK 922        TOTAL FREE ENERGY PREDICTED BY IDOCK:   -9.13 KCAL/MOL
REMARK 923 INTER-LIGAND FREE ENERGY PREDICTED BY IDOCK:   -8.51 KCAL/MOL
REMARK 924 INTRA-LIGAND FREE ENERGY PREDICTED BY IDOCK:   -0.62 KCAL/MOL
REMARK 927      BINDING AFFINITY PREDICTED BY RF-SCORE:    0.00 PKD
ROOT
HETATM    1  F   UNL     1      -9.359   3.561  65.190  1.00  0.00    -0.133 F  
HETATM    2  C   UNL     1      -9.476   4.645  65.968  1.00  0.00    -0.171 A  
HETATM    3  C   UNL     1     -10.733   5.195  66.189  1.00  0.00    -0.247 A  
HETATM    4  C   UNL     1     -10.852   6.347  66.969  1.00  0.00    -0.464 A  
HETATM    5  C   UNL     1      -9.714   6.956  67.537  1.00  0.00    -0.162 A  
HETATM    6  C   UNL     1      -8.460   6.351  67.333  1.00  0.00    -0.108 A  
HETATM    7  C   UNL     1      -8.342   5.206  66.542  1.00  0.00    -0.108 A  
ENDROOT
BRANCH   5   8
HETATM    8  C   UNL     1      -9.863   8.236  68.375  1.00  0.00    -0.172 C  
BRANCH   8   9
HETATM    9  N   UNL     1     -10.834   9.200  67.769  1.00  0.00    -0.171 NA 
HETATM   10  C   UNL     1     -10.208  10.035  66.707  1.00  0.00    -0.232 C  
HETATM   11  C   UNL     1     -11.408  10.139  68.764  1.00  0.00    -0.115 C  
HETATM   12  C   UNL     1      -9.250  11.145  67.212  1.00  0.00    -0.160 C  
HETATM   13  N   UNL     1      -9.790  12.024  68.276  1.00  0.00    -0.201 NA 
HETATM   14  C   UNL     1     -10.412  11.184  69.319  1.00  0.00    -0.151 C  
BRANCH  13  15
HETATM   15  C   UNL     1     -10.764  13.016  67.788  1.00  0.00    -0.229 C  
BRANCH  15  16
HETATM   16  C   UNL     1     -11.599  13.570  68.896  1.00  0.00    -0.364 C  
HETATM   17  C   UNL     1     -11.217  14.604  69.662  1.00  0.00    -0.307 C  
BRANCH  17  18
HETATM   18  C   UNL     1     -11.995  14.937  70.849  1.00  0.00    -0.374 A  
HETATM   19  C   UNL     1     -13.379  14.724  70.819  1.00  0.00    -0.302 A  
HETATM   20  C   UNL     1     -14.172  15.128  71.891  1.00  0.00    -0.676 A  
HETATM   21  C   UNL     1     -13.582  15.741  72.995  1.00  0.00    -0.638 A  
HETATM   22  C   UNL     1     -12.201  15.941  73.032  1.00  0.00    -0.609 A  
HETATM   23  C   UNL     1     -11.405  15.539  71.960  1.00  0.00    -0.445 A  
ENDBRANCH  17  18
ENDBRANCH  15  16
ENDBRANCH  13  15
ENDBRANCH   8   9
BRANCH   8  24
HETATM   24  C   UNL     1     -10.157   7.896  69.853  1.00  0.00    -0.197 A  
HETATM   25  C   UNL     1      -9.548   8.123  72.210  1.00  0.00    -0.319 A  
HETATM   26  F   UNL     1     -11.030   7.345  73.873  1.00  0.00    -0.361 F  
HETATM   27  C   UNL     1      -9.260   8.320  70.855  1.00  0.00    -0.182 A  
HETATM   28  C   UNL     1     -11.611   7.026  71.611  1.00  0.00    -0.320 A  
HETATM   29  C   UNL     1     -11.319   7.206  70.253  1.00  0.00    -0.305 A  
HETATM   30  C   UNL     1     -10.729   7.493  72.575  1.00  0.00    -0.285 A  
ENDBRANCH   8  24
ENDBRANCH   5   8
TORSDOF 6
ENDMDL
MODEL       30
REMARK 921   NORMALIZED FREE ENERGY PREDICTED BY IDOCK:   -6.59 KCAL/MOL
REMARK 922        TOTAL FREE ENERGY PREDICTED BY IDOCK:   -9.10 KCAL/MOL
REMARK 923 INTER-LIGAND FREE ENERGY PREDICTED BY IDOCK:   -8.44 KCAL/MOL
REMARK 924 INTRA-LIGAND FREE ENERGY PREDICTED BY IDOCK:   -0.66 KCAL/MOL
REMARK 927      BINDING AFFINITY PREDICTED BY RF-SCORE:    0.00 PKD
ROOT
HETATM    1  F   UNL     1     -12.780   9.670  72.996  1.00  0.00    -0.096 F  
HETATM    2  C   UNL     1     -12.250   9.714  71.767  1.00  0.00    -0.384 A  
HETATM    3  C   UNL     1     -12.942  10.353  70.746  1.00  0.00    -0.422 A  
HETATM    4  C   UNL     1     -12.408  10.366  69.455  1.00  0.00     0.021 A  
HETATM    5  C   UNL     1     -11.174   9.743  69.177  1.00  0.00    -0.101 A  
HETATM    6  C   UNL     1     -10.475   9.142  70.241  1.00  0.00    -0.257 A  
HETATM    7  C   UNL     1     -11.017   9.119  71.528  1.00  0.00    -0.434 A  
ENDROOT
BRANCH   5   8
HETATM    8  C   UNL     1     -10.614   9.751  67.746  1.00  0.00    -0.266 C  
BRANCH   8   9
HETATM    9  N   UNL     1      -9.630  10.856  67.529  1.00  0.00    -0.155 NA 
HETATM   10  C   UNL     1     -10.096  12.146  68.107  1.00  0.00    -0.206 C  
HETATM   11  C   UNL     1      -9.357  11.108  66.092  1.00  0.00    -0.206 C  
HETATM   12  C   UNL     1     -11.232  12.855  67.323  1.00  0.00    -0.288 C  
HETATM   13  N   UNL     1     -11.001  13.021  65.868  1.00  0.00    -0.269 NA 
HETATM   14  C   UNL     1     -10.534  11.736  65.311  1.00  0.00    -0.274 C  
BRANCH  13  15
HETATM   15  C   UNL     1     -10.039  14.087  65.539  1.00  0.00    -0.320 C  
BRANCH  15  16
HETATM   16  C   UNL     1     -10.295  15.330  66.328  1.00  0.00    -0.303 C  
HETATM   17  C   UNL     1     -10.207  16.564  65.809  1.00  0.00    -0.350 C  
BRANCH  17  18
HETATM   18  C   UNL     1     -10.263  17.717  66.700  1.00  0.00    -0.361 A  
HETATM   19  C   UNL     1     -10.165  18.997  66.139  1.00  0.00    -0.508 A  
HETATM   20  C   UNL     1     -10.107  20.119  66.963  1.00  0.00    -0.599 A  
HETATM   21  C   UNL     1     -10.151  19.963  68.347  1.00  0.00    -0.557 A  
HETATM   22  C   UNL     1     -10.263  18.689  68.908  1.00  0.00    -0.262 A  
HETATM   23  C   UNL     1     -10.320  17.564  68.085  1.00  0.00    -0.375 A  
ENDBRANCH  17  18
ENDBRANCH  15  16
ENDBRANCH  13  15
ENDBRANCH   8   9
BRANCH   8  24
HETATM   24  C   UNL     1     -10.086   8.354  67.353  1.00  0.00    -0.301 A  
HETATM   25  C   UNL     1     -10.561   6.038  66.732  1.00  0.00    -0.359 A  
HETATM   26  F   UNL     1      -8.811   4.659  65.957  1.00  0.00    -0.116 F  
HETATM   27  C   UNL     1     -10.993   7.288  67.190  1.00  0.00    -0.285 A  
HETATM   28  C   UNL     1      -8.296   6.857  66.632  1.00  0.00    -0.118 A  
HETATM   29  C   UNL     1      -8.720   8.105  67.107  1.00  0.00    -0.130 A  
HETATM   30  C   UNL     1      -9.219   5.840  66.440  1.00  0.00    -0.151 A  
ENDBRANCH   8  24
ENDBRANCH   5   8
TORSDOF 6
ENDMDL
MODEL       31
REMARK 921   NORMALIZED FREE ENERGY PREDICTED BY IDOCK:   -6.55 KCAL/MOL
REMARK 922        TOTAL FREE ENERGY PREDICTED BY IDOCK:   -9.04 KCAL/MOL
REMARK 923 INTER-LIGAND FREE ENERGY PREDICTED BY IDOCK:   -8.34 KCAL/MOL
REMARK 924 INTRA-LIGAND FREE ENERGY PREDICTED BY IDOCK:   -0.69 KCAL/MOL
REMARK 927      BINDING AFFINITY PREDICTED BY RF-SCORE:    0.00 PKD
ROOT
HETATM    1  F   UNL     1      -9.521  19.981  66.936  1.00  0.00    -0.399 F  
HETATM    2  C   UNL     1      -9.467  18.645  66.853  1.00  0.00    -0.301 A  
HETATM    3  C   UNL     1     -10.548  17.888  67.291  1.00  0.00    -0.341 A  
HETATM    4  C   UNL     1     -10.477  16.494  67.240  1.00  0.00    -0.304 A  
HETATM    5  C   UNL     1      -9.326  15.846  66.747  1.00  0.00    -0.262 A  
HETATM    6  C   UNL     1      -8.266  16.639  66.270  1.00  0.00    -0.365 A  
HETATM    7  C   UNL     1      -8.333  18.033  66.333  1.00  0.00    -0.275 A  
ENDROOT
BRANCH   5   8
HETATM    8  C   UNL     1      -9.260  14.311  66.718  1.00  0.00    -0.264 C  
BRANCH   8   9
HETATM    9  N   UNL     1      -9.276  13.718  68.092  1.00  0.00    -0.195 NA 
HETATM   10  C   UNL     1      -7.987  13.921  68.808  1.00  0.00    -0.059 C  
HETATM   11  C   UNL     1      -9.531  12.256  68.083  1.00  0.00    -0.213 C  
HETATM   12  C   UNL     1      -6.809  13.039  68.320  1.00  0.00    -0.101 C  
HETATM   13  N   UNL     1      -7.093  11.587  68.219  1.00  0.00    -0.075 NA 
HETATM   14  C   UNL     1      -8.375  11.401  67.512  1.00  0.00    -0.137 C  
BRANCH  13  15
HETATM   15  C   UNL     1      -7.136  10.900  69.521  1.00  0.00    -0.123 C  
BRANCH  15  16
HETATM   16  C   UNL     1      -7.966   9.659  69.469  1.00  0.00    -0.125 C  
HETATM   17  C   UNL     1      -8.888   9.348  70.392  1.00  0.00    -0.290 C  
BRANCH  17  18
HETATM   18  C   UNL     1      -9.495   8.023  70.376  1.00  0.00    -0.166 A  
HETATM   19  C   UNL     1      -8.653   6.905  70.385  1.00  0.00    -0.143 A  
HETATM   20  C   UNL     1      -9.188   5.625  70.261  1.00  0.00    -0.178 A  
HETATM   21  C   UNL     1     -10.566   5.461  70.133  1.00  0.00    -0.344 A  
HETATM   22  C   UNL     1     -11.409   6.574  70.137  1.00  0.00    -0.463 A  
HETATM   23  C   UNL     1     -10.875   7.857  70.259  1.00  0.00    -0.241 A  
ENDBRANCH  17  18
ENDBRANCH  15  16
ENDBRANCH  13  15
ENDBRANCH   8   9
BRANCH   8  24
HETATM   24  C   UNL     1     -10.333  13.730  65.771  1.00  0.00    -0.315 A  
HETATM   25  C   UNL     1     -10.872  12.474  63.745  1.00  0.00    -0.489 A  
HETATM   26  F   UNL     1     -13.104  11.830  63.336  1.00  0.00    -0.657 F  
HETATM   27  C   UNL     1      -9.936  13.104  64.572  1.00  0.00    -0.137 A  
HETATM   28  C   UNL     1     -12.639  13.118  65.254  1.00  0.00    -0.531 A  
HETATM   29  C   UNL     1     -11.709  13.764  66.077  1.00  0.00    -0.383 A  
HETATM   30  C   UNL     1     -12.213  12.472  64.102  1.00  0.00    -0.467 A  
ENDBRANCH   8  24
ENDBRANCH   5   8
TORSDOF 6
ENDMDL
MODEL       32
REMARK 921   NORMALIZED FREE ENERGY PREDICTED BY IDOCK:   -6.52 KCAL/MOL
REMARK 922        TOTAL FREE ENERGY PREDICTED BY IDOCK:   -9.00 KCAL/MOL
REMARK 923 INTER-LIGAND FREE ENERGY PREDICTED BY IDOCK:   -8.17 KCAL/MOL
REMARK 924 INTRA-LIGAND FREE ENERGY PREDICTED BY IDOCK:   -0.83 KCAL/MOL
REMARK 927      BINDING AFFINITY PREDICTED BY RF-SCORE:    0.00 PKD
ROOT
HETATM    1  F   UNL     1      -6.378   9.082  63.572  1.00  0.00    -0.086 F  
HETATM    2  C   UNL     1      -7.325   9.644  64.336  1.00  0.00    -0.125 A  
HETATM    3  C   UNL     1      -8.661   9.503  63.983  1.00  0.00    -0.239 A  
HETATM    4  C   UNL     1      -9.646  10.119  64.757  1.00  0.00    -0.378 A  
HETATM    5  C   UNL     1      -9.302  10.879  65.894  1.00  0.00    -0.226 A  
HETATM    6  C   UNL     1      -7.944  10.968  66.251  1.00  0.00    -0.148 A  
HETATM    7  C   UNL     1      -6.959  10.361  65.469  1.00  0.00    -0.134 A  
ENDROOT
BRANCH   5   8
HETATM    8  C   UNL     1     -10.400  11.567  66.720  1.00  0.00    -0.226 C  
BRANCH   8   9
HETATM    9  N   UNL     1      -9.999  11.756  68.150  1.00  0.00    -0.189 NA 
HETATM   10  C   UNL     1      -9.489  10.499  68.762  1.00  0.00    -0.180 C  
HETATM   11  C   UNL     1     -11.120  12.221  69.004  1.00  0.00    -0.236 C  
HETATM   12  C   UNL     1     -10.569   9.434  69.090  1.00  0.00    -0.218 C  
HETATM   13  N   UNL     1     -11.737   9.921  69.862  1.00  0.00    -0.134 NA 
HETATM   14  C   UNL     1     -12.227  11.170  69.247  1.00  0.00    -0.226 C  
BRANCH  13  15
HETATM   15  C   UNL     1     -11.451  10.146  71.290  1.00  0.00    -0.249 C  
BRANCH  15  16
HETATM   16  C   UNL     1     -10.907   8.920  71.949  1.00  0.00    -0.433 C  
HETATM   17  C   UNL     1     -11.582   7.763  72.029  1.00  0.00    -0.347 C  
BRANCH  17  18
HETATM   18  C   UNL     1     -11.064   6.692  72.871  1.00  0.00    -0.263 A  
HETATM   19  C   UNL     1     -10.065   7.002  73.802  1.00  0.00    -0.390 A  
HETATM   20  C   UNL     1      -9.468   5.989  74.549  1.00  0.00    -0.198 A  
HETATM   21  C   UNL     1      -9.873   4.668  74.371  1.00  0.00    -0.196 A  
HETATM   22  C   UNL     1     -10.878   4.358  73.453  1.00  0.00    -0.347 A  
HETATM   23  C   UNL     1     -11.476   5.371  72.702  1.00  0.00    -0.305 A  
ENDBRANCH  17  18
ENDBRANCH  15  16
ENDBRANCH  13  15
ENDBRANCH   8   9
BRANCH   8  24
HETATM   24  C   UNL     1     -10.884  12.860  66.028  1.00  0.00    -0.300 A  
HETATM   25  C   UNL     1     -10.391  15.125  65.251  1.00  0.00    -0.425 A  
HETATM   26  F   UNL     1     -11.952  16.251  63.888  1.00  0.00    -0.411 F  
HETATM   27  C   UNL     1     -10.026  13.977  65.962  1.00  0.00    -0.331 A  
HETATM   28  C   UNL     1     -12.503  14.106  64.690  1.00  0.00    -0.375 A  
HETATM   29  C   UNL     1     -12.149  12.960  65.415  1.00  0.00    -0.501 A  
HETATM   30  C   UNL     1     -11.619  15.172  64.608  1.00  0.00    -0.357 A  
ENDBRANCH   8  24
ENDBRANCH   5   8
TORSDOF 6
ENDMDL
MODEL       33
REMARK 921   NORMALIZED FREE ENERGY PREDICTED BY IDOCK:   -6.48 KCAL/MOL
REMARK 922        TOTAL FREE ENERGY PREDICTED BY IDOCK:   -8.95 KCAL/MOL
REMARK 923 INTER-LIGAND FREE ENERGY PREDICTED BY IDOCK:   -8.28 KCAL/MOL
REMARK 924 INTRA-LIGAND FREE ENERGY PREDICTED BY IDOCK:   -0.67 KCAL/MOL
REMARK 927      BINDING AFFINITY PREDICTED BY RF-SCORE:    0.00 PKD
ROOT
HETATM    1  F   UNL     1     -14.101  15.724  73.441  1.00  0.00    -0.419 F  
HETATM    2  C   UNL     1     -13.331  15.682  72.345  1.00  0.00    -0.488 A  
HETATM    3  C   UNL     1     -13.887  15.290  71.134  1.00  0.00    -0.498 A  
HETATM    4  C   UNL     1     -13.077  15.210  69.999  1.00  0.00     0.076 A  
HETATM    5  C   UNL     1     -11.704  15.525  70.068  1.00  0.00    -0.363 A  
HETATM    6  C   UNL     1     -11.180  15.961  71.298  1.00  0.00    -0.325 A  
HETATM    7  C   UNL     1     -11.988  16.029  72.434  1.00  0.00    -0.644 A  
ENDROOT
BRANCH   5   8
HETATM    8  C   UNL     1     -10.825  15.410  68.812  1.00  0.00    -0.252 C  
BRANCH   8   9
HETATM    9  N   UNL     1     -11.556  14.789  67.663  1.00  0.00    -0.347 NA 
HETATM   10  C   UNL     1     -11.939  13.377  67.938  1.00  0.00    -0.323 C  
HETATM   11  C   UNL     1     -10.756  14.776  66.414  1.00  0.00    -0.313 C  
HETATM   12  C   UNL     1     -10.776  12.351  67.896  1.00  0.00    -0.220 C  
HETATM   13  N   UNL     1      -9.918  12.403  66.689  1.00  0.00    -0.221 NA 
HETATM   14  C   UNL     1      -9.550  13.809  66.426  1.00  0.00    -0.272 C  
BRANCH  13  15
HETATM   15  C   UNL     1     -10.544  11.819  65.491  1.00  0.00    -0.276 C  
BRANCH  15  16
HETATM   16  C   UNL     1      -9.539  11.166  64.599  1.00  0.00    -0.289 C  
HETATM   17  C   UNL     1      -9.309   9.844  64.590  1.00  0.00    -0.338 C  
BRANCH  17  18
HETATM   18  C   UNL     1      -8.168   9.324  63.846  1.00  0.00    -0.165 A  
HETATM   19  C   UNL     1      -8.144   7.960  63.531  1.00  0.00    -0.079 A  
HETATM   20  C   UNL     1      -7.024   7.404  62.917  1.00  0.00    -0.067 A  
HETATM   21  C   UNL     1      -5.930   8.212  62.612  1.00  0.00    -0.074 A  
HETATM   22  C   UNL     1      -5.958   9.575  62.912  1.00  0.00    -0.098 A  
HETATM   23  C   UNL     1      -7.077  10.134  63.529  1.00  0.00    -0.114 A  
ENDBRANCH  17  18
ENDBRANCH  15  16
ENDBRANCH  13  15
ENDBRANCH   8   9
BRANCH   8  24
HETATM   24  C   UNL     1     -10.163  16.764  68.476  1.00  0.00    -0.298 A  
HETATM   25  C   UNL     1      -8.125  18.093  68.243  1.00  0.00    -0.306 A  
HETATM   26  F   UNL     1      -8.241  20.238  67.270  1.00  0.00    -0.330 F  
HETATM   27  C   UNL     1      -8.771  16.916  68.638  1.00  0.00    -0.267 A  
HETATM   28  C   UNL     1     -10.240  19.026  67.559  1.00  0.00    -0.472 A  
HETATM   29  C   UNL     1     -10.894  17.857  67.969  1.00  0.00    -0.206 A  
HETATM   30  C   UNL     1      -8.863  19.130  67.692  1.00  0.00    -0.295 A  
ENDBRANCH   8  24
ENDBRANCH   5   8
TORSDOF 6
ENDMDL
MODEL       34
REMARK 921   NORMALIZED FREE ENERGY PREDICTED BY IDOCK:   -6.42 KCAL/MOL
REMARK 922        TOTAL FREE ENERGY PREDICTED BY IDOCK:   -8.86 KCAL/MOL
REMARK 923 INTER-LIGAND FREE ENERGY PREDICTED BY IDOCK:   -8.41 KCAL/MOL
REMARK 924 INTRA-LIGAND FREE ENERGY PREDICTED BY IDOCK:   -0.46 KCAL/MOL
REMARK 927      BINDING AFFINITY PREDICTED BY RF-SCORE:    0.00 PKD
ROOT
HETATM    1  F   UNL     1     -13.334  12.525  72.420  1.00  0.00    -0.607 F  
HETATM    2  C   UNL     1     -12.701  12.368  71.250  1.00  0.00    -0.248 A  
HETATM    3  C   UNL     1     -12.575  11.096  70.706  1.00  0.00    -0.445 A  
HETATM    4  C   UNL     1     -11.883  10.927  69.505  1.00  0.00    -0.404 A  
HETATM    5  C   UNL     1     -11.315  12.032  68.836  1.00  0.00    -0.333 A  
HETATM    6  C   UNL     1     -11.498  13.313  69.389  1.00  0.00    -0.323 A  
HETATM    7  C   UNL     1     -12.179  13.478  70.596  1.00  0.00    -0.434 A  
ENDROOT
BRANCH   5   8
HETATM    8  C   UNL     1     -10.539  11.822  67.526  1.00  0.00    -0.214 C  
BRANCH   8   9
HETATM    9  N   UNL     1     -10.711  10.439  66.981  1.00  0.00    -0.256 NA 
HETATM   10  C   UNL     1     -10.002   9.419  67.802  1.00  0.00    -0.184 C  
HETATM   11  C   UNL     1     -10.198  10.300  65.596  1.00  0.00    -0.231 C  
HETATM   12  C   UNL     1      -8.458   9.404  67.656  1.00  0.00    -0.119 C  
HETATM   13  N   UNL     1      -7.944   9.362  66.266  1.00  0.00    -0.110 NA 
HETATM   14  C   UNL     1      -8.659  10.375  65.464  1.00  0.00    -0.169 C  
BRANCH  13  15
HETATM   15  C   UNL     1      -8.068   8.041  65.628  1.00  0.00    -0.121 C  
BRANCH  15  16
HETATM   16  C   UNL     1      -8.078   6.936  66.634  1.00  0.00    -0.110 C  
HETATM   17  C   UNL     1      -8.815   5.822  66.500  1.00  0.00    -0.126 C  
BRANCH  17  18
HETATM   18  C   UNL     1      -8.926   4.901  67.625  1.00  0.00    -0.116 A  
HETATM   19  C   UNL     1      -9.103   3.539  67.354  1.00  0.00    -0.193 A  
HETATM   20  C   UNL     1      -9.321   2.641  68.398  1.00  0.00    -0.256 A  
HETATM   21  C   UNL     1      -9.356   3.105  69.712  1.00  0.00    -0.223 A  
HETATM   22  C   UNL     1      -9.166   4.461  69.985  1.00  0.00    -0.200 A  
HETATM   23  C   UNL     1      -8.949   5.361  68.941  1.00  0.00    -0.130 A  
ENDBRANCH  17  18
ENDBRANCH  15  16
ENDBRANCH  13  15
ENDBRANCH   8   9
BRANCH   8  24
HETATM   24  C   UNL     1     -10.859  12.941  66.510  1.00  0.00    -0.290 A  
HETATM   25  C   UNL     1     -12.485  14.038  65.053  1.00  0.00    -0.446 A  
HETATM   26  F   UNL     1     -11.937  16.097  64.042  1.00  0.00    -0.492 F  
HETATM   27  C   UNL     1     -12.126  12.980  65.895  1.00  0.00    -0.503 A  
HETATM   28  C   UNL     1     -10.309  15.027  65.367  1.00  0.00    -0.410 A  
HETATM   29  C   UNL     1      -9.938  13.961  66.198  1.00  0.00    -0.322 A  
HETATM   30  C   UNL     1     -11.579  15.060  64.811  1.00  0.00    -0.395 A  
ENDBRANCH   8  24
ENDBRANCH   5   8
TORSDOF 6
ENDMDL
MODEL       35
REMARK 921   NORMALIZED FREE ENERGY PREDICTED BY IDOCK:   -6.32 KCAL/MOL
REMARK 922        TOTAL FREE ENERGY PREDICTED BY IDOCK:   -8.74 KCAL/MOL
REMARK 923 INTER-LIGAND FREE ENERGY PREDICTED BY IDOCK:   -8.11 KCAL/MOL
REMARK 924 INTRA-LIGAND FREE ENERGY PREDICTED BY IDOCK:   -0.63 KCAL/MOL
REMARK 927      BINDING AFFINITY PREDICTED BY RF-SCORE:    0.00 PKD
ROOT
HETATM    1  F   UNL     1      -5.185   7.597  68.611  1.00  0.00    -0.022 F  
HETATM    2  C   UNL     1      -6.360   8.199  68.838  1.00  0.00    -0.040 A  
HETATM    3  C   UNL     1      -6.553   8.899  70.022  1.00  0.00    -0.042 A  
HETATM    4  C   UNL     1      -7.790   9.496  70.275  1.00  0.00    -0.180 A  
HETATM    5  C   UNL     1      -8.843   9.399  69.343  1.00  0.00    -0.159 A  
HETATM    6  C   UNL     1      -8.604   8.722  68.133  1.00  0.00    -0.134 A  
HETATM    7  C   UNL     1      -7.371   8.115  67.887  1.00  0.00    -0.096 A  
ENDROOT
BRANCH   5   8
HETATM    8  C   UNL     1     -10.204  10.044  69.650  1.00  0.00    -0.239 C  
BRANCH   8   9
HETATM    9  N   UNL     1     -10.820  10.671  68.439  1.00  0.00    -0.219 NA 
HETATM   10  C   UNL     1      -9.931  11.691  67.819  1.00  0.00    -0.181 C  
HETATM   11  C   UNL     1     -12.105  11.351  68.736  1.00  0.00    -0.189 C  
HETATM   12  C   UNL     1      -9.818  13.032  68.591  1.00  0.00    -0.068 C  
HETATM   13  N   UNL     1     -11.103  13.664  68.972  1.00  0.00    -0.257 NA 
HETATM   14  C   UNL     1     -11.976  12.640  69.580  1.00  0.00    -0.286 C  
BRANCH  13  15
HETATM   15  C   UNL     1     -11.801  14.311  67.848  1.00  0.00    -0.358 C  
BRANCH  15  16
HETATM   16  C   UNL     1     -11.160  15.606  67.466  1.00  0.00    -0.289 C  
HETATM   17  C   UNL     1     -10.963  16.615  68.328  1.00  0.00    -0.341 C  
BRANCH  17  18
HETATM   18  C   UNL     1     -10.528  17.911  67.821  1.00  0.00    -0.409 A  
HETATM   19  C   UNL     1     -10.008  18.840  68.729  1.00  0.00    -0.442 A  
HETATM   20  C   UNL     1      -9.681  20.126  68.304  1.00  0.00    -0.375 A  
HETATM   21  C   UNL     1      -9.870  20.482  66.970  1.00  0.00    -0.534 A  
HETATM   22  C   UNL     1     -10.376  19.552  66.059  1.00  0.00    -0.604 A  
HETATM   23  C   UNL     1     -10.705  18.264  66.483  1.00  0.00    -0.199 A  
ENDBRANCH  17  18
ENDBRANCH  15  16
ENDBRANCH  13  15
ENDBRANCH   8   9
BRANCH   8  24
HETATM   24  C   UNL     1     -11.132   9.052  70.385  1.00  0.00    -0.279 A  
HETATM   25  C   UNL     1     -12.971   8.679  71.951  1.00  0.00    -0.409 A  
HETATM   26  F   UNL     1     -13.906   6.523  72.153  1.00  0.00    -0.329 F  
HETATM   27  C   UNL     1     -12.044   9.534  71.345  1.00  0.00    -0.459 A  
HETATM   28  C   UNL     1     -12.076   6.822  70.700  1.00  0.00    -0.371 A  
HETATM   29  C   UNL     1     -11.134   7.671  70.104  1.00  0.00    -0.229 A  
HETATM   30  C   UNL     1     -12.989   7.334  71.610  1.00  0.00    -0.372 A  
ENDBRANCH   8  24
ENDBRANCH   5   8
TORSDOF 6
ENDMDL
MODEL       36
REMARK 921   NORMALIZED FREE ENERGY PREDICTED BY IDOCK:   -6.27 KCAL/MOL
REMARK 922        TOTAL FREE ENERGY PREDICTED BY IDOCK:   -8.66 KCAL/MOL
REMARK 923 INTER-LIGAND FREE ENERGY PREDICTED BY IDOCK:   -8.36 KCAL/MOL
REMARK 924 INTRA-LIGAND FREE ENERGY PREDICTED BY IDOCK:   -0.30 KCAL/MOL
REMARK 927      BINDING AFFINITY PREDICTED BY RF-SCORE:    0.00 PKD
ROOT
HETATM    1  F   UNL     1     -12.469  16.015  72.241  1.00  0.00    -0.432 F  
HETATM    2  C   UNL     1     -12.049  15.217  71.251  1.00  0.00    -0.349 A  
HETATM    3  C   UNL     1     -12.685  14.001  71.037  1.00  0.00    -0.431 A  
HETATM    4  C   UNL     1     -12.225  13.151  70.028  1.00  0.00    -0.323 A  
HETATM    5  C   UNL     1     -11.126  13.514  69.223  1.00  0.00    -0.230 A  
HETATM    6  C   UNL     1     -10.530  14.772  69.434  1.00  0.00    -0.210 A  
HETATM    7  C   UNL     1     -10.984  15.614  70.451  1.00  0.00    -0.366 A  
ENDROOT
BRANCH   5   8
HETATM    8  C   UNL     1     -10.621  12.556  68.133  1.00  0.00    -0.226 C  
BRANCH   8   9
HETATM    9  N   UNL     1     -10.913  11.125  68.456  1.00  0.00    -0.201 NA 
HETATM   10  C   UNL     1     -10.063  10.615  69.567  1.00  0.00    -0.132 C  
HETATM   11  C   UNL     1     -10.693  10.219  67.302  1.00  0.00    -0.263 C  
HETATM   12  C   UNL     1      -8.580  10.344  69.200  1.00  0.00    -0.164 C  
HETATM   13  N   UNL     1      -8.359   9.518  67.989  1.00  0.00    -0.118 NA 
HETATM   14  C   UNL     1      -9.211  10.032  66.899  1.00  0.00    -0.147 C  
BRANCH  13  15
HETATM   15  C   UNL     1      -8.623   8.083  68.196  1.00  0.00    -0.126 C  
BRANCH  15  16
HETATM   16  C   UNL     1      -8.855   7.761  69.636  1.00  0.00    -0.139 C  
HETATM   17  C   UNL     1      -9.570   6.704  70.050  1.00  0.00    -0.163 C  
BRANCH  17  18
HETATM   18  C   UNL     1      -9.922   6.590  71.461  1.00  0.00    -0.193 A  
HETATM   19  C   UNL     1      -9.370   7.509  72.360  1.00  0.00    -0.192 A  
HETATM   20  C   UNL     1      -9.594   7.370  73.729  1.00  0.00    -0.333 A  
HETATM   21  C   UNL     1     -10.374   6.314  74.197  1.00  0.00    -0.319 A  
HETATM   22  C   UNL     1     -10.937   5.404  73.300  1.00  0.00    -0.358 A  
HETATM   23  C   UNL     1     -10.712   5.541  71.929  1.00  0.00    -0.292 A  
ENDBRANCH  17  18
ENDBRANCH  15  16
ENDBRANCH  13  15
ENDBRANCH   8   9
BRANCH   8  24
HETATM   24  C   UNL     1     -11.116  12.998  66.738  1.00  0.00    -0.316 A  
HETATM   25  C   UNL     1     -10.720  13.149  64.331  1.00  0.00    -0.426 A  
HETATM   26  F   UNL     1     -12.473  13.822  62.904  1.00  0.00    -0.426 F  
HETATM   27  C   UNL     1     -10.266  12.859  65.622  1.00  0.00    -0.295 A  
HETATM   28  C   UNL     1     -12.869  13.776  65.226  1.00  0.00    -0.430 A  
HETATM   29  C   UNL     1     -12.415  13.503  66.523  1.00  0.00    -0.309 A  
HETATM   30  C   UNL     1     -12.022  13.589  64.144  1.00  0.00    -0.448 A  
ENDBRANCH   8  24
ENDBRANCH   5   8
TORSDOF 6
ENDMDL
MODEL       37
REMARK 921   NORMALIZED FREE ENERGY PREDICTED BY IDOCK:   -6.20 KCAL/MOL
REMARK 922        TOTAL FREE ENERGY PREDICTED BY IDOCK:   -8.57 KCAL/MOL
REMARK 923 INTER-LIGAND FREE ENERGY PREDICTED BY IDOCK:   -7.66 KCAL/MOL
REMARK 924 INTRA-LIGAND FREE ENERGY PREDICTED BY IDOCK:   -0.91 KCAL/MOL
REMARK 927      BINDING AFFINITY PREDICTED BY RF-SCORE:    0.00 PKD
ROOT
HETATM    1  F   UNL     1      -8.440  19.796  66.660  1.00  0.00    -0.289 F  
HETATM    2  C   UNL     1      -9.100  18.727  67.123  1.00  0.00    -0.284 A  
HETATM    3  C   UNL     1      -8.645  18.086  68.269  1.00  0.00    -0.293 A  
HETATM    4  C   UNL     1      -9.311  16.948  68.731  1.00  0.00    -0.260 A  
HETATM    5  C   UNL     1     -10.439  16.445  68.051  1.00  0.00    -0.303 A  
HETATM    6  C   UNL     1     -10.902  17.141  66.920  1.00  0.00    -0.005 A  
HETATM    7  C   UNL     1     -10.228  18.271  66.452  1.00  0.00    -0.417 A  
ENDROOT
BRANCH   5   8
HETATM    8  C   UNL     1     -11.145  15.180  68.564  1.00  0.00    -0.276 C  
BRANCH   8   9
HETATM    9  N   UNL     1     -10.232  13.994  68.593  1.00  0.00    -0.239 NA 
HETATM   10  C   UNL     1      -9.761  13.613  67.233  1.00  0.00    -0.243 C  
HETATM   11  C   UNL     1     -10.875  12.789  69.173  1.00  0.00    -0.075 C  
HETATM   12  C   UNL     1     -10.816  12.918  66.334  1.00  0.00    -0.274 C  
HETATM   13  N   UNL     1     -11.528  11.772  66.948  1.00  0.00    -0.477 NA 
HETATM   14  C   UNL     1     -11.985  12.162  68.297  1.00  0.00    -0.187 C  
BRANCH  13  15
HETATM   15  C   UNL     1     -10.716  10.546  67.031  1.00  0.00    -0.250 C  
BRANCH  15  16
HETATM   16  C   UNL     1      -9.886  10.344  65.805  1.00  0.00    -0.300 C  
HETATM   17  C   UNL     1      -8.867   9.474  65.739  1.00  0.00    -0.193 C  
BRANCH  17  18
HETATM   18  C   UNL     1      -7.984   9.498  64.579  1.00  0.00    -0.133 A  
HETATM   19  C   UNL     1      -6.710   8.929  64.700  1.00  0.00    -0.073 A  
HETATM   20  C   UNL     1      -5.798   9.026  63.651  1.00  0.00    -0.076 A  
HETATM   21  C   UNL     1      -6.161   9.687  62.479  1.00  0.00    -0.098 A  
HETATM   22  C   UNL     1      -7.435  10.242  62.351  1.00  0.00    -0.154 A  
HETATM   23  C   UNL     1      -8.350  10.148  63.400  1.00  0.00    -0.168 A  
ENDBRANCH  17  18
ENDBRANCH  15  16
ENDBRANCH  13  15
ENDBRANCH   8   9
BRANCH   8  24
HETATM   24  C   UNL     1     -11.862  15.452  69.905  1.00  0.00    -0.373 A  
HETATM   25  C   UNL     1     -13.912  15.367  71.233  1.00  0.00    -0.491 A  
HETATM   26  F   UNL     1     -13.817  15.815  73.547  1.00  0.00    -0.470 F  
HETATM   27  C   UNL     1     -13.250  15.232  70.008  1.00  0.00     0.206 A  
HETATM   28  C   UNL     1     -11.836  15.997  72.285  1.00  0.00    -0.628 A  
HETATM   29  C   UNL     1     -11.172  15.880  71.057  1.00  0.00    -0.371 A  
HETATM   30  C   UNL     1     -13.195  15.731  72.363  1.00  0.00    -0.462 A  
ENDBRANCH   8  24
ENDBRANCH   5   8
TORSDOF 6
ENDMDL
MODEL       38
REMARK 921   NORMALIZED FREE ENERGY PREDICTED BY IDOCK:   -6.19 KCAL/MOL
REMARK 922        TOTAL FREE ENERGY PREDICTED BY IDOCK:   -8.55 KCAL/MOL
REMARK 923 INTER-LIGAND FREE ENERGY PREDICTED BY IDOCK:   -7.75 KCAL/MOL
REMARK 924 INTRA-LIGAND FREE ENERGY PREDICTED BY IDOCK:   -0.81 KCAL/MOL
REMARK 927      BINDING AFFINITY PREDICTED BY RF-SCORE:    0.00 PKD
ROOT
HETATM    1  F   UNL     1     -11.581  16.633  71.670  1.00  0.00    -0.473 F  
HETATM    2  C   UNL     1     -11.414  15.635  70.793  1.00  0.00    -0.379 A  
HETATM    3  C   UNL     1     -12.397  14.661  70.668  1.00  0.00    -0.398 A  
HETATM    4  C   UNL     1     -12.207  13.600  69.780  1.00  0.00    -0.350 A  
HETATM    5  C   UNL     1     -11.031  13.507  69.007  1.00  0.00    -0.264 A  
HETATM    6  C   UNL     1     -10.073  14.531  69.123  1.00  0.00    -0.145 A  
HETATM    7  C   UNL     1     -10.259  15.584  70.020  1.00  0.00    -0.286 A  
ENDROOT
BRANCH   5   8
HETATM    8  C   UNL     1     -10.831  12.320  68.052  1.00  0.00    -0.220 C  
BRANCH   8   9
HETATM    9  N   UNL     1     -11.484  11.071  68.555  1.00  0.00    -0.287 NA 
HETATM   10  C   UNL     1     -10.996  10.686  69.907  1.00  0.00    -0.274 C  
HETATM   11  C   UNL     1     -11.249   9.903  67.670  1.00  0.00     0.043 C  
HETATM   12  C   UNL     1      -9.565  10.088  69.952  1.00  0.00    -0.192 C  
HETATM   13  N   UNL     1      -9.301   8.984  69.000  1.00  0.00    -0.140 NA 
HETATM   14  C   UNL     1      -9.795   9.377  67.665  1.00  0.00    -0.174 C  
BRANCH  13  15
HETATM   15  C   UNL     1      -9.905   7.701  69.397  1.00  0.00    -0.171 C  
BRANCH  15  16
HETATM   16  C   UNL     1      -9.514   6.591  68.476  1.00  0.00    -0.121 C  
HETATM   17  C   UNL     1     -10.389   5.710  67.969  1.00  0.00    -0.258 C  
BRANCH  17  18
HETATM   18  C   UNL     1      -9.890   4.541  67.255  1.00  0.00    -0.216 A  
HETATM   19  C   UNL     1     -10.008   4.513  65.860  1.00  0.00    -0.260 A  
HETATM   20  C   UNL     1      -9.643   3.371  65.150  1.00  0.00    -0.131 A  
HETATM   21  C   UNL     1      -9.155   2.259  65.833  1.00  0.00    -0.072 A  
HETATM   22  C   UNL     1      -9.024   2.289  67.223  1.00  0.00    -0.173 A  
HETATM   23  C   UNL     1      -9.391   3.431  67.936  1.00  0.00    -0.242 A  
ENDBRANCH  17  18
ENDBRANCH  15  16
ENDBRANCH  13  15
ENDBRANCH   8   9
BRANCH   8  24
HETATM   24  C   UNL     1     -11.231  12.699  66.609  1.00  0.00    -0.346 A  
HETATM   25  C   UNL     1     -10.763  12.586  64.213  1.00  0.00    -0.399 A  
HETATM   26  F   UNL     1     -12.377  13.358  62.675  1.00  0.00    -0.364 F  
HETATM   27  C   UNL     1     -10.382  12.353  65.539  1.00  0.00    -0.298 A  
HETATM   28  C   UNL     1     -12.828  13.568  64.979  1.00  0.00    -0.330 A  
HETATM   29  C   UNL     1     -12.444  13.352  66.308  1.00  0.00    -0.338 A  
HETATM   30  C   UNL     1     -11.990  13.176  63.945  1.00  0.00    -0.488 A  
ENDBRANCH   8  24
ENDBRANCH   5   8
TORSDOF 6
ENDMDL
MODEL       39
REMARK 921   NORMALIZED FREE ENERGY PREDICTED BY IDOCK:   -6.18 KCAL/MOL
REMARK 922        TOTAL FREE ENERGY PREDICTED BY IDOCK:   -8.54 KCAL/MOL
REMARK 923 INTER-LIGAND FREE ENERGY PREDICTED BY IDOCK:   -7.69 KCAL/MOL
REMARK 924 INTRA-LIGAND FREE ENERGY PREDICTED BY IDOCK:   -0.86 KCAL/MOL
REMARK 927      BINDING AFFINITY PREDICTED BY RF-SCORE:    0.00 PKD
ROOT
HETATM    1  F   UNL     1     -12.725  13.116  62.707  1.00  0.00    -0.261 F  
HETATM    2  C   UNL     1     -12.016  12.883  63.819  1.00  0.00    -0.512 A  
HETATM    3  C   UNL     1     -12.648  12.931  65.056  1.00  0.00    -0.538 A  
HETATM    4  C   UNL     1     -11.902  12.724  66.218  1.00  0.00    -0.485 A  
HETATM    5  C   UNL     1     -10.518  12.465  66.153  1.00  0.00    -0.274 A  
HETATM    6  C   UNL     1      -9.915  12.378  64.884  1.00  0.00    -0.207 A  
HETATM    7  C   UNL     1     -10.659  12.597  63.724  1.00  0.00    -0.432 A  
ENDROOT
BRANCH   5   8
HETATM    8  C   UNL     1      -9.712  12.261  67.445  1.00  0.00    -0.185 C  
BRANCH   8   9
HETATM    9  N   UNL     1      -8.801  11.077  67.364  1.00  0.00    -0.137 NA 
HETATM   10  C   UNL     1      -9.468   9.894  66.754  1.00  0.00    -0.169 C  
HETATM   11  C   UNL     1      -8.301  10.645  68.693  1.00  0.00    -0.137 C  
HETATM   12  C   UNL     1     -10.503   9.175  67.659  1.00  0.00    -0.261 C  
HETATM   13  N   UNL     1     -10.034   8.829  69.021  1.00  0.00    -0.186 NA 
HETATM   14  C   UNL     1      -9.370  10.008  69.611  1.00  0.00    -0.220 C  
BRANCH  13  15
HETATM   15  C   UNL     1      -9.122   7.672  69.058  1.00  0.00    -0.144 C  
BRANCH  15  16
HETATM   16  C   UNL     1      -9.419   6.766  70.208  1.00  0.00    -0.164 C  
HETATM   17  C   UNL     1      -9.603   5.443  70.078  1.00  0.00    -0.227 C  
BRANCH  17  18
HETATM   18  C   UNL     1     -10.095   4.676  71.216  1.00  0.00    -0.245 A  
HETATM   19  C   UNL     1     -10.843   5.343  72.194  1.00  0.00    -0.275 A  
HETATM   20  C   UNL     1     -11.241   4.672  73.348  1.00  0.00    -0.423 A  
HETATM   21  C   UNL     1     -10.894   3.333  73.523  1.00  0.00    -0.320 A  
HETATM   22  C   UNL     1     -10.160   2.663  72.543  1.00  0.00    -0.232 A  
HETATM   23  C   UNL     1      -9.760   3.333  71.387  1.00  0.00    -0.226 A  
ENDBRANCH  17  18
ENDBRANCH  15  16
ENDBRANCH  13  15
ENDBRANCH   8   9
BRANCH   8  24
HETATM   24  C   UNL     1      -9.006  13.568  67.867  1.00  0.00    -0.200 A  
HETATM   25  C   UNL     1      -9.021  15.614  69.204  1.00  0.00    -0.257 A  
HETATM   26  F   UNL     1      -7.068  16.930  69.339  1.00  0.00    -0.232 F  
HETATM   27  C   UNL     1      -9.670  14.474  68.718  1.00  0.00    -0.210 A  
HETATM   28  C   UNL     1      -7.040  15.014  67.967  1.00  0.00    -0.142 A  
HETATM   29  C   UNL     1      -7.691  13.881  67.463  1.00  0.00    -0.192 A  
HETATM   30  C   UNL     1      -7.706  15.864  68.837  1.00  0.00    -0.194 A  
ENDBRANCH   8  24
ENDBRANCH   5   8
TORSDOF 6
ENDMDL
MODEL       40
REMARK 921   NORMALIZED FREE ENERGY PREDICTED BY IDOCK:   -6.18 KCAL/MOL
REMARK 922        TOTAL FREE ENERGY PREDICTED BY IDOCK:   -8.54 KCAL/MOL
REMARK 923 INTER-LIGAND FREE ENERGY PREDICTED BY IDOCK:   -7.99 KCAL/MOL
REMARK 924 INTRA-LIGAND FREE ENERGY PREDICTED BY IDOCK:   -0.55 KCAL/MOL
REMARK 927      BINDING AFFINITY PREDICTED BY RF-SCORE:    0.00 PKD
ROOT
HETATM    1  F   UNL     1     -14.099  16.102  72.974  1.00  0.00    -0.686 F  
HETATM    2  C   UNL     1     -13.276  15.631  72.029  1.00  0.00    -0.457 A  
HETATM    3  C   UNL     1     -13.740  14.678  71.130  1.00  0.00    -0.374 A  
HETATM    4  C   UNL     1     -12.871  14.158  70.169  1.00  0.00    -0.107 A  
HETATM    5  C   UNL     1     -11.531  14.590  70.097  1.00  0.00    -0.297 A  
HETATM    6  C   UNL     1     -11.102  15.588  70.991  1.00  0.00    -0.387 A  
HETATM    7  C   UNL     1     -11.968  16.098  71.960  1.00  0.00    -0.607 A  
ENDROOT
BRANCH   5   8
HETATM    8  C   UNL     1     -10.585  13.990  69.044  1.00  0.00    -0.187 C  
BRANCH   8   9
HETATM    9  N   UNL     1     -11.193  12.821  68.336  1.00  0.00    -0.258 NA 
HETATM   10  C   UNL     1     -11.696  11.789  69.283  1.00  0.00    -0.335 C  
HETATM   11  C   UNL     1     -10.237  12.137  67.431  1.00  0.00    -0.198 C  
HETATM   12  C   UNL     1     -10.603  10.938  69.981  1.00  0.00     0.116 C  
HETATM   13  N   UNL     1      -9.590  10.332  69.084  1.00  0.00    -0.207 NA 
HETATM   14  C   UNL     1      -9.105  11.366  68.148  1.00  0.00    -0.174 C  
BRANCH  13  15
HETATM   15  C   UNL     1     -10.087   9.169  68.330  1.00  0.00    -0.191 C  
BRANCH  15  16
HETATM   16  C   UNL     1      -9.946   7.900  69.107  1.00  0.00    -0.184 C  
HETATM   17  C   UNL     1     -10.956   7.335  69.786  1.00  0.00    -0.235 C  
BRANCH  17  18
HETATM   18  C   UNL     1     -10.676   6.221  70.684  1.00  0.00    -0.321 A  
HETATM   19  C   UNL     1     -11.072   6.330  72.022  1.00  0.00    -0.313 A  
HETATM   20  C   UNL     1     -10.728   5.336  72.936  1.00  0.00    -0.301 A  
HETATM   21  C   UNL     1      -9.993   4.231  72.511  1.00  0.00    -0.218 A  
HETATM   22  C   UNL     1      -9.609   4.114  71.174  1.00  0.00    -0.249 A  
HETATM   23  C   UNL     1      -9.950   5.109  70.258  1.00  0.00    -0.320 A  
ENDBRANCH  17  18
ENDBRANCH  15  16
ENDBRANCH  13  15
ENDBRANCH   8   9
BRANCH   8  24
HETATM   24  C   UNL     1     -10.045  15.086  68.099  1.00  0.00    -0.220 A  
HETATM   25  C   UNL     1     -10.498  16.826  66.444  1.00  0.00    -0.269 A  
HETATM   26  F   UNL     1      -8.762  18.279  65.780  1.00  0.00    -0.125 F  
HETATM   27  C   UNL     1     -10.933  15.758  67.235  1.00  0.00    -0.259 A  
HETATM   28  C   UNL     1      -8.263  16.557  67.309  1.00  0.00    -0.196 A  
HETATM   29  C   UNL     1      -8.690  15.475  68.090  1.00  0.00    -0.164 A  
HETATM   30  C   UNL     1      -9.170  17.226  66.501  1.00  0.00    -0.261 A  
ENDBRANCH   8  24
ENDBRANCH   5   8
TORSDOF 6
ENDMDL
MODEL       41
REMARK 921   NORMALIZED FREE ENERGY PREDICTED BY IDOCK:   -6.17 KCAL/MOL
REMARK 922        TOTAL FREE ENERGY PREDICTED BY IDOCK:   -8.53 KCAL/MOL
REMARK 923 INTER-LIGAND FREE ENERGY PREDICTED BY IDOCK:   -8.04 KCAL/MOL
REMARK 924 INTRA-LIGAND FREE ENERGY PREDICTED BY IDOCK:   -0.49 KCAL/MOL
REMARK 927      BINDING AFFINITY PREDICTED BY RF-SCORE:    0.00 PKD
ROOT
HETATM    1  F   UNL     1      -8.008   7.537  65.315  1.00  0.00    -0.097 F  
HETATM    2  C   UNL     1      -8.550   8.430  66.153  1.00  0.00    -0.141 A  
HETATM    3  C   UNL     1      -9.932   8.495  66.283  1.00  0.00    -0.251 A  
HETATM    4  C   UNL     1     -10.500   9.451  67.128  1.00  0.00    -0.315 A  
HETATM    5  C   UNL     1      -9.688  10.348  67.853  1.00  0.00    -0.168 A  
HETATM    6  C   UNL     1      -8.291  10.228  67.735  1.00  0.00    -0.110 A  
HETATM    7  C   UNL     1      -7.726   9.281  66.880  1.00  0.00    -0.094 A  
ENDROOT
BRANCH   5   8
HETATM    8  C   UNL     1     -10.333  11.406  68.762  1.00  0.00    -0.204 C  
BRANCH   8   9
HETATM    9  N   UNL     1     -11.049  12.463  67.981  1.00  0.00    -0.230 NA 
HETATM   10  C   UNL     1     -10.315  12.843  66.744  1.00  0.00    -0.245 C  
HETATM   11  C   UNL     1     -11.250  13.712  68.757  1.00  0.00    -0.279 C  
HETATM   12  C   UNL     1      -9.046  13.708  66.962  1.00  0.00    -0.248 C  
HETATM   13  N   UNL     1      -9.225  14.905  67.817  1.00  0.00    -0.184 NA 
HETATM   14  C   UNL     1      -9.958  14.515  69.037  1.00  0.00    -0.159 C  
BRANCH  13  15
HETATM   15  C   UNL     1      -9.926  16.013  67.145  1.00  0.00    -0.249 C  
BRANCH  15  16
HETATM   16  C   UNL     1      -9.072  17.235  67.048  1.00  0.00    -0.247 C  
HETATM   17  C   UNL     1      -7.861  17.337  67.616  1.00  0.00    -0.192 C  
BRANCH  17  18
HETATM   18  C   UNL     1      -7.196  18.634  67.650  1.00  0.00    -0.225 A  
HETATM   19  C   UNL     1      -6.185  18.839  68.596  1.00  0.00    -0.235 A  
HETATM   20  C   UNL     1      -5.599  20.096  68.733  1.00  0.00    -0.278 A  
HETATM   21  C   UNL     1      -6.021  21.146  67.920  1.00  0.00    -0.406 A  
HETATM   22  C   UNL     1      -7.019  20.940  66.966  1.00  0.00    -0.393 A  
HETATM   23  C   UNL     1      -7.608  19.683  66.829  1.00  0.00    -0.274 A  
ENDBRANCH  17  18
ENDBRANCH  15  16
ENDBRANCH  13  15
ENDBRANCH   8   9
BRANCH   8  24
HETATM   24  C   UNL     1     -11.197  10.741  69.857  1.00  0.00    -0.371 A  
HETATM   25  C   UNL     1     -11.463   8.970  71.520  1.00  0.00    -0.407 A  
HETATM   26  F   UNL     1     -13.259   9.068  73.045  1.00  0.00    -0.464 F  
HETATM   27  C   UNL     1     -10.760   9.541  70.453  1.00  0.00    -0.341 A  
HETATM   28  C   UNL     1     -13.090  10.745  71.399  1.00  0.00    -0.469 A  
HETATM   29  C   UNL     1     -12.400  11.312  70.320  1.00  0.00    -0.389 A  
HETATM   30  C   UNL     1     -12.611   9.587  71.994  1.00  0.00    -0.376 A  
ENDBRANCH   8  24
ENDBRANCH   5   8
TORSDOF 6
ENDMDL
MODEL       42
REMARK 921   NORMALIZED FREE ENERGY PREDICTED BY IDOCK:   -6.17 KCAL/MOL
REMARK 922        TOTAL FREE ENERGY PREDICTED BY IDOCK:   -8.53 KCAL/MOL
REMARK 923 INTER-LIGAND FREE ENERGY PREDICTED BY IDOCK:   -8.24 KCAL/MOL
REMARK 924 INTRA-LIGAND FREE ENERGY PREDICTED BY IDOCK:   -0.30 KCAL/MOL
REMARK 927      BINDING AFFINITY PREDICTED BY RF-SCORE:    0.00 PKD
ROOT
HETATM    1  F   UNL     1     -11.650  16.122  64.008  1.00  0.00    -0.477 F  
HETATM    2  C   UNL     1     -11.568  15.069  64.832  1.00  0.00    -0.374 A  
HETATM    3  C   UNL     1     -10.815  15.168  65.995  1.00  0.00    -0.335 A  
HETATM    4  C   UNL     1     -10.698  14.060  66.836  1.00  0.00    -0.285 A  
HETATM    5  C   UNL     1     -11.338  12.843  66.522  1.00  0.00    -0.361 A  
HETATM    6  C   UNL     1     -12.131  12.787  65.360  1.00  0.00    -0.512 A  
HETATM    7  C   UNL     1     -12.236  13.892  64.514  1.00  0.00    -0.451 A  
ENDROOT
BRANCH   5   8
HETATM    8  C   UNL     1     -11.181  11.629  67.450  1.00  0.00    -0.298 C  
BRANCH   8   9
HETATM    9  N   UNL     1      -9.763  11.156  67.529  1.00  0.00    -0.175 NA 
HETATM   10  C   UNL     1      -9.147  10.996  66.183  1.00  0.00    -0.192 C  
HETATM   11  C   UNL     1      -9.632   9.846  68.214  1.00  0.00    -0.140 C  
HETATM   12  C   UNL     1      -9.629   9.765  65.373  1.00  0.00    -0.292 C  
HETATM   13  N   UNL     1      -9.589   8.468  66.090  1.00  0.00    -0.228 NA 
HETATM   14  C   UNL     1     -10.197   8.643  67.424  1.00  0.00    -0.262 C  
BRANCH  13  15
HETATM   15  C   UNL     1      -8.233   7.910  66.229  1.00  0.00    -0.117 C  
BRANCH  15  16
HETATM   16  C   UNL     1      -8.261   6.477  66.650  1.00  0.00    -0.112 C  
HETATM   17  C   UNL     1      -8.342   5.455  65.785  1.00  0.00    -0.126 C  
BRANCH  17  18
HETATM   18  C   UNL     1      -8.578   4.109  66.293  1.00  0.00    -0.113 A  
HETATM   19  C   UNL     1      -8.472   3.034  65.401  1.00  0.00    -0.100 A  
HETATM   20  C   UNL     1      -8.794   1.744  65.820  1.00  0.00    -0.124 A  
HETATM   21  C   UNL     1      -9.217   1.528  67.131  1.00  0.00    -0.072 A  
HETATM   22  C   UNL     1      -9.309   2.597  68.024  1.00  0.00    -0.255 A  
HETATM   23  C   UNL     1      -8.989   3.889  67.607  1.00  0.00    -0.156 A  
ENDBRANCH  17  18
ENDBRANCH  15  16
ENDBRANCH  13  15
ENDBRANCH   8   9
BRANCH   8  24
HETATM   24  C   UNL     1     -11.830  11.897  68.825  1.00  0.00    -0.371 A  
HETATM   25  C   UNL     1     -12.773  11.012  70.899  1.00  0.00    -0.452 A  
HETATM   26  F   UNL     1     -13.263  12.485  72.675  1.00  0.00    -0.528 F  
HETATM   27  C   UNL     1     -12.278  10.812  69.606  1.00  0.00    -0.325 A  
HETATM   28  C   UNL     1     -12.441  13.388  70.660  1.00  0.00    -0.385 A  
HETATM   29  C   UNL     1     -11.961  13.195  69.358  1.00  0.00    -0.347 A  
HETATM   30  C   UNL     1     -12.834  12.296  71.420  1.00  0.00    -0.271 A  
ENDBRANCH   8  24
ENDBRANCH   5   8
TORSDOF 6
ENDMDL
MODEL       43
REMARK 921   NORMALIZED FREE ENERGY PREDICTED BY IDOCK:   -6.02 KCAL/MOL
REMARK 922        TOTAL FREE ENERGY PREDICTED BY IDOCK:   -8.33 KCAL/MOL
REMARK 923 INTER-LIGAND FREE ENERGY PREDICTED BY IDOCK:   -7.73 KCAL/MOL
REMARK 924 INTRA-LIGAND FREE ENERGY PREDICTED BY IDOCK:   -0.60 KCAL/MOL
REMARK 927      BINDING AFFINITY PREDICTED BY RF-SCORE:    0.00 PKD
ROOT
HETATM    1  F   UNL     1      -5.130   8.497  72.190  1.00  0.00    -0.033 F  
HETATM    2  C   UNL     1      -6.277   7.920  71.809  1.00  0.00    -0.040 A  
HETATM    3  C   UNL     1      -6.638   7.937  70.468  1.00  0.00    -0.037 A  
HETATM    4  C   UNL     1      -7.852   7.370  70.074  1.00  0.00    -0.104 A  
HETATM    5  C   UNL     1      -8.713   6.778  71.021  1.00  0.00    -0.137 A  
HETATM    6  C   UNL     1      -8.300   6.737  72.365  1.00  0.00    -0.109 A  
HETATM    7  C   UNL     1      -7.092   7.315  72.759  1.00  0.00    -0.068 A  
ENDROOT
BRANCH   5   8
HETATM    8  C   UNL     1     -10.055   6.177  70.570  1.00  0.00    -0.189 C  
BRANCH   8   9
HETATM    9  N   UNL     1     -10.947   7.197  69.936  1.00  0.00    -0.257 NA 
HETATM   10  C   UNL     1     -10.638   8.579  70.394  1.00  0.00    -0.223 C  
HETATM   11  C   UNL     1     -12.383   6.964  70.229  1.00  0.00     0.077 C  
HETATM   12  C   UNL     1     -11.092   8.918  71.838  1.00  0.00    -0.372 C  
HETATM   13  N   UNL     1     -12.503   8.596  72.160  1.00  0.00    -0.366 NA 
HETATM   14  C   UNL     1     -12.796   7.226  71.696  1.00  0.00    -0.375 C  
BRANCH  13  15
HETATM   15  C   UNL     1     -13.473   9.539  71.578  1.00  0.00    -0.368 C  
BRANCH  15  16
HETATM   16  C   UNL     1     -12.934  10.932  71.526  1.00  0.00    -0.556 C  
HETATM   17  C   UNL     1     -13.546  11.982  72.093  1.00  0.00    -0.236 C  
BRANCH  17  18
HETATM   18  C   UNL     1     -13.061  13.328  71.811  1.00  0.00    -0.472 A  
HETATM   19  C   UNL     1     -13.431  14.364  72.677  1.00  0.00    -0.605 A  
HETATM   20  C   UNL     1     -13.078  15.680  72.384  1.00  0.00    -0.544 A  
HETATM   21  C   UNL     1     -12.352  15.959  71.228  1.00  0.00    -0.460 A  
HETATM   22  C   UNL     1     -11.971  14.926  70.370  1.00  0.00    -0.368 A  
HETATM   23  C   UNL     1     -12.324  13.608  70.660  1.00  0.00    -0.440 A  
ENDBRANCH  17  18
ENDBRANCH  15  16
ENDBRANCH  13  15
ENDBRANCH   8   9
BRANCH   8  24
HETATM   24  C   UNL     1      -9.833   4.914  69.709  1.00  0.00    -0.292 A  
HETATM   25  C   UNL     1      -9.626   3.907  67.492  1.00  0.00    -0.212 A  
HETATM   26  F   UNL     1      -8.908   1.668  67.295  1.00  0.00    -0.095 F  
HETATM   27  C   UNL     1      -9.925   5.005  68.306  1.00  0.00    -0.193 A  
HETATM   28  C   UNL     1      -9.182   2.575  69.453  1.00  0.00    -0.194 A  
HETATM   29  C   UNL     1      -9.498   3.666  70.272  1.00  0.00    -0.257 A  
HETATM   30  C   UNL     1      -9.241   2.707  68.073  1.00  0.00    -0.205 A  
ENDBRANCH   8  24
ENDBRANCH   5   8
TORSDOF 6
ENDMDL
MODEL       44
REMARK 921   NORMALIZED FREE ENERGY PREDICTED BY IDOCK:   -5.99 KCAL/MOL
REMARK 922        TOTAL FREE ENERGY PREDICTED BY IDOCK:   -8.29 KCAL/MOL
REMARK 923 INTER-LIGAND FREE ENERGY PREDICTED BY IDOCK:   -7.20 KCAL/MOL
REMARK 924 INTRA-LIGAND FREE ENERGY PREDICTED BY IDOCK:   -1.09 KCAL/MOL
REMARK 927      BINDING AFFINITY PREDICTED BY RF-SCORE:    0.00 PKD
ROOT
HETATM    1  F   UNL     1      -6.012  10.469  63.834  1.00  0.00    -0.136 F  
HETATM    2  C   UNL     1      -6.716   9.759  64.725  1.00  0.00    -0.114 A  
HETATM    3  C   UNL     1      -6.154   9.464  65.961  1.00  0.00    -0.063 A  
HETATM    4  C   UNL     1      -6.872   8.692  66.877  1.00  0.00    -0.070 A  
HETATM    5  C   UNL     1      -8.161   8.213  66.564  1.00  0.00    -0.106 A  
HETATM    6  C   UNL     1      -8.721   8.565  65.323  1.00  0.00    -0.175 A  
HETATM    7  C   UNL     1      -7.997   9.326  64.403  1.00  0.00    -0.133 A  
ENDROOT
BRANCH   5   8
HETATM    8  C   UNL     1      -8.926   7.348  67.578  1.00  0.00    -0.126 C  
BRANCH   8   9
HETATM    9  N   UNL     1     -10.301   7.873  67.848  1.00  0.00    -0.218 NA 
HETATM   10  C   UNL     1     -10.280   9.277  68.341  1.00  0.00    -0.202 C  
HETATM   11  C   UNL     1     -11.031   7.076  68.865  1.00  0.00    -0.118 C  
HETATM   12  C   UNL     1      -9.803   9.461  69.805  1.00  0.00    -0.201 C  
HETATM   13  N   UNL     1     -10.466   8.595  70.810  1.00  0.00    -0.197 NA 
HETATM   14  C   UNL     1     -10.484   7.208  70.305  1.00  0.00    -0.217 C  
BRANCH  13  15
HETATM   15  C   UNL     1     -11.834   9.021  71.148  1.00  0.00    -0.301 C  
BRANCH  15  16
HETATM   16  C   UNL     1     -11.970  10.509  71.149  1.00  0.00    -0.435 C  
HETATM   17  C   UNL     1     -12.970  11.159  71.764  1.00  0.00    -0.526 C  
BRANCH  17  18
HETATM   18  C   UNL     1     -13.140  12.589  71.533  1.00  0.00    -0.373 A  
HETATM   19  C   UNL     1     -12.358  13.200  70.546  1.00  0.00    -0.380 A  
HETATM   20  C   UNL     1     -12.411  14.581  70.367  1.00  0.00    -0.407 A  
HETATM   21  C   UNL     1     -13.250  15.350  71.173  1.00  0.00    -0.583 A  
HETATM   22  C   UNL     1     -14.040  14.740  72.148  1.00  0.00    -0.604 A  
HETATM   23  C   UNL     1     -13.987  13.358  72.330  1.00  0.00    -0.605 A  
ENDBRANCH  17  18
ENDBRANCH  15  16
ENDBRANCH  13  15
ENDBRANCH   8   9
BRANCH   8  24
HETATM   24  C   UNL     1      -8.893   5.858  67.169  1.00  0.00    -0.107 A  
HETATM   25  C   UNL     1      -8.121   3.584  67.623  1.00  0.00    -0.081 A  
HETATM   26  F   UNL     1      -9.004   1.787  66.377  1.00  0.00    -0.116 F  
HETATM   27  C   UNL     1      -8.093   4.955  67.898  1.00  0.00    -0.093 A  
HETATM   28  C   UNL     1      -9.706   3.973  65.848  1.00  0.00    -0.193 A  
HETATM   29  C   UNL     1      -9.669   5.349  66.109  1.00  0.00    -0.165 A  
HETATM   30  C   UNL     1      -8.940   3.104  66.611  1.00  0.00    -0.156 A  
ENDBRANCH   8  24
ENDBRANCH   5   8
TORSDOF 6
ENDMDL
MODEL       45
REMARK 921   NORMALIZED FREE ENERGY PREDICTED BY IDOCK:   -5.97 KCAL/MOL
REMARK 922        TOTAL FREE ENERGY PREDICTED BY IDOCK:   -8.26 KCAL/MOL
REMARK 923 INTER-LIGAND FREE ENERGY PREDICTED BY IDOCK:   -7.51 KCAL/MOL
REMARK 924 INTRA-LIGAND FREE ENERGY PREDICTED BY IDOCK:   -0.75 KCAL/MOL
REMARK 927      BINDING AFFINITY PREDICTED BY RF-SCORE:    0.00 PKD
ROOT
HETATM    1  F   UNL     1      -5.263   9.611  66.847  1.00  0.00    -0.039 F  
HETATM    2  C   UNL     1      -6.283   9.035  67.497  1.00  0.00    -0.055 A  
HETATM    3  C   UNL     1      -6.245   8.939  68.882  1.00  0.00    -0.044 A  
HETATM    4  C   UNL     1      -7.291   8.305  69.557  1.00  0.00    -0.074 A  
HETATM    5  C   UNL     1      -8.385   7.766  68.850  1.00  0.00    -0.128 A  
HETATM    6  C   UNL     1      -8.418   7.919  67.452  1.00  0.00    -0.122 A  
HETATM    7  C   UNL     1      -7.366   8.541  66.778  1.00  0.00    -0.082 A  
ENDROOT
BRANCH   5   8
HETATM    8  C   UNL     1      -9.516   7.054  69.610  1.00  0.00    -0.147 C  
BRANCH   8   9
HETATM    9  N   UNL     1     -10.849   7.690  69.370  1.00  0.00    -0.178 NA 
HETATM   10  C   UNL     1     -10.829   9.154  69.636  1.00  0.00    -0.197 C  
HETATM   11  C   UNL     1     -11.920   7.118  70.223  1.00  0.00    -0.077 C  
HETATM   12  C   UNL     1     -10.782   9.558  71.133  1.00  0.00    -0.338 C  
HETATM   13  N   UNL     1     -11.793   8.912  72.004  1.00  0.00    -0.364 NA 
HETATM   14  C   UNL     1     -11.804   7.462  71.726  1.00  0.00    -0.294 C  
BRANCH  13  15
HETATM   15  C   UNL     1     -13.150   9.462  71.845  1.00  0.00    -0.424 C  
BRANCH  15  16
HETATM   16  C   UNL     1     -13.182  10.939  72.068  1.00  0.00    -0.456 C  
HETATM   17  C   UNL     1     -12.969  11.838  71.095  1.00  0.00    -0.282 C  
BRANCH  17  18
HETATM   18  C   UNL     1     -12.808  13.244  71.445  1.00  0.00    -0.411 A  
HETATM   19  C   UNL     1     -11.789  13.973  70.821  1.00  0.00    -0.289 A  
HETATM   20  C   UNL     1     -11.533  15.287  71.205  1.00  0.00    -0.431 A  
HETATM   21  C   UNL     1     -12.300  15.875  72.210  1.00  0.00    -0.567 A  
HETATM   22  C   UNL     1     -13.326  15.155  72.823  1.00  0.00    -0.596 A  
HETATM   23  C   UNL     1     -13.583  13.838  72.441  1.00  0.00    -0.690 A  
ENDBRANCH  17  18
ENDBRANCH  15  16
ENDBRANCH  13  15
ENDBRANCH   8   9
BRANCH   8  24
HETATM   24  C   UNL     1      -9.489   5.533  69.341  1.00  0.00    -0.176 A  
HETATM   25  C   UNL     1      -9.601   3.692  67.738  1.00  0.00    -0.189 A  
HETATM   26  F   UNL     1      -9.090   1.501  68.446  1.00  0.00    -0.111 F  
HETATM   27  C   UNL     1      -9.723   5.053  68.037  1.00  0.00    -0.197 A  
HETATM   28  C   UNL     1      -9.058   3.234  70.042  1.00  0.00    -0.197 A  
HETATM   29  C   UNL     1      -9.196   4.593  70.351  1.00  0.00    -0.187 A  
HETATM   30  C   UNL     1      -9.253   2.797  68.740  1.00  0.00    -0.169 A  
ENDBRANCH   8  24
ENDBRANCH   5   8
TORSDOF 6
ENDMDL
MODEL       46
REMARK 921   NORMALIZED FREE ENERGY PREDICTED BY IDOCK:   -5.94 KCAL/MOL
REMARK 922        TOTAL FREE ENERGY PREDICTED BY IDOCK:   -8.22 KCAL/MOL
REMARK 923 INTER-LIGAND FREE ENERGY PREDICTED BY IDOCK:   -7.43 KCAL/MOL
REMARK 924 INTRA-LIGAND FREE ENERGY PREDICTED BY IDOCK:   -0.80 KCAL/MOL
REMARK 927      BINDING AFFINITY PREDICTED BY RF-SCORE:    0.00 PKD
ROOT
HETATM    1  F   UNL     1      -9.546   3.858  64.415  1.00  0.00    -0.134 F  
HETATM    2  C   UNL     1      -9.539   4.659  65.488  1.00  0.00    -0.179 A  
HETATM    3  C   UNL     1      -8.326   5.067  66.030  1.00  0.00    -0.114 A  
HETATM    4  C   UNL     1      -8.318   5.871  67.171  1.00  0.00    -0.105 A  
HETATM    5  C   UNL     1      -9.525   6.278  67.778  1.00  0.00    -0.118 A  
HETATM    6  C   UNL     1     -10.737   5.886  67.181  1.00  0.00    -0.387 A  
HETATM    7  C   UNL     1     -10.743   5.071  66.047  1.00  0.00    -0.241 A  
ENDROOT
BRANCH   5   8
HETATM    8  C   UNL     1      -9.494   7.146  69.045  1.00  0.00    -0.143 C  
BRANCH   8   9
HETATM    9  N   UNL     1     -10.053   8.514  68.809  1.00  0.00    -0.192 NA 
HETATM   10  C   UNL     1      -9.596   9.093  67.517  1.00  0.00    -0.150 C  
HETATM   11  C   UNL     1      -9.670   9.481  69.868  1.00  0.00    -0.224 C  
HETATM   12  C   UNL     1      -8.120   9.570  67.487  1.00  0.00    -0.110 C  
HETATM   13  N   UNL     1      -7.711  10.461  68.598  1.00  0.00    -0.095 NA 
HETATM   14  C   UNL     1      -8.175   9.877  69.872  1.00  0.00    -0.184 C  
BRANCH  13  15
HETATM   15  C   UNL     1      -8.213  11.839  68.469  1.00  0.00    -0.134 C  
BRANCH  15  16
HETATM   16  C   UNL     1      -8.938  12.049  67.179  1.00  0.00    -0.185 C  
HETATM   17  C   UNL     1      -9.974  12.891  67.043  1.00  0.00    -0.244 C  
BRANCH  17  18
HETATM   18  C   UNL     1     -10.751  12.871  65.809  1.00  0.00    -0.293 A  
HETATM   19  C   UNL     1     -10.580  11.793  64.933  1.00  0.00    -0.344 A  
HETATM   20  C   UNL     1     -11.222  11.790  63.696  1.00  0.00    -0.519 A  
HETATM   21  C   UNL     1     -12.037  12.862  63.337  1.00  0.00    -0.610 A  
HETATM   22  C   UNL     1     -12.219  13.931  64.216  1.00  0.00    -0.447 A  
HETATM   23  C   UNL     1     -11.577  13.938  65.454  1.00  0.00    -0.331 A  
ENDBRANCH  17  18
ENDBRANCH  15  16
ENDBRANCH  13  15
ENDBRANCH   8   9
BRANCH   8  24
HETATM   24  C   UNL     1     -10.135   6.403  70.239  1.00  0.00    -0.216 A  
HETATM   25  C   UNL     1      -9.921   4.763  72.038  1.00  0.00    -0.247 A  
HETATM   26  F   UNL     1     -11.620   4.594  73.665  1.00  0.00    -0.367 F  
HETATM   27  C   UNL     1      -9.414   5.382  70.890  1.00  0.00    -0.214 A  
HETATM   28  C   UNL     1     -11.906   6.124  71.896  1.00  0.00    -0.316 A  
HETATM   29  C   UNL     1     -11.411   6.735  70.737  1.00  0.00    -0.392 A  
HETATM   30  C   UNL     1     -11.154   5.152  72.540  1.00  0.00    -0.194 A  
ENDBRANCH   8  24
ENDBRANCH   5   8
TORSDOF 6
ENDMDL
MODEL       47
REMARK 921   NORMALIZED FREE ENERGY PREDICTED BY IDOCK:   -5.92 KCAL/MOL
REMARK 922        TOTAL FREE ENERGY PREDICTED BY IDOCK:   -8.19 KCAL/MOL
REMARK 923 INTER-LIGAND FREE ENERGY PREDICTED BY IDOCK:   -7.62 KCAL/MOL
REMARK 924 INTRA-LIGAND FREE ENERGY PREDICTED BY IDOCK:   -0.57 KCAL/MOL
REMARK 927      BINDING AFFINITY PREDICTED BY RF-SCORE:    0.00 PKD
ROOT
HETATM    1  F   UNL     1      -9.556   3.070  64.642  1.00  0.00    -0.144 F  
HETATM    2  C   UNL     1      -9.559   4.063  65.541  1.00  0.00    -0.189 A  
HETATM    3  C   UNL     1     -10.724   4.791  65.752  1.00  0.00    -0.220 A  
HETATM    4  C   UNL     1     -10.718   5.850  66.662  1.00  0.00    -0.323 A  
HETATM    5  C   UNL     1      -9.547   6.188  67.371  1.00  0.00    -0.122 A  
HETATM    6  C   UNL     1      -8.395   5.405  67.169  1.00  0.00    -0.107 A  
HETATM    7  C   UNL     1      -8.399   4.354  66.250  1.00  0.00    -0.112 A  
ENDROOT
BRANCH   5   8
HETATM    8  C   UNL     1      -9.556   7.371  68.352  1.00  0.00    -0.148 C  
BRANCH   8   9
HETATM    9  N   UNL     1     -10.569   8.408  67.980  1.00  0.00    -0.175 NA 
HETATM   10  C   UNL     1     -10.283   9.024  66.656  1.00  0.00    -0.263 C  
HETATM   11  C   UNL     1     -10.638   9.520  68.960  1.00  0.00    -0.219 C  
HETATM   12  C   UNL     1      -9.092  10.018  66.628  1.00  0.00    -0.147 C  
HETATM   13  N   UNL     1      -9.112  11.073  67.669  1.00  0.00    -0.144 NA 
HETATM   14  C   UNL     1      -9.401  10.448  68.974  1.00  0.00    -0.194 C  
BRANCH  13  15
HETATM   15  C   UNL     1     -10.082  12.149  67.403  1.00  0.00    -0.199 C  
BRANCH  15  16
HETATM   16  C   UNL     1     -10.931  12.440  68.598  1.00  0.00    -0.283 C  
HETATM   17  C   UNL     1     -11.757  13.494  68.677  1.00  0.00    -0.389 C  
BRANCH  17  18
HETATM   18  C   UNL     1     -12.381  13.816  69.955  1.00  0.00    -0.364 A  
HETATM   19  C   UNL     1     -12.661  12.768  70.841  1.00  0.00    -0.342 A  
HETATM   20  C   UNL     1     -13.354  13.019  72.024  1.00  0.00    -0.588 A  
HETATM   21  C   UNL     1     -13.762  14.317  72.323  1.00  0.00    -0.592 A  
HETATM   22  C   UNL     1     -13.473  15.365  71.448  1.00  0.00    -0.607 A  
HETATM   23  C   UNL     1     -12.781  15.116  70.262  1.00  0.00    -0.340 A  
ENDBRANCH  17  18
ENDBRANCH  15  16
ENDBRANCH  13  15
ENDBRANCH   8   9
BRANCH   8  24
HETATM   24  C   UNL     1      -9.670   6.877  69.811  1.00  0.00    -0.166 A  
HETATM   25  C   UNL     1     -10.874   5.565  71.485  1.00  0.00    -0.263 A  
HETATM   26  F   UNL     1      -9.899   5.208  73.603  1.00  0.00    -0.148 F  
HETATM   27  C   UNL     1     -10.791   6.117  70.202  1.00  0.00    -0.395 A  
HETATM   28  C   UNL     1      -8.748   6.553  72.049  1.00  0.00    -0.132 A  
HETATM   29  C   UNL     1      -8.668   7.123  70.771  1.00  0.00    -0.147 A  
HETATM   30  C   UNL     1      -9.844   5.774  72.390  1.00  0.00    -0.163 A  
ENDBRANCH   8  24
ENDBRANCH   5   8
TORSDOF 6
ENDMDL
MODEL       48
REMARK 921   NORMALIZED FREE ENERGY PREDICTED BY IDOCK:   -5.88 KCAL/MOL
REMARK 922        TOTAL FREE ENERGY PREDICTED BY IDOCK:   -8.13 KCAL/MOL
REMARK 923 INTER-LIGAND FREE ENERGY PREDICTED BY IDOCK:   -7.11 KCAL/MOL
REMARK 924 INTRA-LIGAND FREE ENERGY PREDICTED BY IDOCK:   -1.03 KCAL/MOL
REMARK 927      BINDING AFFINITY PREDICTED BY RF-SCORE:    0.00 PKD
ROOT
HETATM    1  F   UNL     1     -10.774   7.023  74.196  1.00  0.00    -0.390 F  
HETATM    2  C   UNL     1     -10.639   7.279  72.888  1.00  0.00    -0.301 A  
HETATM    3  C   UNL     1     -11.760   7.614  72.138  1.00  0.00    -0.355 A  
HETATM    4  C   UNL     1     -11.626   7.844  70.767  1.00  0.00    -0.258 A  
HETATM    5  C   UNL     1     -10.369   7.745  70.136  1.00  0.00    -0.218 A  
HETATM    6  C   UNL     1      -9.246   7.448  70.930  1.00  0.00    -0.154 A  
HETATM    7  C   UNL     1      -9.383   7.205  72.298  1.00  0.00    -0.157 A  
ENDROOT
BRANCH   5   8
HETATM    8  C   UNL     1     -10.247   7.981  68.622  1.00  0.00    -0.206 C  
BRANCH   8   9
HETATM    9  N   UNL     1      -9.228   9.026  68.292  1.00  0.00    -0.136 NA 
HETATM   10  C   UNL     1      -9.641  10.380  68.754  1.00  0.00    -0.177 C  
HETATM   11  C   UNL     1      -8.969   9.135  66.836  1.00  0.00    -0.123 C  
HETATM   12  C   UNL     1     -10.763  11.053  67.921  1.00  0.00    -0.219 C  
HETATM   13  N   UNL     1     -10.548  11.076  66.454  1.00  0.00    -0.262 NA 
HETATM   14  C   UNL     1     -10.135   9.730  66.012  1.00  0.00    -0.251 C  
BRANCH  13  15
HETATM   15  C   UNL     1      -9.556  12.072  66.017  1.00  0.00    -0.234 C  
BRANCH  15  16
HETATM   16  C   UNL     1      -9.879  13.441  66.523  1.00  0.00    -0.286 C  
HETATM   17  C   UNL     1      -9.829  14.542  65.758  1.00  0.00    -0.343 C  
BRANCH  17  18
HETATM   18  C   UNL     1      -9.953  15.852  66.386  1.00  0.00    -0.304 A  
HETATM   19  C   UNL     1      -9.718  15.955  67.763  1.00  0.00    -0.220 A  
HETATM   20  C   UNL     1      -9.930  17.165  68.420  1.00  0.00    -0.310 A  
HETATM   21  C   UNL     1     -10.371  18.274  67.700  1.00  0.00    -0.414 A  
HETATM   22  C   UNL     1     -10.592  18.177  66.325  1.00  0.00    -0.291 A  
HETATM   23  C   UNL     1     -10.382  16.966  65.665  1.00  0.00    -0.254 A  
ENDBRANCH  17  18
ENDBRANCH  15  16
ENDBRANCH  13  15
ENDBRANCH   8   9
BRANCH   8  24
HETATM   24  C   UNL     1     -10.045   6.648  67.870  1.00  0.00    -0.177 A  
HETATM   25  C   UNL     1     -10.873   5.016  66.250  1.00  0.00    -0.150 A  
HETATM   26  F   UNL     1      -9.461   3.267  65.536  1.00  0.00    -0.156 F  
HETATM   27  C   UNL     1     -11.065   6.163  67.027  1.00  0.00    -0.332 A  
HETATM   28  C   UNL     1      -8.657   4.766  67.166  1.00  0.00    -0.104 A  
HETATM   29  C   UNL     1      -8.851   5.904  67.960  1.00  0.00    -0.109 A  
HETATM   30  C   UNL     1      -9.664   4.338  66.314  1.00  0.00    -0.213 A  
ENDBRANCH   8  24
ENDBRANCH   5   8
TORSDOF 6
ENDMDL
MODEL       49
REMARK 921   NORMALIZED FREE ENERGY PREDICTED BY IDOCK:   -5.86 KCAL/MOL
REMARK 922        TOTAL FREE ENERGY PREDICTED BY IDOCK:   -8.11 KCAL/MOL
REMARK 923 INTER-LIGAND FREE ENERGY PREDICTED BY IDOCK:   -7.25 KCAL/MOL
REMARK 924 INTRA-LIGAND FREE ENERGY PREDICTED BY IDOCK:   -0.86 KCAL/MOL
REMARK 927      BINDING AFFINITY PREDICTED BY RF-SCORE:    0.00 PKD
ROOT
HETATM    1  F   UNL     1     -10.367  19.424  68.024  1.00  0.00    -0.426 F  
HETATM    2  C   UNL     1     -10.149  18.156  67.650  1.00  0.00    -0.359 A  
HETATM    3  C   UNL     1     -10.806  17.126  68.312  1.00  0.00    -0.314 A  
HETATM    4  C   UNL     1     -10.551  15.802  67.949  1.00  0.00    -0.282 A  
HETATM    5  C   UNL     1      -9.640  15.499  66.916  1.00  0.00    -0.241 A  
HETATM    6  C   UNL     1      -9.024  16.564  66.234  1.00  0.00    -0.359 A  
HETATM    7  C   UNL     1      -9.270  17.887  66.608  1.00  0.00    -0.288 A  
ENDROOT
BRANCH   5   8
HETATM    8  C   UNL     1      -9.358  14.034  66.545  1.00  0.00    -0.255 C  
BRANCH   8   9
HETATM    9  N   UNL     1      -9.102  13.183  67.749  1.00  0.00    -0.190 NA 
HETATM   10  C   UNL     1      -7.798  13.499  68.394  1.00  0.00    -0.143 C  
HETATM   11  C   UNL     1      -9.080  11.734  67.434  1.00  0.00    -0.175 C  
HETATM   12  C   UNL     1      -6.542  12.996  67.635  1.00  0.00    -0.159 C  
HETATM   13  N   UNL     1      -6.562  11.569  67.235  1.00  0.00    -0.100 NA 
HETATM   14  C   UNL     1      -7.862  11.270  66.602  1.00  0.00    -0.152 C  
BRANCH  13  15
HETATM   15  C   UNL     1      -6.323  10.638  68.351  1.00  0.00    -0.054 C  
BRANCH  15  16
HETATM   16  C   UNL     1      -6.865   9.275  68.064  1.00  0.00    -0.068 C  
HETATM   17  C   UNL     1      -7.662   8.604  68.911  1.00  0.00    -0.100 C  
BRANCH  17  18
HETATM   18  C   UNL     1      -7.966   7.204  68.644  1.00  0.00    -0.123 A  
HETATM   19  C   UNL     1      -8.910   6.905  67.654  1.00  0.00    -0.118 A  
HETATM   20  C   UNL     1      -9.308   5.586  67.443  1.00  0.00    -0.115 A  
HETATM   21  C   UNL     1      -8.759   4.566  68.218  1.00  0.00    -0.113 A  
HETATM   22  C   UNL     1      -7.807   4.861  69.196  1.00  0.00    -0.072 A  
HETATM   23  C   UNL     1      -7.409   6.180  69.410  1.00  0.00    -0.091 A  
ENDBRANCH  17  18
ENDBRANCH  15  16
ENDBRANCH  13  15
ENDBRANCH   8   9
BRANCH   8  24
HETATM   24  C   UNL     1     -10.454  13.481  65.608  1.00  0.00    -0.296 A  
HETATM   25  C   UNL     1     -11.053  12.437  63.481  1.00  0.00    -0.521 A  
HETATM   26  F   UNL     1     -13.254  11.657  63.148  1.00  0.00    -0.586 F  
HETATM   27  C   UNL     1     -10.106  13.040  64.315  1.00  0.00    -0.216 A  
HETATM   28  C   UNL     1     -12.740  12.740  65.176  1.00  0.00    -0.402 A  
HETATM   29  C   UNL     1     -11.800  13.360  66.009  1.00  0.00    -0.423 A  
HETATM   30  C   UNL     1     -12.357  12.277  63.926  1.00  0.00    -0.509 A  
ENDBRANCH   8  24
ENDBRANCH   5   8
TORSDOF 6
ENDMDL
MODEL       50
REMARK 921   NORMALIZED FREE ENERGY PREDICTED BY IDOCK:   -5.84 KCAL/MOL
REMARK 922        TOTAL FREE ENERGY PREDICTED BY IDOCK:   -8.08 KCAL/MOL
REMARK 923 INTER-LIGAND FREE ENERGY PREDICTED BY IDOCK:   -7.74 KCAL/MOL
REMARK 924 INTRA-LIGAND FREE ENERGY PREDICTED BY IDOCK:   -0.34 KCAL/MOL
REMARK 927      BINDING AFFINITY PREDICTED BY RF-SCORE:    0.00 PKD
ROOT
HETATM    1  F   UNL     1     -12.618  12.929  63.207  1.00  0.00    -0.518 F  
HETATM    2  C   UNL     1     -11.806  12.456  64.161  1.00  0.00    -0.413 A  
HETATM    3  C   UNL     1     -10.571  11.927  63.806  1.00  0.00    -0.475 A  
HETATM    4  C   UNL     1      -9.739  11.399  64.796  1.00  0.00    -0.280 A  
HETATM    5  C   UNL     1     -10.135  11.398  66.149  1.00  0.00    -0.271 A  
HETATM    6  C   UNL     1     -11.372  11.980  66.483  1.00  0.00    -0.413 A  
HETATM    7  C   UNL     1     -12.208  12.497  65.491  1.00  0.00    -0.442 A  
ENDROOT
BRANCH   5   8
HETATM    8  C   UNL     1      -9.214  10.793  67.220  1.00  0.00    -0.147 C  
BRANCH   8   9
HETATM    9  N   UNL     1      -8.920  11.758  68.326  1.00  0.00    -0.177 NA 
HETATM   10  C   UNL     1      -9.203  13.166  67.934  1.00  0.00    -0.207 C  
HETATM   11  C   UNL     1      -7.502  11.715  68.762  1.00  0.00    -0.114 C  
HETATM   12  C   UNL     1      -8.181  13.803  66.957  1.00  0.00    -0.034 C  
HETATM   13  N   UNL     1      -6.756  13.676  67.346  1.00  0.00    -0.232 NA 
HETATM   14  C   UNL     1      -6.492  12.277  67.736  1.00  0.00    -0.106 C  
BRANCH  13  15
HETATM   15  C   UNL     1      -6.357  14.583  68.436  1.00  0.00    -0.101 C  
BRANCH  15  16
HETATM   16  C   UNL     1      -6.681  16.007  68.122  1.00  0.00    -0.132 C  
HETATM   17  C   UNL     1      -6.016  16.732  67.209  1.00  0.00    -0.200 C  
BRANCH  17  18
HETATM   18  C   UNL     1      -6.260  18.167  67.123  1.00  0.00    -0.182 A  
HETATM   19  C   UNL     1      -6.790  18.820  68.242  1.00  0.00    -0.261 A  
HETATM   20  C   UNL     1      -7.138  20.167  68.166  1.00  0.00    -0.310 A  
HETATM   21  C   UNL     1      -6.952  20.862  66.972  1.00  0.00    -0.393 A  
HETATM   22  C   UNL     1      -6.411  20.216  65.859  1.00  0.00    -0.242 A  
HETATM   23  C   UNL     1      -6.064  18.867  65.933  1.00  0.00    -0.223 A  
ENDBRANCH  17  18
ENDBRANCH  15  16
ENDBRANCH  13  15
ENDBRANCH   8   9
BRANCH   8  24
HETATM   24  C   UNL     1      -9.753   9.429  67.704  1.00  0.00    -0.191 A  
HETATM   25  C   UNL     1     -10.657   8.064  69.519  1.00  0.00    -0.216 A  
HETATM   26  F   UNL     1     -11.533   5.927  69.041  1.00  0.00    -0.413 F  
HETATM   27  C   UNL     1     -10.068   9.249  69.066  1.00  0.00    -0.207 A  
HETATM   28  C   UNL     1     -10.589   7.174  67.279  1.00  0.00    -0.398 A  
HETATM   29  C   UNL     1      -9.984   8.353  66.824  1.00  0.00    -0.354 A  
HETATM   30  C   UNL     1     -10.927   7.044  68.618  1.00  0.00    -0.090 A  
ENDBRANCH   8  24
ENDBRANCH   5   8
TORSDOF 6
ENDMDL
MODEL       51
REMARK 921   NORMALIZED FREE ENERGY PREDICTED BY IDOCK:   -5.82 KCAL/MOL
REMARK 922        TOTAL FREE ENERGY PREDICTED BY IDOCK:   -8.06 KCAL/MOL
REMARK 923 INTER-LIGAND FREE ENERGY PREDICTED BY IDOCK:   -7.08 KCAL/MOL
REMARK 924 INTRA-LIGAND FREE ENERGY PREDICTED BY IDOCK:   -0.98 KCAL/MOL
REMARK 927      BINDING AFFINITY PREDICTED BY RF-SCORE:    0.00 PKD
ROOT
HETATM    1  F   UNL     1      -6.211   8.567  72.452  1.00  0.00    -0.054 F  
HETATM    2  C   UNL     1      -6.950   8.672  71.339  1.00  0.00    -0.085 A  
HETATM    3  C   UNL     1      -6.323   8.676  70.100  1.00  0.00    -0.038 A  
HETATM    4  C   UNL     1      -7.090   8.823  68.941  1.00  0.00    -0.066 A  
HETATM    5  C   UNL     1      -8.491   8.963  69.015  1.00  0.00    -0.133 A  
HETATM    6  C   UNL     1      -9.102   8.911  70.281  1.00  0.00    -0.201 A  
HETATM    7  C   UNL     1      -8.333   8.777  71.439  1.00  0.00    -0.222 A  
ENDROOT
BRANCH   5   8
HETATM    8  C   UNL     1      -9.314   9.145  67.730  1.00  0.00    -0.136 C  
BRANCH   8   9
HETATM    9  N   UNL     1      -8.758  10.217  66.847  1.00  0.00    -0.129 NA 
HETATM   10  C   UNL     1      -8.554  11.498  67.577  1.00  0.00    -0.143 C  
HETATM   11  C   UNL     1      -9.637  10.522  65.691  1.00  0.00    -0.226 C  
HETATM   12  C   UNL     1      -9.847  12.288  67.909  1.00  0.00    -0.201 C  
HETATM   13  N   UNL     1     -10.772  12.510  66.772  1.00  0.00    -0.233 NA 
HETATM   14  C   UNL     1     -10.961  11.234  66.055  1.00  0.00    -0.174 C  
BRANCH  13  15
HETATM   15  C   UNL     1     -10.317  13.549  65.833  1.00  0.00    -0.299 C  
BRANCH  15  16
HETATM   16  C   UNL     1     -10.598  14.924  66.344  1.00  0.00    -0.307 C  
HETATM   17  C   UNL     1      -9.820  15.984  66.078  1.00  0.00    -0.365 C  
BRANCH  17  18
HETATM   18  C   UNL     1     -10.051  17.235  66.790  1.00  0.00    -0.302 A  
HETATM   19  C   UNL     1     -10.366  18.377  66.044  1.00  0.00    -0.397 A  
HETATM   20  C   UNL     1     -10.489  19.613  66.675  1.00  0.00    -0.610 A  
HETATM   21  C   UNL     1     -10.301  19.707  68.053  1.00  0.00    -0.579 A  
HETATM   22  C   UNL     1     -10.000  18.567  68.801  1.00  0.00    -0.417 A  
HETATM   23  C   UNL     1      -9.875  17.329  68.170  1.00  0.00    -0.290 A  
ENDBRANCH  17  18
ENDBRANCH  15  16
ENDBRANCH  13  15
ENDBRANCH   8   9
BRANCH   8  24
HETATM   24  C   UNL     1      -9.528   7.792  67.016  1.00  0.00    -0.210 A  
HETATM   25  C   UNL     1      -8.638   6.018  65.589  1.00  0.00    -0.154 A  
HETATM   26  F   UNL     1      -9.853   4.012  65.334  1.00  0.00    -0.160 F  
HETATM   27  C   UNL     1      -8.523   7.287  66.166  1.00  0.00    -0.144 A  
HETATM   28  C   UNL     1     -10.787   5.733  66.645  1.00  0.00    -0.290 A  
HETATM   29  C   UNL     1     -10.685   7.010  67.211  1.00  0.00    -0.412 A  
HETATM   30  C   UNL     1      -9.762   5.246  65.847  1.00  0.00    -0.105 A  
ENDBRANCH   8  24
ENDBRANCH   5   8
TORSDOF 6
ENDMDL
MODEL       52
REMARK 921   NORMALIZED FREE ENERGY PREDICTED BY IDOCK:   -5.80 KCAL/MOL
REMARK 922        TOTAL FREE ENERGY PREDICTED BY IDOCK:   -8.03 KCAL/MOL
REMARK 923 INTER-LIGAND FREE ENERGY PREDICTED BY IDOCK:   -8.05 KCAL/MOL
REMARK 924 INTRA-LIGAND FREE ENERGY PREDICTED BY IDOCK:    0.01 KCAL/MOL
REMARK 927      BINDING AFFINITY PREDICTED BY RF-SCORE:    0.00 PKD
ROOT
HETATM    1  F   UNL     1     -10.347   3.356  74.093  1.00  0.00    -0.168 F  
HETATM    2  C   UNL     1     -10.474   4.356  73.211  1.00  0.00    -0.187 A  
HETATM    3  C   UNL     1     -10.254   4.110  71.862  1.00  0.00    -0.180 A  
HETATM    4  C   UNL     1     -10.349   5.161  70.947  1.00  0.00    -0.282 A  
HETATM    5  C   UNL     1     -10.669   6.466  71.375  1.00  0.00    -0.290 A  
HETATM    6  C   UNL     1     -10.930   6.675  72.742  1.00  0.00    -0.291 A  
HETATM    7  C   UNL     1     -10.822   5.626  73.657  1.00  0.00    -0.261 A  
ENDROOT
BRANCH   5   8
HETATM    8  C   UNL     1     -10.749   7.612  70.355  1.00  0.00    -0.236 C  
BRANCH   8   9
HETATM    9  N   UNL     1     -10.387   8.933  70.957  1.00  0.00    -0.231 NA 
HETATM   10  C   UNL     1     -11.539   9.568  71.654  1.00  0.00    -0.381 C  
HETATM   11  C   UNL     1      -9.909   9.912  69.949  1.00  0.00    -0.245 C  
HETATM   12  C   UNL     1     -12.631  10.164  70.728  1.00  0.00    -0.317 C  
HETATM   13  N   UNL     1     -12.143  11.068  69.660  1.00  0.00    -0.338 NA 
HETATM   14  C   UNL     1     -10.998  10.429  68.981  1.00  0.00    -0.238 C  
BRANCH  13  15
HETATM   15  C   UNL     1     -11.753  12.403  70.145  1.00  0.00    -0.185 C  
BRANCH  15  16
HETATM   16  C   UNL     1     -11.683  13.401  69.035  1.00  0.00    -0.368 C  
HETATM   17  C   UNL     1     -12.154  13.166  67.801  1.00  0.00    -0.262 C  
BRANCH  17  18
HETATM   18  C   UNL     1     -11.851  14.110  66.731  1.00  0.00    -0.449 A  
HETATM   19  C   UNL     1     -12.561  14.003  65.529  1.00  0.00    -0.543 A  
HETATM   20  C   UNL     1     -12.229  14.814  64.446  1.00  0.00    -0.447 A  
HETATM   21  C   UNL     1     -11.191  15.737  64.567  1.00  0.00    -0.334 A  
HETATM   22  C   UNL     1     -10.491  15.855  65.769  1.00  0.00    -0.386 A  
HETATM   23  C   UNL     1     -10.821  15.042  66.854  1.00  0.00    -0.315 A  
ENDBRANCH  17  18
ENDBRANCH  15  16
ENDBRANCH  13  15
ENDBRANCH   8   9
BRANCH   8  24
HETATM   24  C   UNL     1      -9.955   7.268  69.075  1.00  0.00    -0.177 A  
HETATM   25  C   UNL     1      -9.958   6.819  66.672  1.00  0.00    -0.207 A  
HETATM   26  F   UNL     1      -7.908   6.685  65.512  1.00  0.00    -0.085 F  
HETATM   27  C   UNL     1     -10.648   7.029  67.871  1.00  0.00    -0.276 A  
HETATM   28  C   UNL     1      -7.861   7.029  67.843  1.00  0.00    -0.114 A  
HETATM   29  C   UNL     1      -8.547   7.221  69.049  1.00  0.00    -0.129 A  
HETATM   30  C   UNL     1      -8.571   6.839  66.667  1.00  0.00    -0.123 A  
ENDBRANCH   8  24
ENDBRANCH   5   8
TORSDOF 6
ENDMDL
MODEL       53
REMARK 921   NORMALIZED FREE ENERGY PREDICTED BY IDOCK:   -5.80 KCAL/MOL
REMARK 922        TOTAL FREE ENERGY PREDICTED BY IDOCK:   -8.02 KCAL/MOL
REMARK 923 INTER-LIGAND FREE ENERGY PREDICTED BY IDOCK:   -7.66 KCAL/MOL
REMARK 924 INTRA-LIGAND FREE ENERGY PREDICTED BY IDOCK:   -0.36 KCAL/MOL
REMARK 927      BINDING AFFINITY PREDICTED BY RF-SCORE:    0.00 PKD
ROOT
HETATM    1  F   UNL     1      -8.168   2.329  74.124  1.00  0.00    -0.054 F  
HETATM    2  C   UNL     1      -8.502   3.370  73.348  1.00  0.00    -0.075 A  
HETATM    3  C   UNL     1      -9.278   3.157  72.216  1.00  0.00    -0.157 A  
HETATM    4  C   UNL     1      -9.595   4.236  71.387  1.00  0.00    -0.239 A  
HETATM    5  C   UNL     1      -9.140   5.536  71.687  1.00  0.00    -0.155 A  
HETATM    6  C   UNL     1      -8.394   5.727  72.864  1.00  0.00    -0.119 A  
HETATM    7  C   UNL     1      -8.067   4.646  73.685  1.00  0.00    -0.106 A  
ENDROOT
BRANCH   5   8
HETATM    8  C   UNL     1      -9.482   6.706  70.750  1.00  0.00    -0.168 C  
BRANCH   8   9
HETATM    9  N   UNL     1      -9.440   6.308  69.308  1.00  0.00    -0.135 NA 
HETATM   10  C   UNL     1      -8.099   6.530  68.702  1.00  0.00    -0.118 C  
HETATM   11  C   UNL     1     -10.412   7.061  68.477  1.00  0.00    -0.200 C  
HETATM   12  C   UNL     1      -7.734   8.011  68.419  1.00  0.00    -0.117 C  
HETATM   13  N   UNL     1      -8.749   8.790  67.670  1.00  0.00    -0.135 NA 
HETATM   14  C   UNL     1     -10.073   8.556  68.279  1.00  0.00    -0.192 C  
BRANCH  13  15
HETATM   15  C   UNL     1      -8.797   8.474  66.233  1.00  0.00    -0.156 C  
BRANCH  15  16
HETATM   16  C   UNL     1      -9.541   9.513  65.458  1.00  0.00    -0.349 C  
HETATM   17  C   UNL     1      -9.388  10.831  65.656  1.00  0.00    -0.241 C  
BRANCH  17  18
HETATM   18  C   UNL     1     -10.306  11.760  65.007  1.00  0.00    -0.325 A  
HETATM   19  C   UNL     1     -10.494  13.021  65.585  1.00  0.00    -0.291 A  
HETATM   20  C   UNL     1     -11.442  13.897  65.058  1.00  0.00    -0.343 A  
HETATM   21  C   UNL     1     -12.197  13.514  63.951  1.00  0.00    -0.458 A  
HETATM   22  C   UNL     1     -12.001  12.262  63.366  1.00  0.00    -0.588 A  
HETATM   23  C   UNL     1     -11.054  11.383  63.892  1.00  0.00    -0.410 A  
ENDBRANCH  17  18
ENDBRANCH  15  16
ENDBRANCH  13  15
ENDBRANCH   8   9
BRANCH   8  24
HETATM   24  C   UNL     1     -10.802   7.386  71.176  1.00  0.00    -0.258 A  
HETATM   25  C   UNL     1     -13.242   7.322  71.294  1.00  0.00    -0.352 A  
HETATM   26  F   UNL     1     -14.387   8.941  72.571  1.00  0.00    -0.484 F  
HETATM   27  C   UNL     1     -12.033   6.790  70.834  1.00  0.00    -0.437 A  
HETATM   28  C   UNL     1     -12.041   9.091  72.408  1.00  0.00    -0.289 A  
HETATM   29  C   UNL     1     -10.828   8.573  71.936  1.00  0.00    -0.392 A  
HETATM   30  C   UNL     1     -13.234   8.457  72.091  1.00  0.00    -0.318 A  
ENDBRANCH   8  24
ENDBRANCH   5   8
TORSDOF 6
ENDMDL
MODEL       54
REMARK 921   NORMALIZED FREE ENERGY PREDICTED BY IDOCK:   -5.74 KCAL/MOL
REMARK 922        TOTAL FREE ENERGY PREDICTED BY IDOCK:   -7.94 KCAL/MOL
REMARK 923 INTER-LIGAND FREE ENERGY PREDICTED BY IDOCK:   -8.02 KCAL/MOL
REMARK 924 INTRA-LIGAND FREE ENERGY PREDICTED BY IDOCK:    0.08 KCAL/MOL
REMARK 927      BINDING AFFINITY PREDICTED BY RF-SCORE:    0.00 PKD
ROOT
HETATM    1  F   UNL     1      -5.491  10.498  62.335  1.00  0.00    -0.094 F  
HETATM    2  C   UNL     1      -6.344  10.260  63.340  1.00  0.00    -0.122 A  
HETATM    3  C   UNL     1      -7.646   9.871  63.054  1.00  0.00    -0.132 A  
HETATM    4  C   UNL     1      -8.547   9.659  64.100  1.00  0.00    -0.209 A  
HETATM    5  C   UNL     1      -8.150   9.832  65.442  1.00  0.00    -0.127 A  
HETATM    6  C   UNL     1      -6.812  10.183  65.702  1.00  0.00    -0.124 A  
HETATM    7  C   UNL     1      -5.916  10.407  64.655  1.00  0.00    -0.109 A  
ENDROOT
BRANCH   5   8
HETATM    8  C   UNL     1      -9.162   9.614  66.578  1.00  0.00    -0.158 C  
BRANCH   8   9
HETATM    9  N   UNL     1     -10.469  10.292  66.310  1.00  0.00    -0.185 NA 
HETATM   10  C   UNL     1     -10.300  11.557  65.545  1.00  0.00    -0.273 C  
HETATM   11  C   UNL     1     -11.199  10.642  67.553  1.00  0.00    -0.253 C  
HETATM   12  C   UNL     1      -9.721  12.750  66.350  1.00  0.00    -0.261 C  
HETATM   13  N   UNL     1     -10.391  13.039  67.640  1.00  0.00    -0.220 NA 
HETATM   14  C   UNL     1     -10.556  11.776  68.385  1.00  0.00    -0.216 C  
BRANCH  13  15
HETATM   15  C   UNL     1     -11.696  13.707  67.492  1.00  0.00    -0.371 C  
BRANCH  15  16
HETATM   16  C   UNL     1     -12.048  14.515  68.699  1.00  0.00    -0.253 C  
HETATM   17  C   UNL     1     -11.702  14.165  69.948  1.00  0.00    -0.372 C  
BRANCH  17  18
HETATM   18  C   UNL     1     -12.268  14.897  71.075  1.00  0.00    -0.379 A  
HETATM   19  C   UNL     1     -11.446  15.797  71.764  1.00  0.00    -0.484 A  
HETATM   20  C   UNL     1     -11.915  16.434  72.911  1.00  0.00    -0.569 A  
HETATM   21  C   UNL     1     -13.207  16.176  73.366  1.00  0.00    -0.563 A  
HETATM   22  C   UNL     1     -14.033  15.290  72.672  1.00  0.00    -0.555 A  
HETATM   23  C   UNL     1     -13.565  14.649  71.524  1.00  0.00    -0.481 A  
ENDBRANCH  17  18
ENDBRANCH  15  16
ENDBRANCH  13  15
ENDBRANCH   8   9
BRANCH   8  24
HETATM   24  C   UNL     1      -9.292   8.114  66.922  1.00  0.00    -0.219 A  
HETATM   25  C   UNL     1      -8.223   6.031  67.624  1.00  0.00    -0.109 A  
HETATM   26  F   UNL     1      -9.561   4.175  68.199  1.00  0.00    -0.185 F  
HETATM   27  C   UNL     1      -8.133   7.363  67.206  1.00  0.00    -0.112 A  
HETATM   28  C   UNL     1     -10.625   6.135  67.440  1.00  0.00    -0.352 A  
HETATM   29  C   UNL     1     -10.540   7.464  67.004  1.00  0.00    -0.414 A  
HETATM   30  C   UNL     1      -9.469   5.435  67.753  1.00  0.00    -0.120 A  
ENDBRANCH   8  24
ENDBRANCH   5   8
TORSDOF 6
ENDMDL
MODEL       55
REMARK 921   NORMALIZED FREE ENERGY PREDICTED BY IDOCK:   -5.72 KCAL/MOL
REMARK 922        TOTAL FREE ENERGY PREDICTED BY IDOCK:   -7.93 KCAL/MOL
REMARK 923 INTER-LIGAND FREE ENERGY PREDICTED BY IDOCK:   -7.15 KCAL/MOL
REMARK 924 INTRA-LIGAND FREE ENERGY PREDICTED BY IDOCK:   -0.78 KCAL/MOL
REMARK 927      BINDING AFFINITY PREDICTED BY RF-SCORE:    0.00 PKD
ROOT
HETATM    1  F   UNL     1     -10.090   4.416  66.391  1.00  0.00    -0.205 F  
HETATM    2  C   UNL     1      -9.963   5.748  66.457  1.00  0.00    -0.163 A  
HETATM    3  C   UNL     1      -8.886   6.364  65.833  1.00  0.00    -0.142 A  
HETATM    4  C   UNL     1      -8.733   7.749  65.932  1.00  0.00    -0.175 A  
HETATM    5  C   UNL     1      -9.660   8.529  66.654  1.00  0.00    -0.292 A  
HETATM    6  C   UNL     1     -10.765   7.882  67.238  1.00  0.00    -0.299 A  
HETATM    7  C   UNL     1     -10.909   6.496  67.148  1.00  0.00    -0.472 A  
ENDROOT
BRANCH   5   8
HETATM    8  C   UNL     1      -9.462  10.048  66.769  1.00  0.00    -0.168 C  
BRANCH   8   9
HETATM    9  N   UNL     1      -8.017  10.436  66.733  1.00  0.00    -0.114 NA 
HETATM   10  C   UNL     1      -7.376  10.346  68.073  1.00  0.00    -0.085 C  
HETATM   11  C   UNL     1      -7.808  11.825  66.254  1.00  0.00     0.196 C  
HETATM   12  C   UNL     1      -7.766  11.466  69.073  1.00  0.00    -0.064 C  
HETATM   13  N   UNL     1      -7.648  12.852  68.563  1.00  0.00    -0.129 NA 
HETATM   14  C   UNL     1      -8.283  12.925  67.232  1.00  0.00    -0.176 C  
BRANCH  13  15
HETATM   15  C   UNL     1      -6.260  13.337  68.481  1.00  0.00    -0.081 C  
BRANCH  15  16
HETATM   16  C   UNL     1      -6.190  14.744  67.983  1.00  0.00    -0.164 C  
HETATM   17  C   UNL     1      -6.656  15.796  68.674  1.00  0.00    -0.116 C  
BRANCH  17  18
HETATM   18  C   UNL     1      -6.738  17.097  68.021  1.00  0.00    -0.166 A  
HETATM   19  C   UNL     1      -7.068  18.213  68.801  1.00  0.00    -0.287 A  
HETATM   20  C   UNL     1      -7.262  19.454  68.198  1.00  0.00    -0.322 A  
HETATM   21  C   UNL     1      -7.122  19.581  66.817  1.00  0.00    -0.220 A  
HETATM   22  C   UNL     1      -6.779  18.474  66.040  1.00  0.00    -0.293 A  
HETATM   23  C   UNL     1      -6.586  17.229  66.641  1.00  0.00    -0.268 A  
ENDBRANCH  17  18
ENDBRANCH  15  16
ENDBRANCH  13  15
ENDBRANCH   8   9
BRANCH   8  24
HETATM   24  C   UNL     1     -10.340  10.798  65.743  1.00  0.00    -0.295 A  
HETATM   25  C   UNL     1     -12.109  12.425  65.300  1.00  0.00    -0.451 A  
HETATM   26  F   UNL     1     -12.517  13.125  63.084  1.00  0.00    -0.567 F  
HETATM   27  C   UNL     1     -11.366  11.650  66.197  1.00  0.00    -0.275 A  
HETATM   28  C   UNL     1     -10.864  11.488  63.460  1.00  0.00    -0.473 A  
HETATM   29  C   UNL     1     -10.129  10.697  64.353  1.00  0.00    -0.418 A  
HETATM   30  C   UNL     1     -11.839  12.349  63.941  1.00  0.00    -0.466 A  
ENDBRANCH   8  24
ENDBRANCH   5   8
TORSDOF 6
ENDMDL
MODEL       56
REMARK 921   NORMALIZED FREE ENERGY PREDICTED BY IDOCK:   -5.65 KCAL/MOL
REMARK 922        TOTAL FREE ENERGY PREDICTED BY IDOCK:   -7.82 KCAL/MOL
REMARK 923 INTER-LIGAND FREE ENERGY PREDICTED BY IDOCK:   -7.55 KCAL/MOL
REMARK 924 INTRA-LIGAND FREE ENERGY PREDICTED BY IDOCK:   -0.27 KCAL/MOL
REMARK 927      BINDING AFFINITY PREDICTED BY RF-SCORE:    0.00 PKD
ROOT
HETATM    1  F   UNL     1     -13.929  13.795  73.013  1.00  0.00    -0.434 F  
HETATM    2  C   UNL     1     -13.260  13.451  71.905  1.00  0.00    -0.431 A  
HETATM    3  C   UNL     1     -13.106  12.107  71.589  1.00  0.00    -0.413 A  
HETATM    4  C   UNL     1     -12.376  11.746  70.454  1.00  0.00    -0.362 A  
HETATM    5  C   UNL     1     -11.798  12.729  69.624  1.00  0.00    -0.384 A  
HETATM    6  C   UNL     1     -12.009  14.082  69.945  1.00  0.00    -0.399 A  
HETATM    7  C   UNL     1     -12.728  14.441  71.087  1.00  0.00    -0.422 A  
ENDROOT
BRANCH   5   8
HETATM    8  C   UNL     1     -10.981  12.310  68.391  1.00  0.00    -0.236 C  
BRANCH   8   9
HETATM    9  N   UNL     1     -11.231  10.888  68.002  1.00  0.00    -0.294 NA 
HETATM   10  C   UNL     1     -10.880   9.936  69.091  1.00  0.00    -0.221 C  
HETATM   11  C   UNL     1     -10.453  10.474  66.808  1.00  0.00    -0.242 C  
HETATM   12  C   UNL     1      -9.361   9.721  69.322  1.00  0.00    -0.191 C  
HETATM   13  N   UNL     1      -8.566   9.402  68.113  1.00  0.00    -0.120 NA 
HETATM   14  C   UNL     1      -8.929  10.350  67.040  1.00  0.00    -0.139 C  
BRANCH  13  15
HETATM   15  C   UNL     1      -8.741   8.019  67.637  1.00  0.00    -0.126 C  
BRANCH  15  16
HETATM   16  C   UNL     1      -8.182   7.024  68.602  1.00  0.00    -0.122 C  
HETATM   17  C   UNL     1      -8.892   6.000  69.100  1.00  0.00    -0.119 C  
BRANCH  17  18
HETATM   18  C   UNL     1      -8.333   5.210  70.191  1.00  0.00    -0.093 A  
HETATM   19  C   UNL     1      -7.758   3.970  69.888  1.00  0.00    -0.052 A  
HETATM   20  C   UNL     1      -7.310   3.138  70.912  1.00  0.00    -0.033 A  
HETATM   21  C   UNL     1      -7.433   3.547  72.239  1.00  0.00    -0.057 A  
HETATM   22  C   UNL     1      -7.994   4.789  72.542  1.00  0.00    -0.093 A  
HETATM   23  C   UNL     1      -8.445   5.623  71.519  1.00  0.00    -0.128 A  
ENDBRANCH  17  18
ENDBRANCH  15  16
ENDBRANCH  13  15
ENDBRANCH   8   9
BRANCH   8  24
HETATM   24  C   UNL     1     -11.168  13.319  67.237  1.00  0.00    -0.320 A  
HETATM   25  C   UNL     1     -10.221  15.066  65.814  1.00  0.00    -0.361 A  
HETATM   26  F   UNL     1     -11.433  15.821  63.937  1.00  0.00    -0.238 F  
HETATM   27  C   UNL     1     -10.126  14.213  66.919  1.00  0.00    -0.258 A  
HETATM   28  C   UNL     1     -12.420  14.202  65.335  1.00  0.00    -0.488 A  
HETATM   29  C   UNL     1     -12.338  13.359  66.451  1.00  0.00    -0.381 A  
HETATM   30  C   UNL     1     -11.360  15.040  65.022  1.00  0.00    -0.394 A  
ENDBRANCH   8  24
ENDBRANCH   5   8
TORSDOF 6
ENDMDL
MODEL       57
REMARK 921   NORMALIZED FREE ENERGY PREDICTED BY IDOCK:   -5.64 KCAL/MOL
REMARK 922        TOTAL FREE ENERGY PREDICTED BY IDOCK:   -7.81 KCAL/MOL
REMARK 923 INTER-LIGAND FREE ENERGY PREDICTED BY IDOCK:   -7.52 KCAL/MOL
REMARK 924 INTRA-LIGAND FREE ENERGY PREDICTED BY IDOCK:   -0.29 KCAL/MOL
REMARK 927      BINDING AFFINITY PREDICTED BY RF-SCORE:    0.00 PKD
ROOT
HETATM    1  F   UNL     1     -10.381  16.444  64.994  1.00  0.00    -0.318 F  
HETATM    2  C   UNL     1     -10.577  15.375  65.777  1.00  0.00    -0.348 A  
HETATM    3  C   UNL     1      -9.705  15.130  66.830  1.00  0.00    -0.248 A  
HETATM    4  C   UNL     1      -9.887  13.995  67.624  1.00  0.00    -0.233 A  
HETATM    5  C   UNL     1     -10.944  13.098  67.371  1.00  0.00    -0.283 A  
HETATM    6  C   UNL     1     -11.837  13.396  66.325  1.00  0.00    -0.438 A  
HETATM    7  C   UNL     1     -11.647  14.524  65.524  1.00  0.00    -0.350 A  
ENDROOT
BRANCH   5   8
HETATM    8  C   UNL     1     -11.114  11.844  68.243  1.00  0.00    -0.239 C  
BRANCH   8   9
HETATM    9  N   UNL     1      -9.837  11.079  68.391  1.00  0.00    -0.175 NA 
HETATM   10  C   UNL     1      -9.142  10.885  67.089  1.00  0.00    -0.145 C  
HETATM   11  C   UNL     1     -10.040   9.728  68.969  1.00  0.00    -0.187 C  
HETATM   12  C   UNL     1      -9.787   9.841  66.140  1.00  0.00    -0.263 C  
HETATM   13  N   UNL     1     -10.079   8.519  66.745  1.00  0.00    -0.277 NA 
HETATM   14  C   UNL     1     -10.762   8.727  68.037  1.00  0.00    -0.090 C  
BRANCH  13  15
HETATM   15  C   UNL     1      -8.884   7.680  66.940  1.00  0.00    -0.131 C  
BRANCH  15  16
HETATM   16  C   UNL     1      -8.649   6.767  65.781  1.00  0.00    -0.144 C  
HETATM   17  C   UNL     1      -9.300   5.607  65.611  1.00  0.00    -0.027 C  
BRANCH  17  18
HETATM   18  C   UNL     1      -8.856   4.686  64.572  1.00  0.00    -0.153 A  
HETATM   19  C   UNL     1      -8.115   5.199  63.501  1.00  0.00    -0.107 A  
HETATM   20  C   UNL     1      -7.764   4.373  62.435  1.00  0.00    -0.063 A  
HETATM   21  C   UNL     1      -8.149   3.034  62.442  1.00  0.00    -0.072 A  
HETATM   22  C   UNL     1      -8.876   2.517  63.516  1.00  0.00    -0.085 A  
HETATM   23  C   UNL     1      -9.231   3.342  64.584  1.00  0.00    -0.140 A  
ENDBRANCH  17  18
ENDBRANCH  15  16
ENDBRANCH  13  15
ENDBRANCH   8   9
BRANCH   8  24
HETATM   24  C   UNL     1     -11.796  12.192  69.584  1.00  0.00    -0.391 A  
HETATM   25  C   UNL     1     -12.677  13.895  71.100  1.00  0.00    -0.441 A  
HETATM   26  F   UNL     1     -13.926  13.235  72.990  1.00  0.00    -0.384 F  
HETATM   27  C   UNL     1     -11.970  13.544  69.945  1.00  0.00    -0.416 A  
HETATM   28  C   UNL     1     -13.016  11.562  71.603  1.00  0.00    -0.499 A  
HETATM   29  C   UNL     1     -12.294  11.204  70.457  1.00  0.00    -0.454 A  
HETATM   30  C   UNL     1     -13.208  12.901  71.909  1.00  0.00    -0.423 A  
ENDBRANCH   8  24
ENDBRANCH   5   8
TORSDOF 6
ENDMDL
MODEL       58
REMARK 921   NORMALIZED FREE ENERGY PREDICTED BY IDOCK:   -5.58 KCAL/MOL
REMARK 922        TOTAL FREE ENERGY PREDICTED BY IDOCK:   -7.73 KCAL/MOL
REMARK 923 INTER-LIGAND FREE ENERGY PREDICTED BY IDOCK:   -6.99 KCAL/MOL
REMARK 924 INTRA-LIGAND FREE ENERGY PREDICTED BY IDOCK:   -0.74 KCAL/MOL
REMARK 927      BINDING AFFINITY PREDICTED BY RF-SCORE:    0.00 PKD
ROOT
HETATM    1  F   UNL     1     -12.484  13.145  62.607  1.00  0.00    -0.285 F  
HETATM    2  C   UNL     1     -11.890  12.879  63.778  1.00  0.00    -0.504 A  
HETATM    3  C   UNL     1     -12.637  12.923  64.949  1.00  0.00    -0.525 A  
HETATM    4  C   UNL     1     -12.010  12.683  66.173  1.00  0.00    -0.458 A  
HETATM    5  C   UNL     1     -10.632  12.392  66.235  1.00  0.00    -0.277 A  
HETATM    6  C   UNL     1      -9.912  12.311  65.029  1.00  0.00    -0.227 A  
HETATM    7  C   UNL     1     -10.537  12.564  63.807  1.00  0.00    -0.471 A  
ENDROOT
BRANCH   5   8
HETATM    8  C   UNL     1      -9.957  12.151  67.595  1.00  0.00    -0.197 C  
BRANCH   8   9
HETATM    9  N   UNL     1      -9.039  10.970  67.571  1.00  0.00    -0.137 NA 
HETATM   10  C   UNL     1      -9.664   9.785  66.924  1.00  0.00    -0.192 C  
HETATM   11  C   UNL     1      -8.620  10.541  68.928  1.00  0.00    -0.153 C  
HETATM   12  C   UNL     1     -10.750   9.063  67.764  1.00  0.00    -0.151 C  
HETATM   13  N   UNL     1     -10.363   8.720  69.153  1.00  0.00    -0.215 NA 
HETATM   14  C   UNL     1      -9.740   9.902  69.780  1.00  0.00    -0.236 C  
BRANCH  13  15
HETATM   15  C   UNL     1      -9.452   7.567  69.247  1.00  0.00    -0.154 C  
BRANCH  15  16
HETATM   16  C   UNL     1      -9.539   6.689  68.040  1.00  0.00    -0.123 C  
HETATM   17  C   UNL     1      -9.857   5.387  68.096  1.00  0.00    -0.188 C  
BRANCH  17  18
HETATM   18  C   UNL     1      -9.710   4.566  66.900  1.00  0.00    -0.226 A  
HETATM   19  C   UNL     1     -10.563   4.808  65.817  1.00  0.00    -0.262 A  
HETATM   20  C   UNL     1     -10.526   3.977  64.699  1.00  0.00    -0.208 A  
HETATM   21  C   UNL     1      -9.634   2.907  64.662  1.00  0.00    -0.126 A  
HETATM   22  C   UNL     1      -8.773   2.672  65.735  1.00  0.00    -0.127 A  
HETATM   23  C   UNL     1      -8.809   3.502  66.856  1.00  0.00    -0.145 A  
ENDBRANCH  17  18
ENDBRANCH  15  16
ENDBRANCH  13  15
ENDBRANCH   8   9
BRANCH   8  24
HETATM   24  C   UNL     1      -9.300  13.446  68.122  1.00  0.00    -0.217 A  
HETATM   25  C   UNL     1      -7.352  14.921  68.197  1.00  0.00    -0.121 A  
HETATM   26  F   UNL     1      -7.545  17.052  69.189  1.00  0.00    -0.236 F  
HETATM   27  C   UNL     1      -7.948  13.710  67.826  1.00  0.00    -0.172 A  
HETATM   28  C   UNL     1      -9.420  15.625  69.218  1.00  0.00    -0.264 A  
HETATM   29  C   UNL     1     -10.016  14.408  68.864  1.00  0.00    -0.183 A  
HETATM   30  C   UNL     1      -8.099  15.874  68.874  1.00  0.00    -0.214 A  
ENDBRANCH   8  24
ENDBRANCH   5   8
TORSDOF 6
ENDMDL
MODEL       59
REMARK 921   NORMALIZED FREE ENERGY PREDICTED BY IDOCK:   -5.57 KCAL/MOL
REMARK 922        TOTAL FREE ENERGY PREDICTED BY IDOCK:   -7.72 KCAL/MOL
REMARK 923 INTER-LIGAND FREE ENERGY PREDICTED BY IDOCK:   -7.55 KCAL/MOL
REMARK 924 INTRA-LIGAND FREE ENERGY PREDICTED BY IDOCK:   -0.17 KCAL/MOL
REMARK 927      BINDING AFFINITY PREDICTED BY RF-SCORE:    0.00 PKD
ROOT
HETATM    1  F   UNL     1     -10.027  13.818  64.425  1.00  0.00    -0.405 F  
HETATM    2  C   UNL     1     -10.368  13.217  65.572  1.00  0.00    -0.290 A  
HETATM    3  C   UNL     1      -9.374  12.834  66.464  1.00  0.00    -0.221 A  
HETATM    4  C   UNL     1      -9.726  12.174  67.644  1.00  0.00    -0.188 A  
HETATM    5  C   UNL     1     -11.075  11.894  67.941  1.00  0.00    -0.297 A  
HETATM    6  C   UNL     1     -12.062  12.333  67.039  1.00  0.00    -0.019 A  
HETATM    7  C   UNL     1     -11.708  12.982  65.855  1.00  0.00    -0.442 A  
ENDROOT
BRANCH   5   8
HETATM    8  C   UNL     1     -11.439  11.147  69.234  1.00  0.00    -0.294 C  
BRANCH   8   9
HETATM    9  N   UNL     1     -10.279  10.388  69.796  1.00  0.00    -0.219 NA 
HETATM   10  C   UNL     1      -9.715   9.418  68.818  1.00  0.00    -0.156 C  
HETATM   11  C   UNL     1     -10.636   9.610  71.008  1.00  0.00    -0.292 C  
HETATM   12  C   UNL     1     -10.570   8.147  68.572  1.00  0.00    -0.100 C  
HETATM   13  N   UNL     1     -11.008   7.423  69.789  1.00  0.00    -0.232 NA 
HETATM   14  C   UNL     1     -11.560   8.397  70.751  1.00  0.00    -0.232 C  
BRANCH  13  15
HETATM   15  C   UNL     1      -9.937   6.640  70.430  1.00  0.00    -0.175 C  
BRANCH  15  16
HETATM   16  C   UNL     1      -9.699   5.343  69.727  1.00  0.00    -0.248 C  
HETATM   17  C   UNL     1      -8.558   5.050  69.085  1.00  0.00    -0.098 C  
BRANCH  17  18
HETATM   18  C   UNL     1      -8.495   3.854  68.253  1.00  0.00    -0.107 A  
HETATM   19  C   UNL     1      -9.213   2.723  68.658  1.00  0.00    -0.238 A  
HETATM   20  C   UNL     1      -9.094   1.529  67.950  1.00  0.00    -0.184 A  
HETATM   21  C   UNL     1      -8.262   1.467  66.833  1.00  0.00    -0.077 A  
HETATM   22  C   UNL     1      -7.557   2.598  66.419  1.00  0.00    -0.072 A  
HETATM   23  C   UNL     1      -7.673   3.794  67.128  1.00  0.00    -0.080 A  
ENDBRANCH  17  18
ENDBRANCH  15  16
ENDBRANCH  13  15
ENDBRANCH   8   9
BRANCH   8  24
HETATM   24  C   UNL     1     -12.118  12.096  70.246  1.00  0.00    -0.385 A  
HETATM   25  C   UNL     1     -13.533  12.381  72.218  1.00  0.00    -0.428 A  
HETATM   26  F   UNL     1     -13.710  14.507  73.225  1.00  0.00    -0.436 F  
HETATM   27  C   UNL     1     -12.986  11.566  71.222  1.00  0.00    -0.397 A  
HETATM   28  C   UNL     1     -12.408  14.292  71.273  1.00  0.00    -0.439 A  
HETATM   29  C   UNL     1     -11.872  13.484  70.263  1.00  0.00    -0.327 A  
HETATM   30  C   UNL     1     -13.225  13.734  72.245  1.00  0.00    -0.467 A  
ENDBRANCH   8  24
ENDBRANCH   5   8
TORSDOF 6
ENDMDL
MODEL       60
REMARK 921   NORMALIZED FREE ENERGY PREDICTED BY IDOCK:   -5.57 KCAL/MOL
REMARK 922        TOTAL FREE ENERGY PREDICTED BY IDOCK:   -7.71 KCAL/MOL
REMARK 923 INTER-LIGAND FREE ENERGY PREDICTED BY IDOCK:   -8.13 KCAL/MOL
REMARK 924 INTRA-LIGAND FREE ENERGY PREDICTED BY IDOCK:    0.42 KCAL/MOL
REMARK 927      BINDING AFFINITY PREDICTED BY RF-SCORE:    0.00 PKD
ROOT
HETATM    1  F   UNL     1      -5.834  15.423  68.880  1.00  0.00    -0.095 F  
HETATM    2  C   UNL     1      -6.544  14.405  68.376  1.00  0.00    -0.104 A  
HETATM    3  C   UNL     1      -7.929  14.419  68.483  1.00  0.00    -0.144 A  
HETATM    4  C   UNL     1      -8.668  13.341  67.991  1.00  0.00    -0.186 A  
HETATM    5  C   UNL     1      -8.026  12.241  67.385  1.00  0.00    -0.171 A  
HETATM    6  C   UNL     1      -6.626  12.276  67.252  1.00  0.00    -0.146 A  
HETATM    7  C   UNL     1      -5.888  13.349  67.755  1.00  0.00    -0.128 A  
ENDROOT
BRANCH   5   8
HETATM    8  C   UNL     1      -8.856  11.055  66.870  1.00  0.00    -0.149 C  
BRANCH   8   9
HETATM    9  N   UNL     1      -9.489  10.280  67.982  1.00  0.00    -0.145 NA 
HETATM   10  C   UNL     1      -8.482   9.583  68.827  1.00  0.00    -0.122 C  
HETATM   11  C   UNL     1     -10.428   9.239  67.495  1.00  0.00    -0.274 C  
HETATM   12  C   UNL     1      -7.824   8.334  68.184  1.00  0.00    -0.118 C  
HETATM   13  N   UNL     1      -8.760   7.338  67.610  1.00  0.00    -0.125 NA 
HETATM   14  C   UNL     1      -9.756   8.044  66.780  1.00  0.00    -0.237 C  
BRANCH  13  15
HETATM   15  C   UNL     1      -9.446   6.518  68.624  1.00  0.00    -0.123 C  
BRANCH  15  16
HETATM   16  C   UNL     1     -10.388   7.330  69.452  1.00  0.00    -0.212 C  
HETATM   17  C   UNL     1     -11.076   6.830  70.490  1.00  0.00    -0.346 C  
BRANCH  17  18
HETATM   18  C   UNL     1     -12.126   7.635  71.103  1.00  0.00    -0.322 A  
HETATM   19  C   UNL     1     -13.342   7.015  71.417  1.00  0.00    -0.335 A  
HETATM   20  C   UNL     1     -14.406   7.771  71.904  1.00  0.00    -0.545 A  
HETATM   21  C   UNL     1     -14.254   9.145  72.081  1.00  0.00    -0.353 A  
HETATM   22  C   UNL     1     -13.039   9.762  71.782  1.00  0.00    -0.528 A  
HETATM   23  C   UNL     1     -11.972   9.008  71.293  1.00  0.00    -0.374 A  
ENDBRANCH  17  18
ENDBRANCH  15  16
ENDBRANCH  13  15
ENDBRANCH   8   9
BRANCH   8  24
HETATM   24  C   UNL     1      -9.848  11.509  65.777  1.00  0.00    -0.266 A  
HETATM   25  C   UNL     1     -11.818  12.816  65.155  1.00  0.00    -0.428 A  
HETATM   26  F   UNL     1     -12.371  13.072  62.876  1.00  0.00    -0.549 F  
HETATM   27  C   UNL     1     -10.960  12.299  66.132  1.00  0.00    -0.328 A  
HETATM   28  C   UNL     1     -10.518  11.730  63.439  1.00  0.00    -0.485 A  
HETATM   29  C   UNL     1      -9.666  11.197  64.414  1.00  0.00    -0.312 A  
HETATM   30  C   UNL     1     -11.579  12.540  63.816  1.00  0.00    -0.475 A  
ENDBRANCH   8  24
ENDBRANCH   5   8
TORSDOF 6
ENDMDL
MODEL       61
REMARK 921   NORMALIZED FREE ENERGY PREDICTED BY IDOCK:   -5.55 KCAL/MOL
REMARK 922        TOTAL FREE ENERGY PREDICTED BY IDOCK:   -7.70 KCAL/MOL
REMARK 923 INTER-LIGAND FREE ENERGY PREDICTED BY IDOCK:   -8.29 KCAL/MOL
REMARK 924 INTRA-LIGAND FREE ENERGY PREDICTED BY IDOCK:    0.59 KCAL/MOL
REMARK 927      BINDING AFFINITY PREDICTED BY RF-SCORE:    0.00 PKD
ROOT
HETATM    1  F   UNL     1      -9.492   6.573  68.384  1.00  0.00    -0.124 F  
HETATM    2  C   UNL     1      -9.686   7.896  68.475  1.00  0.00    -0.161 A  
HETATM    3  C   UNL     1      -9.140   8.596  69.543  1.00  0.00    -0.146 A  
HETATM    4  C   UNL     1      -9.374   9.968  69.659  1.00  0.00    -0.242 A  
HETATM    5  C   UNL     1     -10.154  10.651  68.703  1.00  0.00    -0.194 A  
HETATM    6  C   UNL     1     -10.657   9.924  67.609  1.00  0.00    -0.325 A  
HETATM    7  C   UNL     1     -10.433   8.550  67.502  1.00  0.00    -0.328 A  
ENDROOT
BRANCH   5   8
HETATM    8  C   UNL     1     -10.417  12.157  68.860  1.00  0.00    -0.113 C  
BRANCH   8   9
HETATM    9  N   UNL     1     -10.630  12.835  67.543  1.00  0.00    -0.227 NA 
HETATM   10  C   UNL     1      -9.363  12.986  66.777  1.00  0.00    -0.244 C  
HETATM   11  C   UNL     1     -11.205  14.196  67.685  1.00  0.00    -0.297 C  
HETATM   12  C   UNL     1      -8.391  14.073  67.305  1.00  0.00    -0.194 C  
HETATM   13  N   UNL     1      -8.989  15.410  67.538  1.00  0.00    -0.180 NA 
HETATM   14  C   UNL     1     -10.246  15.244  68.294  1.00  0.00    -0.226 C  
BRANCH  13  15
HETATM   15  C   UNL     1      -9.245  16.167  66.301  1.00  0.00    -0.331 C  
BRANCH  15  16
HETATM   16  C   UNL     1      -8.274  17.289  66.123  1.00  0.00    -0.258 C  
HETATM   17  C   UNL     1      -7.776  18.003  67.144  1.00  0.00    -0.233 C  
BRANCH  17  18
HETATM   18  C   UNL     1      -7.005  19.208  66.861  1.00  0.00    -0.209 A  
HETATM   19  C   UNL     1      -6.514  19.394  65.564  1.00  0.00    -0.288 A  
HETATM   20  C   UNL     1      -5.684  20.477  65.279  1.00  0.00    -0.240 A  
HETATM   21  C   UNL     1      -5.348  21.375  66.291  1.00  0.00    -0.277 A  
HETATM   22  C   UNL     1      -5.848  21.198  67.582  1.00  0.00    -0.405 A  
HETATM   23  C   UNL     1      -6.678  20.114  67.870  1.00  0.00    -0.313 A  
ENDBRANCH  17  18
ENDBRANCH  15  16
ENDBRANCH  13  15
ENDBRANCH   8   9
BRANCH   8  24
HETATM   24  C   UNL     1     -11.540  12.417  69.889  1.00  0.00    -0.260 A  
HETATM   25  C   UNL     1     -13.129  11.526  71.518  1.00  0.00    -0.429 A  
HETATM   26  F   UNL     1     -14.314  13.010  72.917  1.00  0.00    -0.386 F  
HETATM   27  C   UNL     1     -12.184  11.326  70.506  1.00  0.00    -0.474 A  
HETATM   28  C   UNL     1     -12.859  13.912  71.298  1.00  0.00    -0.435 A  
HETATM   29  C   UNL     1     -11.926  13.718  70.272  1.00  0.00    -0.397 A  
HETATM   30  C   UNL     1     -13.445  12.817  71.916  1.00  0.00    -0.358 A  
ENDBRANCH   8  24
ENDBRANCH   5   8
TORSDOF 6
ENDMDL
MODEL       62
REMARK 921   NORMALIZED FREE ENERGY PREDICTED BY IDOCK:   -5.55 KCAL/MOL
REMARK 922        TOTAL FREE ENERGY PREDICTED BY IDOCK:   -7.69 KCAL/MOL
REMARK 923 INTER-LIGAND FREE ENERGY PREDICTED BY IDOCK:   -6.89 KCAL/MOL
REMARK 924 INTRA-LIGAND FREE ENERGY PREDICTED BY IDOCK:   -0.80 KCAL/MOL
REMARK 927      BINDING AFFINITY PREDICTED BY RF-SCORE:    0.00 PKD
ROOT
HETATM    1  F   UNL     1      -9.335   8.528  73.304  1.00  0.00    -0.299 F  
HETATM    2  C   UNL     1      -9.527   8.602  71.981  1.00  0.00    -0.300 A  
HETATM    3  C   UNL     1      -8.529   8.163  71.119  1.00  0.00    -0.146 A  
HETATM    4  C   UNL     1      -8.713   8.275  69.739  1.00  0.00    -0.134 A  
HETATM    5  C   UNL     1      -9.899   8.824  69.210  1.00  0.00    -0.180 A  
HETATM    6  C   UNL     1     -10.909   9.219  70.106  1.00  0.00    -0.275 A  
HETATM    7  C   UNL     1     -10.719   9.119  71.486  1.00  0.00    -0.437 A  
ENDROOT
BRANCH   5   8
HETATM    8  C   UNL     1     -10.073   8.958  67.689  1.00  0.00    -0.218 C  
BRANCH   8   9
HETATM    9  N   UNL     1      -9.205  10.031  67.111  1.00  0.00    -0.141 NA 
HETATM   10  C   UNL     1      -9.211  11.267  67.941  1.00  0.00    -0.157 C  
HETATM   11  C   UNL     1      -9.624  10.435  65.746  1.00  0.00    -0.216 C  
HETATM   12  C   UNL     1     -10.505  12.117  67.860  1.00  0.00    -0.208 C  
HETATM   13  N   UNL     1     -10.977  12.440  66.493  1.00  0.00    -0.261 NA 
HETATM   14  C   UNL     1     -10.962  11.207  65.680  1.00  0.00    -0.079 C  
BRANCH  13  15
HETATM   15  C   UNL     1     -10.186  13.488  65.825  1.00  0.00    -0.297 C  
BRANCH  15  16
HETATM   16  C   UNL     1      -9.412  14.309  66.804  1.00  0.00    -0.287 C  
HETATM   17  C   UNL     1      -8.821  15.471  66.487  1.00  0.00    -0.348 C  
BRANCH  17  18
HETATM   18  C   UNL     1      -7.913  16.093  67.444  1.00  0.00    -0.185 A  
HETATM   19  C   UNL     1      -7.556  15.370  68.589  1.00  0.00    -0.129 A  
HETATM   20  C   UNL     1      -6.778  15.968  69.579  1.00  0.00    -0.199 A  
HETATM   21  C   UNL     1      -6.353  17.286  69.422  1.00  0.00    -0.244 A  
HETATM   22  C   UNL     1      -6.696  18.003  68.275  1.00  0.00    -0.207 A  
HETATM   23  C   UNL     1      -7.476  17.408  67.283  1.00  0.00    -0.211 A  
ENDBRANCH  17  18
ENDBRANCH  15  16
ENDBRANCH  13  15
ENDBRANCH   8   9
BRANCH   8  24
HETATM   24  C   UNL     1      -9.923   7.587  66.994  1.00  0.00    -0.304 A  
HETATM   25  C   UNL     1      -8.549   6.048  65.684  1.00  0.00    -0.154 A  
HETATM   26  F   UNL     1      -9.263   3.820  65.384  1.00  0.00    -0.127 F  
HETATM   27  C   UNL     1      -8.765   7.314  66.238  1.00  0.00    -0.162 A  
HETATM   28  C   UNL     1     -10.659   5.297  66.576  1.00  0.00    -0.348 A  
HETATM   29  C   UNL     1     -10.889   6.568  67.118  1.00  0.00    -0.472 A  
HETATM   30  C   UNL     1      -9.490   5.046  65.873  1.00  0.00    -0.162 A  
ENDBRANCH   8  24
ENDBRANCH   5   8
TORSDOF 6
ENDMDL
MODEL       63
REMARK 921   NORMALIZED FREE ENERGY PREDICTED BY IDOCK:   -5.55 KCAL/MOL
REMARK 922        TOTAL FREE ENERGY PREDICTED BY IDOCK:   -7.69 KCAL/MOL
REMARK 923 INTER-LIGAND FREE ENERGY PREDICTED BY IDOCK:   -8.15 KCAL/MOL
REMARK 924 INTRA-LIGAND FREE ENERGY PREDICTED BY IDOCK:    0.46 KCAL/MOL
REMARK 927      BINDING AFFINITY PREDICTED BY RF-SCORE:    0.00 PKD
ROOT
HETATM    1  F   UNL     1      -8.885   7.893  69.661  1.00  0.00    -0.134 F  
HETATM    2  C   UNL     1      -9.332   9.095  69.273  1.00  0.00    -0.157 A  
HETATM    3  C   UNL     1      -8.422  10.110  69.008  1.00  0.00    -0.151 A  
HETATM    4  C   UNL     1      -8.889  11.374  68.640  1.00  0.00    -0.126 A  
HETATM    5  C   UNL     1     -10.271  11.631  68.532  1.00  0.00    -0.216 A  
HETATM    6  C   UNL     1     -11.167  10.571  68.764  1.00  0.00    -0.317 A  
HETATM    7  C   UNL     1     -10.699   9.311  69.144  1.00  0.00    -0.202 A  
ENDROOT
BRANCH   5   8
HETATM    8  C   UNL     1     -10.765  13.034  68.147  1.00  0.00    -0.242 C  
BRANCH   8   9
HETATM    9  N   UNL     1      -9.801  14.105  68.549  1.00  0.00    -0.230 NA 
HETATM   10  C   UNL     1     -10.326  14.948  69.658  1.00  0.00    -0.128 C  
HETATM   11  C   UNL     1      -9.469  15.027  67.435  1.00  0.00    -0.201 C  
HETATM   12  C   UNL     1     -11.443  15.949  69.260  1.00  0.00    -0.374 C  
HETATM   13  N   UNL     1     -11.149  16.805  68.086  1.00  0.00    -0.326 NA 
HETATM   14  C   UNL     1     -10.625  15.957  66.998  1.00  0.00    -0.306 C  
BRANCH  13  15
HETATM   15  C   UNL     1     -10.202  17.896  68.371  1.00  0.00    -0.394 C  
BRANCH  15  16
HETATM   16  C   UNL     1      -9.261  18.127  67.233  1.00  0.00    -0.252 C  
HETATM   17  C   UNL     1      -8.039  18.661  67.383  1.00  0.00    -0.258 C  
BRANCH  17  18
HETATM   18  C   UNL     1      -7.279  19.044  66.199  1.00  0.00    -0.283 A  
HETATM   19  C   UNL     1      -6.342  18.138  65.688  1.00  0.00    -0.288 A  
HETATM   20  C   UNL     1      -5.520  18.508  64.625  1.00  0.00    -0.174 A  
HETATM   21  C   UNL     1      -5.639  19.781  64.070  1.00  0.00    -0.297 A  
HETATM   22  C   UNL     1      -6.582  20.680  64.569  1.00  0.00    -0.257 A  
HETATM   23  C   UNL     1      -7.405  20.313  65.634  1.00  0.00    -0.228 A  
ENDBRANCH  17  18
ENDBRANCH  15  16
ENDBRANCH  13  15
ENDBRANCH   8   9
BRANCH   8  24
HETATM   24  C   UNL     1     -11.175  13.085  66.658  1.00  0.00    -0.341 A  
HETATM   25  C   UNL     1     -12.756  13.833  64.951  1.00  0.00    -0.314 A  
HETATM   26  F   UNL     1     -12.205  13.590  62.670  1.00  0.00    -0.330 F  
HETATM   27  C   UNL     1     -12.403  13.674  66.295  1.00  0.00    -0.464 A  
HETATM   28  C   UNL     1     -10.695  12.774  64.285  1.00  0.00    -0.419 A  
HETATM   29  C   UNL     1     -10.344  12.597  65.629  1.00  0.00    -0.293 A  
HETATM   30  C   UNL     1     -11.890  13.397  63.958  1.00  0.00    -0.445 A  
ENDBRANCH   8  24
ENDBRANCH   5   8
TORSDOF 6
ENDMDL
MODEL       64
REMARK 921   NORMALIZED FREE ENERGY PREDICTED BY IDOCK:   -5.53 KCAL/MOL
REMARK 922        TOTAL FREE ENERGY PREDICTED BY IDOCK:   -7.66 KCAL/MOL
REMARK 923 INTER-LIGAND FREE ENERGY PREDICTED BY IDOCK:   -7.35 KCAL/MOL
REMARK 924 INTRA-LIGAND FREE ENERGY PREDICTED BY IDOCK:   -0.30 KCAL/MOL
REMARK 927      BINDING AFFINITY PREDICTED BY RF-SCORE:    0.00 PKD
ROOT
HETATM    1  F   UNL     1     -10.345  19.225  68.494  1.00  0.00    -0.431 F  
HETATM    2  C   UNL     1     -10.185  17.953  68.106  1.00  0.00    -0.382 A  
HETATM    3  C   UNL     1     -10.536  16.925  68.972  1.00  0.00    -0.341 A  
HETATM    4  C   UNL     1     -10.334  15.598  68.583  1.00  0.00    -0.216 A  
HETATM    5  C   UNL     1      -9.783  15.291  67.322  1.00  0.00    -0.212 A  
HETATM    6  C   UNL     1      -9.479  16.352  66.449  1.00  0.00    -0.320 A  
HETATM    7  C   UNL     1      -9.669  17.678  66.845  1.00  0.00    -0.292 A  
ENDROOT
BRANCH   5   8
HETATM    8  C   UNL     1      -9.550  13.826  66.921  1.00  0.00    -0.262 C  
BRANCH   8   9
HETATM    9  N   UNL     1      -9.528  12.911  68.105  1.00  0.00    -0.216 NA 
HETATM   10  C   UNL     1      -8.143  12.623  68.568  1.00  0.00    -0.082 C  
HETATM   11  C   UNL     1     -10.165  11.599  67.828  1.00  0.00    -0.186 C  
HETATM   12  C   UNL     1      -7.328  11.657  67.668  1.00  0.00    -0.108 C  
HETATM   13  N   UNL     1      -8.004  10.387  67.312  1.00  0.00    -0.110 NA 
HETATM   14  C   UNL     1      -9.376  10.688  66.860  1.00  0.00    -0.159 C  
BRANCH  13  15
HETATM   15  C   UNL     1      -8.043   9.409  68.413  1.00  0.00    -0.109 C  
BRANCH  15  16
HETATM   16  C   UNL     1      -8.026   8.002  67.909  1.00  0.00    -0.128 C  
HETATM   17  C   UNL     1      -9.132   7.259  67.756  1.00  0.00    -0.124 C  
BRANCH  17  18
HETATM   18  C   UNL     1      -9.001   5.837  67.464  1.00  0.00    -0.107 A  
HETATM   19  C   UNL     1      -9.016   5.428  66.124  1.00  0.00    -0.142 A  
HETATM   20  C   UNL     1      -9.002   4.072  65.807  1.00  0.00    -0.131 A  
HETATM   21  C   UNL     1      -8.967   3.124  66.828  1.00  0.00    -0.172 A  
HETATM   22  C   UNL     1      -8.938   3.529  68.164  1.00  0.00    -0.176 A  
HETATM   23  C   UNL     1      -8.954   4.887  68.484  1.00  0.00    -0.131 A  
ENDBRANCH  17  18
ENDBRANCH  15  16
ENDBRANCH  13  15
ENDBRANCH   8   9
BRANCH   8  24
HETATM   24  C   UNL     1     -10.534  13.394  65.812  1.00  0.00    -0.291 A  
HETATM   25  C   UNL     1     -10.897  12.359  63.627  1.00  0.00    -0.509 A  
HETATM   26  F   UNL     1     -13.095  11.879  62.919  1.00  0.00    -0.552 F  
HETATM   27  C   UNL     1     -10.033  12.858  64.608  1.00  0.00    -0.153 A  
HETATM   28  C   UNL     1     -12.792  12.959  64.992  1.00  0.00    -0.348 A  
HETATM   29  C   UNL     1     -11.932  13.476  65.969  1.00  0.00    -0.449 A  
HETATM   30  C   UNL     1     -12.268  12.399  63.836  1.00  0.00    -0.513 A  
ENDBRANCH   8  24
ENDBRANCH   5   8
TORSDOF 6
ENDMDL
MODEL       65
REMARK 921   NORMALIZED FREE ENERGY PREDICTED BY IDOCK:   -5.48 KCAL/MOL
REMARK 922        TOTAL FREE ENERGY PREDICTED BY IDOCK:   -7.59 KCAL/MOL
REMARK 923 INTER-LIGAND FREE ENERGY PREDICTED BY IDOCK:   -6.90 KCAL/MOL
REMARK 924 INTRA-LIGAND FREE ENERGY PREDICTED BY IDOCK:   -0.70 KCAL/MOL
REMARK 927      BINDING AFFINITY PREDICTED BY RF-SCORE:    0.00 PKD
ROOT
HETATM    1  F   UNL     1     -11.395  16.422  67.291  1.00  0.00    -0.167 F  
HETATM    2  C   UNL     1     -11.250  15.108  67.505  1.00  0.00    -0.330 A  
HETATM    3  C   UNL     1     -10.393  14.668  68.505  1.00  0.00    -0.238 A  
HETATM    4  C   UNL     1     -10.213  13.298  68.704  1.00  0.00    -0.178 A  
HETATM    5  C   UNL     1     -10.893  12.356  67.905  1.00  0.00    -0.253 A  
HETATM    6  C   UNL     1     -11.788  12.831  66.929  1.00  0.00    -0.440 A  
HETATM    7  C   UNL     1     -11.957  14.201  66.723  1.00  0.00    -0.475 A  
ENDROOT
BRANCH   5   8
HETATM    8  C   UNL     1     -10.665  10.852  68.126  1.00  0.00    -0.214 C  
BRANCH   8   9
HETATM    9  N   UNL     1      -9.247  10.449  67.867  1.00  0.00    -0.138 NA 
HETATM   10  C   UNL     1      -8.712  11.048  66.614  1.00  0.00    -0.160 C  
HETATM   11  C   UNL     1      -9.082   8.980  67.740  1.00  0.00    -0.134 C  
HETATM   12  C   UNL     1      -9.246  10.425  65.298  1.00  0.00    -0.199 C  
HETATM   13  N   UNL     1      -9.169   8.947  65.210  1.00  0.00    -0.150 NA 
HETATM   14  C   UNL     1      -9.698   8.368  66.461  1.00  0.00    -0.260 C  
BRANCH  13  15
HETATM   15  C   UNL     1      -7.810   8.439  64.959  1.00  0.00    -0.118 C  
BRANCH  15  16
HETATM   16  C   UNL     1      -7.765   6.945  64.962  1.00  0.00    -0.112 C  
HETATM   17  C   UNL     1      -8.039   6.196  63.883  1.00  0.00    -0.068 C  
BRANCH  17  18
HETATM   18  C   UNL     1      -8.178   4.753  64.034  1.00  0.00    -0.119 A  
HETATM   19  C   UNL     1      -9.458   4.194  63.944  1.00  0.00    -0.149 A  
HETATM   20  C   UNL     1      -9.647   2.835  64.188  1.00  0.00    -0.144 A  
HETATM   21  C   UNL     1      -8.555   2.034  64.518  1.00  0.00    -0.095 A  
HETATM   22  C   UNL     1      -7.276   2.587  64.595  1.00  0.00    -0.054 A  
HETATM   23  C   UNL     1      -7.084   3.948  64.352  1.00  0.00    -0.054 A  
ENDBRANCH  17  18
ENDBRANCH  15  16
ENDBRANCH  13  15
ENDBRANCH   8   9
BRANCH   8  24
HETATM   24  C   UNL     1     -11.200  10.410  69.506  1.00  0.00    -0.325 A  
HETATM   25  C   UNL     1     -13.054  10.317  71.096  1.00  0.00    -0.481 A  
HETATM   26  F   UNL     1     -12.860   8.981  73.031  1.00  0.00    -0.404 F  
HETATM   27  C   UNL     1     -12.499  10.788  69.902  1.00  0.00    -0.277 A  
HETATM   28  C   UNL     1     -11.018   9.116  71.569  1.00  0.00    -0.434 A  
HETATM   29  C   UNL     1     -10.451   9.599  70.382  1.00  0.00    -0.352 A  
HETATM   30  C   UNL     1     -12.314   9.471  71.910  1.00  0.00    -0.373 A  
ENDBRANCH   8  24
ENDBRANCH   5   8
TORSDOF 6
ENDMDL
MODEL       66
REMARK 921   NORMALIZED FREE ENERGY PREDICTED BY IDOCK:   -5.47 KCAL/MOL
REMARK 922        TOTAL FREE ENERGY PREDICTED BY IDOCK:   -7.58 KCAL/MOL
REMARK 923 INTER-LIGAND FREE ENERGY PREDICTED BY IDOCK:   -7.43 KCAL/MOL
REMARK 924 INTRA-LIGAND FREE ENERGY PREDICTED BY IDOCK:   -0.15 KCAL/MOL
REMARK 927      BINDING AFFINITY PREDICTED BY RF-SCORE:    0.00 PKD
ROOT
HETATM    1  F   UNL     1      -9.806   9.383  71.901  1.00  0.00    -0.338 F  
HETATM    2  C   UNL     1      -9.863   9.463  70.565  1.00  0.00    -0.270 A  
HETATM    3  C   UNL     1      -8.683   9.497  69.832  1.00  0.00    -0.224 A  
HETATM    4  C   UNL     1      -8.741   9.618  68.442  1.00  0.00    -0.120 A  
HETATM    5  C   UNL     1      -9.980   9.704  67.774  1.00  0.00    -0.211 A  
HETATM    6  C   UNL     1     -11.157   9.623  68.540  1.00  0.00    -0.091 A  
HETATM    7  C   UNL     1     -11.098   9.514  69.930  1.00  0.00    -0.244 A  
ENDROOT
BRANCH   5   8
HETATM    8  C   UNL     1     -10.021   9.859  66.246  1.00  0.00    -0.256 C  
BRANCH   8   9
HETATM    9  N   UNL     1      -9.631  11.234  65.804  1.00  0.00    -0.219 NA 
HETATM   10  C   UNL     1     -10.227  12.291  66.666  1.00  0.00    -0.216 C  
HETATM   11  C   UNL     1     -10.054  11.532  64.413  1.00  0.00    -0.282 C  
HETATM   12  C   UNL     1     -11.745  12.537  66.464  1.00  0.00    -0.391 C  
HETATM   13  N   UNL     1     -12.182  12.739  65.062  1.00  0.00    -0.448 NA 
HETATM   14  C   UNL     1     -11.580  11.687  64.219  1.00  0.00    -0.223 C  
BRANCH  13  15
HETATM   15  C   UNL     1     -11.844  14.067  64.523  1.00  0.00    -0.434 C  
BRANCH  15  16
HETATM   16  C   UNL     1     -11.252  14.958  65.566  1.00  0.00    -0.348 C  
HETATM   17  C   UNL     1     -10.593  16.091  65.281  1.00  0.00    -0.424 C  
BRANCH  17  18
HETATM   18  C   UNL     1      -9.870  16.781  66.343  1.00  0.00    -0.312 A  
HETATM   19  C   UNL     1      -8.470  16.780  66.304  1.00  0.00    -0.342 A  
HETATM   20  C   UNL     1      -7.741  17.334  67.354  1.00  0.00    -0.194 A  
HETATM   21  C   UNL     1      -8.411  17.894  68.441  1.00  0.00    -0.300 A  
HETATM   22  C   UNL     1      -9.807  17.909  68.474  1.00  0.00    -0.367 A  
HETATM   23  C   UNL     1     -10.539  17.353  67.425  1.00  0.00    -0.308 A  
ENDBRANCH  17  18
ENDBRANCH  15  16
ENDBRANCH  13  15
ENDBRANCH   8   9
BRANCH   8  24
HETATM   24  C   UNL     1      -9.225   8.729  65.555  1.00  0.00    -0.202 A  
HETATM   25  C   UNL     1      -7.581   8.056  63.877  1.00  0.00    -0.128 A  
HETATM   26  F   UNL     1      -6.781   5.837  63.858  1.00  0.00    -0.034 F  
HETATM   27  C   UNL     1      -8.395   9.034  64.457  1.00  0.00    -0.182 A  
HETATM   28  C   UNL     1      -8.432   6.423  65.433  1.00  0.00    -0.126 A  
HETATM   29  C   UNL     1      -9.263   7.394  66.007  1.00  0.00    -0.092 A  
HETATM   30  C   UNL     1      -7.594   6.764  64.381  1.00  0.00    -0.104 A  
ENDBRANCH   8  24
ENDBRANCH   5   8
TORSDOF 6
ENDMDL
MODEL       67
REMARK 921   NORMALIZED FREE ENERGY PREDICTED BY IDOCK:   -5.47 KCAL/MOL
REMARK 922        TOTAL FREE ENERGY PREDICTED BY IDOCK:   -7.58 KCAL/MOL
REMARK 923 INTER-LIGAND FREE ENERGY PREDICTED BY IDOCK:   -7.11 KCAL/MOL
REMARK 924 INTRA-LIGAND FREE ENERGY PREDICTED BY IDOCK:   -0.47 KCAL/MOL
REMARK 927      BINDING AFFINITY PREDICTED BY RF-SCORE:    0.00 PKD
ROOT
HETATM    1  F   UNL     1     -11.203   5.854  69.818  1.00  0.00    -0.406 F  
HETATM    2  C   UNL     1     -10.922   6.983  69.153  1.00  0.00    -0.158 A  
HETATM    3  C   UNL     1     -10.802   8.176  69.854  1.00  0.00    -0.215 A  
HETATM    4  C   UNL     1     -10.547   9.360  69.158  1.00  0.00    -0.234 A  
HETATM    5  C   UNL     1     -10.407   9.358  67.755  1.00  0.00    -0.291 A  
HETATM    6  C   UNL     1     -10.490   8.127  67.078  1.00  0.00    -0.396 A  
HETATM    7  C   UNL     1     -10.757   6.946  67.773  1.00  0.00    -0.321 A  
ENDROOT
BRANCH   5   8
HETATM    8  C   UNL     1     -10.148  10.674  67.006  1.00  0.00    -0.211 C  
BRANCH   8   9
HETATM    9  N   UNL     1     -10.184  11.861  67.916  1.00  0.00    -0.189 NA 
HETATM   10  C   UNL     1     -11.572  12.344  68.156  1.00  0.00    -0.341 C  
HETATM   11  C   UNL     1      -9.419  13.016  67.384  1.00  0.00    -0.210 C  
HETATM   12  C   UNL     1     -12.230  13.095  66.969  1.00  0.00    -0.210 C  
HETATM   13  N   UNL     1     -11.424  14.188  66.375  1.00  0.00    -0.341 NA 
HETATM   14  C   UNL     1     -10.050  13.697  66.147  1.00  0.00    -0.306 C  
BRANCH  13  15
HETATM   15  C   UNL     1     -11.388  15.410  67.195  1.00  0.00    -0.203 C  
BRANCH  15  16
HETATM   16  C   UNL     1     -10.451  16.430  66.634  1.00  0.00    -0.274 C  
HETATM   17  C   UNL     1      -9.233  16.673  67.143  1.00  0.00    -0.233 C  
BRANCH  17  18
HETATM   18  C   UNL     1      -8.478  17.826  66.667  1.00  0.00    -0.283 A  
HETATM   19  C   UNL     1      -9.160  19.033  66.474  1.00  0.00    -0.348 A  
HETATM   20  C   UNL     1      -8.500  20.128  65.919  1.00  0.00    -0.095 A  
HETATM   21  C   UNL     1      -7.157  20.016  65.561  1.00  0.00    -0.336 A  
HETATM   22  C   UNL     1      -6.473  18.817  65.765  1.00  0.00    -0.287 A  
HETATM   23  C   UNL     1      -7.132  17.719  66.319  1.00  0.00    -0.329 A  
ENDBRANCH  17  18
ENDBRANCH  15  16
ENDBRANCH  13  15
ENDBRANCH   8   9
BRANCH   8  24
HETATM   24  C   UNL     1      -8.865  10.579  66.150  1.00  0.00    -0.172 A  
HETATM   25  C   UNL     1      -6.441  10.292  66.043  1.00  0.00    -0.107 A  
HETATM   26  F   UNL     1      -5.400   9.964  63.952  1.00  0.00    -0.064 F  
HETATM   27  C   UNL     1      -7.611  10.486  66.785  1.00  0.00    -0.115 A  
HETATM   28  C   UNL     1      -7.727  10.327  64.004  1.00  0.00    -0.100 A  
HETATM   29  C   UNL     1      -8.899  10.540  64.741  1.00  0.00    -0.211 A  
HETATM   30  C   UNL     1      -6.512  10.197  64.661  1.00  0.00    -0.125 A  
ENDBRANCH   8  24
ENDBRANCH   5   8
TORSDOF 6
ENDMDL
MODEL       68
REMARK 921   NORMALIZED FREE ENERGY PREDICTED BY IDOCK:   -5.45 KCAL/MOL
REMARK 922        TOTAL FREE ENERGY PREDICTED BY IDOCK:   -7.56 KCAL/MOL
REMARK 923 INTER-LIGAND FREE ENERGY PREDICTED BY IDOCK:   -6.51 KCAL/MOL
REMARK 924 INTRA-LIGAND FREE ENERGY PREDICTED BY IDOCK:   -1.05 KCAL/MOL
REMARK 927      BINDING AFFINITY PREDICTED BY RF-SCORE:    0.00 PKD
ROOT
HETATM    1  F   UNL     1      -9.272   3.677  64.862  1.00  0.00    -0.123 F  
HETATM    2  C   UNL     1      -9.419   4.749  65.652  1.00  0.00    -0.167 A  
HETATM    3  C   UNL     1      -8.336   5.590  65.872  1.00  0.00    -0.125 A  
HETATM    4  C   UNL     1      -8.478   6.687  66.726  1.00  0.00    -0.117 A  
HETATM    5  C   UNL     1      -9.708   6.951  67.364  1.00  0.00    -0.172 A  
HETATM    6  C   UNL     1     -10.798   6.106  67.087  1.00  0.00    -0.442 A  
HETATM    7  C   UNL     1     -10.651   5.004  66.243  1.00  0.00    -0.332 A  
ENDROOT
BRANCH   5   8
HETATM    8  C   UNL     1      -9.838   8.150  68.316  1.00  0.00    -0.171 C  
BRANCH   8   9
HETATM    9  N   UNL     1     -10.841   9.150  67.834  1.00  0.00    -0.150 NA 
HETATM   10  C   UNL     1     -10.526   9.651  66.468  1.00  0.00    -0.143 C  
HETATM   11  C   UNL     1     -10.931  10.342  68.713  1.00  0.00    -0.245 C  
HETATM   12  C   UNL     1      -9.334  10.640  66.381  1.00  0.00    -0.169 C  
HETATM   13  N   UNL     1      -9.376  11.781  67.327  1.00  0.00    -0.169 NA 
HETATM   14  C   UNL     1      -9.695  11.270  68.675  1.00  0.00    -0.195 C  
BRANCH  13  15
HETATM   15  C   UNL     1     -10.340  12.828  66.948  1.00  0.00    -0.238 C  
BRANCH  15  16
HETATM   16  C   UNL     1      -9.662  14.124  66.640  1.00  0.00    -0.297 C  
HETATM   17  C   UNL     1      -8.500  14.499  67.196  1.00  0.00    -0.234 C  
BRANCH  17  18
HETATM   18  C   UNL     1      -8.024  15.863  66.999  1.00  0.00    -0.270 A  
HETATM   19  C   UNL     1      -8.963  16.859  66.705  1.00  0.00    -0.279 A  
HETATM   20  C   UNL     1      -8.539  18.153  66.405  1.00  0.00    -0.251 A  
HETATM   21  C   UNL     1      -7.177  18.451  66.403  1.00  0.00    -0.276 A  
HETATM   22  C   UNL     1      -6.241  17.462  66.710  1.00  0.00    -0.227 A  
HETATM   23  C   UNL     1      -6.663  16.166  67.009  1.00  0.00    -0.183 A  
ENDBRANCH  17  18
ENDBRANCH  15  16
ENDBRANCH  13  15
ENDBRANCH   8   9
BRANCH   8  24
HETATM   24  C   UNL     1     -10.068   7.679  69.769  1.00  0.00    -0.196 A  
HETATM   25  C   UNL     1     -11.566   6.708  71.437  1.00  0.00    -0.362 A  
HETATM   26  F   UNL     1     -10.707   6.066  73.538  1.00  0.00    -0.232 F  
HETATM   27  C   UNL     1     -11.348   7.240  70.162  1.00  0.00    -0.236 A  
HETATM   28  C   UNL     1      -9.250   7.082  71.990  1.00  0.00    -0.148 A  
HETATM   29  C   UNL     1      -9.030   7.632  70.721  1.00  0.00    -0.149 A  
HETATM   30  C   UNL     1     -10.511   6.618  72.333  1.00  0.00    -0.207 A  
ENDBRANCH   8  24
ENDBRANCH   5   8
TORSDOF 6
ENDMDL
MODEL       69
REMARK 921   NORMALIZED FREE ENERGY PREDICTED BY IDOCK:   -5.45 KCAL/MOL
REMARK 922        TOTAL FREE ENERGY PREDICTED BY IDOCK:   -7.55 KCAL/MOL
REMARK 923 INTER-LIGAND FREE ENERGY PREDICTED BY IDOCK:   -6.76 KCAL/MOL
REMARK 924 INTRA-LIGAND FREE ENERGY PREDICTED BY IDOCK:   -0.79 KCAL/MOL
REMARK 927      BINDING AFFINITY PREDICTED BY RF-SCORE:    0.00 PKD
ROOT
HETATM    1  F   UNL     1     -13.272  10.301  72.514  1.00  0.00    -0.453 F  
HETATM    2  C   UNL     1     -12.401  10.036  71.531  1.00  0.00    -0.419 A  
HETATM    3  C   UNL     1     -12.488  10.736  70.334  1.00  0.00    -0.430 A  
HETATM    4  C   UNL     1     -11.605  10.434  69.295  1.00  0.00    -0.246 A  
HETATM    5  C   UNL     1     -10.625   9.432  69.447  1.00  0.00    -0.235 A  
HETATM    6  C   UNL     1     -10.533   8.771  70.686  1.00  0.00    -0.253 A  
HETATM    7  C   UNL     1     -11.425   9.065  71.719  1.00  0.00    -0.442 A  
ENDROOT
BRANCH   5   8
HETATM    8  C   UNL     1      -9.676   9.101  68.285  1.00  0.00    -0.154 C  
BRANCH   8   9
HETATM    9  N   UNL     1      -8.293   9.625  68.514  1.00  0.00    -0.116 NA 
HETATM   10  C   UNL     1      -8.298  10.924  69.242  1.00  0.00    -0.012 C  
HETATM   11  C   UNL     1      -7.547   9.849  67.251  1.00  0.00    -0.088 C  
HETATM   12  C   UNL     1      -8.744  12.153  68.408  1.00  0.00    -0.141 C  
HETATM   13  N   UNL     1      -8.065  12.322  67.101  1.00  0.00    -0.179 NA 
HETATM   14  C   UNL     1      -8.064  11.026  66.393  1.00  0.00    -0.166 C  
BRANCH  13  15
HETATM   15  C   UNL     1      -6.688  12.833  67.211  1.00  0.00    -0.082 C  
BRANCH  15  16
HETATM   16  C   UNL     1      -6.640  14.165  67.885  1.00  0.00    -0.174 C  
HETATM   17  C   UNL     1      -7.241  15.261  67.397  1.00  0.00    -0.235 C  
BRANCH  17  18
HETATM   18  C   UNL     1      -6.963  16.557  68.006  1.00  0.00    -0.153 A  
HETATM   19  C   UNL     1      -8.012  17.478  68.117  1.00  0.00    -0.250 A  
HETATM   20  C   UNL     1      -7.766  18.764  68.594  1.00  0.00    -0.358 A  
HETATM   21  C   UNL     1      -6.472  19.127  68.965  1.00  0.00    -0.314 A  
HETATM   22  C   UNL     1      -5.428  18.206  68.868  1.00  0.00    -0.192 A  
HETATM   23  C   UNL     1      -5.672  16.918  68.389  1.00  0.00    -0.130 A  
ENDBRANCH  17  18
ENDBRANCH  15  16
ENDBRANCH  13  15
ENDBRANCH   8   9
BRANCH   8  24
HETATM   24  C   UNL     1      -9.727   7.596  67.941  1.00  0.00    -0.174 A  
HETATM   25  C   UNL     1     -10.828   5.757  66.767  1.00  0.00    -0.327 A  
HETATM   26  F   UNL     1      -9.779   3.647  66.668  1.00  0.00    -0.210 F  
HETATM   27  C   UNL     1     -10.805   7.092  67.185  1.00  0.00    -0.427 A  
HETATM   28  C   UNL     1      -8.729   5.368  67.887  1.00  0.00    -0.106 A  
HETATM   29  C   UNL     1      -8.709   6.699  68.323  1.00  0.00    -0.118 A  
HETATM   30  C   UNL     1      -9.782   4.912  67.107  1.00  0.00    -0.175 A  
ENDBRANCH   8  24
ENDBRANCH   5   8
TORSDOF 6
ENDMDL
MODEL       70
REMARK 921   NORMALIZED FREE ENERGY PREDICTED BY IDOCK:   -5.43 KCAL/MOL
REMARK 922        TOTAL FREE ENERGY PREDICTED BY IDOCK:   -7.52 KCAL/MOL
REMARK 923 INTER-LIGAND FREE ENERGY PREDICTED BY IDOCK:   -6.95 KCAL/MOL
REMARK 924 INTRA-LIGAND FREE ENERGY PREDICTED BY IDOCK:   -0.57 KCAL/MOL
REMARK 927      BINDING AFFINITY PREDICTED BY RF-SCORE:    0.00 PKD
ROOT
HETATM    1  F   UNL     1     -12.781  12.780  63.022  1.00  0.00    -0.431 F  
HETATM    2  C   UNL     1     -11.863  12.342  63.894  1.00  0.00    -0.466 A  
HETATM    3  C   UNL     1     -12.086  12.497  65.257  1.00  0.00    -0.500 A  
HETATM    4  C   UNL     1     -11.113  12.075  66.166  1.00  0.00    -0.367 A  
HETATM    5  C   UNL     1      -9.911  11.491  65.718  1.00  0.00    -0.266 A  
HETATM    6  C   UNL     1      -9.733  11.307  64.334  1.00  0.00    -0.293 A  
HETATM    7  C   UNL     1     -10.701  11.741  63.426  1.00  0.00    -0.468 A  
ENDROOT
BRANCH   5   8
HETATM    8  C   UNL     1      -8.844  11.053  66.733  1.00  0.00    -0.156 C  
BRANCH   8   9
HETATM    9  N   UNL     1      -8.975  11.771  68.040  1.00  0.00    -0.169 NA 
HETATM   10  C   UNL     1      -9.064  13.246  67.865  1.00  0.00    -0.203 C  
HETATM   11  C   UNL     1      -7.831  11.519  68.951  1.00  0.00    -0.071 C  
HETATM   12  C   UNL     1      -7.737  13.952  67.484  1.00  0.00    -0.179 C  
HETATM   13  N   UNL     1      -6.569  13.626  68.338  1.00  0.00    -0.085 NA 
HETATM   14  C   UNL     1      -6.497  12.162  68.507  1.00  0.00    -0.059 C  
BRANCH  13  15
HETATM   15  C   UNL     1      -6.599  14.281  69.657  1.00  0.00    -0.137 C  
BRANCH  15  16
HETATM   16  C   UNL     1      -6.592  15.770  69.540  1.00  0.00    -0.183 C  
HETATM   17  C   UNL     1      -5.574  16.465  69.010  1.00  0.00    -0.124 C  
BRANCH  17  18
HETATM   18  C   UNL     1      -5.562  17.918  69.131  1.00  0.00    -0.197 A  
HETATM   19  C   UNL     1      -5.488  18.478  70.412  1.00  0.00    -0.239 A  
HETATM   20  C   UNL     1      -5.582  19.858  70.578  1.00  0.00    -0.307 A  
HETATM   21  C   UNL     1      -5.746  20.678  69.464  1.00  0.00    -0.399 A  
HETATM   22  C   UNL     1      -5.807  20.123  68.185  1.00  0.00    -0.265 A  
HETATM   23  C   UNL     1      -5.714  18.741  68.016  1.00  0.00    -0.191 A  
ENDBRANCH  17  18
ENDBRANCH  15  16
ENDBRANCH  13  15
ENDBRANCH   8   9
BRANCH   8  24
HETATM   24  C   UNL     1      -8.805   9.514  66.864  1.00  0.00    -0.140 A  
HETATM   25  C   UNL     1     -10.014   7.391  66.926  1.00  0.00    -0.307 A  
HETATM   26  F   UNL     1      -8.809   5.365  66.857  1.00  0.00    -0.114 F  
HETATM   27  C   UNL     1     -10.013   8.790  66.915  1.00  0.00    -0.327 A  
HETATM   28  C   UNL     1      -7.603   7.389  66.887  1.00  0.00    -0.102 A  
HETATM   29  C   UNL     1      -7.596   8.789  66.894  1.00  0.00    -0.090 A  
HETATM   30  C   UNL     1      -8.810   6.704  66.894  1.00  0.00    -0.118 A  
ENDBRANCH   8  24
ENDBRANCH   5   8
TORSDOF 6
ENDMDL
MODEL       71
REMARK 921   NORMALIZED FREE ENERGY PREDICTED BY IDOCK:   -5.41 KCAL/MOL
REMARK 922        TOTAL FREE ENERGY PREDICTED BY IDOCK:   -7.50 KCAL/MOL
REMARK 923 INTER-LIGAND FREE ENERGY PREDICTED BY IDOCK:   -8.33 KCAL/MOL
REMARK 924 INTRA-LIGAND FREE ENERGY PREDICTED BY IDOCK:    0.83 KCAL/MOL
REMARK 927      BINDING AFFINITY PREDICTED BY RF-SCORE:    0.00 PKD
ROOT
HETATM    1  F   UNL     1     -13.162  11.742  62.600  1.00  0.00    -0.258 F  
HETATM    2  C   UNL     1     -12.299  12.094  63.562  1.00  0.00    -0.574 A  
HETATM    3  C   UNL     1     -10.943  12.169  63.271  1.00  0.00    -0.398 A  
HETATM    4  C   UNL     1     -10.038  12.499  64.283  1.00  0.00    -0.298 A  
HETATM    5  C   UNL     1     -10.485  12.759  65.594  1.00  0.00    -0.297 A  
HETATM    6  C   UNL     1     -11.868  12.719  65.849  1.00  0.00    -0.490 A  
HETATM    7  C   UNL     1     -12.770  12.377  64.839  1.00  0.00    -0.256 A  
ENDROOT
BRANCH   5   8
HETATM    8  C   UNL     1      -9.472  13.100  66.698  1.00  0.00    -0.260 C  
BRANCH   8   9
HETATM    9  N   UNL     1     -10.097  13.855  67.829  1.00  0.00    -0.237 NA 
HETATM   10  C   UNL     1     -11.075  14.871  67.353  1.00  0.00    -0.325 C  
HETATM   11  C   UNL     1      -9.101  14.579  68.656  1.00  0.00    -0.187 C  
HETATM   12  C   UNL     1     -10.457  16.137  66.704  1.00  0.00    -0.300 C  
HETATM   13  N   UNL     1      -9.392  16.806  67.489  1.00  0.00    -0.229 NA 
HETATM   14  C   UNL     1      -8.434  15.786  67.958  1.00  0.00    -0.161 C  
BRANCH  13  15
HETATM   15  C   UNL     1      -9.899  17.580  68.636  1.00  0.00    -0.338 C  
BRANCH  15  16
HETATM   16  C   UNL     1     -10.937  16.825  69.401  1.00  0.00    -0.176 C  
HETATM   17  C   UNL     1     -10.825  16.533  70.706  1.00  0.00     0.229 C  
BRANCH  17  18
HETATM   18  C   UNL     1     -11.779  15.614  71.316  1.00  0.00    -0.478 A  
HETATM   19  C   UNL     1     -12.129  14.455  70.612  1.00  0.00    -0.404 A  
HETATM   20  C   UNL     1     -13.116  13.607  71.110  1.00  0.00    -0.306 A  
HETATM   21  C   UNL     1     -13.750  13.915  72.312  1.00  0.00    -0.660 A  
HETATM   22  C   UNL     1     -13.392  15.062  73.022  1.00  0.00    -0.568 A  
HETATM   23  C   UNL     1     -12.405  15.914  72.525  1.00  0.00    -0.575 A  
ENDBRANCH  17  18
ENDBRANCH  15  16
ENDBRANCH  13  15
ENDBRANCH   8   9
BRANCH   8  24
HETATM   24  C   UNL     1      -8.692  11.841  67.140  1.00  0.00    -0.169 A  
HETATM   25  C   UNL     1      -6.552  10.790  67.674  1.00  0.00    -0.061 A  
HETATM   26  F   UNL     1      -6.523   8.640  68.644  1.00  0.00    -0.050 F  
HETATM   27  C   UNL     1      -7.284  11.874  67.179  1.00  0.00    -0.144 A  
HETATM   28  C   UNL     1      -8.603   9.581  68.060  1.00  0.00    -0.120 A  
HETATM   29  C   UNL     1      -9.339  10.658  67.549  1.00  0.00    -0.158 A  
HETATM   30  C   UNL     1      -7.219   9.660  68.126  1.00  0.00    -0.080 A  
ENDBRANCH   8  24
ENDBRANCH   5   8
TORSDOF 6
ENDMDL
MODEL       72
REMARK 921   NORMALIZED FREE ENERGY PREDICTED BY IDOCK:   -5.39 KCAL/MOL
REMARK 922        TOTAL FREE ENERGY PREDICTED BY IDOCK:   -7.48 KCAL/MOL
REMARK 923 INTER-LIGAND FREE ENERGY PREDICTED BY IDOCK:   -7.23 KCAL/MOL
REMARK 924 INTRA-LIGAND FREE ENERGY PREDICTED BY IDOCK:   -0.25 KCAL/MOL
REMARK 927      BINDING AFFINITY PREDICTED BY RF-SCORE:    0.00 PKD
ROOT
HETATM    1  F   UNL     1     -13.157  12.128  62.653  1.00  0.00    -0.186 F  
HETATM    2  C   UNL     1     -12.355  12.330  63.706  1.00  0.00    -0.538 A  
HETATM    3  C   UNL     1     -10.987  12.133  63.572  1.00  0.00    -0.521 A  
HETATM    4  C   UNL     1     -10.154  12.307  64.679  1.00  0.00    -0.275 A  
HETATM    5  C   UNL     1     -10.685  12.684  65.930  1.00  0.00    -0.293 A  
HETATM    6  C   UNL     1     -12.069  12.919  66.025  1.00  0.00    -0.484 A  
HETATM    7  C   UNL     1     -12.902  12.732  64.920  1.00  0.00    -0.357 A  
ENDROOT
BRANCH   5   8
HETATM    8  C   UNL     1      -9.754  12.850  67.142  1.00  0.00    -0.221 C  
BRANCH   8   9
HETATM    9  N   UNL     1      -8.639  11.852  67.142  1.00  0.00    -0.165 NA 
HETATM   10  C   UNL     1      -9.059  10.540  66.577  1.00  0.00    -0.157 C  
HETATM   11  C   UNL     1      -8.111  11.580  68.501  1.00  0.00    -0.146 C  
HETATM   12  C   UNL     1      -9.972   9.683  67.493  1.00  0.00    -0.183 C  
HETATM   13  N   UNL     1      -9.491   9.492  68.882  1.00  0.00    -0.152 NA 
HETATM   14  C   UNL     1      -9.074  10.800  69.426  1.00  0.00     0.040 C  
BRANCH  13  15
HETATM   15  C   UNL     1      -8.384   8.527  68.997  1.00  0.00    -0.118 C  
BRANCH  15  16
HETATM   16  C   UNL     1      -8.730   7.388  69.901  1.00  0.00    -0.141 C  
HETATM   17  C   UNL     1      -9.987   7.086  70.260  1.00  0.00    -0.186 C  
BRANCH  17  18
HETATM   18  C   UNL     1     -10.211   6.098  71.308  1.00  0.00    -0.252 A  
HETATM   19  C   UNL     1     -11.461   6.068  71.938  1.00  0.00    -0.328 A  
HETATM   20  C   UNL     1     -11.681   5.212  73.015  1.00  0.00    -0.231 A  
HETATM   21  C   UNL     1     -10.652   4.383  73.460  1.00  0.00    -0.299 A  
HETATM   22  C   UNL     1      -9.410   4.402  72.824  1.00  0.00    -0.151 A  
HETATM   23  C   UNL     1      -9.187   5.259  71.746  1.00  0.00    -0.160 A  
ENDBRANCH  17  18
ENDBRANCH  15  16
ENDBRANCH  13  15
ENDBRANCH   8   9
BRANCH   8  24
HETATM   24  C   UNL     1      -9.285  14.315  67.281  1.00  0.00    -0.218 A  
HETATM   25  C   UNL     1      -8.765  16.452  66.217  1.00  0.00    -0.369 A  
HETATM   26  F   UNL     1      -8.371  18.353  67.557  1.00  0.00    -0.243 F  
HETATM   27  C   UNL     1      -9.086  15.094  66.124  1.00  0.00    -0.276 A  
HETATM   28  C   UNL     1      -8.780  16.292  68.622  1.00  0.00    -0.226 A  
HETATM   29  C   UNL     1      -9.084  14.927  68.535  1.00  0.00    -0.191 A  
HETATM   30  C   UNL     1      -8.632  17.042  67.465  1.00  0.00    -0.205 A  
ENDBRANCH   8  24
ENDBRANCH   5   8
TORSDOF 6
ENDMDL
MODEL       73
REMARK 921   NORMALIZED FREE ENERGY PREDICTED BY IDOCK:   -5.37 KCAL/MOL
REMARK 922        TOTAL FREE ENERGY PREDICTED BY IDOCK:   -7.44 KCAL/MOL
REMARK 923 INTER-LIGAND FREE ENERGY PREDICTED BY IDOCK:   -6.63 KCAL/MOL
REMARK 924 INTRA-LIGAND FREE ENERGY PREDICTED BY IDOCK:   -0.82 KCAL/MOL
REMARK 927      BINDING AFFINITY PREDICTED BY RF-SCORE:    0.00 PKD
ROOT
HETATM    1  F   UNL     1      -5.613  14.307  68.746  1.00  0.00    -0.079 F  
HETATM    2  C   UNL     1      -6.437  13.424  68.167  1.00  0.00    -0.119 A  
HETATM    3  C   UNL     1      -7.810  13.572  68.314  1.00  0.00    -0.145 A  
HETATM    4  C   UNL     1      -8.669  12.630  67.742  1.00  0.00    -0.179 A  
HETATM    5  C   UNL     1      -8.159  11.535  67.014  1.00  0.00    -0.161 A  
HETATM    6  C   UNL     1      -6.766  11.437  66.844  1.00  0.00    -0.145 A  
HETATM    7  C   UNL     1      -5.908  12.372  67.428  1.00  0.00    -0.149 A  
ENDROOT
BRANCH   5   8
HETATM    8  C   UNL     1      -9.120  10.499  66.410  1.00  0.00    -0.162 C  
BRANCH   8   9
HETATM    9  N   UNL     1      -9.768   9.649  67.457  1.00  0.00    -0.153 NA 
HETATM   10  C   UNL     1      -8.778   9.076  68.409  1.00  0.00    -0.130 C  
HETATM   11  C   UNL     1     -10.518   8.504  66.883  1.00  0.00    -0.275 C  
HETATM   12  C   UNL     1      -7.910   7.918  67.849  1.00  0.00    -0.127 C  
HETATM   13  N   UNL     1      -8.654   6.819  67.190  1.00  0.00    -0.119 NA 
HETATM   14  C   UNL     1      -9.635   7.402  66.253  1.00  0.00    -0.051 C  
BRANCH  13  15
HETATM   15  C   UNL     1      -9.338   5.918  68.133  1.00  0.00    -0.115 C  
BRANCH  15  16
HETATM   16  C   UNL     1      -9.000   6.237  69.553  1.00  0.00    -0.134 C  
HETATM   17  C   UNL     1      -9.891   6.185  70.554  1.00  0.00    -0.214 C  
BRANCH  17  18
HETATM   18  C   UNL     1      -9.527   6.716  71.862  1.00  0.00    -0.150 A  
HETATM   19  C   UNL     1      -8.352   7.470  71.970  1.00  0.00    -0.121 A  
HETATM   20  C   UNL     1      -7.912   7.904  73.218  1.00  0.00    -0.209 A  
HETATM   21  C   UNL     1      -8.648   7.588  74.359  1.00  0.00    -0.242 A  
HETATM   22  C   UNL     1      -9.827   6.848  74.252  1.00  0.00    -0.312 A  
HETATM   23  C   UNL     1     -10.269   6.411  73.003  1.00  0.00    -0.216 A  
ENDBRANCH  17  18
ENDBRANCH  15  16
ENDBRANCH  13  15
ENDBRANCH   8   9
BRANCH   8  24
HETATM   24  C   UNL     1     -10.118  11.171  65.441  1.00  0.00    -0.317 A  
HETATM   25  C   UNL     1     -12.106  12.554  65.116  1.00  0.00    -0.503 A  
HETATM   26  F   UNL     1     -12.660  13.303  62.949  1.00  0.00    -0.443 F  
HETATM   27  C   UNL     1     -11.242  11.845  65.957  1.00  0.00    -0.377 A  
HETATM   28  C   UNL     1     -10.787  11.897  63.208  1.00  0.00    -0.408 A  
HETATM   29  C   UNL     1      -9.928  11.172  64.044  1.00  0.00    -0.376 A  
HETATM   30  C   UNL     1     -11.861  12.587  63.751  1.00  0.00    -0.496 A  
ENDBRANCH   8  24
ENDBRANCH   5   8
TORSDOF 6
ENDMDL
MODEL       74
REMARK 921   NORMALIZED FREE ENERGY PREDICTED BY IDOCK:   -5.31 KCAL/MOL
REMARK 922        TOTAL FREE ENERGY PREDICTED BY IDOCK:   -7.36 KCAL/MOL
REMARK 923 INTER-LIGAND FREE ENERGY PREDICTED BY IDOCK:   -7.03 KCAL/MOL
REMARK 924 INTRA-LIGAND FREE ENERGY PREDICTED BY IDOCK:   -0.34 KCAL/MOL
REMARK 927      BINDING AFFINITY PREDICTED BY RF-SCORE:    0.00 PKD
ROOT
HETATM    1  F   UNL     1      -7.565   3.607  68.234  1.00  0.00    -0.059 F  
HETATM    2  C   UNL     1      -8.119   4.812  68.423  1.00  0.00    -0.084 A  
HETATM    3  C   UNL     1      -7.602   5.657  69.397  1.00  0.00    -0.083 A  
HETATM    4  C   UNL     1      -8.202   6.898  69.620  1.00  0.00    -0.131 A  
HETATM    5  C   UNL     1      -9.322   7.306  68.866  1.00  0.00    -0.144 A  
HETATM    6  C   UNL     1      -9.794   6.448  67.856  1.00  0.00    -0.130 A  
HETATM    7  C   UNL     1      -9.202   5.202  67.643  1.00  0.00    -0.127 A  
ENDROOT
BRANCH   5   8
HETATM    8  C   UNL     1      -9.980   8.667  69.140  1.00  0.00    -0.192 C  
BRANCH   8   9
HETATM    9  N   UNL     1     -10.394   9.361  67.881  1.00  0.00    -0.212 NA 
HETATM   10  C   UNL     1      -9.239   9.641  66.986  1.00  0.00    -0.142 C  
HETATM   11  C   UNL     1     -11.060  10.662  68.135  1.00  0.00    -0.285 C  
HETATM   12  C   UNL     1      -8.307  10.793  67.444  1.00  0.00    -0.119 C  
HETATM   13  N   UNL     1      -8.982  12.066  67.791  1.00  0.00    -0.169 NA 
HETATM   14  C   UNL     1     -10.128  11.772  68.674  1.00  0.00    -0.189 C  
BRANCH  13  15
HETATM   15  C   UNL     1      -9.438  12.833  66.619  1.00  0.00    -0.249 C  
BRANCH  15  16
HETATM   16  C   UNL     1      -9.179  14.296  66.775  1.00  0.00    -0.282 C  
HETATM   17  C   UNL     1     -10.025  15.133  67.394  1.00  0.00    -0.226 C  
BRANCH  17  18
HETATM   18  C   UNL     1      -9.793  16.571  67.313  1.00  0.00    -0.254 A  
HETATM   19  C   UNL     1     -10.647  17.338  66.512  1.00  0.00    -0.178 A  
HETATM   20  C   UNL     1     -10.396  18.695  66.322  1.00  0.00    -0.483 A  
HETATM   21  C   UNL     1      -9.293  19.286  66.936  1.00  0.00    -0.371 A  
HETATM   22  C   UNL     1      -8.448  18.526  67.745  1.00  0.00    -0.285 A  
HETATM   23  C   UNL     1      -8.697  17.166  67.936  1.00  0.00    -0.222 A  
ENDBRANCH  17  18
ENDBRANCH  15  16
ENDBRANCH  13  15
ENDBRANCH   8   9
BRANCH   8  24
HETATM   24  C   UNL     1     -11.110   8.533  70.184  1.00  0.00    -0.192 A  
HETATM   25  C   UNL     1     -12.564   9.594  71.838  1.00  0.00    -0.481 A  
HETATM   26  F   UNL     1     -14.360   8.375  72.759  1.00  0.00    -0.385 F  
HETATM   27  C   UNL     1     -11.476   9.651  70.961  1.00  0.00    -0.444 A  
HETATM   28  C   UNL     1     -12.928   7.288  71.236  1.00  0.00    -0.377 A  
HETATM   29  C   UNL     1     -11.829   7.335  70.369  1.00  0.00    -0.174 A  
HETATM   30  C   UNL     1     -13.290   8.418  71.955  1.00  0.00    -0.357 A  
ENDBRANCH   8  24
ENDBRANCH   5   8
TORSDOF 6
ENDMDL
MODEL       75
REMARK 921   NORMALIZED FREE ENERGY PREDICTED BY IDOCK:   -5.29 KCAL/MOL
REMARK 922        TOTAL FREE ENERGY PREDICTED BY IDOCK:   -7.34 KCAL/MOL
REMARK 923 INTER-LIGAND FREE ENERGY PREDICTED BY IDOCK:   -7.49 KCAL/MOL
REMARK 924 INTRA-LIGAND FREE ENERGY PREDICTED BY IDOCK:    0.15 KCAL/MOL
REMARK 927      BINDING AFFINITY PREDICTED BY RF-SCORE:    0.00 PKD
ROOT
HETATM    1  F   UNL     1      -7.789   6.328  67.123  1.00  0.00    -0.098 F  
HETATM    2  C   UNL     1      -8.480   7.474  67.170  1.00  0.00    -0.121 A  
HETATM    3  C   UNL     1      -7.830   8.651  67.521  1.00  0.00    -0.102 A  
HETATM    4  C   UNL     1      -8.557   9.840  67.606  1.00  0.00    -0.125 A  
HETATM    5  C   UNL     1      -9.941   9.862  67.337  1.00  0.00    -0.235 A  
HETATM    6  C   UNL     1     -10.563   8.664  66.941  1.00  0.00    -0.270 A  
HETATM    7  C   UNL     1      -9.837   7.473  66.868  1.00  0.00    -0.295 A  
ENDROOT
BRANCH   5   8
HETATM    8  C   UNL     1     -10.727  11.177  67.457  1.00  0.00    -0.236 C  
BRANCH   8   9
HETATM    9  N   UNL     1     -10.040  12.169  68.341  1.00  0.00    -0.210 NA 
HETATM   10  C   UNL     1     -10.698  12.288  69.671  1.00  0.00     0.406 C  
HETATM   11  C   UNL     1     -10.011  13.534  67.759  1.00  0.00    -0.232 C  
HETATM   12  C   UNL     1     -12.049  13.049  69.680  1.00  0.00    -0.241 C  
HETATM   13  N   UNL     1     -12.044  14.373  69.013  1.00  0.00    -0.297 NA 
HETATM   14  C   UNL     1     -11.385  14.241  67.699  1.00  0.00    -0.324 C  
BRANCH  13  15
HETATM   15  C   UNL     1     -11.386  15.430  69.799  1.00  0.00    -0.306 C  
BRANCH  15  16
HETATM   16  C   UNL     1     -10.904  16.549  68.934  1.00  0.00    -0.336 C  
HETATM   17  C   UNL     1      -9.653  17.031  68.979  1.00  0.00    -0.197 C  
BRANCH  17  18
HETATM   18  C   UNL     1      -9.335  18.257  68.257  1.00  0.00    -0.320 A  
HETATM   19  C   UNL     1      -8.082  18.845  68.464  1.00  0.00    -0.383 A  
HETATM   20  C   UNL     1      -7.780  20.072  67.877  1.00  0.00    -0.315 A  
HETATM   21  C   UNL     1      -8.728  20.709  67.079  1.00  0.00    -0.278 A  
HETATM   22  C   UNL     1      -9.973  20.117  66.859  1.00  0.00    -0.600 A  
HETATM   23  C   UNL     1     -10.279  18.889  67.447  1.00  0.00    -0.456 A  
ENDBRANCH  17  18
ENDBRANCH  15  16
ENDBRANCH  13  15
ENDBRANCH   8   9
BRANCH   8  24
HETATM   24  C   UNL     1     -11.095  11.729  66.062  1.00  0.00    -0.363 A  
HETATM   25  C   UNL     1     -12.742  12.796  64.605  1.00  0.00    -0.439 A  
HETATM   26  F   UNL     1     -12.087  13.552  62.469  1.00  0.00    -0.061 F  
HETATM   27  C   UNL     1     -12.404  12.193  65.821  1.00  0.00     0.230 A  
HETATM   28  C   UNL     1     -10.493  12.447  63.807  1.00  0.00    -0.475 A  
HETATM   29  C   UNL     1     -10.155  11.827  65.016  1.00  0.00    -0.302 A  
HETATM   30  C   UNL     1     -11.778  12.933  63.616  1.00  0.00    -0.508 A  
ENDBRANCH   8  24
ENDBRANCH   5   8
TORSDOF 6
ENDMDL
MODEL       76
REMARK 921   NORMALIZED FREE ENERGY PREDICTED BY IDOCK:   -5.23 KCAL/MOL
REMARK 922        TOTAL FREE ENERGY PREDICTED BY IDOCK:   -7.26 KCAL/MOL
REMARK 923 INTER-LIGAND FREE ENERGY PREDICTED BY IDOCK:   -6.83 KCAL/MOL
REMARK 924 INTRA-LIGAND FREE ENERGY PREDICTED BY IDOCK:   -0.43 KCAL/MOL
REMARK 927      BINDING AFFINITY PREDICTED BY RF-SCORE:    0.00 PKD
ROOT
HETATM    1  F   UNL     1     -14.189  14.286  72.372  1.00  0.00    -0.519 F  
HETATM    2  C   UNL     1     -13.171  14.623  71.569  1.00  0.00    -0.355 A  
HETATM    3  C   UNL     1     -12.866  13.820  70.477  1.00  0.00    -0.209 A  
HETATM    4  C   UNL     1     -11.782  14.151  69.661  1.00  0.00    -0.372 A  
HETATM    5  C   UNL     1     -10.997  15.291  69.929  1.00  0.00    -0.303 A  
HETATM    6  C   UNL     1     -11.358  16.110  71.015  1.00  0.00    -0.381 A  
HETATM    7  C   UNL     1     -12.434  15.771  71.838  1.00  0.00    -0.527 A  
ENDROOT
BRANCH   5   8
HETATM    8  C   UNL     1      -9.796  15.627  69.031  1.00  0.00    -0.236 C  
BRANCH   8   9
HETATM    9  N   UNL     1      -9.668  14.681  67.879  1.00  0.00    -0.213 NA 
HETATM   10  C   UNL     1      -9.514  13.269  68.324  1.00  0.00    -0.209 C  
HETATM   11  C   UNL     1      -8.500  14.983  67.014  1.00  0.00    -0.229 C  
HETATM   12  C   UNL     1      -8.128  12.906  68.918  1.00  0.00     0.212 C  
HETATM   13  N   UNL     1      -6.956  13.295  68.098  1.00  0.00    -0.098 NA 
HETATM   14  C   UNL     1      -7.125  14.695  67.660  1.00  0.00    -0.182 C  
BRANCH  13  15
HETATM   15  C   UNL     1      -6.738  12.428  66.928  1.00  0.00     0.141 C  
BRANCH  15  16
HETATM   16  C   UNL     1      -7.092  11.005  67.216  1.00  0.00    -0.097 C  
HETATM   17  C   UNL     1      -6.706   9.978  66.444  1.00  0.00    -0.088 C  
BRANCH  17  18
HETATM   18  C   UNL     1      -7.273   8.656  66.681  1.00  0.00    -0.081 A  
HETATM   19  C   UNL     1      -8.482   8.328  66.055  1.00  0.00    -0.148 A  
HETATM   20  C   UNL     1      -9.111   7.118  66.340  1.00  0.00    -0.189 A  
HETATM   21  C   UNL     1      -8.529   6.233  67.245  1.00  0.00    -0.108 A  
HETATM   22  C   UNL     1      -7.317   6.551  67.859  1.00  0.00    -0.093 A  
HETATM   23  C   UNL     1      -6.686   7.763  67.577  1.00  0.00    -0.068 A  
ENDBRANCH  17  18
ENDBRANCH  15  16
ENDBRANCH  13  15
ENDBRANCH   8   9
BRANCH   8  24
HETATM   24  C   UNL     1      -9.811  17.116  68.622  1.00  0.00    -0.300 A  
HETATM   25  C   UNL     1      -8.708  19.297  68.629  1.00  0.00    -0.402 A  
HETATM   26  F   UNL     1      -9.568  21.040  67.293  1.00  0.00    -0.590 F  
HETATM   27  C   UNL     1      -8.782  17.970  69.067  1.00  0.00    -0.011 A  
HETATM   28  C   UNL     1     -10.712  18.980  67.328  1.00  0.00    -0.556 A  
HETATM   29  C   UNL     1     -10.802  17.656  67.777  1.00  0.00    -0.241 A  
HETATM   30  C   UNL     1      -9.664  19.784  67.750  1.00  0.00    -0.378 A  
ENDBRANCH   8  24
ENDBRANCH   5   8
TORSDOF 6
ENDMDL
MODEL       77
REMARK 921   NORMALIZED FREE ENERGY PREDICTED BY IDOCK:   -5.23 KCAL/MOL
REMARK 922        TOTAL FREE ENERGY PREDICTED BY IDOCK:   -7.25 KCAL/MOL
REMARK 923 INTER-LIGAND FREE ENERGY PREDICTED BY IDOCK:   -7.48 KCAL/MOL
REMARK 924 INTRA-LIGAND FREE ENERGY PREDICTED BY IDOCK:    0.23 KCAL/MOL
REMARK 927      BINDING AFFINITY PREDICTED BY RF-SCORE:    0.00 PKD
ROOT
HETATM    1  F   UNL     1     -13.831  14.570  72.373  1.00  0.00    -0.433 F  
HETATM    2  C   UNL     1     -13.035  14.179  71.369  1.00  0.00    -0.351 A  
HETATM    3  C   UNL     1     -12.782  12.826  71.184  1.00  0.00    -0.355 A  
HETATM    4  C   UNL     1     -11.922  12.419  70.162  1.00  0.00    -0.376 A  
HETATM    5  C   UNL     1     -11.310  13.365  69.314  1.00  0.00    -0.314 A  
HETATM    6  C   UNL     1     -11.620  14.725  69.497  1.00  0.00    -0.339 A  
HETATM    7  C   UNL     1     -12.470  15.131  70.528  1.00  0.00    -0.429 A  
ENDROOT
BRANCH   5   8
HETATM    8  C   UNL     1     -10.350  12.899  68.208  1.00  0.00    -0.244 C  
BRANCH   8   9
HETATM    9  N   UNL     1      -9.839  11.514  68.448  1.00  0.00    -0.199 NA 
HETATM   10  C   UNL     1      -8.556  11.511  69.204  1.00  0.00     0.252 C  
HETATM   11  C   UNL     1      -9.592  10.767  67.190  1.00  0.00    -0.161 C  
HETATM   12  C   UNL     1      -7.307  11.951  68.396  1.00  0.00    -0.095 C  
HETATM   13  N   UNL     1      -7.113  11.272  67.093  1.00  0.00    -0.116 NA 
HETATM   14  C   UNL     1      -8.394  11.278  66.357  1.00  0.00    -0.159 C  
BRANCH  13  15
HETATM   15  C   UNL     1      -6.613   9.892  67.213  1.00  0.00    -0.070 C  
BRANCH  15  16
HETATM   16  C   UNL     1      -7.664   8.886  66.872  1.00  0.00    -0.098 C  
HETATM   17  C   UNL     1      -7.633   7.613  67.295  1.00  0.00    -0.108 C  
BRANCH  17  18
HETATM   18  C   UNL     1      -8.581   6.655  66.741  1.00  0.00    -0.118 A  
HETATM   19  C   UNL     1      -9.933   6.781  67.085  1.00  0.00    -0.220 A  
HETATM   20  C   UNL     1     -10.854   5.824  66.665  1.00  0.00    -0.290 A  
HETATM   21  C   UNL     1     -10.425   4.743  65.897  1.00  0.00    -0.313 A  
HETATM   22  C   UNL     1      -9.080   4.622  65.542  1.00  0.00    -0.146 A  
HETATM   23  C   UNL     1      -8.156   5.579  65.963  1.00  0.00    -0.108 A  
ENDBRANCH  17  18
ENDBRANCH  15  16
ENDBRANCH  13  15
ENDBRANCH   8   9
BRANCH   8  24
HETATM   24  C   UNL     1     -10.977  13.103  66.811  1.00  0.00    -0.298 A  
HETATM   25  C   UNL     1     -10.855  14.128  64.595  1.00  0.00    -0.401 A  
HETATM   26  F   UNL     1     -12.373  13.457  62.919  1.00  0.00    -0.575 F  
HETATM   27  C   UNL     1     -10.376  13.999  65.903  1.00  0.00    -0.327 A  
HETATM   28  C   UNL     1     -12.581  12.512  65.067  1.00  0.00    -0.424 A  
HETATM   29  C   UNL     1     -12.117  12.392  66.384  1.00  0.00    -0.215 A  
HETATM   30  C   UNL     1     -11.943  13.370  64.185  1.00  0.00    -0.450 A  
ENDBRANCH   8  24
ENDBRANCH   5   8
TORSDOF 6
ENDMDL
MODEL       78
REMARK 921   NORMALIZED FREE ENERGY PREDICTED BY IDOCK:   -5.22 KCAL/MOL
REMARK 922        TOTAL FREE ENERGY PREDICTED BY IDOCK:   -7.25 KCAL/MOL
REMARK 923 INTER-LIGAND FREE ENERGY PREDICTED BY IDOCK:   -6.24 KCAL/MOL
REMARK 924 INTRA-LIGAND FREE ENERGY PREDICTED BY IDOCK:   -1.01 KCAL/MOL
REMARK 927      BINDING AFFINITY PREDICTED BY RF-SCORE:    0.00 PKD
ROOT
HETATM    1  F   UNL     1     -13.632  13.336  65.070  1.00  0.00    -0.071 F  
HETATM    2  C   UNL     1     -12.560  13.866  65.674  1.00  0.00    -0.517 A  
HETATM    3  C   UNL     1     -12.381  13.678  67.038  1.00  0.00    -0.277 A  
HETATM    4  C   UNL     1     -11.284  14.263  67.675  1.00  0.00    -0.321 A  
HETATM    5  C   UNL     1     -10.356  15.038  66.950  1.00  0.00    -0.266 A  
HETATM    6  C   UNL     1     -10.539  15.173  65.562  1.00  0.00    -0.383 A  
HETATM    7  C   UNL     1     -11.643  14.599  64.929  1.00  0.00    -0.405 A  
ENDROOT
BRANCH   5   8
HETATM    8  C   UNL     1      -9.167  15.690  67.673  1.00  0.00    -0.193 C  
BRANCH   8   9
HETATM    9  N   UNL     1      -7.852  15.156  67.199  1.00  0.00    -0.210 NA 
HETATM   10  C   UNL     1      -7.850  13.670  67.101  1.00  0.00    -0.008 C  
HETATM   11  C   UNL     1      -6.726  15.524  68.092  1.00  0.00    -0.127 C  
HETATM   12  C   UNL     1      -7.793  12.915  68.455  1.00  0.00    -0.133 C  
HETATM   13  N   UNL     1      -6.727  13.349  69.388  1.00  0.00    -0.078 NA 
HETATM   14  C   UNL     1      -6.737  14.823  69.470  1.00  0.00    -0.160 C  
BRANCH  13  15
HETATM   15  C   UNL     1      -5.383  12.879  69.011  1.00  0.00    -0.068 C  
BRANCH  15  16
HETATM   16  C   UNL     1      -5.276  11.390  69.073  1.00  0.00    -0.043 C  
HETATM   17  C   UNL     1      -5.136  10.614  67.987  1.00  0.00    -0.037 C  
BRANCH  17  18
HETATM   18  C   UNL     1      -5.253   9.168  68.125  1.00  0.00    -0.034 A  
HETATM   19  C   UNL     1      -5.356   8.395  66.962  1.00  0.00    -0.037 A  
HETATM   20  C   UNL     1      -5.578   7.022  67.053  1.00  0.00    -0.018 A  
HETATM   21  C   UNL     1      -5.692   6.421  68.305  1.00  0.00    -0.016 A  
HETATM   22  C   UNL     1      -5.576   7.188  69.466  1.00  0.00    -0.015 A  
HETATM   23  C   UNL     1      -5.355   8.563  69.378  1.00  0.00    -0.031 A  
ENDBRANCH  17  18
ENDBRANCH  15  16
ENDBRANCH  13  15
ENDBRANCH   8   9
BRANCH   8  24
HETATM   24  C   UNL     1      -9.271  17.230  67.629  1.00  0.00    -0.229 A  
HETATM   25  C   UNL     1      -8.851  19.320  66.434  1.00  0.00    -0.365 A  
HETATM   26  F   UNL     1      -9.797  21.327  67.233  1.00  0.00    -0.600 F  
HETATM   27  C   UNL     1      -8.684  17.936  66.560  1.00  0.00    -0.278 A  
HETATM   28  C   UNL     1     -10.151  19.349  68.464  1.00  0.00    -0.527 A  
HETATM   29  C   UNL     1      -9.972  17.967  68.605  1.00  0.00    -0.396 A  
HETATM   30  C   UNL     1      -9.597  20.010  67.378  1.00  0.00    -0.394 A  
ENDBRANCH   8  24
ENDBRANCH   5   8
TORSDOF 6
ENDMDL
MODEL       79
REMARK 921   NORMALIZED FREE ENERGY PREDICTED BY IDOCK:   -5.22 KCAL/MOL
REMARK 922        TOTAL FREE ENERGY PREDICTED BY IDOCK:   -7.24 KCAL/MOL
REMARK 923 INTER-LIGAND FREE ENERGY PREDICTED BY IDOCK:   -7.58 KCAL/MOL
REMARK 924 INTRA-LIGAND FREE ENERGY PREDICTED BY IDOCK:    0.34 KCAL/MOL
REMARK 927      BINDING AFFINITY PREDICTED BY RF-SCORE:    0.00 PKD
ROOT
HETATM    1  F   UNL     1     -10.227  18.575  65.389  1.00  0.00    -0.127 F  
HETATM    2  C   UNL     1     -10.482  17.448  66.068  1.00  0.00    -0.276 A  
HETATM    3  C   UNL     1     -10.067  17.337  67.389  1.00  0.00    -0.307 A  
HETATM    4  C   UNL     1     -10.298  16.149  68.086  1.00  0.00    -0.269 A  
HETATM    5  C   UNL     1     -10.950  15.063  67.466  1.00  0.00    -0.307 A  
HETATM    6  C   UNL     1     -11.398  15.221  66.141  1.00  0.00    -0.160 A  
HETATM    7  C   UNL     1     -11.154  16.405  65.442  1.00  0.00    -0.055 A  
ENDROOT
BRANCH   5   8
HETATM    8  C   UNL     1     -11.176  13.757  68.243  1.00  0.00    -0.273 C  
BRANCH   8   9
HETATM    9  N   UNL     1      -9.961  12.884  68.252  1.00  0.00    -0.233 NA 
HETATM   10  C   UNL     1      -9.394  12.694  66.889  1.00  0.00    -0.228 C  
HETATM   11  C   UNL     1     -10.230  11.529  68.793  1.00  0.00    -0.192 C  
HETATM   12  C   UNL     1     -10.200  11.750  65.960  1.00  0.00    -0.230 C  
HETATM   13  N   UNL     1     -10.553  10.430  66.535  1.00  0.00    -0.190 NA 
HETATM   14  C   UNL     1     -11.108  10.634  67.888  1.00  0.00    -0.308 C  
BRANCH  13  15
HETATM   15  C   UNL     1      -9.422   9.489  66.596  1.00  0.00    -0.170 C  
BRANCH  15  16
HETATM   16  C   UNL     1      -9.673   8.378  67.564  1.00  0.00    -0.209 C  
HETATM   17  C   UNL     1      -8.718   7.850  68.345  1.00  0.00    -0.131 C  
BRANCH  17  18
HETATM   18  C   UNL     1      -9.005   6.635  69.098  1.00  0.00    -0.131 A  
HETATM   19  C   UNL     1     -10.342   6.324  69.375  1.00  0.00    -0.266 A  
HETATM   20  C   UNL     1     -10.653   5.232  70.182  1.00  0.00    -0.297 A  
HETATM   21  C   UNL     1      -9.628   4.448  70.709  1.00  0.00    -0.259 A  
HETATM   22  C   UNL     1      -8.295   4.749  70.423  1.00  0.00    -0.090 A  
HETATM   23  C   UNL     1      -7.981   5.843  69.616  1.00  0.00    -0.101 A  
ENDBRANCH  17  18
ENDBRANCH  15  16
ENDBRANCH  13  15
ENDBRANCH   8   9
BRANCH   8  24
HETATM   24  C   UNL     1     -11.754  14.042  69.647  1.00  0.00    -0.368 A  
HETATM   25  C   UNL     1     -12.213  15.649  71.430  1.00  0.00    -0.477 A  
HETATM   26  F   UNL     1     -13.573  15.011  73.248  1.00  0.00    -0.521 F  
HETATM   27  C   UNL     1     -11.611  15.327  70.209  1.00  0.00    -0.332 A  
HETATM   28  C   UNL     1     -13.080  13.406  71.596  1.00  0.00    -0.463 A  
HETATM   29  C   UNL     1     -12.464  13.072  70.382  1.00  0.00    -0.266 A  
HETATM   30  C   UNL     1     -12.957  14.690  72.103  1.00  0.00    -0.342 A  
ENDBRANCH   8  24
ENDBRANCH   5   8
TORSDOF 6
ENDMDL
MODEL       80
REMARK 921   NORMALIZED FREE ENERGY PREDICTED BY IDOCK:   -5.17 KCAL/MOL
REMARK 922        TOTAL FREE ENERGY PREDICTED BY IDOCK:   -7.18 KCAL/MOL
REMARK 923 INTER-LIGAND FREE ENERGY PREDICTED BY IDOCK:   -7.60 KCAL/MOL
REMARK 924 INTRA-LIGAND FREE ENERGY PREDICTED BY IDOCK:    0.42 KCAL/MOL
REMARK 927      BINDING AFFINITY PREDICTED BY RF-SCORE:    0.00 PKD
ROOT
HETATM    1  F   UNL     1      -5.129  13.978  70.367  1.00  0.00    -0.092 F  
HETATM    2  C   UNL     1      -6.124  14.374  69.563  1.00  0.00    -0.114 A  
HETATM    3  C   UNL     1      -7.067  15.279  70.035  1.00  0.00    -0.030 A  
HETATM    4  C   UNL     1      -8.125  15.664  69.209  1.00  0.00    -0.244 A  
HETATM    5  C   UNL     1      -8.248  15.148  67.903  1.00  0.00    -0.152 A  
HETATM    6  C   UNL     1      -7.254  14.268  67.437  1.00  0.00    -0.137 A  
HETATM    7  C   UNL     1      -6.203  13.874  68.268  1.00  0.00    -0.111 A  
ENDROOT
BRANCH   5   8
HETATM    8  C   UNL     1      -9.432  15.568  67.018  1.00  0.00    -0.225 C  
BRANCH   8   9
HETATM    9  N   UNL     1     -10.693  14.849  67.380  1.00  0.00    -0.285 NA 
HETATM   10  C   UNL     1     -10.547  14.048  68.626  1.00  0.00    -0.257 C  
HETATM   11  C   UNL     1     -11.143  13.911  66.323  1.00  0.00    -0.304 C  
HETATM   12  C   UNL     1      -9.715  12.747  68.486  1.00  0.00    -0.126 C  
HETATM   13  N   UNL     1     -10.103  11.854  67.369  1.00  0.00    -0.195 NA 
HETATM   14  C   UNL     1     -10.250  12.662  66.142  1.00  0.00    -0.258 C  
BRANCH  13  15
HETATM   15  C   UNL     1     -11.341  11.096  67.619  1.00  0.00    -0.284 C  
BRANCH  15  16
HETATM   16  C   UNL     1     -11.321  10.421  68.952  1.00  0.00    -0.278 C  
HETATM   17  C   UNL     1     -10.543   9.364  69.233  1.00  0.00    -0.239 C  
BRANCH  17  18
HETATM   18  C   UNL     1     -10.745   8.642  70.483  1.00  0.00    -0.252 A  
HETATM   19  C   UNL     1      -9.649   8.474  71.339  1.00  0.00    -0.282 A  
HETATM   20  C   UNL     1      -9.774   7.700  72.490  1.00  0.00    -0.238 A  
HETATM   21  C   UNL     1     -10.995   7.098  72.789  1.00  0.00    -0.346 A  
HETATM   22  C   UNL     1     -12.092   7.275  71.945  1.00  0.00    -0.349 A  
HETATM   23  C   UNL     1     -11.969   8.049  70.790  1.00  0.00    -0.132 A  
ENDBRANCH  17  18
ENDBRANCH  15  16
ENDBRANCH  13  15
ENDBRANCH   8   9
BRANCH   8  24
HETATM   24  C   UNL     1      -9.574  17.105  66.979  1.00  0.00    -0.262 A  
HETATM   25  C   UNL     1     -10.696  19.121  67.787  1.00  0.00    -0.463 A  
HETATM   26  F   UNL     1      -9.825  21.240  67.225  1.00  0.00    -0.600 F  
HETATM   27  C   UNL     1     -10.603  17.727  67.714  1.00  0.00    -0.392 A  
HETATM   28  C   UNL     1      -8.769  19.324  66.352  1.00  0.00    -0.362 A  
HETATM   29  C   UNL     1      -8.682  17.928  66.262  1.00  0.00    -0.197 A  
HETATM   30  C   UNL     1      -9.767  19.906  67.119  1.00  0.00    -0.393 A  
ENDBRANCH   8  24
ENDBRANCH   5   8
TORSDOF 6
ENDMDL
MODEL       81
REMARK 921   NORMALIZED FREE ENERGY PREDICTED BY IDOCK:   -5.17 KCAL/MOL
REMARK 922        TOTAL FREE ENERGY PREDICTED BY IDOCK:   -7.18 KCAL/MOL
REMARK 923 INTER-LIGAND FREE ENERGY PREDICTED BY IDOCK:   -6.54 KCAL/MOL
REMARK 924 INTRA-LIGAND FREE ENERGY PREDICTED BY IDOCK:   -0.63 KCAL/MOL
REMARK 927      BINDING AFFINITY PREDICTED BY RF-SCORE:    0.00 PKD
ROOT
HETATM    1  F   UNL     1      -8.141   3.661  65.404  1.00  0.00    -0.093 F  
HETATM    2  C   UNL     1      -8.382   4.242  66.586  1.00  0.00    -0.101 A  
HETATM    3  C   UNL     1      -9.380   3.733  67.408  1.00  0.00    -0.233 A  
HETATM    4  C   UNL     1      -9.657   4.361  68.624  1.00  0.00    -0.216 A  
HETATM    5  C   UNL     1      -8.934   5.501  69.030  1.00  0.00    -0.118 A  
HETATM    6  C   UNL     1      -7.900   5.967  68.198  1.00  0.00    -0.106 A  
HETATM    7  C   UNL     1      -7.632   5.346  66.976  1.00  0.00    -0.092 A  
ENDROOT
BRANCH   5   8
HETATM    8  C   UNL     1      -9.269   6.190  70.363  1.00  0.00    -0.153 C  
BRANCH   8   9
HETATM    9  N   UNL     1     -10.591   6.890  70.323  1.00  0.00    -0.211 NA 
HETATM   10  C   UNL     1     -10.789   7.648  69.057  1.00  0.00    -0.040 C  
HETATM   11  C   UNL     1     -10.759   7.862  71.431  1.00  0.00    -0.224 C  
HETATM   12  C   UNL     1      -9.967   8.957  68.931  1.00  0.00    -0.190 C  
HETATM   13  N   UNL     1     -10.059   9.887  70.082  1.00  0.00    -0.262 NA 
HETATM   14  C   UNL     1      -9.867   9.121  71.329  1.00  0.00    -0.293 C  
BRANCH  13  15
HETATM   15  C   UNL     1     -11.330  10.629  70.143  1.00  0.00    -0.323 C  
BRANCH  15  16
HETATM   16  C   UNL     1     -11.400  11.699  69.102  1.00  0.00    -0.345 C  
HETATM   17  C   UNL     1     -11.444  11.447  67.785  1.00  0.00    -0.353 C  
BRANCH  17  18
HETATM   18  C   UNL     1     -11.296  12.549  66.843  1.00  0.00    -0.383 A  
HETATM   19  C   UNL     1     -10.813  13.773  67.321  1.00  0.00    -0.292 A  
HETATM   20  C   UNL     1     -10.758  14.881  66.477  1.00  0.00    -0.309 A  
HETATM   21  C   UNL     1     -11.182  14.764  65.155  1.00  0.00    -0.384 A  
HETATM   22  C   UNL     1     -11.651  13.541  64.672  1.00  0.00    -0.395 A  
HETATM   23  C   UNL     1     -11.708  12.431  65.515  1.00  0.00    -0.459 A  
ENDBRANCH  17  18
ENDBRANCH  15  16
ENDBRANCH  13  15
ENDBRANCH   8   9
BRANCH   8  24
HETATM   24  C   UNL     1      -9.114   5.208  71.545  1.00  0.00    -0.169 A  
HETATM   25  C   UNL     1     -10.131   3.579  73.056  1.00  0.00    -0.219 A  
HETATM   26  F   UNL     1      -8.755   2.295  74.479  1.00  0.00    -0.065 F  
HETATM   27  C   UNL     1     -10.250   4.552  72.058  1.00  0.00    -0.251 A  
HETATM   28  C   UNL     1      -7.745   3.919  73.103  1.00  0.00    -0.075 A  
HETATM   29  C   UNL     1      -7.860   4.907  72.116  1.00  0.00    -0.109 A  
HETATM   30  C   UNL     1      -8.877   3.260  73.557  1.00  0.00    -0.080 A  
ENDBRANCH   8  24
ENDBRANCH   5   8
TORSDOF 6
ENDMDL
MODEL       82
REMARK 921   NORMALIZED FREE ENERGY PREDICTED BY IDOCK:   -5.14 KCAL/MOL
REMARK 922        TOTAL FREE ENERGY PREDICTED BY IDOCK:   -7.13 KCAL/MOL
REMARK 923 INTER-LIGAND FREE ENERGY PREDICTED BY IDOCK:   -7.01 KCAL/MOL
REMARK 924 INTRA-LIGAND FREE ENERGY PREDICTED BY IDOCK:   -0.12 KCAL/MOL
REMARK 927      BINDING AFFINITY PREDICTED BY RF-SCORE:    0.00 PKD
ROOT
HETATM    1  F   UNL     1      -8.146   6.278  65.254  1.00  0.00    -0.105 F  
HETATM    2  C   UNL     1      -8.759   7.179  66.033  1.00  0.00    -0.147 A  
HETATM    3  C   UNL     1     -10.046   6.924  66.491  1.00  0.00    -0.140 A  
HETATM    4  C   UNL     1     -10.700   7.880  67.272  1.00  0.00    -0.299 A  
HETATM    5  C   UNL     1     -10.070   9.097  67.602  1.00  0.00    -0.273 A  
HETATM    6  C   UNL     1      -8.751   9.308  67.161  1.00  0.00    -0.134 A  
HETATM    7  C   UNL     1      -8.103   8.357  66.370  1.00  0.00    -0.104 A  
ENDROOT
BRANCH   5   8
HETATM    8  C   UNL     1     -10.815  10.144  68.445  1.00  0.00    -0.242 C  
BRANCH   8   9
HETATM    9  N   UNL     1     -10.337  10.177  69.862  1.00  0.00    -0.263 NA 
HETATM   10  C   UNL     1      -9.569   8.954  70.225  1.00  0.00    -0.186 C  
HETATM   11  C   UNL     1     -11.447  10.288  70.840  1.00  0.00    -0.339 C  
HETATM   12  C   UNL     1     -10.418   7.671  70.425  1.00  0.00    -0.220 C  
HETATM   13  N   UNL     1     -11.585   7.808  71.329  1.00  0.00    -0.272 NA 
HETATM   14  C   UNL     1     -12.333   9.026  70.961  1.00  0.00    -0.193 C  
BRANCH  13  15
HETATM   15  C   UNL     1     -11.226   7.854  72.756  1.00  0.00    -0.405 C  
BRANCH  15  16
HETATM   16  C   UNL     1     -10.625   6.567  73.222  1.00  0.00    -0.301 C  
HETATM   17  C   UNL     1     -10.931   5.375  72.689  1.00  0.00    -0.321 C  
BRANCH  17  18
HETATM   18  C   UNL     1     -10.461   4.160  73.344  1.00  0.00    -0.252 A  
HETATM   19  C   UNL     1      -9.086   4.013  73.566  1.00  0.00    -0.105 A  
HETATM   20  C   UNL     1      -8.586   2.823  74.091  1.00  0.00    -0.072 A  
HETATM   21  C   UNL     1      -9.460   1.782  74.397  1.00  0.00    -0.094 A  
HETATM   22  C   UNL     1     -10.832   1.931  74.189  1.00  0.00    -0.222 A  
HETATM   23  C   UNL     1     -11.335   3.121  73.663  1.00  0.00    -0.228 A  
ENDBRANCH  17  18
ENDBRANCH  15  16
ENDBRANCH  13  15
ENDBRANCH   8   9
BRANCH   8  24
HETATM   24  C   UNL     1     -10.806  11.522  67.747  1.00  0.00    -0.270 A  
HETATM   25  C   UNL     1     -11.687  12.986  66.000  1.00  0.00    -0.442 A  
HETATM   26  F   UNL     1     -11.123  15.277  66.009  1.00  0.00    -0.328 F  
HETATM   27  C   UNL     1     -11.590  11.723  66.594  1.00  0.00    -0.273 A  
HETATM   28  C   UNL     1     -10.181  13.881  67.656  1.00  0.00    -0.242 A  
HETATM   29  C   UNL     1     -10.066  12.615  68.245  1.00  0.00    -0.233 A  
HETATM   30  C   UNL     1     -10.995  14.057  66.547  1.00  0.00    -0.306 A  
ENDBRANCH   8  24
ENDBRANCH   5   8
TORSDOF 6
ENDMDL
MODEL       83
REMARK 921   NORMALIZED FREE ENERGY PREDICTED BY IDOCK:   -5.13 KCAL/MOL
REMARK 922        TOTAL FREE ENERGY PREDICTED BY IDOCK:   -7.12 KCAL/MOL
REMARK 923 INTER-LIGAND FREE ENERGY PREDICTED BY IDOCK:   -6.49 KCAL/MOL
REMARK 924 INTRA-LIGAND FREE ENERGY PREDICTED BY IDOCK:   -0.63 KCAL/MOL
REMARK 927      BINDING AFFINITY PREDICTED BY RF-SCORE:    0.00 PKD
ROOT
HETATM    1  F   UNL     1     -13.203  12.643  64.471  1.00  0.00    -0.387 F  
HETATM    2  C   UNL     1     -12.265  13.297  65.169  1.00  0.00    -0.443 A  
HETATM    3  C   UNL     1     -12.374  13.377  66.552  1.00  0.00    -0.354 A  
HETATM    4  C   UNL     1     -11.416  14.090  67.277  1.00  0.00    -0.372 A  
HETATM    5  C   UNL     1     -10.340  14.725  66.624  1.00  0.00    -0.273 A  
HETATM    6  C   UNL     1     -10.232  14.589  65.228  1.00  0.00    -0.431 A  
HETATM    7  C   UNL     1     -11.197  13.887  64.503  1.00  0.00    -0.372 A  
ENDROOT
BRANCH   5   8
HETATM    8  C   UNL     1      -9.309  15.523  67.438  1.00  0.00    -0.207 C  
BRANCH   8   9
HETATM    9  N   UNL     1      -7.907  15.074  67.171  1.00  0.00    -0.209 NA 
HETATM   10  C   UNL     1      -7.794  13.592  67.096  1.00  0.00    -0.008 C  
HETATM   11  C   UNL     1      -6.953  15.521  68.216  1.00  0.00    -0.115 C  
HETATM   12  C   UNL     1      -7.891  12.849  68.454  1.00  0.00    -0.133 C  
HETATM   13  N   UNL     1      -7.005  13.357  69.529  1.00  0.00     0.058 NA 
HETATM   14  C   UNL     1      -7.123  14.827  69.587  1.00  0.00    -0.158 C  
BRANCH  13  15
HETATM   15  C   UNL     1      -5.592  12.975  69.362  1.00  0.00    -0.084 C  
BRANCH  15  16
HETATM   16  C   UNL     1      -5.310  11.623  69.931  1.00  0.00    -0.083 C  
HETATM   17  C   UNL     1      -6.243  10.667  70.062  1.00  0.00    -0.111 C  
BRANCH  17  18
HETATM   18  C   UNL     1      -5.928   9.462  70.819  1.00  0.00    -0.063 A  
HETATM   19  C   UNL     1      -6.340   8.226  70.305  1.00  0.00    -0.035 A  
HETATM   20  C   UNL     1      -6.154   7.063  71.048  1.00  0.00    -0.036 A  
HETATM   21  C   UNL     1      -5.551   7.133  72.302  1.00  0.00    -0.037 A  
HETATM   22  C   UNL     1      -5.126   8.362  72.811  1.00  0.00    -0.039 A  
HETATM   23  C   UNL     1      -5.313   9.529  72.069  1.00  0.00    -0.072 A  
ENDBRANCH  17  18
ENDBRANCH  15  16
ENDBRANCH  13  15
ENDBRANCH   8   9
BRANCH   8  24
HETATM   24  C   UNL     1      -9.526  17.042  67.266  1.00  0.00    -0.240 A  
HETATM   25  C   UNL     1     -10.557  19.109  68.065  1.00  0.00    -0.405 A  
HETATM   26  F   UNL     1      -9.911  21.171  67.119  1.00  0.00    -0.596 F  
HETATM   27  C   UNL     1     -10.417  17.719  68.123  1.00  0.00    -0.382 A  
HETATM   28  C   UNL     1      -8.961  19.194  66.260  1.00  0.00    -0.320 A  
HETATM   29  C   UNL     1      -8.830  17.800  66.302  1.00  0.00    -0.201 A  
HETATM   30  C   UNL     1      -9.814  19.836  67.145  1.00  0.00    -0.386 A  
ENDBRANCH   8  24
ENDBRANCH   5   8
TORSDOF 6
ENDMDL
MODEL       84
REMARK 921   NORMALIZED FREE ENERGY PREDICTED BY IDOCK:   -5.10 KCAL/MOL
REMARK 922        TOTAL FREE ENERGY PREDICTED BY IDOCK:   -7.08 KCAL/MOL
REMARK 923 INTER-LIGAND FREE ENERGY PREDICTED BY IDOCK:   -7.14 KCAL/MOL
REMARK 924 INTRA-LIGAND FREE ENERGY PREDICTED BY IDOCK:    0.06 KCAL/MOL
REMARK 927      BINDING AFFINITY PREDICTED BY RF-SCORE:    0.00 PKD
ROOT
HETATM    1  F   UNL     1     -12.561  16.214  72.501  1.00  0.00    -0.459 F  
HETATM    2  C   UNL     1     -12.272  15.294  71.571  1.00  0.00    -0.351 A  
HETATM    3  C   UNL     1     -12.982  14.100  71.547  1.00  0.00    -0.417 A  
HETATM    4  C   UNL     1     -12.656  13.124  70.602  1.00  0.00    -0.286 A  
HETATM    5  C   UNL     1     -11.620  13.338  69.671  1.00  0.00    -0.329 A  
HETATM    6  C   UNL     1     -10.949  14.575  69.691  1.00  0.00    -0.225 A  
HETATM    7  C   UNL     1     -11.267  15.544  70.644  1.00  0.00    -0.373 A  
ENDROOT
BRANCH   5   8
HETATM    8  C   UNL     1     -11.263  12.244  68.652  1.00  0.00    -0.259 C  
BRANCH   8   9
HETATM    9  N   UNL     1     -11.935  10.943  68.959  1.00  0.00    -0.407 NA 
HETATM   10  C   UNL     1     -11.791  10.559  70.390  1.00  0.00    -0.340 C  
HETATM   11  C   UNL     1     -11.396   9.815  68.160  1.00  0.00     0.129 C  
HETATM   12  C   UNL     1     -10.384  10.056  70.805  1.00  0.00     0.007 C  
HETATM   13  N   UNL     1      -9.803   8.994  69.949  1.00  0.00    -0.176 NA 
HETATM   14  C   UNL     1      -9.958   9.387  68.534  1.00  0.00    -0.173 C  
BRANCH  13  15
HETATM   15  C   UNL     1     -10.399   7.665  70.167  1.00  0.00    -0.217 C  
BRANCH  15  16
HETATM   16  C   UNL     1      -9.596   6.583  69.522  1.00  0.00    -0.152 C  
HETATM   17  C   UNL     1      -8.822   5.728  70.208  1.00  0.00    -0.145 C  
BRANCH  17  18
HETATM   18  C   UNL     1      -7.915   4.848  69.483  1.00  0.00    -0.070 A  
HETATM   19  C   UNL     1      -6.747   4.420  70.126  1.00  0.00    -0.033 A  
HETATM   20  C   UNL     1      -5.802   3.667  69.432  1.00  0.00    -0.022 A  
HETATM   21  C   UNL     1      -6.028   3.336  68.096  1.00  0.00    -0.027 A  
HETATM   22  C   UNL     1      -7.198   3.750  67.458  1.00  0.00    -0.063 A  
HETATM   23  C   UNL     1      -8.145   4.506  68.150  1.00  0.00    -0.087 A  
ENDBRANCH  17  18
ENDBRANCH  15  16
ENDBRANCH  13  15
ENDBRANCH   8   9
BRANCH   8  24
HETATM   24  C   UNL     1     -11.487  12.741  67.207  1.00  0.00    -0.393 A  
HETATM   25  C   UNL     1     -10.926  12.584  64.833  1.00  0.00    -0.335 A  
HETATM   26  F   UNL     1     -12.237  13.741  63.251  1.00  0.00    -0.524 F  
HETATM   27  C   UNL     1     -10.681  12.237  66.166  1.00  0.00    -0.296 A  
HETATM   28  C   UNL     1     -12.755  13.990  65.536  1.00  0.00    -0.517 A  
HETATM   29  C   UNL     1     -12.502  13.659  66.873  1.00  0.00    -0.189 A  
HETATM   30  C   UNL     1     -11.972  13.444  64.529  1.00  0.00    -0.407 A  
ENDBRANCH   8  24
ENDBRANCH   5   8
TORSDOF 6
ENDMDL
MODEL       85
REMARK 921   NORMALIZED FREE ENERGY PREDICTED BY IDOCK:   -5.09 KCAL/MOL
REMARK 922        TOTAL FREE ENERGY PREDICTED BY IDOCK:   -7.07 KCAL/MOL
REMARK 923 INTER-LIGAND FREE ENERGY PREDICTED BY IDOCK:   -7.03 KCAL/MOL
REMARK 924 INTRA-LIGAND FREE ENERGY PREDICTED BY IDOCK:   -0.03 KCAL/MOL
REMARK 927      BINDING AFFINITY PREDICTED BY RF-SCORE:    0.00 PKD
ROOT
HETATM    1  F   UNL     1     -10.067  17.425  65.616  1.00  0.00    -0.254 F  
HETATM    2  C   UNL     1     -10.264  16.235  66.199  1.00  0.00    -0.346 A  
HETATM    3  C   UNL     1      -9.569  15.920  67.360  1.00  0.00    -0.221 A  
HETATM    4  C   UNL     1      -9.746  14.665  67.948  1.00  0.00    -0.216 A  
HETATM    5  C   UNL     1     -10.622  13.718  67.380  1.00  0.00    -0.260 A  
HETATM    6  C   UNL     1     -11.344  14.082  66.229  1.00  0.00    -0.336 A  
HETATM    7  C   UNL     1     -11.157  15.332  65.636  1.00  0.00    -0.308 A  
ENDROOT
BRANCH   5   8
HETATM    8  C   UNL     1     -10.786  12.335  68.031  1.00  0.00    -0.218 C  
BRANCH   8   9
HETATM    9  N   UNL     1      -9.486  11.603  68.142  1.00  0.00    -0.185 NA 
HETATM   10  C   UNL     1      -8.504  12.040  67.112  1.00  0.00    -0.180 C  
HETATM   11  C   UNL     1      -9.639  10.135  67.987  1.00  0.00    -0.145 C  
HETATM   12  C   UNL     1      -8.788  11.543  65.670  1.00  0.00    -0.013 C  
HETATM   13  N   UNL     1      -9.036  10.089  65.528  1.00  0.00    -0.173 NA 
HETATM   14  C   UNL     1     -10.007   9.669  66.559  1.00  0.00    -0.246 C  
BRANCH  13  15
HETATM   15  C   UNL     1      -7.817   9.268  65.626  1.00  0.00    -0.099 C  
BRANCH  15  16
HETATM   16  C   UNL     1      -8.132   7.808  65.670  1.00  0.00    -0.129 C  
HETATM   17  C   UNL     1      -7.431   6.923  66.396  1.00  0.00    -0.074 C  
BRANCH  17  18
HETATM   18  C   UNL     1      -7.675   5.497  66.211  1.00  0.00    -0.099 A  
HETATM   19  C   UNL     1      -8.703   5.105  65.346  1.00  0.00    -0.149 A  
HETATM   20  C   UNL     1      -9.038   3.758  65.224  1.00  0.00    -0.143 A  
HETATM   21  C   UNL     1      -8.343   2.803  65.964  1.00  0.00    -0.094 A  
HETATM   22  C   UNL     1      -7.308   3.191  66.817  1.00  0.00    -0.074 A  
HETATM   23  C   UNL     1      -6.972   4.540  66.942  1.00  0.00    -0.063 A  
ENDBRANCH  17  18
ENDBRANCH  15  16
ENDBRANCH  13  15
ENDBRANCH   8   9
BRANCH   8  24
HETATM   24  C   UNL     1     -11.562  12.440  69.362  1.00  0.00    -0.371 A  
HETATM   25  C   UNL     1     -12.746  13.831  70.987  1.00  0.00    -0.416 A  
HETATM   26  F   UNL     1     -13.951  12.805  72.736  1.00  0.00    -0.536 F  
HETATM   27  C   UNL     1     -11.951  13.707  69.842  1.00  0.00    -0.415 A  
HETATM   28  C   UNL     1     -12.749  11.433  71.244  1.00  0.00    -0.498 A  
HETATM   29  C   UNL     1     -11.939  11.305  70.108  1.00  0.00    -0.452 A  
HETATM   30  C   UNL     1     -13.151  12.692  71.667  1.00  0.00    -0.323 A  
ENDBRANCH   8  24
ENDBRANCH   5   8
TORSDOF 6
ENDMDL
MODEL       86
REMARK 921   NORMALIZED FREE ENERGY PREDICTED BY IDOCK:   -5.07 KCAL/MOL
REMARK 922        TOTAL FREE ENERGY PREDICTED BY IDOCK:   -7.05 KCAL/MOL
REMARK 923 INTER-LIGAND FREE ENERGY PREDICTED BY IDOCK:   -7.65 KCAL/MOL
REMARK 924 INTRA-LIGAND FREE ENERGY PREDICTED BY IDOCK:    0.61 KCAL/MOL
REMARK 927      BINDING AFFINITY PREDICTED BY RF-SCORE:    0.00 PKD
ROOT
HETATM    1  F   UNL     1     -14.343  14.459  72.336  1.00  0.00    -0.524 F  
HETATM    2  C   UNL     1     -13.657  13.422  71.839  1.00  0.00    -0.409 A  
HETATM    3  C   UNL     1     -12.727  13.638  70.830  1.00  0.00    -0.382 A  
HETATM    4  C   UNL     1     -12.037  12.552  70.286  1.00  0.00    -0.373 A  
HETATM    5  C   UNL     1     -12.271  11.241  70.750  1.00  0.00    -0.479 A  
HETATM    6  C   UNL     1     -13.186  11.059  71.803  1.00  0.00    -0.505 A  
HETATM    7  C   UNL     1     -13.884  12.144  72.337  1.00  0.00     0.139 A  
ENDROOT
BRANCH   5   8
HETATM    8  C   UNL     1     -11.518  10.058  70.123  1.00  0.00    -0.277 C  
BRANCH   8   9
HETATM    9  N   UNL     1     -10.195  10.465  69.554  1.00  0.00    -0.236 NA 
HETATM   10  C   UNL     1     -10.337  11.441  68.439  1.00  0.00    -0.195 C  
HETATM   11  C   UNL     1      -9.423   9.317  69.018  1.00  0.00    -0.155 C  
HETATM   12  C   UNL     1     -10.855  10.850  67.101  1.00  0.00    -0.280 C  
HETATM   13  N   UNL     1     -10.144   9.645  66.614  1.00  0.00    -0.230 NA 
HETATM   14  C   UNL     1     -10.005   8.689  67.731  1.00  0.00    -0.190 C  
BRANCH  13  15
HETATM   15  C   UNL     1      -8.821   9.932  66.034  1.00  0.00    -0.146 C  
BRANCH  15  16
HETATM   16  C   UNL     1      -8.430  11.362  66.218  1.00  0.00    -0.138 C  
HETATM   17  C   UNL     1      -7.510  11.768  67.106  1.00  0.00    -0.149 C  
BRANCH  17  18
HETATM   18  C   UNL     1      -7.349  13.194  67.364  1.00  0.00    -0.119 A  
HETATM   19  C   UNL     1      -8.447  14.037  67.153  1.00  0.00    -0.207 A  
HETATM   20  C   UNL     1      -8.305  15.416  67.284  1.00  0.00    -0.224 A  
HETATM   21  C   UNL     1      -7.067  15.954  67.631  1.00  0.00    -0.185 A  
HETATM   22  C   UNL     1      -5.974  15.115  67.856  1.00  0.00    -0.165 A  
HETATM   23  C   UNL     1      -6.114  13.733  67.723  1.00  0.00    -0.140 A  
ENDBRANCH  17  18
ENDBRANCH  15  16
ENDBRANCH  13  15
ENDBRANCH   8   9
BRANCH   8  24
HETATM   24  C   UNL     1     -11.439   8.870  71.106  1.00  0.00    -0.364 A  
HETATM   25  C   UNL     1     -12.088   6.584  71.678  1.00  0.00    -0.381 A  
HETATM   26  F   UNL     1     -11.036   5.495  73.487  1.00  0.00    -0.291 F  
HETATM   27  C   UNL     1     -12.214   7.717  70.868  1.00  0.00    -0.166 A  
HETATM   28  C   UNL     1     -10.449   7.729  73.025  1.00  0.00    -0.432 A  
HETATM   29  C   UNL     1     -10.584   8.873  72.227  1.00  0.00    -0.221 A  
HETATM   30  C   UNL     1     -11.193   6.595  72.739  1.00  0.00    -0.227 A  
ENDBRANCH   8  24
ENDBRANCH   5   8
TORSDOF 6
ENDMDL
MODEL       87
REMARK 921   NORMALIZED FREE ENERGY PREDICTED BY IDOCK:   -5.07 KCAL/MOL
REMARK 922        TOTAL FREE ENERGY PREDICTED BY IDOCK:   -7.04 KCAL/MOL
REMARK 923 INTER-LIGAND FREE ENERGY PREDICTED BY IDOCK:   -7.94 KCAL/MOL
REMARK 924 INTRA-LIGAND FREE ENERGY PREDICTED BY IDOCK:    0.90 KCAL/MOL
REMARK 927      BINDING AFFINITY PREDICTED BY RF-SCORE:    0.00 PKD
ROOT
HETATM    1  F   UNL     1     -11.311   5.470  69.405  1.00  0.00    -0.322 F  
HETATM    2  C   UNL     1     -10.936   6.595  68.783  1.00  0.00    -0.260 A  
HETATM    3  C   UNL     1     -10.761   7.759  69.521  1.00  0.00    -0.200 A  
HETATM    4  C   UNL     1     -10.407   8.941  68.869  1.00  0.00    -0.229 A  
HETATM    5  C   UNL     1     -10.222   8.968  67.471  1.00  0.00    -0.302 A  
HETATM    6  C   UNL     1     -10.363   7.765  66.756  1.00  0.00    -0.348 A  
HETATM    7  C   UNL     1     -10.730   6.586  67.408  1.00  0.00    -0.412 A  
ENDROOT
BRANCH   5   8
HETATM    8  C   UNL     1      -9.853  10.284  66.769  1.00  0.00    -0.197 C  
BRANCH   8   9
HETATM    9  N   UNL     1     -10.992  11.254  66.748  1.00  0.00    -0.290 NA 
HETATM   10  C   UNL     1     -11.557  11.428  65.382  1.00  0.00     0.214 C  
HETATM   11  C   UNL     1     -10.604  12.606  67.222  1.00  0.00    -0.228 C  
HETATM   12  C   UNL     1     -10.687  12.259  64.402  1.00  0.00    -0.331 C  
HETATM   13  N   UNL     1     -10.219  13.569  64.913  1.00  0.00    -0.354 NA 
HETATM   14  C   UNL     1      -9.666  13.382  66.269  1.00  0.00    -0.272 C  
BRANCH  13  15
HETATM   15  C   UNL     1     -11.267  14.603  64.939  1.00  0.00    -0.396 C  
BRANCH  15  16
HETATM   16  C   UNL     1     -10.747  15.911  65.442  1.00  0.00    -0.415 C  
HETATM   17  C   UNL     1     -10.735  16.250  66.740  1.00  0.00    -0.204 C  
BRANCH  17  18
HETATM   18  C   UNL     1     -10.410  17.621  67.115  1.00  0.00    -0.343 A  
HETATM   19  C   UNL     1     -10.601  18.634  66.167  1.00  0.00    -0.409 A  
HETATM   20  C   UNL     1     -10.202  19.939  66.448  1.00  0.00    -0.617 A  
HETATM   21  C   UNL     1      -9.617  20.233  67.678  1.00  0.00    -0.530 A  
HETATM   22  C   UNL     1      -9.438  19.228  68.630  1.00  0.00    -0.463 A  
HETATM   23  C   UNL     1      -9.835  17.919  68.351  1.00  0.00    -0.355 A  
ENDBRANCH  17  18
ENDBRANCH  15  16
ENDBRANCH  13  15
ENDBRANCH   8   9
BRANCH   8  24
HETATM   24  C   UNL     1      -8.542  10.867  67.343  1.00  0.00    -0.127 A  
HETATM   25  C   UNL     1      -6.326  11.817  66.943  1.00  0.00    -0.131 A  
HETATM   26  F   UNL     1      -5.125  12.762  68.740  1.00  0.00    -0.056 F  
HETATM   27  C   UNL     1      -7.484  11.190  66.470  1.00  0.00    -0.131 A  
HETATM   28  C   UNL     1      -7.218  11.775  69.183  1.00  0.00    -0.043 A  
HETATM   29  C   UNL     1      -8.372  11.132  68.717  1.00  0.00    -0.136 A  
HETATM   30  C   UNL     1      -6.212  12.119  68.292  1.00  0.00    -0.052 A  
ENDBRANCH   8  24
ENDBRANCH   5   8
TORSDOF 6
ENDMDL
MODEL       88
REMARK 921   NORMALIZED FREE ENERGY PREDICTED BY IDOCK:   -5.07 KCAL/MOL
REMARK 922        TOTAL FREE ENERGY PREDICTED BY IDOCK:   -7.04 KCAL/MOL
REMARK 923 INTER-LIGAND FREE ENERGY PREDICTED BY IDOCK:   -6.68 KCAL/MOL
REMARK 924 INTRA-LIGAND FREE ENERGY PREDICTED BY IDOCK:   -0.36 KCAL/MOL
REMARK 927      BINDING AFFINITY PREDICTED BY RF-SCORE:    0.00 PKD
ROOT
HETATM    1  F   UNL     1     -10.018   4.773  69.538  1.00  0.00    -0.241 F  
HETATM    2  C   UNL     1     -10.039   5.998  68.995  1.00  0.00    -0.176 A  
HETATM    3  C   UNL     1      -9.313   7.022  69.590  1.00  0.00    -0.149 A  
HETATM    4  C   UNL     1      -9.364   8.308  69.047  1.00  0.00    -0.147 A  
HETATM    5  C   UNL     1     -10.140   8.578  67.901  1.00  0.00    -0.258 A  
HETATM    6  C   UNL     1     -10.828   7.511  67.295  1.00  0.00    -0.297 A  
HETATM    7  C   UNL     1     -10.787   6.229  67.846  1.00  0.00    -0.417 A  
ENDROOT
BRANCH   5   8
HETATM    8  C   UNL     1     -10.199  10.004  67.331  1.00  0.00    -0.219 C  
BRANCH   8   9
HETATM    9  N   UNL     1      -9.768  11.032  68.329  1.00  0.00    -0.170 NA 
HETATM   10  C   UNL     1     -10.844  11.354  69.306  1.00  0.00    -0.194 C  
HETATM   11  C   UNL     1      -9.370  12.314  67.697  1.00  0.00    -0.186 C  
HETATM   12  C   UNL     1     -12.007  12.219  68.753  1.00  0.00    -0.231 C  
HETATM   13  N   UNL     1     -11.605  13.453  68.037  1.00  0.00    -0.313 NA 
HETATM   14  C   UNL     1     -10.535  13.119  67.076  1.00  0.00    -0.248 C  
BRANCH  13  15
HETATM   15  C   UNL     1     -11.156  14.535  68.929  1.00  0.00    -0.256 C  
BRANCH  15  16
HETATM   16  C   UNL     1      -9.868  15.138  68.469  1.00  0.00    -0.220 C  
HETATM   17  C   UNL     1      -9.186  16.051  69.177  1.00  0.00    -0.247 C  
BRANCH  17  18
HETATM   18  C   UNL     1      -8.058  16.736  68.557  1.00  0.00    -0.241 A  
HETATM   19  C   UNL     1      -6.968  17.086  69.363  1.00  0.00    -0.140 A  
HETATM   20  C   UNL     1      -5.920  17.836  68.833  1.00  0.00    -0.197 A  
HETATM   21  C   UNL     1      -5.959  18.231  67.497  1.00  0.00    -0.166 A  
HETATM   22  C   UNL     1      -7.038  17.872  66.689  1.00  0.00    -0.254 A  
HETATM   23  C   UNL     1      -8.090  17.123  67.217  1.00  0.00    -0.206 A  
ENDBRANCH  17  18
ENDBRANCH  15  16
ENDBRANCH  13  15
ENDBRANCH   8   9
BRANCH   8  24
HETATM   24  C   UNL     1      -9.455  10.090  65.980  1.00  0.00    -0.251 A  
HETATM   25  C   UNL     1      -9.495  10.667  63.606  1.00  0.00    -0.337 A  
HETATM   26  F   UNL     1      -7.479  10.692  62.381  1.00  0.00    -0.141 F  
HETATM   27  C   UNL     1     -10.159  10.477  64.822  1.00  0.00    -0.406 A  
HETATM   28  C   UNL     1      -7.411  10.042  64.645  1.00  0.00    -0.143 A  
HETATM   29  C   UNL     1      -8.074   9.832  65.861  1.00  0.00    -0.114 A  
HETATM   30  C   UNL     1      -8.124  10.465  63.533  1.00  0.00    -0.116 A  
ENDBRANCH   8  24
ENDBRANCH   5   8
TORSDOF 6
ENDMDL
MODEL       89
REMARK 921   NORMALIZED FREE ENERGY PREDICTED BY IDOCK:   -5.07 KCAL/MOL
REMARK 922        TOTAL FREE ENERGY PREDICTED BY IDOCK:   -7.04 KCAL/MOL
REMARK 923 INTER-LIGAND FREE ENERGY PREDICTED BY IDOCK:   -6.74 KCAL/MOL
REMARK 924 INTRA-LIGAND FREE ENERGY PREDICTED BY IDOCK:   -0.30 KCAL/MOL
REMARK 927      BINDING AFFINITY PREDICTED BY RF-SCORE:    0.00 PKD
ROOT
HETATM    1  F   UNL     1      -7.194  20.203  68.688  1.00  0.00    -0.334 F  
HETATM    2  C   UNL     1      -7.426  18.932  68.334  1.00  0.00    -0.300 A  
HETATM    3  C   UNL     1      -8.115  18.665  67.158  1.00  0.00    -0.253 A  
HETATM    4  C   UNL     1      -8.390  17.341  66.807  1.00  0.00    -0.276 A  
HETATM    5  C   UNL     1      -7.974  16.274  67.629  1.00  0.00    -0.160 A  
HETATM    6  C   UNL     1      -7.240  16.574  68.791  1.00  0.00    -0.197 A  
HETATM    7  C   UNL     1      -6.977  17.898  69.147  1.00  0.00    -0.208 A  
ENDROOT
BRANCH   5   8
HETATM    8  C   UNL     1      -8.305  14.826  67.236  1.00  0.00    -0.212 C  
BRANCH   8   9
HETATM    9  N   UNL     1      -7.930  13.848  68.304  1.00  0.00    -0.139 NA 
HETATM   10  C   UNL     1      -6.459  13.630  68.376  1.00  0.00    -0.095 C  
HETATM   11  C   UNL     1      -8.548  12.514  68.105  1.00  0.00    -0.189 C  
HETATM   12  C   UNL     1      -5.857  12.776  67.229  1.00  0.00    -0.013 C  
HETATM   13  N   UNL     1      -6.535  11.485  66.966  1.00  0.00    -0.121 NA 
HETATM   14  C   UNL     1      -7.991  11.716  66.903  1.00  0.00    -0.161 C  
BRANCH  13  15
HETATM   15  C   UNL     1      -6.237  10.445  67.966  1.00  0.00    -0.055 C  
BRANCH  15  16
HETATM   16  C   UNL     1      -7.417   9.566  68.224  1.00  0.00    -0.078 C  
HETATM   17  C   UNL     1      -7.329   8.235  68.366  1.00  0.00    -0.094 C  
BRANCH  17  18
HETATM   18  C   UNL     1      -8.551   7.440  68.402  1.00  0.00    -0.124 A  
HETATM   19  C   UNL     1      -9.554   7.718  67.465  1.00  0.00    -0.184 A  
HETATM   20  C   UNL     1     -10.777   7.055  67.533  1.00  0.00    -0.352 A  
HETATM   21  C   UNL     1     -10.998   6.112  68.535  1.00  0.00    -0.404 A  
HETATM   22  C   UNL     1      -9.995   5.824  69.463  1.00  0.00    -0.250 A  
HETATM   23  C   UNL     1      -8.769   6.487  69.397  1.00  0.00    -0.134 A  
ENDBRANCH  17  18
ENDBRANCH  15  16
ENDBRANCH  13  15
ENDBRANCH   8   9
BRANCH   8  24
HETATM   24  C   UNL     1      -9.769  14.704  66.760  1.00  0.00    -0.267 A  
HETATM   25  C   UNL     1     -11.349  14.339  64.931  1.00  0.00    -0.372 A  
HETATM   26  F   UNL     1     -13.634  14.016  65.416  1.00  0.00    -0.325 F  
HETATM   27  C   UNL     1     -10.044  14.558  65.385  1.00  0.00    -0.394 A  
HETATM   28  C   UNL     1     -12.158  14.455  67.199  1.00  0.00    -0.367 A  
HETATM   29  C   UNL     1     -10.856  14.692  67.657  1.00  0.00    -0.284 A  
HETATM   30  C   UNL     1     -12.391  14.272  65.844  1.00  0.00    -0.403 A  
ENDBRANCH   8  24
ENDBRANCH   5   8
TORSDOF 6
ENDMDL
MODEL       90
REMARK 921   NORMALIZED FREE ENERGY PREDICTED BY IDOCK:   -5.01 KCAL/MOL
REMARK 922        TOTAL FREE ENERGY PREDICTED BY IDOCK:   -6.96 KCAL/MOL
REMARK 923 INTER-LIGAND FREE ENERGY PREDICTED BY IDOCK:   -5.91 KCAL/MOL
REMARK 924 INTRA-LIGAND FREE ENERGY PREDICTED BY IDOCK:   -1.05 KCAL/MOL
REMARK 927      BINDING AFFINITY PREDICTED BY RF-SCORE:    0.00 PKD
ROOT
HETATM    1  F   UNL     1     -13.409  14.019  65.511  1.00  0.00    -0.514 F  
HETATM    2  C   UNL     1     -12.202  14.271  66.035  1.00  0.00    -0.404 A  
HETATM    3  C   UNL     1     -11.999  14.099  67.398  1.00  0.00    -0.439 A  
HETATM    4  C   UNL     1     -10.752  14.398  67.952  1.00  0.00    -0.246 A  
HETATM    5  C   UNL     1      -9.697  14.868  67.143  1.00  0.00    -0.229 A  
HETATM    6  C   UNL     1      -9.919  14.989  65.759  1.00  0.00    -0.376 A  
HETATM    7  C   UNL     1     -11.170  14.703  65.210  1.00  0.00    -0.358 A  
ENDROOT
BRANCH   5   8
HETATM    8  C   UNL     1      -8.338  15.210  67.775  1.00  0.00    -0.151 C  
BRANCH   8   9
HETATM    9  N   UNL     1      -7.238  14.335  67.262  1.00  0.00    -0.119 NA 
HETATM   10  C   UNL     1      -7.667  12.917  67.119  1.00  0.00    -0.050 C  
HETATM   11  C   UNL     1      -6.048  14.331  68.149  1.00  0.00    -0.137 C  
HETATM   12  C   UNL     1      -7.823  12.132  68.447  1.00  0.00    -0.149 C  
HETATM   13  N   UNL     1      -6.670  12.206  69.376  1.00  0.00    -0.090 NA 
HETATM   14  C   UNL     1      -6.253  13.617  69.504  1.00  0.00    -0.118 C  
BRANCH  13  15
HETATM   15  C   UNL     1      -5.522  11.381  68.963  1.00  0.00    -0.039 C  
BRANCH  15  16
HETATM   16  C   UNL     1      -5.952  10.038  68.468  1.00  0.00    -0.041 C  
HETATM   17  C   UNL     1      -5.545   9.517  67.300  1.00  0.00    -0.040 C  
BRANCH  17  18
HETATM   18  C   UNL     1      -6.178   8.302  66.802  1.00  0.00    -0.055 A  
HETATM   19  C   UNL     1      -7.341   7.850  67.438  1.00  0.00    -0.092 A  
HETATM   20  C   UNL     1      -7.916   6.637  67.063  1.00  0.00    -0.109 A  
HETATM   21  C   UNL     1      -7.332   5.879  66.050  1.00  0.00    -0.077 A  
HETATM   22  C   UNL     1      -6.181   6.335  65.406  1.00  0.00    -0.037 A  
HETATM   23  C   UNL     1      -5.602   7.549  65.780  1.00  0.00    -0.033 A  
ENDBRANCH  17  18
ENDBRANCH  15  16
ENDBRANCH  13  15
ENDBRANCH   8   9
BRANCH   8  24
HETATM   24  C   UNL     1      -8.042  16.722  67.661  1.00  0.00    -0.188 A  
HETATM   25  C   UNL     1      -7.182  18.590  66.340  1.00  0.00    -0.270 A  
HETATM   26  F   UNL     1      -7.515  20.799  67.096  1.00  0.00    -0.338 F  
HETATM   27  C   UNL     1      -7.372  17.216  66.524  1.00  0.00    -0.311 A  
HETATM   28  C   UNL     1      -8.279  19.023  68.443  1.00  0.00    -0.382 A  
HETATM   29  C   UNL     1      -8.455  17.648  68.641  1.00  0.00    -0.266 A  
HETATM   30  C   UNL     1      -7.653  19.481  67.293  1.00  0.00    -0.245 A  
ENDBRANCH   8  24
ENDBRANCH   5   8
TORSDOF 6
ENDMDL
MODEL       91
REMARK 921   NORMALIZED FREE ENERGY PREDICTED BY IDOCK:   -4.99 KCAL/MOL
REMARK 922        TOTAL FREE ENERGY PREDICTED BY IDOCK:   -6.93 KCAL/MOL
REMARK 923 INTER-LIGAND FREE ENERGY PREDICTED BY IDOCK:   -6.62 KCAL/MOL
REMARK 924 INTRA-LIGAND FREE ENERGY PREDICTED BY IDOCK:   -0.31 KCAL/MOL
REMARK 927      BINDING AFFINITY PREDICTED BY RF-SCORE:    0.00 PKD
ROOT
HETATM    1  F   UNL     1      -9.656  21.208  67.654  1.00  0.00    -0.511 F  
HETATM    2  C   UNL     1      -9.900  19.902  67.825  1.00  0.00    -0.402 A  
HETATM    3  C   UNL     1      -8.975  19.116  68.500  1.00  0.00    -0.406 A  
HETATM    4  C   UNL     1      -9.211  17.747  68.646  1.00  0.00    -0.264 A  
HETATM    5  C   UNL     1     -10.377  17.155  68.120  1.00  0.00    -0.350 A  
HETATM    6  C   UNL     1     -11.316  17.984  67.480  1.00  0.00     0.579 A  
HETATM    7  C   UNL     1     -11.073  19.350  67.324  1.00  0.00    -0.293 A  
ENDROOT
BRANCH   5   8
HETATM    8  C   UNL     1     -10.608  15.643  68.273  1.00  0.00    -0.262 C  
BRANCH   8   9
HETATM    9  N   UNL     1      -9.367  14.850  68.007  1.00  0.00    -0.190 NA 
HETATM   10  C   UNL     1      -9.029  14.804  66.558  1.00  0.00    -0.233 C  
HETATM   11  C   UNL     1      -9.476  13.442  68.462  1.00  0.00    -0.121 C  
HETATM   12  C   UNL     1      -9.933  13.887  65.693  1.00  0.00    -0.276 C  
HETATM   13  N   UNL     1     -10.121  12.507  66.200  1.00  0.00    -0.246 NA 
HETATM   14  C   UNL     1     -10.450  12.568  67.637  1.00  0.00    -0.217 C  
BRANCH  13  15
HETATM   15  C   UNL     1      -8.951  11.636  65.991  1.00  0.00    -0.147 C  
BRANCH  15  16
HETATM   16  C   UNL     1      -8.582  10.893  67.234  1.00  0.00    -0.128 C  
HETATM   17  C   UNL     1      -7.808   9.797  67.236  1.00  0.00    -0.098 C  
BRANCH  17  18
HETATM   18  C   UNL     1      -7.677   9.020  68.463  1.00  0.00    -0.097 A  
HETATM   19  C   UNL     1      -7.754   9.693  69.688  1.00  0.00    -0.124 A  
HETATM   20  C   UNL     1      -7.526   9.005  70.879  1.00  0.00    -0.128 A  
HETATM   21  C   UNL     1      -7.227   7.644  70.844  1.00  0.00    -0.062 A  
HETATM   22  C   UNL     1      -7.164   6.969  69.625  1.00  0.00    -0.080 A  
HETATM   23  C   UNL     1      -7.390   7.655  68.431  1.00  0.00    -0.095 A  
ENDBRANCH  17  18
ENDBRANCH  15  16
ENDBRANCH  13  15
ENDBRANCH   8   9
BRANCH   8  24
HETATM   24  C   UNL     1     -11.279  15.321  69.627  1.00  0.00    -0.289 A  
HETATM   25  C   UNL     1     -11.446  15.740  72.029  1.00  0.00    -0.459 A  
HETATM   26  F   UNL     1     -13.230  14.801  73.252  1.00  0.00    -0.514 F  
HETATM   27  C   UNL     1     -10.795  15.926  70.804  1.00  0.00    -0.171 A  
HETATM   28  C   UNL     1     -13.054  14.299  70.956  1.00  0.00    -0.394 A  
HETATM   29  C   UNL     1     -12.396  14.468  69.731  1.00  0.00    -0.317 A  
HETATM   30  C   UNL     1     -12.579  14.942  72.090  1.00  0.00    -0.327 A  
ENDBRANCH   8  24
ENDBRANCH   5   8
TORSDOF 6
ENDMDL
MODEL       92
REMARK 921   NORMALIZED FREE ENERGY PREDICTED BY IDOCK:   -4.98 KCAL/MOL
REMARK 922        TOTAL FREE ENERGY PREDICTED BY IDOCK:   -6.92 KCAL/MOL
REMARK 923 INTER-LIGAND FREE ENERGY PREDICTED BY IDOCK:   -6.32 KCAL/MOL
REMARK 924 INTRA-LIGAND FREE ENERGY PREDICTED BY IDOCK:   -0.60 KCAL/MOL
REMARK 927      BINDING AFFINITY PREDICTED BY RF-SCORE:    0.00 PKD
ROOT
HETATM    1  F   UNL     1     -12.629  13.736  63.112  1.00  0.00    -0.458 F  
HETATM    2  C   UNL     1     -11.968  13.438  64.238  1.00  0.00    -0.430 A  
HETATM    3  C   UNL     1     -12.673  13.287  65.426  1.00  0.00    -0.460 A  
HETATM    4  C   UNL     1     -11.981  13.014  66.608  1.00  0.00    -0.453 A  
HETATM    5  C   UNL     1     -10.577  12.886  66.609  1.00  0.00    -0.273 A  
HETATM    6  C   UNL     1      -9.894  12.999  65.384  1.00  0.00    -0.127 A  
HETATM    7  C   UNL     1     -10.587  13.285  64.206  1.00  0.00    -0.402 A  
ENDROOT
BRANCH   5   8
HETATM    8  C   UNL     1      -9.832  12.605  67.924  1.00  0.00    -0.218 C  
BRANCH   8   9
HETATM    9  N   UNL     1      -8.972  11.384  67.839  1.00  0.00    -0.147 NA 
HETATM   10  C   UNL     1      -9.550  10.350  66.938  1.00  0.00    -0.172 C  
HETATM   11  C   UNL     1      -8.768  10.733  69.157  1.00  0.00    -0.091 C  
HETATM   12  C   UNL     1     -10.774   9.584  67.504  1.00  0.00    -0.245 C  
HETATM   13  N   UNL     1     -10.603   9.014  68.862  1.00  0.00    -0.210 NA 
HETATM   14  C   UNL     1     -10.025  10.048  69.742  1.00  0.00    -0.241 C  
BRANCH  13  15
HETATM   15  C   UNL     1      -9.766   7.804  68.895  1.00  0.00    -0.160 C  
BRANCH  15  16
HETATM   16  C   UNL     1      -9.247   7.523  70.268  1.00  0.00    -0.157 C  
HETATM   17  C   UNL     1      -8.078   6.909  70.504  1.00  0.00    -0.115 C  
BRANCH  17  18
HETATM   18  C   UNL     1      -7.755   6.488  71.862  1.00  0.00    -0.098 A  
HETATM   19  C   UNL     1      -7.922   7.411  72.902  1.00  0.00    -0.120 A  
HETATM   20  C   UNL     1      -7.524   7.085  74.197  1.00  0.00    -0.117 A  
HETATM   21  C   UNL     1      -6.964   5.835  74.454  1.00  0.00    -0.081 A  
HETATM   22  C   UNL     1      -6.810   4.908  73.421  1.00  0.00    -0.070 A  
HETATM   23  C   UNL     1      -7.206   5.233  72.123  1.00  0.00    -0.087 A  
ENDBRANCH  17  18
ENDBRANCH  15  16
ENDBRANCH  13  15
ENDBRANCH   8   9
BRANCH   8  24
HETATM   24  C   UNL     1      -9.085  13.865  68.415  1.00  0.00    -0.184 A  
HETATM   25  C   UNL     1      -6.966  14.997  68.863  1.00  0.00    -0.114 A  
HETATM   26  F   UNL     1      -6.963  17.298  69.382  1.00  0.00    -0.244 F  
HETATM   27  C   UNL     1      -7.680  13.843  68.524  1.00  0.00    -0.139 A  
HETATM   28  C   UNL     1      -9.033  16.224  69.045  1.00  0.00    -0.254 A  
HETATM   29  C   UNL     1      -9.755  15.067  68.724  1.00  0.00    -0.227 A  
HETATM   30  C   UNL     1      -7.648  16.181  69.104  1.00  0.00    -0.230 A  
ENDBRANCH   8  24
ENDBRANCH   5   8
TORSDOF 6
ENDMDL
MODEL       93
REMARK 921   NORMALIZED FREE ENERGY PREDICTED BY IDOCK:   -4.98 KCAL/MOL
REMARK 922        TOTAL FREE ENERGY PREDICTED BY IDOCK:   -6.92 KCAL/MOL
REMARK 923 INTER-LIGAND FREE ENERGY PREDICTED BY IDOCK:   -6.85 KCAL/MOL
REMARK 924 INTRA-LIGAND FREE ENERGY PREDICTED BY IDOCK:   -0.07 KCAL/MOL
REMARK 927      BINDING AFFINITY PREDICTED BY RF-SCORE:    0.00 PKD
ROOT
HETATM    1  F   UNL     1     -13.273  11.943  62.515  1.00  0.00    -0.049 F  
HETATM    2  C   UNL     1     -12.451  12.261  63.524  1.00  0.00    -0.534 A  
HETATM    3  C   UNL     1     -12.982  12.536  64.778  1.00  0.00    -0.115 A  
HETATM    4  C   UNL     1     -12.129  12.904  65.821  1.00  0.00    -0.513 A  
HETATM    5  C   UNL     1     -10.737  12.996  65.618  1.00  0.00    -0.293 A  
HETATM    6  C   UNL     1     -10.224  12.668  64.349  1.00  0.00    -0.344 A  
HETATM    7  C   UNL     1     -11.079  12.313  63.304  1.00  0.00    -0.389 A  
ENDROOT
BRANCH   5   8
HETATM    8  C   UNL     1      -9.818  13.423  66.773  1.00  0.00    -0.265 C  
BRANCH   8   9
HETATM    9  N   UNL     1      -8.653  12.498  66.942  1.00  0.00    -0.186 NA 
HETATM   10  C   UNL     1      -8.874  11.187  66.273  1.00  0.00    -0.185 C  
HETATM   11  C   UNL     1      -8.355  12.205  68.366  1.00  0.00    -0.143 C  
HETATM   12  C   UNL     1      -9.872  10.237  66.985  1.00  0.00    -0.193 C  
HETATM   13  N   UNL     1      -9.631  10.019  68.431  1.00  0.00    -0.143 NA 
HETATM   14  C   UNL     1      -9.409  11.327  69.080  1.00  0.00     0.000 C  
BRANCH  13  15
HETATM   15  C   UNL     1      -8.497   9.122  68.714  1.00  0.00    -0.130 C  
BRANCH  15  16
HETATM   16  C   UNL     1      -8.832   7.694  68.430  1.00  0.00    -0.130 C  
HETATM   17  C   UNL     1      -9.338   6.858  69.349  1.00  0.00    -0.146 C  
BRANCH  17  18
HETATM   18  C   UNL     1      -9.433   5.435  69.043  1.00  0.00    -0.176 A  
HETATM   19  C   UNL     1      -9.222   4.516  70.078  1.00  0.00    -0.195 A  
HETATM   20  C   UNL     1      -9.197   3.150  69.806  1.00  0.00    -0.220 A  
HETATM   21  C   UNL     1      -9.390   2.702  68.500  1.00  0.00    -0.251 A  
HETATM   22  C   UNL     1      -9.615   3.616  67.469  1.00  0.00    -0.194 A  
HETATM   23  C   UNL     1      -9.638   4.985  67.739  1.00  0.00    -0.178 A  
ENDBRANCH  17  18
ENDBRANCH  15  16
ENDBRANCH  13  15
ENDBRANCH   8   9
BRANCH   8  24
HETATM   24  C   UNL     1      -9.425  14.911  66.645  1.00  0.00    -0.286 A  
HETATM   25  C   UNL     1      -7.668  16.606  66.538  1.00  0.00    -0.337 A  
HETATM   26  F   UNL     1      -8.227  18.825  65.965  1.00  0.00    -0.294 F  
HETATM   27  C   UNL     1      -8.070  15.284  66.754  1.00  0.00    -0.166 A  
HETATM   28  C   UNL     1      -9.961  17.240  66.147  1.00  0.00    -0.288 A  
HETATM   29  C   UNL     1     -10.371  15.921  66.380  1.00  0.00    -0.313 A  
HETATM   30  C   UNL     1      -8.615  17.568  66.219  1.00  0.00    -0.199 A  
ENDBRANCH   8  24
ENDBRANCH   5   8
TORSDOF 6
ENDMDL
MODEL       94
REMARK 921   NORMALIZED FREE ENERGY PREDICTED BY IDOCK:   -4.92 KCAL/MOL
REMARK 922        TOTAL FREE ENERGY PREDICTED BY IDOCK:   -6.83 KCAL/MOL
REMARK 923 INTER-LIGAND FREE ENERGY PREDICTED BY IDOCK:   -8.28 KCAL/MOL
REMARK 924 INTRA-LIGAND FREE ENERGY PREDICTED BY IDOCK:    1.45 KCAL/MOL
REMARK 927      BINDING AFFINITY PREDICTED BY RF-SCORE:    0.00 PKD
ROOT
HETATM    1  F   UNL     1     -12.380  13.482  62.814  1.00  0.00    -0.476 F  
HETATM    2  C   UNL     1     -11.479  12.792  63.527  1.00  0.00    -0.459 A  
HETATM    3  C   UNL     1     -10.752  13.439  64.518  1.00  0.00    -0.434 A  
HETATM    4  C   UNL     1      -9.786  12.731  65.236  1.00  0.00    -0.118 A  
HETATM    5  C   UNL     1      -9.543  11.368  64.970  1.00  0.00    -0.250 A  
HETATM    6  C   UNL     1     -10.327  10.728  63.992  1.00  0.00    -0.357 A  
HETATM    7  C   UNL     1     -11.283  11.441  63.266  1.00  0.00    -0.152 A  
ENDROOT
BRANCH   5   8
HETATM    8  C   UNL     1      -8.462  10.611  65.758  1.00  0.00    -0.178 C  
BRANCH   8   9
HETATM    9  N   UNL     1      -9.017   9.918  66.962  1.00  0.00    -0.138 NA 
HETATM   10  C   UNL     1     -10.496   9.760  66.888  1.00  0.00    -0.211 C  
HETATM   11  C   UNL     1      -8.730  10.642  68.225  1.00  0.00    -0.135 C  
HETATM   12  C   UNL     1     -11.315  11.056  67.120  1.00  0.00    -0.136 C  
HETATM   13  N   UNL     1     -10.962  11.831  68.333  1.00  0.00    -0.216 NA 
HETATM   14  C   UNL     1      -9.494  11.975  68.395  1.00  0.00    -0.181 C  
BRANCH  13  15
HETATM   15  C   UNL     1     -11.459  11.233  69.584  1.00  0.00    -0.309 C  
BRANCH  15  16
HETATM   16  C   UNL     1     -12.071  12.255  70.486  1.00  0.00    -0.371 C  
HETATM   17  C   UNL     1     -12.153  13.558  70.176  1.00  0.00    -0.425 C  
BRANCH  17  18
HETATM   18  C   UNL     1     -12.570  14.509  71.200  1.00  0.00    -0.406 A  
HETATM   19  C   UNL     1     -11.579  15.176  71.930  1.00  0.00    -0.490 A  
HETATM   20  C   UNL     1     -11.933  16.010  72.988  1.00  0.00    -0.597 A  
HETATM   21  C   UNL     1     -13.278  16.182  73.313  1.00  0.00    -0.559 A  
HETATM   22  C   UNL     1     -14.268  15.529  72.577  1.00  0.00    -0.502 A  
HETATM   23  C   UNL     1     -13.915  14.691  71.518  1.00  0.00    -0.515 A  
ENDBRANCH  17  18
ENDBRANCH  15  16
ENDBRANCH  13  15
ENDBRANCH   8   9
BRANCH   8  24
HETATM   24  C   UNL     1      -7.643   9.691  64.826  1.00  0.00    -0.122 A  
HETATM   25  C   UNL     1      -5.537   9.221  63.678  1.00  0.00    -0.071 A  
HETATM   26  F   UNL     1      -5.231   7.135  62.619  1.00  0.00    -0.030 F  
HETATM   27  C   UNL     1      -6.345  10.077  64.433  1.00  0.00    -0.131 A  
HETATM   28  C   UNL     1      -7.308   7.585  63.637  1.00  0.00    -0.094 A  
HETATM   29  C   UNL     1      -8.128   8.446  64.378  1.00  0.00    -0.158 A  
HETATM   30  C   UNL     1      -6.020   7.976  63.302  1.00  0.00    -0.067 A  
ENDBRANCH   8  24
ENDBRANCH   5   8
TORSDOF 6
ENDMDL
MODEL       95
REMARK 921   NORMALIZED FREE ENERGY PREDICTED BY IDOCK:   -4.91 KCAL/MOL
REMARK 922        TOTAL FREE ENERGY PREDICTED BY IDOCK:   -6.83 KCAL/MOL
REMARK 923 INTER-LIGAND FREE ENERGY PREDICTED BY IDOCK:   -6.09 KCAL/MOL
REMARK 924 INTRA-LIGAND FREE ENERGY PREDICTED BY IDOCK:   -0.74 KCAL/MOL
REMARK 927      BINDING AFFINITY PREDICTED BY RF-SCORE:    0.00 PKD
ROOT
HETATM    1  F   UNL     1     -13.308  14.244  65.435  1.00  0.00    -0.478 F  
HETATM    2  C   UNL     1     -12.093  14.234  66.000  1.00  0.00    -0.408 A  
HETATM    3  C   UNL     1     -11.974  13.979  67.360  1.00  0.00    -0.439 A  
HETATM    4  C   UNL     1     -10.711  14.006  67.957  1.00  0.00    -0.253 A  
HETATM    5  C   UNL     1      -9.558  14.284  67.195  1.00  0.00    -0.245 A  
HETATM    6  C   UNL     1      -9.705  14.494  65.812  1.00  0.00    -0.306 A  
HETATM    7  C   UNL     1     -10.969  14.479  65.219  1.00  0.00    -0.366 A  
ENDROOT
BRANCH   5   8
HETATM    8  C   UNL     1      -8.180  14.329  67.875  1.00  0.00    -0.156 C  
BRANCH   8   9
HETATM    9  N   UNL     1      -7.258  13.270  67.359  1.00  0.00    -0.146 NA 
HETATM   10  C   UNL     1      -7.986  12.030  66.973  1.00  0.00    -0.150 C  
HETATM   11  C   UNL     1      -6.231  12.868  68.352  1.00  0.00    -0.079 C  
HETATM   12  C   UNL     1      -8.497  11.164  68.154  1.00  0.00    -0.138 C  
HETATM   13  N   UNL     1      -7.494  10.843  69.197  1.00  0.00    -0.124 NA 
HETATM   14  C   UNL     1      -6.777  12.080  69.565  1.00  0.00    -0.035 C  
BRANCH  13  15
HETATM   15  C   UNL     1      -6.528   9.808  68.790  1.00  0.00    -0.046 C  
BRANCH  15  16
HETATM   16  C   UNL     1      -7.192   8.494  68.538  1.00  0.00    -0.081 C  
HETATM   17  C   UNL     1      -7.385   7.987  67.311  1.00  0.00    -0.089 C  
BRANCH  17  18
HETATM   18  C   UNL     1      -8.227   6.808  67.151  1.00  0.00    -0.121 A  
HETATM   19  C   UNL     1      -9.567   6.992  66.787  1.00  0.00    -0.221 A  
HETATM   20  C   UNL     1     -10.431   5.901  66.728  1.00  0.00    -0.344 A  
HETATM   21  C   UNL     1      -9.955   4.625  67.028  1.00  0.00    -0.227 A  
HETATM   22  C   UNL     1      -8.617   4.438  67.377  1.00  0.00    -0.105 A  
HETATM   23  C   UNL     1      -7.750   5.530  67.438  1.00  0.00    -0.100 A  
ENDBRANCH  17  18
ENDBRANCH  15  16
ENDBRANCH  13  15
ENDBRANCH   8   9
BRANCH   8  24
HETATM   24  C   UNL     1      -7.587  15.755  67.827  1.00  0.00    -0.157 A  
HETATM   25  C   UNL     1      -7.720  18.097  68.512  1.00  0.00    -0.307 A  
HETATM   26  F   UNL     1      -5.913  19.544  68.060  1.00  0.00    -0.207 F  
HETATM   27  C   UNL     1      -8.278  16.816  68.445  1.00  0.00    -0.224 A  
HETATM   28  C   UNL     1      -5.785  17.317  67.304  1.00  0.00    -0.168 A  
HETATM   29  C   UNL     1      -6.348  16.037  67.218  1.00  0.00    -0.181 A  
HETATM   30  C   UNL     1      -6.470  18.331  67.956  1.00  0.00    -0.193 A  
ENDBRANCH   8  24
ENDBRANCH   5   8
TORSDOF 6
ENDMDL
MODEL       96
REMARK 921   NORMALIZED FREE ENERGY PREDICTED BY IDOCK:   -4.91 KCAL/MOL
REMARK 922        TOTAL FREE ENERGY PREDICTED BY IDOCK:   -6.83 KCAL/MOL
REMARK 923 INTER-LIGAND FREE ENERGY PREDICTED BY IDOCK:   -5.94 KCAL/MOL
REMARK 924 INTRA-LIGAND FREE ENERGY PREDICTED BY IDOCK:   -0.89 KCAL/MOL
REMARK 927      BINDING AFFINITY PREDICTED BY RF-SCORE:    0.00 PKD
ROOT
HETATM    1  F   UNL     1      -6.464   8.180  63.995  1.00  0.00    -0.063 F  
HETATM    2  C   UNL     1      -7.385   8.825  64.723  1.00  0.00    -0.093 A  
HETATM    3  C   UNL     1      -8.615   8.223  64.959  1.00  0.00    -0.102 A  
HETATM    4  C   UNL     1      -9.589   8.911  65.686  1.00  0.00    -0.175 A  
HETATM    5  C   UNL     1      -9.339  10.205  66.186  1.00  0.00    -0.217 A  
HETATM    6  C   UNL     1      -8.069  10.771  65.969  1.00  0.00    -0.158 A  
HETATM    7  C   UNL     1      -7.101  10.088  65.231  1.00  0.00    -0.137 A  
ENDROOT
BRANCH   5   8
HETATM    8  C   UNL     1     -10.432  10.953  66.965  1.00  0.00    -0.244 C  
BRANCH   8   9
HETATM    9  N   UNL     1     -10.071  11.146  68.404  1.00  0.00    -0.178 NA 
HETATM   10  C   UNL     1      -9.399   9.950  68.982  1.00  0.00    -0.174 C  
HETATM   11  C   UNL     1     -11.251  11.425  69.260  1.00  0.00    -0.277 C  
HETATM   12  C   UNL     1     -10.325   8.738  69.263  1.00  0.00    -0.214 C  
HETATM   13  N   UNL     1     -11.554   9.035  70.037  1.00  0.00     0.000 NA 
HETATM   14  C   UNL     1     -12.206  10.226  69.457  1.00  0.00     0.110 C  
BRANCH  13  15
HETATM   15  C   UNL     1     -11.312   9.248  71.474  1.00  0.00    -0.385 C  
BRANCH  15  16
HETATM   16  C   UNL     1     -10.283   8.307  72.011  1.00  0.00    -0.339 C  
HETATM   17  C   UNL     1      -9.080   8.704  72.454  1.00  0.00    -0.228 C  
BRANCH  17  18
HETATM   18  C   UNL     1      -8.067   7.700  72.759  1.00  0.00    -0.145 A  
HETATM   19  C   UNL     1      -6.746   8.125  72.950  1.00  0.00    -0.103 A  
HETATM   20  C   UNL     1      -5.731   7.189  73.136  1.00  0.00    -0.045 A  
HETATM   21  C   UNL     1      -6.036   5.829  73.136  1.00  0.00    -0.052 A  
HETATM   22  C   UNL     1      -7.354   5.404  72.960  1.00  0.00    -0.092 A  
HETATM   23  C   UNL     1      -8.373   6.340  72.771  1.00  0.00    -0.119 A  
ENDBRANCH  17  18
ENDBRANCH  15  16
ENDBRANCH  13  15
ENDBRANCH   8   9
BRANCH   8  24
HETATM   24  C   UNL     1     -10.836  12.255  66.239  1.00  0.00    -0.313 A  
HETATM   25  C   UNL     1     -12.048  13.341  64.416  1.00  0.00    -0.471 A  
HETATM   26  F   UNL     1     -12.269  15.690  64.403  1.00  0.00    -0.367 F  
HETATM   27  C   UNL     1     -11.576  12.183  65.042  1.00  0.00    -0.365 A  
HETATM   28  C   UNL     1     -11.015  14.688  66.129  1.00  0.00    -0.329 A  
HETATM   29  C   UNL     1     -10.525  13.532  66.750  1.00  0.00    -0.273 A  
HETATM   30  C   UNL     1     -11.778  14.582  64.975  1.00  0.00    -0.392 A  
ENDBRANCH   8  24
ENDBRANCH   5   8
TORSDOF 6
ENDMDL
MODEL       97
REMARK 921   NORMALIZED FREE ENERGY PREDICTED BY IDOCK:   -4.87 KCAL/MOL
REMARK 922        TOTAL FREE ENERGY PREDICTED BY IDOCK:   -6.78 KCAL/MOL
REMARK 923 INTER-LIGAND FREE ENERGY PREDICTED BY IDOCK:   -6.64 KCAL/MOL
REMARK 924 INTRA-LIGAND FREE ENERGY PREDICTED BY IDOCK:   -0.13 KCAL/MOL
REMARK 927      BINDING AFFINITY PREDICTED BY RF-SCORE:    0.00 PKD
ROOT
HETATM    1  F   UNL     1     -13.084  11.816  62.641  1.00  0.00    -0.341 F  
HETATM    2  C   UNL     1     -12.280  12.164  63.653  1.00  0.00    -0.562 A  
HETATM    3  C   UNL     1     -10.905  12.188  63.457  1.00  0.00    -0.518 A  
HETATM    4  C   UNL     1     -10.063  12.514  64.523  1.00  0.00    -0.273 A  
HETATM    5  C   UNL     1     -10.592  12.822  65.793  1.00  0.00    -0.295 A  
HETATM    6  C   UNL     1     -11.990  12.832  65.950  1.00  0.00    -0.506 A  
HETATM    7  C   UNL     1     -12.829  12.494  64.887  1.00  0.00    -0.216 A  
ENDROOT
BRANCH   5   8
HETATM    8  C   UNL     1      -9.647  13.158  66.958  1.00  0.00    -0.241 C  
BRANCH   8   9
HETATM    9  N   UNL     1      -8.585  12.121  67.144  1.00  0.00    -0.179 NA 
HETATM   10  C   UNL     1      -8.911  10.849  66.443  1.00  0.00    -0.175 C  
HETATM   11  C   UNL     1      -8.363  11.775  68.570  1.00  0.00    -0.131 C  
HETATM   12  C   UNL     1     -10.020   9.990  67.105  1.00  0.00    -0.201 C  
HETATM   13  N   UNL     1      -9.848   9.725  68.553  1.00  0.00    -0.153 NA 
HETATM   14  C   UNL     1      -9.519  10.993  69.234  1.00  0.00     0.043 C  
BRANCH  13  15
HETATM   15  C   UNL     1      -8.817   8.716  68.852  1.00  0.00    -0.138 C  
BRANCH  15  16
HETATM   16  C   UNL     1      -9.048   7.444  68.103  1.00  0.00    -0.131 C  
HETATM   17  C   UNL     1      -8.097   6.826  67.385  1.00  0.00    -0.118 C  
BRANCH  17  18
HETATM   18  C   UNL     1      -8.468   5.714  66.519  1.00  0.00    -0.114 A  
HETATM   19  C   UNL     1      -9.419   4.797  66.984  1.00  0.00    -0.164 A  
HETATM   20  C   UNL     1      -9.722   3.663  66.233  1.00  0.00    -0.093 A  
HETATM   21  C   UNL     1      -9.077   3.447  65.017  1.00  0.00    -0.142 A  
HETATM   22  C   UNL     1      -8.138   4.366  64.546  1.00  0.00    -0.096 A  
HETATM   23  C   UNL     1      -7.833   5.502  65.296  1.00  0.00    -0.095 A  
ENDBRANCH  17  18
ENDBRANCH  15  16
ENDBRANCH  13  15
ENDBRANCH   8   9
BRANCH   8  24
HETATM   24  C   UNL     1      -9.103  14.598  66.830  1.00  0.00    -0.272 A  
HETATM   25  C   UNL     1      -7.200  16.128  66.923  1.00  0.00    -0.240 A  
HETATM   26  F   UNL     1      -7.460  18.352  66.182  1.00  0.00    -0.242 F  
HETATM   27  C   UNL     1      -7.751  14.859  67.130  1.00  0.00    -0.177 A  
HETATM   28  C   UNL     1      -9.341  16.934  66.161  1.00  0.00    -0.268 A  
HETATM   29  C   UNL     1      -9.902  15.669  66.383  1.00  0.00    -0.295 A  
HETATM   30  C   UNL     1      -7.997  17.149  66.424  1.00  0.00    -0.311 A  
ENDBRANCH   8  24
ENDBRANCH   5   8
TORSDOF 6
ENDMDL
MODEL       98
REMARK 921   NORMALIZED FREE ENERGY PREDICTED BY IDOCK:   -4.86 KCAL/MOL
REMARK 922        TOTAL FREE ENERGY PREDICTED BY IDOCK:   -6.76 KCAL/MOL
REMARK 923 INTER-LIGAND FREE ENERGY PREDICTED BY IDOCK:   -5.97 KCAL/MOL
REMARK 924 INTRA-LIGAND FREE ENERGY PREDICTED BY IDOCK:   -0.80 KCAL/MOL
REMARK 927      BINDING AFFINITY PREDICTED BY RF-SCORE:    0.00 PKD
ROOT
HETATM    1  F   UNL     1     -13.482  14.071  65.435  1.00  0.00    -0.416 F  
HETATM    2  C   UNL     1     -12.268  14.089  66.002  1.00  0.00    -0.458 A  
HETATM    3  C   UNL     1     -12.128  13.700  67.328  1.00  0.00    -0.385 A  
HETATM    4  C   UNL     1     -10.870  13.755  67.932  1.00  0.00    -0.257 A  
HETATM    5  C   UNL     1      -9.741  14.196  67.211  1.00  0.00    -0.236 A  
HETATM    6  C   UNL     1      -9.906  14.541  65.857  1.00  0.00    -0.347 A  
HETATM    7  C   UNL     1     -11.167  14.498  65.259  1.00  0.00    -0.352 A  
ENDROOT
BRANCH   5   8
HETATM    8  C   UNL     1      -8.369  14.268  67.900  1.00  0.00    -0.162 C  
BRANCH   8   9
HETATM    9  N   UNL     1      -7.411  13.251  67.364  1.00  0.00    -0.154 NA 
HETATM   10  C   UNL     1      -8.079  11.958  67.053  1.00  0.00    -0.167 C  
HETATM   11  C   UNL     1      -6.311  12.944  68.311  1.00  0.00    -0.085 C  
HETATM   12  C   UNL     1      -8.474  11.100  68.284  1.00  0.00    -0.145 C  
HETATM   13  N   UNL     1      -7.399  10.873  69.279  1.00  0.00    -0.123 NA 
HETATM   14  C   UNL     1      -6.743  12.162  69.574  1.00  0.00    -0.017 C  
BRANCH  13  15
HETATM   15  C   UNL     1      -6.393   9.887  68.850  1.00  0.00    -0.041 C  
BRANCH  15  16
HETATM   16  C   UNL     1      -6.856   8.484  69.077  1.00  0.00    -0.056 C  
HETATM   17  C   UNL     1      -7.544   7.777  68.168  1.00  0.00    -0.116 C  
BRANCH  17  18
HETATM   18  C   UNL     1      -8.135   6.502  68.555  1.00  0.00    -0.114 A  
HETATM   19  C   UNL     1      -7.643   5.333  67.962  1.00  0.00    -0.080 A  
HETATM   20  C   UNL     1      -8.251   4.107  68.223  1.00  0.00    -0.091 A  
HETATM   21  C   UNL     1      -9.348   4.048  69.081  1.00  0.00    -0.236 A  
HETATM   22  C   UNL     1      -9.831   5.211  69.684  1.00  0.00    -0.286 A  
HETATM   23  C   UNL     1      -9.225   6.440  69.423  1.00  0.00    -0.143 A  
ENDBRANCH  17  18
ENDBRANCH  15  16
ENDBRANCH  13  15
ENDBRANCH   8   9
BRANCH   8  24
HETATM   24  C   UNL     1      -7.822  15.713  67.889  1.00  0.00    -0.143 A  
HETATM   25  C   UNL     1      -6.446  17.418  66.807  1.00  0.00    -0.239 A  
HETATM   26  F   UNL     1      -6.559  19.652  67.557  1.00  0.00    -0.214 F  
HETATM   27  C   UNL     1      -6.882  16.093  66.911  1.00  0.00    -0.148 A  
HETATM   28  C   UNL     1      -7.832  18.021  68.685  1.00  0.00    -0.298 A  
HETATM   29  C   UNL     1      -8.258  16.692  68.805  1.00  0.00    -0.249 A  
HETATM   30  C   UNL     1      -6.939  18.373  67.684  1.00  0.00    -0.208 A  
ENDBRANCH   8  24
ENDBRANCH   5   8
TORSDOF 6
ENDMDL
MODEL       99
REMARK 921   NORMALIZED FREE ENERGY PREDICTED BY IDOCK:   -4.80 KCAL/MOL
REMARK 922        TOTAL FREE ENERGY PREDICTED BY IDOCK:   -6.67 KCAL/MOL
REMARK 923 INTER-LIGAND FREE ENERGY PREDICTED BY IDOCK:   -6.43 KCAL/MOL
REMARK 924 INTRA-LIGAND FREE ENERGY PREDICTED BY IDOCK:   -0.24 KCAL/MOL
REMARK 927      BINDING AFFINITY PREDICTED BY RF-SCORE:    0.00 PKD
ROOT
HETATM    1  F   UNL     1     -13.201  14.348  72.135  1.00  0.00    -0.359 F  
HETATM    2  C   UNL     1     -12.540  13.721  71.153  1.00  0.00    -0.373 A  
HETATM    3  C   UNL     1     -12.626  12.339  71.044  1.00  0.00    -0.352 A  
HETATM    4  C   UNL     1     -11.907  11.681  70.044  1.00  0.00    -0.435 A  
HETATM    5  C   UNL     1     -11.099  12.402  69.141  1.00  0.00    -0.260 A  
HETATM    6  C   UNL     1     -11.067  13.805  69.248  1.00  0.00    -0.253 A  
HETATM    7  C   UNL     1     -11.776  14.460  70.257  1.00  0.00    -0.355 A  
ENDROOT
BRANCH   5   8
HETATM    8  C   UNL     1     -10.299  11.658  68.061  1.00  0.00    -0.192 C  
BRANCH   8   9
HETATM    9  N   UNL     1     -10.272  10.180  68.293  1.00  0.00    -0.159 NA 
HETATM   10  C   UNL     1      -9.492   9.815  69.507  1.00  0.00    -0.212 C  
HETATM   11  C   UNL     1      -9.671   9.432  67.161  1.00  0.00    -0.173 C  
HETATM   12  C   UNL     1      -7.951   9.933  69.368  1.00  0.00    -0.135 C  
HETATM   13  N   UNL     1      -7.361   9.266  68.184  1.00  0.00    -0.079 NA 
HETATM   14  C   UNL     1      -8.147   9.632  66.990  1.00  0.00    -0.113 C  
BRANCH  13  15
HETATM   15  C   UNL     1      -7.289   7.800  68.305  1.00  0.00    -0.102 C  
BRANCH  15  16
HETATM   16  C   UNL     1      -7.562   7.120  67.003  1.00  0.00    -0.099 C  
HETATM   17  C   UNL     1      -6.682   6.311  66.393  1.00  0.00    -0.056 C  
BRANCH  17  18
HETATM   18  C   UNL     1      -6.949   5.865  65.031  1.00  0.00    -0.059 A  
HETATM   19  C   UNL     1      -8.124   6.301  64.407  1.00  0.00    -0.091 A  
HETATM   20  C   UNL     1      -8.470   5.812  63.148  1.00  0.00     0.034 A  
HETATM   21  C   UNL     1      -7.639   4.892  62.512  1.00  0.00    -0.055 A  
HETATM   22  C   UNL     1      -6.460   4.466  63.127  1.00  0.00    -0.026 A  
HETATM   23  C   UNL     1      -6.113   4.953  64.388  1.00  0.00    -0.022 A  
ENDBRANCH  17  18
ENDBRANCH  15  16
ENDBRANCH  13  15
ENDBRANCH   8   9
BRANCH   8  24
HETATM   24  C   UNL     1     -10.772  12.062  66.647  1.00  0.00    -0.280 A  
HETATM   25  C   UNL     1     -12.598  12.730  65.166  1.00  0.00    -0.513 A  
HETATM   26  F   UNL     1     -12.108  13.489  62.987  1.00  0.00    -0.545 F  
HETATM   27  C   UNL     1     -12.146  12.261  66.404  1.00  0.00    -0.123 A  
HETATM   28  C   UNL     1     -10.329  12.769  64.352  1.00  0.00    -0.388 A  
HETATM   29  C   UNL     1      -9.873  12.283  65.584  1.00  0.00    -0.247 A  
HETATM   30  C   UNL     1     -11.683  12.996  64.157  1.00  0.00    -0.412 A  
ENDBRANCH   8  24
ENDBRANCH   5   8
TORSDOF 6
ENDMDL
MODEL      100
REMARK 921   NORMALIZED FREE ENERGY PREDICTED BY IDOCK:   -4.71 KCAL/MOL
REMARK 922        TOTAL FREE ENERGY PREDICTED BY IDOCK:   -6.56 KCAL/MOL
REMARK 923 INTER-LIGAND FREE ENERGY PREDICTED BY IDOCK:   -6.74 KCAL/MOL
REMARK 924 INTRA-LIGAND FREE ENERGY PREDICTED BY IDOCK:    0.18 KCAL/MOL
REMARK 927      BINDING AFFINITY PREDICTED BY RF-SCORE:    0.00 PKD
ROOT
HETATM    1  F   UNL     1      -9.168  11.189  63.734  1.00  0.00    -0.200 F  
HETATM    2  C   UNL     1      -9.648  11.123  64.983  1.00  0.00    -0.239 A  
HETATM    3  C   UNL     1      -8.823  10.679  66.010  1.00  0.00    -0.187 A  
HETATM    4  C   UNL     1      -9.334  10.574  67.305  1.00  0.00    -0.164 A  
HETATM    5  C   UNL     1     -10.673  10.916  67.585  1.00  0.00    -0.288 A  
HETATM    6  C   UNL     1     -11.470  11.404  66.533  1.00  0.00    -0.093 A  
HETATM    7  C   UNL     1     -10.962  11.497  65.236  1.00  0.00    -0.291 A  
ENDROOT
BRANCH   5   8
HETATM    8  C   UNL     1     -11.221  10.774  69.013  1.00  0.00    -0.262 C  
BRANCH   8   9
HETATM    9  N   UNL     1     -10.320   9.960  69.888  1.00  0.00    -0.241 NA 
HETATM   10  C   UNL     1      -9.979   8.646  69.277  1.00  0.00    -0.195 C  
HETATM   11  C   UNL     1     -10.918   9.669  71.215  1.00  0.00    -0.329 C  
HETATM   12  C   UNL     1     -11.119   7.594  69.284  1.00  0.00     0.086 C  
HETATM   13  N   UNL     1     -11.781   7.373  70.591  1.00  0.00    -0.274 NA 
HETATM   14  C   UNL     1     -12.108   8.683  71.187  1.00  0.00    -0.260 C  
BRANCH  13  15
HETATM   15  C   UNL     1     -10.975   6.581  71.536  1.00  0.00    -0.255 C  
BRANCH  15  16
HETATM   16  C   UNL     1     -10.290   5.437  70.863  1.00  0.00    -0.312 C  
HETATM   17  C   UNL     1      -9.481   4.580  71.503  1.00  0.00    -0.214 C  
BRANCH  17  18
HETATM   18  C   UNL     1      -8.693   3.629  70.729  1.00  0.00    -0.123 A  
HETATM   19  C   UNL     1      -9.345   2.523  70.171  1.00  0.00    -0.187 A  
HETATM   20  C   UNL     1      -8.612   1.536  69.516  1.00  0.00    -0.090 A  
HETATM   21  C   UNL     1      -7.227   1.657  69.414  1.00  0.00    -0.036 A  
HETATM   22  C   UNL     1      -6.576   2.766  69.957  1.00  0.00    -0.033 A  
HETATM   23  C   UNL     1      -7.308   3.755  70.615  1.00  0.00    -0.041 A  
ENDBRANCH  17  18
ENDBRANCH  15  16
ENDBRANCH  13  15
ENDBRANCH   8   9
BRANCH   8  24
HETATM   24  C   UNL     1     -11.591  12.153  69.603  1.00  0.00    -0.361 A  
HETATM   25  C   UNL     1     -11.465  14.589  69.457  1.00  0.00    -0.330 A  
HETATM   26  F   UNL     1     -12.798  15.910  70.886  1.00  0.00    -0.482 F  
HETATM   27  C   UNL     1     -11.068  13.323  69.015  1.00  0.00    -0.291 A  
HETATM   28  C   UNL     1     -12.880  13.566  71.120  1.00  0.00    -0.387 A  
HETATM   29  C   UNL     1     -12.472  12.296  70.694  1.00  0.00    -0.323 A  
HETATM   30  C   UNL     1     -12.381  14.699  70.494  1.00  0.00    -0.337 A  
ENDBRANCH   8  24
ENDBRANCH   5   8
TORSDOF 6
ENDMDL
MODEL      101
REMARK 921   NORMALIZED FREE ENERGY PREDICTED BY IDOCK:   -4.70 KCAL/MOL
REMARK 922        TOTAL FREE ENERGY PREDICTED BY IDOCK:   -6.54 KCAL/MOL
REMARK 923 INTER-LIGAND FREE ENERGY PREDICTED BY IDOCK:   -5.99 KCAL/MOL
REMARK 924 INTRA-LIGAND FREE ENERGY PREDICTED BY IDOCK:   -0.55 KCAL/MOL
REMARK 927      BINDING AFFINITY PREDICTED BY RF-SCORE:    0.00 PKD
ROOT
HETATM    1  F   UNL     1     -10.145  10.676  62.711  1.00  0.00    -0.332 F  
HETATM    2  C   UNL     1      -9.746  10.514  63.979  1.00  0.00    -0.323 A  
HETATM    3  C   UNL     1      -8.546   9.863  64.240  1.00  0.00    -0.199 A  
HETATM    4  C   UNL     1      -8.147   9.661  65.563  1.00  0.00    -0.122 A  
HETATM    5  C   UNL     1      -8.943  10.112  66.635  1.00  0.00    -0.156 A  
HETATM    6  C   UNL     1     -10.130  10.807  66.339  1.00  0.00    -0.278 A  
HETATM    7  C   UNL     1     -10.534  10.997  65.016  1.00  0.00    -0.344 A  
ENDROOT
BRANCH   5   8
HETATM    8  C   UNL     1      -8.496   9.861  68.084  1.00  0.00    -0.114 C  
BRANCH   8   9
HETATM    9  N   UNL     1      -8.274  11.134  68.838  1.00  0.00    -0.133 NA 
HETATM   10  C   UNL     1      -8.027  12.289  67.932  1.00  0.00    -0.152 C  
HETATM   11  C   UNL     1      -7.114  11.061  69.760  1.00  0.00    -0.047 C  
HETATM   12  C   UNL     1      -6.631  12.317  67.256  1.00  0.00    -0.146 C  
HETATM   13  N   UNL     1      -5.474  12.147  68.166  1.00  0.00    -0.050 NA 
HETATM   14  C   UNL     1      -5.735  11.003  69.061  1.00  0.00    -0.040 C  
BRANCH  13  15
HETATM   15  C   UNL     1      -5.168  13.347  68.964  1.00  0.00    -0.069 C  
BRANCH  15  16
HETATM   16  C   UNL     1      -5.658  14.595  68.305  1.00  0.00    -0.117 C  
HETATM   17  C   UNL     1      -6.291  15.578  68.964  1.00  0.00    -0.113 C  
BRANCH  17  18
HETATM   18  C   UNL     1      -6.919  16.654  68.207  1.00  0.00    -0.155 A  
HETATM   19  C   UNL     1      -7.037  17.911  68.811  1.00  0.00    -0.268 A  
HETATM   20  C   UNL     1      -7.726  18.935  68.164  1.00  0.00    -0.316 A  
HETATM   21  C   UNL     1      -8.293  18.704  66.912  1.00  0.00    -0.269 A  
HETATM   22  C   UNL     1      -8.164  17.455  66.302  1.00  0.00    -0.288 A  
HETATM   23  C   UNL     1      -7.476  16.427  66.948  1.00  0.00    -0.269 A  
ENDBRANCH  17  18
ENDBRANCH  15  16
ENDBRANCH  13  15
ENDBRANCH   8   9
BRANCH   8  24
HETATM   24  C   UNL     1      -9.447   8.870  68.791  1.00  0.00    -0.144 A  
HETATM   25  C   UNL     1     -11.189   8.475  70.459  1.00  0.00    -0.262 A  
HETATM   26  F   UNL     1     -12.284   6.386  70.525  1.00  0.00    -0.418 F  
HETATM   27  C   UNL     1     -10.241   9.316  69.866  1.00  0.00    -0.235 A  
HETATM   28  C   UNL     1     -10.548   6.697  68.962  1.00  0.00    -0.273 A  
HETATM   29  C   UNL     1      -9.585   7.530  68.377  1.00  0.00    -0.152 A  
HETATM   30  C   UNL     1     -11.345   7.179  69.990  1.00  0.00    -0.206 A  
ENDBRANCH   8  24
ENDBRANCH   5   8
TORSDOF 6
ENDMDL
MODEL      102
REMARK 921   NORMALIZED FREE ENERGY PREDICTED BY IDOCK:   -4.69 KCAL/MOL
REMARK 922        TOTAL FREE ENERGY PREDICTED BY IDOCK:   -6.52 KCAL/MOL
REMARK 923 INTER-LIGAND FREE ENERGY PREDICTED BY IDOCK:   -6.81 KCAL/MOL
REMARK 924 INTRA-LIGAND FREE ENERGY PREDICTED BY IDOCK:    0.28 KCAL/MOL
REMARK 927      BINDING AFFINITY PREDICTED BY RF-SCORE:    0.00 PKD
ROOT
HETATM    1  F   UNL     1     -11.928  14.823  63.487  1.00  0.00    -0.071 F  
HETATM    2  C   UNL     1     -11.800  14.267  64.699  1.00  0.00    -0.448 A  
HETATM    3  C   UNL     1     -11.091  14.937  65.687  1.00  0.00    -0.348 A  
HETATM    4  C   UNL     1     -10.925  14.341  66.940  1.00  0.00    -0.304 A  
HETATM    5  C   UNL     1     -11.472  13.071  67.213  1.00  0.00    -0.380 A  
HETATM    6  C   UNL     1     -12.223  12.436  66.207  1.00  0.00    -0.062 A  
HETATM    7  C   UNL     1     -12.376  13.028  64.951  1.00  0.00    -0.512 A  
ENDROOT
BRANCH   5   8
HETATM    8  C   UNL     1     -11.260  12.423  68.591  1.00  0.00    -0.271 C  
BRANCH   8   9
HETATM    9  N   UNL     1      -9.831  12.049  68.828  1.00  0.00    -0.109 NA 
HETATM   10  C   UNL     1      -9.072  11.892  67.557  1.00  0.00    -0.178 C  
HETATM   11  C   UNL     1      -9.688  10.771  69.569  1.00  0.00     0.017 C  
HETATM   12  C   UNL     1      -9.390  10.607  66.747  1.00  0.00    -0.157 C  
HETATM   13  N   UNL     1      -9.340   9.338  67.511  1.00  0.00    -0.127 NA 
HETATM   14  C   UNL     1     -10.092   9.510  68.770  1.00  0.00    -0.188 C  
BRANCH  13  15
HETATM   15  C   UNL     1      -7.973   8.876  67.805  1.00  0.00    -0.102 C  
BRANCH  15  16
HETATM   16  C   UNL     1      -7.847   7.393  67.679  1.00  0.00    -0.113 C  
HETATM   17  C   UNL     1      -7.239   6.789  66.646  1.00  0.00    -0.073 C  
BRANCH  17  18
HETATM   18  C   UNL     1      -7.350   5.343  66.500  1.00  0.00    -0.086 A  
HETATM   19  C   UNL     1      -6.266   4.644  65.955  1.00  0.00    -0.035 A  
HETATM   20  C   UNL     1      -6.372   3.278  65.699  1.00  0.00    -0.032 A  
HETATM   21  C   UNL     1      -7.560   2.610  65.993  1.00  0.00    -0.072 A  
HETATM   22  C   UNL     1      -8.636   3.303  66.550  1.00  0.00    -0.117 A  
HETATM   23  C   UNL     1      -8.533   4.671  66.805  1.00  0.00    -0.105 A  
ENDBRANCH  17  18
ENDBRANCH  15  16
ENDBRANCH  13  15
ENDBRANCH   8   9
BRANCH   8  24
HETATM   24  C   UNL     1     -11.875  13.293  69.710  1.00  0.00    -0.394 A  
HETATM   25  C   UNL     1     -12.565  15.500  70.500  1.00  0.00    -0.462 A  
HETATM   26  F   UNL     1     -13.820  15.683  72.489  1.00  0.00    -0.513 F  
HETATM   27  C   UNL     1     -11.920  14.693  69.557  1.00  0.00    -0.361 A  
HETATM   28  C   UNL     1     -13.097  13.546  71.809  1.00  0.00    -0.475 A  
HETATM   29  C   UNL     1     -12.438  12.735  70.876  1.00  0.00    -0.373 A  
HETATM   30  C   UNL     1     -13.162  14.917  71.609  1.00  0.00    -0.359 A  
ENDBRANCH   8  24
ENDBRANCH   5   8
TORSDOF 6
ENDMDL
MODEL      103
REMARK 921   NORMALIZED FREE ENERGY PREDICTED BY IDOCK:   -4.66 KCAL/MOL
REMARK 922        TOTAL FREE ENERGY PREDICTED BY IDOCK:   -6.49 KCAL/MOL
REMARK 923 INTER-LIGAND FREE ENERGY PREDICTED BY IDOCK:   -6.15 KCAL/MOL
REMARK 924 INTRA-LIGAND FREE ENERGY PREDICTED BY IDOCK:   -0.34 KCAL/MOL
REMARK 927      BINDING AFFINITY PREDICTED BY RF-SCORE:    0.00 PKD
ROOT
HETATM    1  F   UNL     1     -13.084  12.032  62.634  1.00  0.00    -0.256 F  
HETATM    2  C   UNL     1     -12.260  12.337  63.645  1.00  0.00    -0.567 A  
HETATM    3  C   UNL     1     -10.906  12.516  63.393  1.00  0.00    -0.351 A  
HETATM    4  C   UNL     1     -10.040  12.797  64.453  1.00  0.00    -0.275 A  
HETATM    5  C   UNL     1     -10.524  12.904  65.773  1.00  0.00    -0.293 A  
HETATM    6  C   UNL     1     -11.907  12.762  65.990  1.00  0.00    -0.495 A  
HETATM    7  C   UNL     1     -12.769  12.469  64.932  1.00  0.00    -0.371 A  
ENDROOT
BRANCH   5   8
HETATM    8  C   UNL     1      -9.552  13.193  66.927  1.00  0.00    -0.248 C  
BRANCH   8   9
HETATM    9  N   UNL     1      -8.256  12.461  66.774  1.00  0.00    -0.088 NA 
HETATM   10  C   UNL     1      -8.433  11.135  66.121  1.00  0.00    -0.156 C  
HETATM   11  C   UNL     1      -7.583  12.208  68.072  1.00  0.00    -0.123 C  
HETATM   12  C   UNL     1      -9.076  10.037  67.008  1.00  0.00    -0.142 C  
HETATM   13  N   UNL     1      -8.462   9.850  68.344  1.00  0.00    -0.110 NA 
HETATM   14  C   UNL     1      -8.288  11.173  68.977  1.00  0.00    -0.049 C  
BRANCH  13  15
HETATM   15  C   UNL     1      -7.173   9.139  68.310  1.00  0.00    -0.078 C  
BRANCH  15  16
HETATM   16  C   UNL     1      -6.988   8.263  69.506  1.00  0.00    -0.046 C  
HETATM   17  C   UNL     1      -7.569   7.060  69.637  1.00  0.00    -0.104 C  
BRANCH  17  18
HETATM   18  C   UNL     1      -7.504   6.374  70.921  1.00  0.00    -0.088 A  
HETATM   19  C   UNL     1      -7.760   4.997  70.953  1.00  0.00    -0.083 A  
HETATM   20  C   UNL     1      -7.814   4.324  72.172  1.00  0.00    -0.082 A  
HETATM   21  C   UNL     1      -7.607   5.026  73.359  1.00  0.00    -0.089 A  
HETATM   22  C   UNL     1      -7.338   6.396  73.328  1.00  0.00    -0.086 A  
HETATM   23  C   UNL     1      -7.285   7.072  72.108  1.00  0.00    -0.077 A  
ENDBRANCH  17  18
ENDBRANCH  15  16
ENDBRANCH  13  15
ENDBRANCH   8   9
BRANCH   8  24
HETATM   24  C   UNL     1      -9.391  14.714  67.146  1.00  0.00    -0.231 A  
HETATM   25  C   UNL     1      -9.242  16.597  68.696  1.00  0.00    -0.248 A  
HETATM   26  F   UNL     1      -8.626  18.725  67.884  1.00  0.00    -0.285 F  
HETATM   27  C   UNL     1      -9.487  15.242  68.449  1.00  0.00    -0.206 A  
HETATM   28  C   UNL     1      -8.847  16.955  66.345  1.00  0.00    -0.322 A  
HETATM   29  C   UNL     1      -9.109  15.603  66.089  1.00  0.00    -0.378 A  
HETATM   30  C   UNL     1      -8.907  17.437  67.644  1.00  0.00    -0.225 A  
ENDBRANCH   8  24
ENDBRANCH   5   8
TORSDOF 6
ENDMDL
MODEL      104
REMARK 921   NORMALIZED FREE ENERGY PREDICTED BY IDOCK:   -4.65 KCAL/MOL
REMARK 922        TOTAL FREE ENERGY PREDICTED BY IDOCK:   -6.48 KCAL/MOL
REMARK 923 INTER-LIGAND FREE ENERGY PREDICTED BY IDOCK:   -6.10 KCAL/MOL
REMARK 924 INTRA-LIGAND FREE ENERGY PREDICTED BY IDOCK:   -0.38 KCAL/MOL
REMARK 927      BINDING AFFINITY PREDICTED BY RF-SCORE:    0.00 PKD
ROOT
HETATM    1  F   UNL     1     -12.195  15.422  63.410  1.00  0.00     0.211 F  
HETATM    2  C   UNL     1     -12.010  14.816  64.589  1.00  0.00    -0.440 A  
HETATM    3  C   UNL     1     -10.972  15.230  65.415  1.00  0.00    -0.380 A  
HETATM    4  C   UNL     1     -10.754  14.574  66.629  1.00  0.00    -0.305 A  
HETATM    5  C   UNL     1     -11.576  13.499  67.027  1.00  0.00    -0.394 A  
HETATM    6  C   UNL     1     -12.646  13.132  66.190  1.00  0.00    -0.116 A  
HETATM    7  C   UNL     1     -12.855  13.780  64.972  1.00  0.00    -0.319 A  
ENDROOT
BRANCH   5   8
HETATM    8  C   UNL     1     -11.307  12.777  68.356  1.00  0.00    -0.295 C  
BRANCH   8   9
HETATM    9  N   UNL     1      -9.951  12.144  68.393  1.00  0.00    -0.211 NA 
HETATM   10  C   UNL     1      -9.598  11.495  67.101  1.00  0.00    -0.177 C  
HETATM   11  C   UNL     1      -9.834  11.099  69.440  1.00  0.00     0.130 C  
HETATM   12  C   UNL     1     -10.333  10.162  66.803  1.00  0.00    -0.222 C  
HETATM   13  N   UNL     1     -10.297   9.153  67.888  1.00  0.00    -0.220 NA 
HETATM   14  C   UNL     1     -10.644   9.812  69.163  1.00  0.00    -0.218 C  
BRANCH  13  15
HETATM   15  C   UNL     1      -9.000   8.468  68.017  1.00  0.00    -0.141 C  
BRANCH  15  16
HETATM   16  C   UNL     1      -8.507   8.470  69.428  1.00  0.00    -0.127 C  
HETATM   17  C   UNL     1      -8.114   7.361  70.074  1.00  0.00    -0.129 C  
BRANCH  17  18
HETATM   18  C   UNL     1      -7.853   7.426  71.507  1.00  0.00    -0.087 A  
HETATM   19  C   UNL     1      -6.931   8.371  71.973  1.00  0.00    -0.100 A  
HETATM   20  C   UNL     1      -6.573   8.394  73.319  1.00  0.00    -0.118 A  
HETATM   21  C   UNL     1      -7.140   7.476  74.201  1.00  0.00    -0.116 A  
HETATM   22  C   UNL     1      -8.070   6.542  73.741  1.00  0.00    -0.108 A  
HETATM   23  C   UNL     1      -8.429   6.516  72.393  1.00  0.00    -0.118 A  
ENDBRANCH  17  18
ENDBRANCH  15  16
ENDBRANCH  13  15
ENDBRANCH   8   9
BRANCH   8  24
HETATM   24  C   UNL     1     -11.600  13.703  69.557  1.00  0.00    -0.361 A  
HETATM   25  C   UNL     1     -13.003  14.245  71.484  1.00  0.00    -0.411 A  
HETATM   26  F   UNL     1     -12.298  15.904  73.005  1.00  0.00    -0.423 F  
HETATM   27  C   UNL     1     -12.761  13.494  70.329  1.00  0.00    -0.118 A  
HETATM   28  C   UNL     1     -10.963  15.475  71.111  1.00  0.00    -0.275 A  
HETATM   29  C   UNL     1     -10.725  14.737  69.944  1.00  0.00    -0.139 A  
HETATM   30  C   UNL     1     -12.092  15.216  71.874  1.00  0.00    -0.378 A  
ENDBRANCH   8  24
ENDBRANCH   5   8
TORSDOF 6
ENDMDL
MODEL      105
REMARK 921   NORMALIZED FREE ENERGY PREDICTED BY IDOCK:   -4.65 KCAL/MOL
REMARK 922        TOTAL FREE ENERGY PREDICTED BY IDOCK:   -6.47 KCAL/MOL
REMARK 923 INTER-LIGAND FREE ENERGY PREDICTED BY IDOCK:   -5.93 KCAL/MOL
REMARK 924 INTRA-LIGAND FREE ENERGY PREDICTED BY IDOCK:   -0.54 KCAL/MOL
REMARK 927      BINDING AFFINITY PREDICTED BY RF-SCORE:    0.00 PKD
ROOT
HETATM    1  F   UNL     1     -11.570   5.380  72.855  1.00  0.00    -0.326 F  
HETATM    2  C   UNL     1     -11.105   5.690  71.637  1.00  0.00    -0.181 A  
HETATM    3  C   UNL     1     -11.904   6.419  70.765  1.00  0.00    -0.319 A  
HETATM    4  C   UNL     1     -11.435   6.710  69.482  1.00  0.00    -0.323 A  
HETATM    5  C   UNL     1     -10.161   6.276  69.063  1.00  0.00    -0.224 A  
HETATM    6  C   UNL     1      -9.358   5.577  69.983  1.00  0.00    -0.187 A  
HETATM    7  C   UNL     1      -9.833   5.276  71.261  1.00  0.00    -0.232 A  
ENDROOT
BRANCH   5   8
HETATM    8  C   UNL     1      -9.672   6.588  67.640  1.00  0.00    -0.123 C  
BRANCH   8   9
HETATM    9  N   UNL     1      -8.584   7.615  67.627  1.00  0.00    -0.116 NA 
HETATM   10  C   UNL     1      -8.925   8.807  68.450  1.00  0.00    -0.141 C  
HETATM   11  C   UNL     1      -8.281   8.113  66.262  1.00  0.00    -0.114 C  
HETATM   12  C   UNL     1      -9.982   9.760  67.834  1.00  0.00    -0.163 C  
HETATM   13  N   UNL     1      -9.729  10.182  66.436  1.00  0.00    -0.194 NA 
HETATM   14  C   UNL     1      -9.388   8.991  65.634  1.00  0.00    -0.222 C  
BRANCH  13  15
HETATM   15  C   UNL     1      -8.667  11.194  66.306  1.00  0.00    -0.182 C  
BRANCH  15  16
HETATM   16  C   UNL     1      -9.116  12.537  66.784  1.00  0.00    -0.214 C  
HETATM   17  C   UNL     1      -9.325  12.828  68.077  1.00  0.00    -0.213 C  
BRANCH  17  18
HETATM   18  C   UNL     1      -9.963  14.091  68.429  1.00  0.00    -0.236 A  
HETATM   19  C   UNL     1      -9.147  15.195  68.704  1.00  0.00    -0.195 A  
HETATM   20  C   UNL     1      -9.711  16.389  69.147  1.00  0.00    -0.260 A  
HETATM   21  C   UNL     1     -11.092  16.481  69.311  1.00  0.00    -0.260 A  
HETATM   22  C   UNL     1     -11.909  15.386  69.024  1.00  0.00    -0.357 A  
HETATM   23  C   UNL     1     -11.346  14.189  68.581  1.00  0.00    -0.306 A  
ENDBRANCH  17  18
ENDBRANCH  15  16
ENDBRANCH  13  15
ENDBRANCH   8   9
BRANCH   8  24
HETATM   24  C   UNL     1      -9.320   5.290  66.880  1.00  0.00    -0.127 A  
HETATM   25  C   UNL     1      -7.897   3.314  66.666  1.00  0.00    -0.080 A  
HETATM   26  F   UNL     1      -8.489   1.616  65.140  1.00  0.00    -0.079 F  
HETATM   27  C   UNL     1      -8.185   4.547  67.262  1.00  0.00    -0.101 A  
HETATM   28  C   UNL     1      -9.836   3.546  65.251  1.00  0.00    -0.060 A  
HETATM   29  C   UNL     1     -10.119   4.789  65.832  1.00  0.00    -0.265 A  
HETATM   30  C   UNL     1      -8.736   2.817  65.678  1.00  0.00    -0.128 A  
ENDBRANCH   8  24
ENDBRANCH   5   8
TORSDOF 6
ENDMDL
MODEL      106
REMARK 921   NORMALIZED FREE ENERGY PREDICTED BY IDOCK:   -4.64 KCAL/MOL
REMARK 922        TOTAL FREE ENERGY PREDICTED BY IDOCK:   -6.46 KCAL/MOL
REMARK 923 INTER-LIGAND FREE ENERGY PREDICTED BY IDOCK:   -5.48 KCAL/MOL
REMARK 924 INTRA-LIGAND FREE ENERGY PREDICTED BY IDOCK:   -0.98 KCAL/MOL
REMARK 927      BINDING AFFINITY PREDICTED BY RF-SCORE:    0.00 PKD
ROOT
HETATM    1  F   UNL     1      -8.123   7.814  73.810  1.00  0.00    -0.150 F  
HETATM    2  C   UNL     1      -8.388   7.809  72.497  1.00  0.00    -0.129 A  
HETATM    3  C   UNL     1      -7.393   7.443  71.599  1.00  0.00    -0.075 A  
HETATM    4  C   UNL     1      -7.658   7.475  70.228  1.00  0.00    -0.090 A  
HETATM    5  C   UNL     1      -8.922   7.870  69.745  1.00  0.00    -0.146 A  
HETATM    6  C   UNL     1      -9.923   8.193  70.680  1.00  0.00    -0.204 A  
HETATM    7  C   UNL     1      -9.653   8.173  72.049  1.00  0.00    -0.284 A  
ENDROOT
BRANCH   5   8
HETATM    8  C   UNL     1      -9.186   7.918  68.232  1.00  0.00    -0.137 C  
BRANCH   8   9
HETATM    9  N   UNL     1      -8.462   9.045  67.565  1.00  0.00    -0.116 NA 
HETATM   10  C   UNL     1      -8.851  10.370  68.120  1.00  0.00    -0.132 C  
HETATM   11  C   UNL     1      -8.714   9.105  66.104  1.00  0.00    -0.148 C  
HETATM   12  C   UNL     1     -10.255  10.880  67.702  1.00  0.00    -0.183 C  
HETATM   13  N   UNL     1     -10.543  10.850  66.248  1.00  0.00    -0.241 NA 
HETATM   14  C   UNL     1     -10.147   9.532  65.711  1.00  0.00    -0.153 C  
BRANCH  13  15
HETATM   15  C   UNL     1      -9.873  11.920  65.490  1.00  0.00    -0.232 C  
BRANCH  15  16
HETATM   16  C   UNL     1     -10.129  13.267  66.082  1.00  0.00    -0.293 C  
HETATM   17  C   UNL     1      -9.163  14.045  66.593  1.00  0.00    -0.262 C  
BRANCH  17  18
HETATM   18  C   UNL     1      -9.531  15.243  67.338  1.00  0.00    -0.200 A  
HETATM   19  C   UNL     1      -9.477  16.478  66.681  1.00  0.00    -0.278 A  
HETATM   20  C   UNL     1      -9.717  17.656  67.386  1.00  0.00    -0.283 A  
HETATM   21  C   UNL     1     -10.016  17.599  68.746  1.00  0.00    -0.358 A  
HETATM   22  C   UNL     1     -10.084  16.367  69.400  1.00  0.00    -0.243 A  
HETATM   23  C   UNL     1      -9.843  15.187  68.696  1.00  0.00    -0.218 A  
ENDBRANCH  17  18
ENDBRANCH  15  16
ENDBRANCH  13  15
ENDBRANCH   8   9
BRANCH   8  24
HETATM   24  C   UNL     1      -8.934   6.539  67.583  1.00  0.00    -0.114 A  
HETATM   25  C   UNL     1      -9.842   4.510  66.566  1.00  0.00    -0.244 A  
HETATM   26  F   UNL     1      -8.383   2.980  65.521  1.00  0.00    -0.091 F  
HETATM   27  C   UNL     1     -10.029   5.717  67.250  1.00  0.00    -0.182 A  
HETATM   28  C   UNL     1      -7.459   4.878  66.569  1.00  0.00    -0.087 A  
HETATM   29  C   UNL     1      -7.640   6.078  67.269  1.00  0.00    -0.093 A  
HETATM   30  C   UNL     1      -8.560   4.111  66.217  1.00  0.00    -0.113 A  
ENDBRANCH   8  24
ENDBRANCH   5   8
TORSDOF 6
ENDMDL
MODEL      107
REMARK 921   NORMALIZED FREE ENERGY PREDICTED BY IDOCK:   -4.63 KCAL/MOL
REMARK 922        TOTAL FREE ENERGY PREDICTED BY IDOCK:   -6.44 KCAL/MOL
REMARK 923 INTER-LIGAND FREE ENERGY PREDICTED BY IDOCK:   -5.70 KCAL/MOL
REMARK 924 INTRA-LIGAND FREE ENERGY PREDICTED BY IDOCK:   -0.74 KCAL/MOL
REMARK 927      BINDING AFFINITY PREDICTED BY RF-SCORE:    0.00 PKD
ROOT
HETATM    1  F   UNL     1      -9.865  10.149  62.376  1.00  0.00    -0.295 F  
HETATM    2  C   UNL     1      -9.294  10.209  63.586  1.00  0.00    -0.290 A  
HETATM    3  C   UNL     1      -7.908  10.231  63.688  1.00  0.00    -0.125 A  
HETATM    4  C   UNL     1      -7.311  10.256  64.950  1.00  0.00    -0.110 A  
HETATM    5  C   UNL     1      -8.097  10.261  66.121  1.00  0.00    -0.133 A  
HETATM    6  C   UNL     1      -9.497  10.283  65.985  1.00  0.00    -0.234 A  
HETATM    7  C   UNL     1     -10.092  10.246  64.723  1.00  0.00    -0.336 A  
ENDROOT
BRANCH   5   8
HETATM    8  C   UNL     1      -7.420  10.267  67.501  1.00  0.00    -0.090 C  
BRANCH   8   9
HETATM    9  N   UNL     1      -8.094  11.199  68.459  1.00  0.00    -0.139 NA 
HETATM   10  C   UNL     1      -8.629  12.412  67.781  1.00  0.00    -0.172 C  
HETATM   11  C   UNL     1      -7.185  11.677  69.529  1.00  0.00     0.116 C  
HETATM   12  C   UNL     1      -7.566  13.453  67.344  1.00  0.00    -0.128 C  
HETATM   13  N   UNL     1      -6.597  13.859  68.389  1.00  0.00    -0.092 NA 
HETATM   14  C   UNL     1      -6.079  12.648  69.055  1.00  0.00    -0.085 C  
BRANCH  13  15
HETATM   15  C   UNL     1      -7.159  14.779  69.392  1.00  0.00    -0.170 C  
BRANCH  15  16
HETATM   16  C   UNL     1      -7.788  15.978  68.759  1.00  0.00    -0.190 C  
HETATM   17  C   UNL     1      -8.985  16.462  69.122  1.00  0.00    -0.197 C  
BRANCH  17  18
HETATM   18  C   UNL     1      -9.610  17.499  68.309  1.00  0.00    -0.299 A  
HETATM   19  C   UNL     1      -9.927  17.201  66.978  1.00  0.00    -0.287 A  
HETATM   20  C   UNL     1     -10.426  18.195  66.139  1.00  0.00    -0.377 A  
HETATM   21  C   UNL     1     -10.613  19.486  66.631  1.00  0.00    -0.583 A  
HETATM   22  C   UNL     1     -10.310  19.781  67.962  1.00  0.00    -0.567 A  
HETATM   23  C   UNL     1      -9.809  18.788  68.804  1.00  0.00    -0.434 A  
ENDBRANCH  17  18
ENDBRANCH  15  16
ENDBRANCH  13  15
ENDBRANCH   8   9
BRANCH   8  24
HETATM   24  C   UNL     1      -7.251   8.829  68.038  1.00  0.00    -0.083 A  
HETATM   25  C   UNL     1      -5.780   6.937  68.518  1.00  0.00    -0.018 A  
HETATM   26  F   UNL     1      -6.602   5.113  69.766  1.00  0.00    -0.033 F  
HETATM   27  C   UNL     1      -5.995   8.196  67.947  1.00  0.00    -0.043 A  
HETATM   28  C   UNL     1      -8.077   6.875  69.248  1.00  0.00    -0.120 A  
HETATM   29  C   UNL     1      -8.303   8.128  68.662  1.00  0.00    -0.126 A  
HETATM   30  C   UNL     1      -6.818   6.296  69.178  1.00  0.00    -0.062 A  
ENDBRANCH   8  24
ENDBRANCH   5   8
TORSDOF 6
ENDMDL
MODEL      108
REMARK 921   NORMALIZED FREE ENERGY PREDICTED BY IDOCK:   -4.60 KCAL/MOL
REMARK 922        TOTAL FREE ENERGY PREDICTED BY IDOCK:   -6.41 KCAL/MOL
REMARK 923 INTER-LIGAND FREE ENERGY PREDICTED BY IDOCK:   -5.51 KCAL/MOL
REMARK 924 INTRA-LIGAND FREE ENERGY PREDICTED BY IDOCK:   -0.89 KCAL/MOL
REMARK 927      BINDING AFFINITY PREDICTED BY RF-SCORE:    0.00 PKD
ROOT
HETATM    1  F   UNL     1     -11.108   4.630  65.716  1.00  0.00    -0.335 F  
HETATM    2  C   UNL     1     -10.410   5.295  66.646  1.00  0.00    -0.283 A  
HETATM    3  C   UNL     1     -11.068   5.810  67.756  1.00  0.00     0.057 A  
HETATM    4  C   UNL     1     -10.347   6.536  68.707  1.00  0.00    -0.220 A  
HETATM    5  C   UNL     1      -8.961   6.748  68.556  1.00  0.00    -0.121 A  
HETATM    6  C   UNL     1      -8.315   6.176  67.445  1.00  0.00    -0.108 A  
HETATM    7  C   UNL     1      -9.039   5.462  66.488  1.00  0.00    -0.135 A  
ENDROOT
BRANCH   5   8
HETATM    8  C   UNL     1      -8.190   7.567  69.603  1.00  0.00    -0.129 C  
BRANCH   8   9
HETATM    9  N   UNL     1      -8.731   8.955  69.748  1.00  0.00    -0.133 NA 
HETATM   10  C   UNL     1      -9.289   9.478  68.471  1.00  0.00    -0.137 C  
HETATM   11  C   UNL     1      -7.703   9.928  70.193  1.00  0.00    -0.175 C  
HETATM   12  C   UNL     1      -8.240   9.880  67.402  1.00  0.00    -0.118 C  
HETATM   13  N   UNL     1      -7.157  10.777  67.871  1.00  0.00    -0.084 NA 
HETATM   14  C   UNL     1      -6.617  10.249  69.140  1.00  0.00    -0.055 C  
BRANCH  13  15
HETATM   15  C   UNL     1      -7.583  12.175  68.052  1.00  0.00    -0.123 C  
BRANCH  15  16
HETATM   16  C   UNL     1      -8.560  12.600  67.004  1.00  0.00    -0.181 C  
HETATM   17  C   UNL     1      -9.637  13.358  67.263  1.00  0.00    -0.234 C  
BRANCH  17  18
HETATM   18  C   UNL     1     -10.644  13.543  66.225  1.00  0.00    -0.288 A  
HETATM   19  C   UNL     1     -11.331  12.417  65.756  1.00  0.00    -0.393 A  
HETATM   20  C   UNL     1     -12.223  12.535  64.692  1.00  0.00    -0.524 A  
HETATM   21  C   UNL     1     -12.431  13.780  64.100  1.00  0.00    -0.293 A  
HETATM   22  C   UNL     1     -11.756  14.906  64.574  1.00  0.00    -0.388 A  
HETATM   23  C   UNL     1     -10.862  14.790  65.639  1.00  0.00    -0.344 A  
ENDBRANCH  17  18
ENDBRANCH  15  16
ENDBRANCH  13  15
ENDBRANCH   8   9
BRANCH   8  24
HETATM   24  C   UNL     1      -8.080   6.795  70.936  1.00  0.00    -0.118 A  
HETATM   25  C   UNL     1      -8.811   6.503  73.250  1.00  0.00    -0.133 A  
HETATM   26  F   UNL     1      -8.128   4.593  74.454  1.00  0.00    -0.095 F  
HETATM   27  C   UNL     1      -8.806   7.239  72.060  1.00  0.00    -0.138 A  
HETATM   28  C   UNL     1      -7.327   4.883  72.257  1.00  0.00    -0.083 A  
HETATM   29  C   UNL     1      -7.304   5.625  71.068  1.00  0.00    -0.085 A  
HETATM   30  C   UNL     1      -8.086   5.323  73.331  1.00  0.00    -0.111 A  
ENDBRANCH   8  24
ENDBRANCH   5   8
TORSDOF 6
ENDMDL
MODEL      109
REMARK 921   NORMALIZED FREE ENERGY PREDICTED BY IDOCK:   -4.57 KCAL/MOL
REMARK 922        TOTAL FREE ENERGY PREDICTED BY IDOCK:   -6.37 KCAL/MOL
REMARK 923 INTER-LIGAND FREE ENERGY PREDICTED BY IDOCK:   -5.74 KCAL/MOL
REMARK 924 INTRA-LIGAND FREE ENERGY PREDICTED BY IDOCK:   -0.63 KCAL/MOL
REMARK 927      BINDING AFFINITY PREDICTED BY RF-SCORE:    0.00 PKD
ROOT
HETATM    1  F   UNL     1      -7.245   8.351  72.546  1.00  0.00    -0.106 F  
HETATM    2  C   UNL     1      -7.560   8.462  71.249  1.00  0.00    -0.092 A  
HETATM    3  C   UNL     1      -6.563   8.749  70.325  1.00  0.00    -0.040 A  
HETATM    4  C   UNL     1      -6.896   8.902  68.978  1.00  0.00    -0.059 A  
HETATM    5  C   UNL     1      -8.230   8.766  68.543  1.00  0.00    -0.117 A  
HETATM    6  C   UNL     1      -9.211   8.432  69.495  1.00  0.00    -0.154 A  
HETATM    7  C   UNL     1      -8.879   8.291  70.843  1.00  0.00    -0.171 A  
ENDROOT
BRANCH   5   8
HETATM    8  C   UNL     1      -8.579   8.959  67.059  1.00  0.00    -0.116 C  
BRANCH   8   9
HETATM    9  N   UNL     1      -8.252  10.336  66.574  1.00  0.00    -0.124 NA 
HETATM   10  C   UNL     1      -9.159  11.366  67.151  1.00  0.00    -0.164 C  
HETATM   11  C   UNL     1      -8.349  10.463  65.099  1.00  0.00    -0.165 C  
HETATM   12  C   UNL     1     -10.598  11.385  66.573  1.00  0.00    -0.263 C  
HETATM   13  N   UNL     1     -10.695  11.415  65.094  1.00  0.00    -0.286 NA 
HETATM   14  C   UNL     1      -9.788  10.393  64.536  1.00  0.00    -0.339 C  
BRANCH  13  15
HETATM   15  C   UNL     1     -10.387  12.730  64.507  1.00  0.00    -0.349 C  
BRANCH  15  16
HETATM   16  C   UNL     1     -10.356  13.808  65.542  1.00  0.00    -0.333 C  
HETATM   17  C   UNL     1     -10.582  15.102  65.267  1.00  0.00    -0.432 C  
BRANCH  17  18
HETATM   18  C   UNL     1     -10.321  16.105  66.293  1.00  0.00    -0.337 A  
HETATM   19  C   UNL     1     -10.269  15.691  67.630  1.00  0.00    -0.261 A  
HETATM   20  C   UNL     1     -10.130  16.632  68.648  1.00  0.00    -0.270 A  
HETATM   21  C   UNL     1     -10.037  17.986  68.330  1.00  0.00    -0.390 A  
HETATM   22  C   UNL     1     -10.074  18.399  66.997  1.00  0.00    -0.382 A  
HETATM   23  C   UNL     1     -10.216  17.459  65.976  1.00  0.00    -0.308 A  
ENDBRANCH  17  18
ENDBRANCH  15  16
ENDBRANCH  13  15
ENDBRANCH   8   9
BRANCH   8  24
HETATM   24  C   UNL     1      -7.972   7.830  66.198  1.00  0.00    -0.105 A  
HETATM   25  C   UNL     1      -8.298   5.777  64.912  1.00  0.00    -0.127 A  
HETATM   26  F   UNL     1      -6.530   4.937  63.595  1.00  0.00    -0.024 F  
HETATM   27  C   UNL     1      -8.788   6.759  65.780  1.00  0.00    -0.088 A  
HETATM   28  C   UNL     1      -6.148   6.867  64.890  1.00  0.00    -0.036 A  
HETATM   29  C   UNL     1      -6.628   7.844  65.773  1.00  0.00    -0.045 A  
HETATM   30  C   UNL     1      -6.988   5.850  64.462  1.00  0.00    -0.051 A  
ENDBRANCH   8  24
ENDBRANCH   5   8
TORSDOF 6
ENDMDL
MODEL      110
REMARK 921   NORMALIZED FREE ENERGY PREDICTED BY IDOCK:   -4.57 KCAL/MOL
REMARK 922        TOTAL FREE ENERGY PREDICTED BY IDOCK:   -6.36 KCAL/MOL
REMARK 923 INTER-LIGAND FREE ENERGY PREDICTED BY IDOCK:   -6.30 KCAL/MOL
REMARK 924 INTRA-LIGAND FREE ENERGY PREDICTED BY IDOCK:   -0.06 KCAL/MOL
REMARK 927      BINDING AFFINITY PREDICTED BY RF-SCORE:    0.00 PKD
ROOT
HETATM    1  F   UNL     1      -5.393   8.562  73.038  1.00  0.00    -0.040 F  
HETATM    2  C   UNL     1      -6.467   7.948  72.523  1.00  0.00    -0.068 A  
HETATM    3  C   UNL     1      -6.517   7.687  71.160  1.00  0.00    -0.038 A  
HETATM    4  C   UNL     1      -7.652   7.081  70.617  1.00  0.00    -0.093 A  
HETATM    5  C   UNL     1      -8.744   6.727  71.435  1.00  0.00    -0.131 A  
HETATM    6  C   UNL     1      -8.646   6.963  72.819  1.00  0.00    -0.132 A  
HETATM    7  C   UNL     1      -7.516   7.581  73.358  1.00  0.00    -0.120 A  
ENDROOT
BRANCH   5   8
HETATM    8  C   UNL     1      -9.993   6.080  70.815  1.00  0.00    -0.191 C  
BRANCH   8   9
HETATM    9  N   UNL     1     -10.816   7.062  70.043  1.00  0.00    -0.251 NA 
HETATM   10  C   UNL     1     -10.346   8.461  70.231  1.00  0.00    -0.205 C  
HETATM   11  C   UNL     1     -12.249   7.039  70.429  1.00  0.00    -0.087 C  
HETATM   12  C   UNL     1     -10.680   9.096  71.607  1.00  0.00    -0.371 C  
HETATM   13  N   UNL     1     -12.094   8.988  72.037  1.00  0.00    -0.370 NA 
HETATM   14  C   UNL     1     -12.548   7.597  71.840  1.00  0.00    -0.303 C  
BRANCH  13  15
HETATM   15  C   UNL     1     -12.999   9.913  71.334  1.00  0.00    -0.407 C  
BRANCH  15  16
HETATM   16  C   UNL     1     -12.251  11.007  70.643  1.00  0.00    -0.481 C  
HETATM   17  C   UNL     1     -12.390  11.287  69.338  1.00  0.00    -0.216 C  
BRANCH  17  18
HETATM   18  C   UNL     1     -11.468  12.224  68.708  1.00  0.00    -0.360 A  
HETATM   19  C   UNL     1     -10.228  11.745  68.269  1.00  0.00    -0.209 A  
HETATM   20  C   UNL     1      -9.278  12.627  67.760  1.00  0.00    -0.195 A  
HETATM   21  C   UNL     1      -9.568  13.988  67.685  1.00  0.00    -0.221 A  
HETATM   22  C   UNL     1     -10.809  14.466  68.110  1.00  0.00    -0.251 A  
HETATM   23  C   UNL     1     -11.762  13.585  68.621  1.00  0.00    -0.389 A  
ENDBRANCH  17  18
ENDBRANCH  15  16
ENDBRANCH  13  15
ENDBRANCH   8   9
BRANCH   8  24
HETATM   24  C   UNL     1      -9.618   4.811  70.018  1.00  0.00    -0.260 A  
HETATM   25  C   UNL     1      -9.096   3.772  67.868  1.00  0.00    -0.191 A  
HETATM   26  F   UNL     1      -8.279   1.559  67.815  1.00  0.00    -0.057 F  
HETATM   27  C   UNL     1      -9.535   4.872  68.612  1.00  0.00    -0.198 A  
HETATM   28  C   UNL     1      -8.857   2.494  69.899  1.00  0.00    -0.144 A  
HETATM   29  C   UNL     1      -9.313   3.587  70.647  1.00  0.00    -0.230 A  
HETATM   30  C   UNL     1      -8.745   2.598  68.521  1.00  0.00    -0.091 A  
ENDBRANCH   8  24
ENDBRANCH   5   8
TORSDOF 6
ENDMDL
MODEL      111
REMARK 921   NORMALIZED FREE ENERGY PREDICTED BY IDOCK:   -4.55 KCAL/MOL
REMARK 922        TOTAL FREE ENERGY PREDICTED BY IDOCK:   -6.34 KCAL/MOL
REMARK 923 INTER-LIGAND FREE ENERGY PREDICTED BY IDOCK:   -5.59 KCAL/MOL
REMARK 924 INTRA-LIGAND FREE ENERGY PREDICTED BY IDOCK:   -0.75 KCAL/MOL
REMARK 927      BINDING AFFINITY PREDICTED BY RF-SCORE:    0.00 PKD
ROOT
HETATM    1  F   UNL     1      -6.822  10.906  62.677  1.00  0.00    -0.125 F  
HETATM    2  C   UNL     1      -7.254  10.017  63.581  1.00  0.00    -0.128 A  
HETATM    3  C   UNL     1      -8.610   9.946  63.877  1.00  0.00    -0.202 A  
HETATM    4  C   UNL     1      -9.057   9.046  64.847  1.00  0.00    -0.132 A  
HETATM    5  C   UNL     1      -8.150   8.206  65.526  1.00  0.00    -0.130 A  
HETATM    6  C   UNL     1      -6.789   8.269  65.173  1.00  0.00    -0.069 A  
HETATM    7  C   UNL     1      -6.343   9.179  64.213  1.00  0.00    -0.076 A  
ENDROOT
BRANCH   5   8
HETATM    8  C   UNL     1      -8.659   7.237  66.604  1.00  0.00    -0.128 C  
BRANCH   8   9
HETATM    9  N   UNL     1     -10.039   7.580  67.069  1.00  0.00    -0.235 NA 
HETATM   10  C   UNL     1     -10.105   8.934  67.685  1.00  0.00    -0.218 C  
HETATM   11  C   UNL     1     -10.558   6.627  68.081  1.00  0.00    -0.241 C  
HETATM   12  C   UNL     1      -9.480   9.052  69.099  1.00  0.00    -0.153 C  
HETATM   13  N   UNL     1      -9.926   8.039  70.085  1.00  0.00    -0.189 NA 
HETATM   14  C   UNL     1      -9.861   6.704  69.460  1.00  0.00    -0.152 C  
BRANCH  13  15
HETATM   15  C   UNL     1     -11.282   8.280  70.609  1.00  0.00    -0.256 C  
BRANCH  15  16
HETATM   16  C   UNL     1     -11.494   9.715  70.965  1.00  0.00    -0.444 C  
HETATM   17  C   UNL     1     -12.668  10.348  70.813  1.00  0.00    -0.460 C  
BRANCH  17  18
HETATM   18  C   UNL     1     -12.726  11.794  70.984  1.00  0.00    -0.372 A  
HETATM   19  C   UNL     1     -12.496  12.607  69.867  1.00  0.00     0.002 A  
HETATM   20  C   UNL     1     -12.436  13.991  70.011  1.00  0.00    -0.339 A  
HETATM   21  C   UNL     1     -12.610  14.564  71.269  1.00  0.00    -0.415 A  
HETATM   22  C   UNL     1     -12.853  13.757  72.381  1.00  0.00    -0.353 A  
HETATM   23  C   UNL     1     -12.912  12.370  72.241  1.00  0.00    -0.180 A  
ENDBRANCH  17  18
ENDBRANCH  15  16
ENDBRANCH  13  15
ENDBRANCH   8   9
BRANCH   8  24
HETATM   24  C   UNL     1      -8.497   5.770  66.148  1.00  0.00    -0.130 A  
HETATM   25  C   UNL     1      -9.268   3.918  64.752  1.00  0.00    -0.149 A  
HETATM   26  F   UNL     1      -7.962   1.961  64.591  1.00  0.00    -0.066 F  
HETATM   27  C   UNL     1      -9.442   5.207  65.267  1.00  0.00    -0.009 A  
HETATM   28  C   UNL     1      -7.230   3.687  66.018  1.00  0.00    -0.068 A  
HETATM   29  C   UNL     1      -7.408   4.970  66.551  1.00  0.00    -0.086 A  
HETATM   30  C   UNL     1      -8.155   3.177  65.119  1.00  0.00    -0.086 A  
ENDBRANCH   8  24
ENDBRANCH   5   8
TORSDOF 6
ENDMDL
MODEL      112
REMARK 921   NORMALIZED FREE ENERGY PREDICTED BY IDOCK:   -4.51 KCAL/MOL
REMARK 922        TOTAL FREE ENERGY PREDICTED BY IDOCK:   -6.29 KCAL/MOL
REMARK 923 INTER-LIGAND FREE ENERGY PREDICTED BY IDOCK:   -7.84 KCAL/MOL
REMARK 924 INTRA-LIGAND FREE ENERGY PREDICTED BY IDOCK:    1.55 KCAL/MOL
REMARK 927      BINDING AFFINITY PREDICTED BY RF-SCORE:    0.00 PKD
ROOT
HETATM    1  F   UNL     1     -12.553  13.947  62.709  1.00  0.00    -0.177 F  
HETATM    2  C   UNL     1     -11.794  13.298  63.601  1.00  0.00    -0.458 A  
HETATM    3  C   UNL     1     -10.979  14.024  64.461  1.00  0.00    -0.361 A  
HETATM    4  C   UNL     1     -10.159  13.347  65.367  1.00  0.00    -0.270 A  
HETATM    5  C   UNL     1     -10.151  11.938  65.421  1.00  0.00    -0.285 A  
HETATM    6  C   UNL     1     -11.020  11.232  64.569  1.00  0.00    -0.301 A  
HETATM    7  C   UNL     1     -11.830  11.910  63.655  1.00  0.00    -0.573 A  
ENDROOT
BRANCH   5   8
HETATM    8  C   UNL     1      -9.226  11.212  66.410  1.00  0.00    -0.183 C  
BRANCH   8   9
HETATM    9  N   UNL     1      -9.933  10.828  67.671  1.00  0.00    -0.170 NA 
HETATM   10  C   UNL     1     -11.396  11.094  67.599  1.00  0.00    -0.284 C  
HETATM   11  C   UNL     1      -9.427  11.559  68.859  1.00  0.00    -0.013 C  
HETATM   12  C   UNL     1     -11.806  12.587  67.693  1.00  0.00    -0.317 C  
HETATM   13  N   UNL     1     -11.223  13.343  68.827  1.00  0.00    -0.261 NA 
HETATM   14  C   UNL     1      -9.774  13.065  68.889  1.00  0.00     0.192 C  
BRANCH  13  15
HETATM   15  C   UNL     1     -11.847  13.037  70.126  1.00  0.00    -0.252 C  
BRANCH  15  16
HETATM   16  C   UNL     1     -12.171  11.584  70.259  1.00  0.00    -0.415 C  
HETATM   17  C   UNL     1     -12.850  11.072  71.297  1.00  0.00    -0.528 C  
BRANCH  17  18
HETATM   18  C   UNL     1     -12.934   9.624  71.449  1.00  0.00    -0.474 A  
HETATM   19  C   UNL     1     -11.819   8.853  71.098  1.00  0.00    -0.353 A  
HETATM   20  C   UNL     1     -11.895   7.462  71.127  1.00  0.00    -0.330 A  
HETATM   21  C   UNL     1     -13.083   6.842  71.510  1.00  0.00    -0.341 A  
HETATM   22  C   UNL     1     -14.191   7.610  71.874  1.00  0.00    -0.492 A  
HETATM   23  C   UNL     1     -14.118   9.003  71.845  1.00  0.00    -0.404 A  
ENDBRANCH  17  18
ENDBRANCH  15  16
ENDBRANCH  13  15
ENDBRANCH   8   9
BRANCH   8  24
HETATM   24  C   UNL     1      -8.491  10.041  65.721  1.00  0.00    -0.145 A  
HETATM   25  C   UNL     1      -8.188   7.630  65.457  1.00  0.00    -0.135 A  
HETATM   26  F   UNL     1      -6.842   6.813  63.701  1.00  0.00    -0.047 F  
HETATM   27  C   UNL     1      -8.755   8.718  66.130  1.00  0.00    -0.184 A  
HETATM   28  C   UNL     1      -7.036   9.145  63.977  1.00  0.00    -0.089 A  
HETATM   29  C   UNL     1      -7.586  10.238  64.659  1.00  0.00    -0.103 A  
HETATM   30  C   UNL     1      -7.348   7.853  64.376  1.00  0.00    -0.087 A  
ENDBRANCH   8  24
ENDBRANCH   5   8
TORSDOF 6
ENDMDL
MODEL      113
REMARK 921   NORMALIZED FREE ENERGY PREDICTED BY IDOCK:   -4.51 KCAL/MOL
REMARK 922        TOTAL FREE ENERGY PREDICTED BY IDOCK:   -6.28 KCAL/MOL
REMARK 923 INTER-LIGAND FREE ENERGY PREDICTED BY IDOCK:   -7.18 KCAL/MOL
REMARK 924 INTRA-LIGAND FREE ENERGY PREDICTED BY IDOCK:    0.89 KCAL/MOL
REMARK 927      BINDING AFFINITY PREDICTED BY RF-SCORE:    0.00 PKD
ROOT
HETATM    1  F   UNL     1      -8.774  11.629  62.336  1.00  0.00    -0.330 F  
HETATM    2  C   UNL     1      -9.155  11.135  63.521  1.00  0.00    -0.124 A  
HETATM    3  C   UNL     1      -8.261  10.372  64.262  1.00  0.00    -0.121 A  
HETATM    4  C   UNL     1      -8.669   9.825  65.481  1.00  0.00    -0.171 A  
HETATM    5  C   UNL     1      -9.974  10.041  65.969  1.00  0.00    -0.334 A  
HETATM    6  C   UNL     1     -10.842  10.855  65.218  1.00  0.00    -0.123 A  
HETATM    7  C   UNL     1     -10.436  11.391  63.994  1.00  0.00    -0.435 A  
ENDROOT
BRANCH   5   8
HETATM    8  C   UNL     1     -10.410   9.413  67.302  1.00  0.00    -0.260 C  
BRANCH   8   9
HETATM    9  N   UNL     1      -9.382   8.474  67.850  1.00  0.00    -0.135 NA 
HETATM   10  C   UNL     1      -8.918   7.492  66.832  1.00  0.00    -0.135 C  
HETATM   11  C   UNL     1      -9.881   7.685  69.003  1.00  0.00    -0.168 C  
HETATM   12  C   UNL     1      -9.926   6.364  66.487  1.00  0.00    -0.103 C  
HETATM   13  N   UNL     1     -10.498   5.639  67.647  1.00  0.00    -0.222 NA 
HETATM   14  C   UNL     1     -10.949   6.624  68.649  1.00  0.00    -0.251 C  
BRANCH  13  15
HETATM   15  C   UNL     1      -9.564   4.685  68.268  1.00  0.00    -0.149 C  
BRANCH  15  16
HETATM   16  C   UNL     1      -9.786   4.568  69.741  1.00  0.00    -0.295 C  
HETATM   17  C   UNL     1      -9.408   3.501  70.462  1.00  0.00    -0.230 C  
BRANCH  17  18
HETATM   18  C   UNL     1      -9.853   3.382  71.845  1.00  0.00    -0.238 A  
HETATM   19  C   UNL     1     -10.221   4.547  72.529  1.00  0.00    -0.246 A  
HETATM   20  C   UNL     1     -10.550   4.490  73.882  1.00  0.00    -0.335 A  
HETATM   21  C   UNL     1     -10.514   3.267  74.550  1.00  0.00    -0.224 A  
HETATM   22  C   UNL     1     -10.161   2.102  73.867  1.00  0.00    -0.159 A  
HETATM   23  C   UNL     1      -9.830   2.157  72.513  1.00  0.00    -0.197 A  
ENDBRANCH  17  18
ENDBRANCH  15  16
ENDBRANCH  13  15
ENDBRANCH   8   9
BRANCH   8  24
HETATM   24  C   UNL     1     -10.863  10.500  68.302  1.00  0.00    -0.293 A  
HETATM   25  C   UNL     1     -11.150  12.870  68.825  1.00  0.00    -0.305 A  
HETATM   26  F   UNL     1     -12.357  13.498  70.752  1.00  0.00    -0.378 F  
HETATM   27  C   UNL     1     -10.658  11.859  67.992  1.00  0.00    -0.234 A  
HETATM   28  C   UNL     1     -12.024  11.203  70.332  1.00  0.00    -0.469 A  
HETATM   29  C   UNL     1     -11.518  10.187  69.511  1.00  0.00    -0.227 A  
HETATM   30  C   UNL     1     -11.844  12.532  69.978  1.00  0.00    -0.289 A  
ENDBRANCH   8  24
ENDBRANCH   5   8
TORSDOF 6
ENDMDL
MODEL      114
REMARK 921   NORMALIZED FREE ENERGY PREDICTED BY IDOCK:   -4.48 KCAL/MOL
REMARK 922        TOTAL FREE ENERGY PREDICTED BY IDOCK:   -6.25 KCAL/MOL
REMARK 923 INTER-LIGAND FREE ENERGY PREDICTED BY IDOCK:   -7.12 KCAL/MOL
REMARK 924 INTRA-LIGAND FREE ENERGY PREDICTED BY IDOCK:    0.87 KCAL/MOL
REMARK 927      BINDING AFFINITY PREDICTED BY RF-SCORE:    0.00 PKD
ROOT
HETATM    1  F   UNL     1      -6.910  21.127  67.436  1.00  0.00    -0.365 F  
HETATM    2  C   UNL     1      -7.746  20.094  67.269  1.00  0.00    -0.306 A  
HETATM    3  C   UNL     1      -7.475  19.147  66.289  1.00  0.00    -0.286 A  
HETATM    4  C   UNL     1      -8.366  18.090  66.089  1.00  0.00    -0.159 A  
HETATM    5  C   UNL     1      -9.533  17.970  66.871  1.00  0.00    -0.288 A  
HETATM    6  C   UNL     1      -9.758  18.920  67.884  1.00  0.00    -0.376 A  
HETATM    7  C   UNL     1      -8.873  19.983  68.075  1.00  0.00    -0.297 A  
ENDROOT
BRANCH   5   8
HETATM    8  C   UNL     1     -10.511  16.811  66.620  1.00  0.00    -0.258 C  
BRANCH   8   9
HETATM    9  N   UNL     1     -10.042  15.898  65.532  1.00  0.00    -0.404 NA 
HETATM   10  C   UNL     1     -11.087  15.675  64.495  1.00  0.00    -0.286 C  
HETATM   11  C   UNL     1      -9.650  14.559  66.035  1.00  0.00    -0.275 C  
HETATM   12  C   UNL     1     -12.256  14.748  64.919  1.00  0.00    -0.300 C  
HETATM   13  N   UNL     1     -11.863  13.448  65.511  1.00  0.00    -0.345 NA 
HETATM   14  C   UNL     1     -10.824  13.685  66.533  1.00  0.00    -0.283 C  
BRANCH  13  15
HETATM   15  C   UNL     1     -11.379  12.469  64.523  1.00  0.00    -0.330 C  
BRANCH  15  16
HETATM   16  C   UNL     1     -10.720  11.298  65.176  1.00  0.00    -0.312 C  
HETATM   17  C   UNL     1      -9.415  11.018  65.046  1.00  0.00    -0.269 C  
BRANCH  17  18
HETATM   18  C   UNL     1      -8.906   9.744  65.540  1.00  0.00    -0.192 A  
HETATM   19  C   UNL     1      -9.779   8.908  66.248  1.00  0.00    -0.345 A  
HETATM   20  C   UNL     1      -9.306   7.734  66.829  1.00  0.00    -0.227 A  
HETATM   21  C   UNL     1      -7.961   7.391  66.698  1.00  0.00    -0.121 A  
HETATM   22  C   UNL     1      -7.092   8.216  65.981  1.00  0.00    -0.061 A  
HETATM   23  C   UNL     1      -7.564   9.393  65.400  1.00  0.00    -0.100 A  
ENDBRANCH  17  18
ENDBRANCH  15  16
ENDBRANCH  13  15
ENDBRANCH   8   9
BRANCH   8  24
HETATM   24  C   UNL     1     -10.859  16.088  67.940  1.00  0.00    -0.333 A  
HETATM   25  C   UNL     1     -10.095  15.021  70.002  1.00  0.00    -0.016 A  
HETATM   26  F   UNL     1     -11.666  14.446  71.665  1.00  0.00    -0.369 F  
HETATM   27  C   UNL     1      -9.821  15.586  68.752  1.00  0.00    -0.217 A  
HETATM   28  C   UNL     1     -12.452  15.389  69.653  1.00  0.00    -0.171 A  
HETATM   29  C   UNL     1     -12.185  15.940  68.393  1.00  0.00     0.414 A  
HETATM   30  C   UNL     1     -11.406  14.944  70.449  1.00  0.00    -0.243 A  
ENDBRANCH   8  24
ENDBRANCH   5   8
TORSDOF 6
ENDMDL
MODEL      115
REMARK 921   NORMALIZED FREE ENERGY PREDICTED BY IDOCK:   -4.42 KCAL/MOL
REMARK 922        TOTAL FREE ENERGY PREDICTED BY IDOCK:   -6.17 KCAL/MOL
REMARK 923 INTER-LIGAND FREE ENERGY PREDICTED BY IDOCK:   -5.17 KCAL/MOL
REMARK 924 INTRA-LIGAND FREE ENERGY PREDICTED BY IDOCK:   -0.99 KCAL/MOL
REMARK 927      BINDING AFFINITY PREDICTED BY RF-SCORE:    0.00 PKD
ROOT
HETATM    1  F   UNL     1      -5.559   9.074  62.331  1.00  0.00    -0.083 F  
HETATM    2  C   UNL     1      -6.255   8.596  63.371  1.00  0.00    -0.085 A  
HETATM    3  C   UNL     1      -7.408   7.855  63.139  1.00  0.00    -0.104 A  
HETATM    4  C   UNL     1      -8.155   7.389  64.223  1.00  0.00    -0.055 A  
HETATM    5  C   UNL     1      -7.753   7.657  65.547  1.00  0.00    -0.101 A  
HETATM    6  C   UNL     1      -6.558   8.372  65.750  1.00  0.00    -0.053 A  
HETATM    7  C   UNL     1      -5.819   8.848  64.666  1.00  0.00    -0.064 A  
ENDROOT
BRANCH   5   8
HETATM    8  C   UNL     1      -8.601   7.152  66.726  1.00  0.00    -0.124 C  
BRANCH   8   9
HETATM    9  N   UNL     1      -9.931   7.832  66.799  1.00  0.00    -0.252 NA 
HETATM   10  C   UNL     1      -9.809   9.315  66.755  1.00  0.00    -0.225 C  
HETATM   11  C   UNL     1     -10.676   7.505  68.040  1.00  0.00    -0.106 C  
HETATM   12  C   UNL     1      -9.275   9.978  68.052  1.00  0.00    -0.134 C  
HETATM   13  N   UNL     1      -9.957   9.577  69.305  1.00  0.00    -0.178 NA 
HETATM   14  C   UNL     1     -10.076   8.105  69.333  1.00  0.00    -0.194 C  
BRANCH  13  15
HETATM   15  C   UNL     1     -11.285  10.189  69.478  1.00  0.00    -0.238 C  
BRANCH  15  16
HETATM   16  C   UNL     1     -11.197  11.670  69.653  1.00  0.00    -0.249 C  
HETATM   17  C   UNL     1     -11.622  12.548  68.732  1.00  0.00    -0.366 C  
BRANCH  17  18
HETATM   18  C   UNL     1     -11.303  13.962  68.894  1.00  0.00    -0.319 A  
HETATM   19  C   UNL     1     -11.574  14.568  70.127  1.00  0.00    -0.334 A  
HETATM   20  C   UNL     1     -11.384  15.938  70.289  1.00  0.00    -0.381 A  
HETATM   21  C   UNL     1     -10.919  16.703  69.221  1.00  0.00    -0.261 A  
HETATM   22  C   UNL     1     -10.635  16.098  67.995  1.00  0.00    -0.304 A  
HETATM   23  C   UNL     1     -10.826  14.726  67.830  1.00  0.00    -0.278 A  
ENDBRANCH  17  18
ENDBRANCH  15  16
ENDBRANCH  13  15
ENDBRANCH   8   9
BRANCH   8  24
HETATM   24  C   UNL     1      -8.683   5.610  66.725  1.00  0.00    -0.115 A  
HETATM   25  C   UNL     1      -9.828   3.579  65.992  1.00  0.00     0.042 A  
HETATM   26  F   UNL     1      -8.820   1.478  66.361  1.00  0.00    -0.101 F  
HETATM   27  C   UNL     1      -9.776   4.972  66.103  1.00  0.00    -0.196 A  
HETATM   28  C   UNL     1      -7.728   3.406  67.164  1.00  0.00    -0.079 A  
HETATM   29  C   UNL     1      -7.679   4.800  67.294  1.00  0.00    -0.091 A  
HETATM   30  C   UNL     1      -8.795   2.810  66.508  1.00  0.00    -0.146 A  
ENDBRANCH   8  24
ENDBRANCH   5   8
TORSDOF 6
ENDMDL
MODEL      116
REMARK 921   NORMALIZED FREE ENERGY PREDICTED BY IDOCK:   -4.40 KCAL/MOL
REMARK 922        TOTAL FREE ENERGY PREDICTED BY IDOCK:   -6.13 KCAL/MOL
REMARK 923 INTER-LIGAND FREE ENERGY PREDICTED BY IDOCK:   -6.56 KCAL/MOL
REMARK 924 INTRA-LIGAND FREE ENERGY PREDICTED BY IDOCK:    0.43 KCAL/MOL
REMARK 927      BINDING AFFINITY PREDICTED BY RF-SCORE:    0.00 PKD
ROOT
HETATM    1  F   UNL     1      -7.226   8.327  72.596  1.00  0.00    -0.100 F  
HETATM    2  C   UNL     1      -7.645   8.787  71.410  1.00  0.00    -0.102 A  
HETATM    3  C   UNL     1      -6.765   9.497  70.603  1.00  0.00    -0.110 A  
HETATM    4  C   UNL     1      -7.211  10.009  69.383  1.00  0.00    -0.087 A  
HETATM    5  C   UNL     1      -8.541   9.812  68.959  1.00  0.00    -0.146 A  
HETATM    6  C   UNL     1      -9.397   9.052  69.778  1.00  0.00    -0.176 A  
HETATM    7  C   UNL     1      -8.953   8.551  71.003  1.00  0.00    -0.219 A  
ENDROOT
BRANCH   5   8
HETATM    8  C   UNL     1      -9.018  10.403  67.623  1.00  0.00    -0.138 C  
BRANCH   8   9
HETATM    9  N   UNL     1      -9.224  11.883  67.698  1.00  0.00    -0.178 NA 
HETATM   10  C   UNL     1     -10.378  12.247  68.565  1.00  0.00    -0.223 C  
HETATM   11  C   UNL     1      -9.479  12.495  66.371  1.00  0.00    -0.233 C  
HETATM   12  C   UNL     1     -11.779  11.972  67.958  1.00  0.00    -0.331 C  
HETATM   13  N   UNL     1     -12.001  12.502  66.591  1.00  0.00    -0.574 NA 
HETATM   14  C   UNL     1     -10.848  12.137  65.745  1.00  0.00    -0.281 C  
BRANCH  13  15
HETATM   15  C   UNL     1     -12.212  13.959  66.548  1.00  0.00    -0.442 C  
BRANCH  15  16
HETATM   16  C   UNL     1     -10.942  14.712  66.776  1.00  0.00    -0.323 C  
HETATM   17  C   UNL     1     -10.900  15.942  67.312  1.00  0.00    -0.279 C  
BRANCH  17  18
HETATM   18  C   UNL     1      -9.644  16.681  67.300  1.00  0.00    -0.243 A  
HETATM   19  C   UNL     1      -9.413  17.618  68.316  1.00  0.00    -0.295 A  
HETATM   20  C   UNL     1      -8.275  18.421  68.281  1.00  0.00    -0.317 A  
HETATM   21  C   UNL     1      -7.365  18.285  67.234  1.00  0.00    -0.218 A  
HETATM   22  C   UNL     1      -7.586  17.342  66.229  1.00  0.00    -0.348 A  
HETATM   23  C   UNL     1      -8.726  16.538  66.260  1.00  0.00    -0.369 A  
ENDBRANCH  17  18
ENDBRANCH  15  16
ENDBRANCH  13  15
ENDBRANCH   8   9
BRANCH   8  24
HETATM   24  C   UNL     1      -8.102   9.954  66.463  1.00  0.00    -0.117 A  
HETATM   25  C   UNL     1      -7.776   8.578  64.470  1.00  0.00    -0.126 A  
HETATM   26  F   UNL     1      -5.876   8.925  63.116  1.00  0.00    -0.081 F  
HETATM   27  C   UNL     1      -8.533   8.934  65.591  1.00  0.00    -0.171 A  
HETATM   28  C   UNL     1      -6.108  10.209  65.078  1.00  0.00    -0.123 A  
HETATM   29  C   UNL     1      -6.853  10.557  66.211  1.00  0.00    -0.127 A  
HETATM   30  C   UNL     1      -6.579   9.231  64.214  1.00  0.00    -0.086 A  
ENDBRANCH   8  24
ENDBRANCH   5   8
TORSDOF 6
ENDMDL
MODEL      117
REMARK 921   NORMALIZED FREE ENERGY PREDICTED BY IDOCK:   -4.36 KCAL/MOL
REMARK 922        TOTAL FREE ENERGY PREDICTED BY IDOCK:   -6.08 KCAL/MOL
REMARK 923 INTER-LIGAND FREE ENERGY PREDICTED BY IDOCK:   -6.68 KCAL/MOL
REMARK 924 INTRA-LIGAND FREE ENERGY PREDICTED BY IDOCK:    0.60 KCAL/MOL
REMARK 927      BINDING AFFINITY PREDICTED BY RF-SCORE:    0.00 PKD
ROOT
HETATM    1  F   UNL     1     -12.153  16.319  72.836  1.00  0.00    -0.494 F  
HETATM    2  C   UNL     1     -11.936  15.393  71.893  1.00  0.00    -0.408 A  
HETATM    3  C   UNL     1     -12.774  14.288  71.815  1.00  0.00    -0.428 A  
HETATM    4  C   UNL     1     -12.526  13.303  70.856  1.00  0.00    -0.424 A  
HETATM    5  C   UNL     1     -11.440  13.419  69.964  1.00  0.00    -0.126 A  
HETATM    6  C   UNL     1     -10.636  14.572  70.038  1.00  0.00     0.123 A  
HETATM    7  C   UNL     1     -10.877  15.549  71.006  1.00  0.00    -0.203 A  
ENDROOT
BRANCH   5   8
HETATM    8  C   UNL     1     -11.172  12.315  68.930  1.00  0.00    -0.273 C  
BRANCH   8   9
HETATM    9  N   UNL     1     -11.982  11.084  69.192  1.00  0.00    -0.367 NA 
HETATM   10  C   UNL     1     -11.824  10.593  70.588  1.00  0.00    -0.363 C  
HETATM   11  C   UNL     1     -11.616   9.955  68.301  1.00  0.00     0.396 C  
HETATM   12  C   UNL     1     -10.471   9.903  70.902  1.00  0.00    -0.122 C  
HETATM   13  N   UNL     1     -10.059   8.839  69.956  1.00  0.00    -0.185 NA 
HETATM   14  C   UNL     1     -10.226   9.338  68.576  1.00  0.00    -0.201 C  
BRANCH  13  15
HETATM   15  C   UNL     1     -10.800   7.577  70.124  1.00  0.00    -0.249 C  
BRANCH  15  16
HETATM   16  C   UNL     1     -10.114   6.650  71.073  1.00  0.00    -0.207 C  
HETATM   17  C   UNL     1      -8.854   6.830  71.500  1.00  0.00    -0.137 C  
BRANCH  17  18
HETATM   18  C   UNL     1      -8.198   5.768  72.253  1.00  0.00    -0.108 A  
HETATM   19  C   UNL     1      -8.386   4.444  71.837  1.00  0.00    -0.107 A  
HETATM   20  C   UNL     1      -7.865   3.394  72.590  1.00  0.00    -0.067 A  
HETATM   21  C   UNL     1      -7.153   3.667  73.756  1.00  0.00    -0.048 A  
HETATM   22  C   UNL     1      -6.953   4.987  74.165  1.00  0.00    -0.077 A  
HETATM   23  C   UNL     1      -7.474   6.040  73.413  1.00  0.00    -0.093 A  
ENDBRANCH  17  18
ENDBRANCH  15  16
ENDBRANCH  13  15
ENDBRANCH   8   9
BRANCH   8  24
HETATM   24  C   UNL     1     -11.307  12.861  67.491  1.00  0.00    -0.354 A  
HETATM   25  C   UNL     1     -11.144  12.471  65.084  1.00  0.00    -0.335 A  
HETATM   26  F   UNL     1     -11.962  14.098  63.585  1.00  0.00    -0.392 F  
HETATM   27  C   UNL     1     -10.935  12.048  66.402  1.00  0.00    -0.337 A  
HETATM   28  C   UNL     1     -12.055  14.550  65.895  1.00  0.00    -0.288 A  
HETATM   29  C   UNL     1     -11.832  14.140  67.216  1.00  0.00    -0.452 A  
HETATM   30  C   UNL     1     -11.718  13.711  64.844  1.00  0.00    -0.360 A  
ENDBRANCH   8  24
ENDBRANCH   5   8
TORSDOF 6
ENDMDL
MODEL      118
REMARK 921   NORMALIZED FREE ENERGY PREDICTED BY IDOCK:   -4.35 KCAL/MOL
REMARK 922        TOTAL FREE ENERGY PREDICTED BY IDOCK:   -6.07 KCAL/MOL
REMARK 923 INTER-LIGAND FREE ENERGY PREDICTED BY IDOCK:   -7.06 KCAL/MOL
REMARK 924 INTRA-LIGAND FREE ENERGY PREDICTED BY IDOCK:    0.99 KCAL/MOL
REMARK 927      BINDING AFFINITY PREDICTED BY RF-SCORE:    0.00 PKD
ROOT
HETATM    1  F   UNL     1     -12.404  13.373  62.972  1.00  0.00    -0.607 F  
HETATM    2  C   UNL     1     -11.482  12.761  63.725  1.00  0.00    -0.470 A  
HETATM    3  C   UNL     1     -10.774  13.494  64.670  1.00  0.00    -0.429 A  
HETATM    4  C   UNL     1      -9.785  12.865  65.430  1.00  0.00    -0.043 A  
HETATM    5  C   UNL     1      -9.500  11.496  65.253  1.00  0.00    -0.206 A  
HETATM    6  C   UNL     1     -10.264  10.769  64.321  1.00  0.00    -0.422 A  
HETATM    7  C   UNL     1     -11.243  11.402  63.553  1.00  0.00    -0.322 A  
ENDROOT
BRANCH   5   8
HETATM    8  C   UNL     1      -8.394  10.827  66.085  1.00  0.00    -0.166 C  
BRANCH   8   9
HETATM    9  N   UNL     1      -8.929  10.176  67.321  1.00  0.00    -0.135 NA 
HETATM   10  C   UNL     1      -8.802  11.051  68.518  1.00  0.00    -0.159 C  
HETATM   11  C   UNL     1      -8.235   8.906  67.648  1.00  0.00    -0.110 C  
HETATM   12  C   UNL     1      -7.365  11.198  69.085  1.00  0.00    -0.115 C  
HETATM   13  N   UNL     1      -6.635   9.930  69.321  1.00  0.00    -0.048 NA 
HETATM   14  C   UNL     1      -6.775   9.071  68.128  1.00  0.00    -0.065 C  
BRANCH  13  15
HETATM   15  C   UNL     1      -7.088   9.200  70.518  1.00  0.00    -0.088 C  
BRANCH  15  16
HETATM   16  C   UNL     1      -8.527   9.463  70.820  1.00  0.00    -0.188 C  
HETATM   17  C   UNL     1      -9.290   8.638  71.552  1.00  0.00    -0.319 C  
BRANCH  17  18
HETATM   18  C   UNL     1     -10.729   8.866  71.615  1.00  0.00    -0.418 A  
HETATM   19  C   UNL     1     -11.284   9.847  70.785  1.00  0.00    -0.427 A  
HETATM   20  C   UNL     1     -12.636  10.170  70.891  1.00  0.00    -0.454 A  
HETATM   21  C   UNL     1     -13.433   9.510  71.824  1.00  0.00    -0.480 A  
HETATM   22  C   UNL     1     -12.884   8.522  72.644  1.00  0.00    -0.224 A  
HETATM   23  C   UNL     1     -11.531   8.198  72.540  1.00  0.00    -0.470 A  
ENDBRANCH  17  18
ENDBRANCH  15  16
ENDBRANCH  13  15
ENDBRANCH   8   9
BRANCH   8  24
HETATM   24  C   UNL     1      -7.531   9.893  65.207  1.00  0.00    -0.131 A  
HETATM   25  C   UNL     1      -7.383   7.916  63.779  1.00  0.00    -0.103 A  
HETATM   26  F   UNL     1      -5.407   7.511  62.556  1.00  0.00    -0.041 F  
HETATM   27  C   UNL     1      -8.103   8.726  64.663  1.00  0.00    -0.157 A  
HETATM   28  C   UNL     1      -5.478   9.378  63.991  1.00  0.00    -0.062 A  
HETATM   29  C   UNL     1      -6.189  10.184  64.890  1.00  0.00    -0.125 A  
HETATM   30  C   UNL     1      -6.083   8.259  63.438  1.00  0.00    -0.073 A  
ENDBRANCH   8  24
ENDBRANCH   5   8
TORSDOF 6
ENDMDL
MODEL      119
REMARK 921   NORMALIZED FREE ENERGY PREDICTED BY IDOCK:   -4.34 KCAL/MOL
REMARK 922        TOTAL FREE ENERGY PREDICTED BY IDOCK:   -6.05 KCAL/MOL
REMARK 923 INTER-LIGAND FREE ENERGY PREDICTED BY IDOCK:   -5.08 KCAL/MOL
REMARK 924 INTRA-LIGAND FREE ENERGY PREDICTED BY IDOCK:   -0.97 KCAL/MOL
REMARK 927      BINDING AFFINITY PREDICTED BY RF-SCORE:    0.00 PKD
ROOT
HETATM    1  F   UNL     1      -9.743   2.714  64.782  1.00  0.00    -0.152 F  
HETATM    2  C   UNL     1      -9.636   3.721  65.658  1.00  0.00    -0.166 A  
HETATM    3  C   UNL     1      -8.414   3.966  66.273  1.00  0.00    -0.109 A  
HETATM    4  C   UNL     1      -8.311   4.992  67.215  1.00  0.00    -0.106 A  
HETATM    5  C   UNL     1      -9.429   5.784  67.546  1.00  0.00    -0.112 A  
HETATM    6  C   UNL     1     -10.642   5.541  66.875  1.00  0.00    -0.348 A  
HETATM    7  C   UNL     1     -10.747   4.507  65.943  1.00  0.00    -0.075 A  
ENDROOT
BRANCH   5   8
HETATM    8  C   UNL     1      -9.300   6.894  68.601  1.00  0.00    -0.135 C  
BRANCH   8   9
HETATM    9  N   UNL     1      -9.792   8.215  68.097  1.00  0.00    -0.162 NA 
HETATM   10  C   UNL     1      -9.155   8.598  66.808  1.00  0.00    -0.149 C  
HETATM   11  C   UNL     1      -9.532   9.325  69.047  1.00  0.00    -0.155 C  
HETATM   12  C   UNL     1      -7.679   9.063  66.908  1.00  0.00    -0.098 C  
HETATM   13  N   UNL     1      -7.401  10.105  67.925  1.00  0.00    -0.087 NA 
HETATM   14  C   UNL     1      -8.042   9.713  69.195  1.00  0.00    -0.104 C  
BRANCH  13  15
HETATM   15  C   UNL     1      -7.851  11.451  67.531  1.00  0.00    -0.126 C  
BRANCH  15  16
HETATM   16  C   UNL     1      -7.378  12.497  68.488  1.00  0.00    -0.115 C  
HETATM   17  C   UNL     1      -6.767  13.628  68.102  1.00  0.00    -0.122 C  
BRANCH  17  18
HETATM   18  C   UNL     1      -6.153  14.486  69.108  1.00  0.00    -0.096 A  
HETATM   19  C   UNL     1      -5.694  13.897  70.293  1.00  0.00    -0.139 A  
HETATM   20  C   UNL     1      -5.200  14.695  71.323  1.00  0.00    -0.143 A  
HETATM   21  C   UNL     1      -5.160  16.079  71.168  1.00  0.00    -0.142 A  
HETATM   22  C   UNL     1      -5.606  16.666  69.982  1.00  0.00    -0.211 A  
HETATM   23  C   UNL     1      -6.102  15.870  68.949  1.00  0.00    -0.118 A  
ENDBRANCH  17  18
ENDBRANCH  15  16
ENDBRANCH  13  15
ENDBRANCH   8   9
BRANCH   8  24
HETATM   24  C   UNL     1      -9.931   6.459  69.942  1.00  0.00    -0.198 A  
HETATM   25  C   UNL     1     -11.897   6.357  71.391  1.00  0.00    -0.340 A  
HETATM   26  F   UNL     1     -11.831   5.044  73.349  1.00  0.00    -0.368 F  
HETATM   27  C   UNL     1     -11.260   6.824  70.235  1.00  0.00    -0.385 A  
HETATM   28  C   UNL     1      -9.886   5.188  72.026  1.00  0.00    -0.221 A  
HETATM   29  C   UNL     1      -9.239   5.667  70.880  1.00  0.00    -0.178 A  
HETATM   30  C   UNL     1     -11.209   5.530  72.266  1.00  0.00    -0.220 A  
ENDBRANCH   8  24
ENDBRANCH   5   8
TORSDOF 6
ENDMDL
MODEL      120
REMARK 921   NORMALIZED FREE ENERGY PREDICTED BY IDOCK:   -4.27 KCAL/MOL
REMARK 922        TOTAL FREE ENERGY PREDICTED BY IDOCK:   -5.95 KCAL/MOL
REMARK 923 INTER-LIGAND FREE ENERGY PREDICTED BY IDOCK:   -5.86 KCAL/MOL
REMARK 924 INTRA-LIGAND FREE ENERGY PREDICTED BY IDOCK:   -0.09 KCAL/MOL
REMARK 927      BINDING AFFINITY PREDICTED BY RF-SCORE:    0.00 PKD
ROOT
HETATM    1  F   UNL     1     -10.702   1.578  74.122  1.00  0.00    -0.133 F  
HETATM    2  C   UNL     1     -10.603   2.633  73.303  1.00  0.00    -0.164 A  
HETATM    3  C   UNL     1     -10.187   2.444  71.991  1.00  0.00    -0.139 A  
HETATM    4  C   UNL     1     -10.048   3.548  71.147  1.00  0.00     0.053 A  
HETATM    5  C   UNL     1     -10.328   4.851  71.608  1.00  0.00    -0.241 A  
HETATM    6  C   UNL     1     -10.790   5.006  72.928  1.00  0.00    -0.322 A  
HETATM    7  C   UNL     1     -10.916   3.903  73.775  1.00  0.00    -0.321 A  
ENDROOT
BRANCH   5   8
HETATM    8  C   UNL     1     -10.148   6.054  70.670  1.00  0.00    -0.194 C  
BRANCH   8   9
HETATM    9  N   UNL     1     -10.224   5.665  69.227  1.00  0.00    -0.215 NA 
HETATM   10  C   UNL     1      -9.168   4.685  68.852  1.00  0.00    -0.129 C  
HETATM   11  C   UNL     1     -10.075   6.823  68.311  1.00  0.00    -0.161 C  
HETATM   12  C   UNL     1      -7.735   5.266  68.734  1.00  0.00    -0.083 C  
HETATM   13  N   UNL     1      -7.601   6.481  67.895  1.00  0.00    -0.101 NA 
HETATM   14  C   UNL     1      -8.657   7.440  68.274  1.00  0.00    -0.124 C  
BRANCH  13  15
HETATM   15  C   UNL     1      -7.667   6.212  66.448  1.00  0.00    -0.102 C  
BRANCH  15  16
HETATM   16  C   UNL     1      -7.764   7.472  65.651  1.00  0.00    -0.100 C  
HETATM   17  C   UNL     1      -8.159   7.506  64.369  1.00  0.00    -0.074 C  
BRANCH  17  18
HETATM   18  C   UNL     1      -8.020   8.744  63.613  1.00  0.00    -0.158 A  
HETATM   19  C   UNL     1      -6.742   9.119  63.181  1.00  0.00    -0.090 A  
HETATM   20  C   UNL     1      -6.549  10.347  62.550  1.00  0.00    -0.146 A  
HETATM   21  C   UNL     1      -7.635  11.197  62.346  1.00  0.00     0.003 A  
HETATM   22  C   UNL     1      -8.912  10.818  62.764  1.00  0.00    -0.305 A  
HETATM   23  C   UNL     1      -9.107   9.590  63.398  1.00  0.00    -0.145 A  
ENDBRANCH  17  18
ENDBRANCH  15  16
ENDBRANCH  13  15
ENDBRANCH   8   9
BRANCH   8  24
HETATM   24  C   UNL     1     -11.101   7.206  71.060  1.00  0.00    -0.287 A  
HETATM   25  C   UNL     1     -13.378   7.974  71.505  1.00  0.00    -0.324 A  
HETATM   26  F   UNL     1     -13.722  10.117  72.429  1.00  0.00    -0.455 F  
HETATM   27  C   UNL     1     -12.493   6.988  71.056  1.00  0.00    -0.373 A  
HETATM   28  C   UNL     1     -11.518   9.449  71.930  1.00  0.00    -0.308 A  
HETATM   29  C   UNL     1     -10.630   8.471  71.465  1.00  0.00    -0.333 A  
HETATM   30  C   UNL     1     -12.881   9.189  71.955  1.00  0.00    -0.393 A  
ENDBRANCH   8  24
ENDBRANCH   5   8
TORSDOF 6
ENDMDL
MODEL      121
REMARK 921   NORMALIZED FREE ENERGY PREDICTED BY IDOCK:   -4.26 KCAL/MOL
REMARK 922        TOTAL FREE ENERGY PREDICTED BY IDOCK:   -5.95 KCAL/MOL
REMARK 923 INTER-LIGAND FREE ENERGY PREDICTED BY IDOCK:   -5.55 KCAL/MOL
REMARK 924 INTRA-LIGAND FREE ENERGY PREDICTED BY IDOCK:   -0.40 KCAL/MOL
REMARK 927      BINDING AFFINITY PREDICTED BY RF-SCORE:    0.00 PKD
ROOT
HETATM    1  F   UNL     1     -13.609  15.405  70.092  1.00  0.00    -0.093 F  
HETATM    2  C   UNL     1     -12.345  15.403  69.649  1.00  0.00    -0.217 A  
HETATM    3  C   UNL     1     -11.305  15.214  70.551  1.00  0.00    -0.334 A  
HETATM    4  C   UNL     1      -9.985  15.249  70.096  1.00  0.00    -0.051 A  
HETATM    5  C   UNL     1      -9.695  15.470  68.734  1.00  0.00    -0.213 A  
HETATM    6  C   UNL     1     -10.770  15.613  67.838  1.00  0.00    -0.294 A  
HETATM    7  C   UNL     1     -12.089  15.591  68.296  1.00  0.00     0.096 A  
ENDROOT
BRANCH   5   8
HETATM    8  C   UNL     1      -8.235  15.526  68.257  1.00  0.00    -0.142 C  
BRANCH   8   9
HETATM    9  N   UNL     1      -7.945  14.509  67.198  1.00  0.00    -0.184 NA 
HETATM   10  C   UNL     1      -8.971  13.431  67.157  1.00  0.00    -0.226 C  
HETATM   11  C   UNL     1      -6.634  13.841  67.388  1.00  0.00     0.053 C  
HETATM   12  C   UNL     1      -8.903  12.404  68.317  1.00  0.00    -0.174 C  
HETATM   13  N   UNL     1      -7.570  11.807  68.569  1.00  0.00    -0.125 NA 
HETATM   14  C   UNL     1      -6.564  12.886  68.602  1.00  0.00    -0.091 C  
BRANCH  13  15
HETATM   15  C   UNL     1      -7.180  10.790  67.578  1.00  0.00    -0.090 C  
BRANCH  15  16
HETATM   16  C   UNL     1      -8.165   9.668  67.514  1.00  0.00    -0.114 C  
HETATM   17  C   UNL     1      -7.936   8.454  68.039  1.00  0.00    -0.119 C  
BRANCH  17  18
HETATM   18  C   UNL     1      -8.860   7.365  67.744  1.00  0.00    -0.128 A  
HETATM   19  C   UNL     1     -10.148   7.687  67.299  1.00  0.00    -0.306 A  
HETATM   20  C   UNL     1     -11.093   6.681  67.110  1.00  0.00    -0.427 A  
HETATM   21  C   UNL     1     -10.750   5.353  67.360  1.00  0.00    -0.161 A  
HETATM   22  C   UNL     1      -9.462   5.030  67.790  1.00  0.00    -0.159 A  
HETATM   23  C   UNL     1      -8.514   6.035  67.982  1.00  0.00    -0.115 A  
ENDBRANCH  17  18
ENDBRANCH  15  16
ENDBRANCH  13  15
ENDBRANCH   8   9
BRANCH   8  24
HETATM   24  C   UNL     1      -7.836  16.967  67.870  1.00  0.00    -0.180 A  
HETATM   25  C   UNL     1      -7.400  18.615  66.119  1.00  0.00    -0.291 A  
HETATM   26  F   UNL     1      -7.111  20.883  66.703  1.00  0.00    -0.310 F  
HETATM   27  C   UNL     1      -7.657  17.297  66.511  1.00  0.00    -0.324 A  
HETATM   28  C   UNL     1      -7.440  19.311  68.427  1.00  0.00    -0.346 A  
HETATM   29  C   UNL     1      -7.680  17.990  68.827  1.00  0.00    -0.273 A  
HETATM   30  C   UNL     1      -7.311  19.613  67.080  1.00  0.00    -0.214 A  
ENDBRANCH   8  24
ENDBRANCH   5   8
TORSDOF 6
ENDMDL
MODEL      122
REMARK 921   NORMALIZED FREE ENERGY PREDICTED BY IDOCK:   -4.15 KCAL/MOL
REMARK 922        TOTAL FREE ENERGY PREDICTED BY IDOCK:   -5.80 KCAL/MOL
REMARK 923 INTER-LIGAND FREE ENERGY PREDICTED BY IDOCK:   -5.46 KCAL/MOL
REMARK 924 INTRA-LIGAND FREE ENERGY PREDICTED BY IDOCK:   -0.34 KCAL/MOL
REMARK 927      BINDING AFFINITY PREDICTED BY RF-SCORE:    0.00 PKD
ROOT
HETATM    1  F   UNL     1      -8.384   4.191  65.739  1.00  0.00    -0.106 F  
HETATM    2  C   UNL     1      -8.338   5.318  66.461  1.00  0.00    -0.108 A  
HETATM    3  C   UNL     1      -9.349   5.586  67.376  1.00  0.00    -0.115 A  
HETATM    4  C   UNL     1      -9.321   6.779  68.102  1.00  0.00    -0.122 A  
HETATM    5  C   UNL     1      -8.279   7.711  67.921  1.00  0.00    -0.123 A  
HETATM    6  C   UNL     1      -7.246   7.392  67.021  1.00  0.00    -0.089 A  
HETATM    7  C   UNL     1      -7.282   6.205  66.286  1.00  0.00    -0.072 A  
ENDROOT
BRANCH   5   8
HETATM    8  C   UNL     1      -8.278   9.027  68.715  1.00  0.00    -0.117 C  
BRANCH   8   9
HETATM    9  N   UNL     1      -9.656   9.586  68.888  1.00  0.00    -0.153 NA 
HETATM   10  C   UNL     1     -10.389   9.686  67.597  1.00  0.00    -0.237 C  
HETATM   11  C   UNL     1      -9.653  10.946  69.482  1.00  0.00     0.150 C  
HETATM   12  C   UNL     1      -9.925  10.828  66.655  1.00  0.00    -0.206 C  
HETATM   13  N   UNL     1      -9.830  12.171  67.274  1.00  0.00    -0.195 NA 
HETATM   14  C   UNL     1      -9.106  12.056  68.555  1.00  0.00    -0.106 C  
BRANCH  13  15
HETATM   15  C   UNL     1     -11.136  12.815  67.495  1.00  0.00    -0.263 C  
BRANCH  15  16
HETATM   16  C   UNL     1     -11.204  13.496  68.823  1.00  0.00    -0.311 C  
HETATM   17  C   UNL     1     -12.299  13.493  69.599  1.00  0.00    -0.220 C  
BRANCH  17  18
HETATM   18  C   UNL     1     -12.343  14.357  70.772  1.00  0.00    -0.417 A  
HETATM   19  C   UNL     1     -11.491  15.468  70.813  1.00  0.00    -0.396 A  
HETATM   20  C   UNL     1     -11.425  16.256  71.960  1.00  0.00    -0.268 A  
HETATM   21  C   UNL     1     -12.214  15.938  73.064  1.00  0.00    -0.609 A  
HETATM   22  C   UNL     1     -13.074  14.840  73.020  1.00  0.00    -0.614 A  
HETATM   23  C   UNL     1     -13.141  14.048  71.873  1.00  0.00    -0.467 A  
ENDBRANCH  17  18
ENDBRANCH  15  16
ENDBRANCH  13  15
ENDBRANCH   8   9
BRANCH   8  24
HETATM   24  C   UNL     1      -7.492   8.875  70.036  1.00  0.00    -0.057 A  
HETATM   25  C   UNL     1      -5.998   9.855  71.703  1.00  0.00     0.156 A  
HETATM   26  F   UNL     1      -5.613   8.716  73.732  1.00  0.00    -0.082 F  
HETATM   27  C   UNL     1      -6.641   9.914  70.462  1.00  0.00    -0.120 A  
HETATM   28  C   UNL     1      -6.988   7.695  72.113  1.00  0.00    -0.065 A  
HETATM   29  C   UNL     1      -7.621   7.742  70.864  1.00  0.00    -0.079 A  
HETATM   30  C   UNL     1      -6.191   8.753  72.524  1.00  0.00    -0.044 A  
ENDBRANCH   8  24
ENDBRANCH   5   8
TORSDOF 6
ENDMDL
MODEL      123
REMARK 921   NORMALIZED FREE ENERGY PREDICTED BY IDOCK:   -4.12 KCAL/MOL
REMARK 922        TOTAL FREE ENERGY PREDICTED BY IDOCK:   -5.76 KCAL/MOL
REMARK 923 INTER-LIGAND FREE ENERGY PREDICTED BY IDOCK:   -5.24 KCAL/MOL
REMARK 924 INTRA-LIGAND FREE ENERGY PREDICTED BY IDOCK:   -0.52 KCAL/MOL
REMARK 927      BINDING AFFINITY PREDICTED BY RF-SCORE:    0.00 PKD
ROOT
HETATM    1  F   UNL     1     -13.486  14.073  65.439  1.00  0.00    -0.416 F  
HETATM    2  C   UNL     1     -12.267  14.099  65.993  1.00  0.00    -0.443 A  
HETATM    3  C   UNL     1     -12.115  13.756  67.331  1.00  0.00    -0.378 A  
HETATM    4  C   UNL     1     -10.850  13.819  67.918  1.00  0.00    -0.257 A  
HETATM    5  C   UNL     1      -9.725  14.222  67.170  1.00  0.00    -0.254 A  
HETATM    6  C   UNL     1      -9.902  14.521  65.806  1.00  0.00    -0.343 A  
HETATM    7  C   UNL     1     -11.170  14.469  65.224  1.00  0.00    -0.352 A  
ENDROOT
BRANCH   5   8
HETATM    8  C   UNL     1      -8.345  14.305  67.841  1.00  0.00    -0.162 C  
BRANCH   8   9
HETATM    9  N   UNL     1      -7.409  13.248  67.345  1.00  0.00    -0.148 NA 
HETATM   10  C   UNL     1      -8.126  12.012  66.930  1.00  0.00    -0.127 C  
HETATM   11  C   UNL     1      -6.412  12.840  68.365  1.00  0.00    -0.080 C  
HETATM   12  C   UNL     1      -8.672  11.139  68.090  1.00  0.00    -0.144 C  
HETATM   13  N   UNL     1      -7.700  10.810  69.159  1.00  0.00    -0.135 NA 
HETATM   14  C   UNL     1      -6.993  12.044  69.557  1.00  0.00     0.085 C  
BRANCH  13  15
HETATM   15  C   UNL     1      -6.723   9.777  68.775  1.00  0.00    -0.050 C  
BRANCH  15  16
HETATM   16  C   UNL     1      -6.825   8.564  69.641  1.00  0.00    -0.043 C  
HETATM   17  C   UNL     1      -7.136   8.612  70.945  1.00  0.00    -0.067 C  
BRANCH  17  18
HETATM   18  C   UNL     1      -7.004   7.406  71.754  1.00  0.00    -0.062 A  
HETATM   19  C   UNL     1      -8.061   6.487  71.755  1.00  0.00    -0.104 A  
HETATM   20  C   UNL     1      -8.020   5.377  72.597  1.00  0.00    -0.103 A  
HETATM   21  C   UNL     1      -6.922   5.183  73.433  1.00  0.00    -0.077 A  
HETATM   22  C   UNL     1      -5.862   6.091  73.422  1.00  0.00    -0.049 A  
HETATM   23  C   UNL     1      -5.901   7.204  72.582  1.00  0.00    -0.041 A  
ENDBRANCH  17  18
ENDBRANCH  15  16
ENDBRANCH  13  15
ENDBRANCH   8   9
BRANCH   8  24
HETATM   24  C   UNL     1      -7.775  15.739  67.756  1.00  0.00    -0.159 A  
HETATM   25  C   UNL     1      -7.198  17.828  68.884  1.00  0.00    -0.256 A  
HETATM   26  F   UNL     1      -5.955  19.468  67.730  1.00  0.00    -0.195 F  
HETATM   27  C   UNL     1      -7.800  16.566  68.896  1.00  0.00    -0.240 A  
HETATM   28  C   UNL     1      -6.569  17.506  66.579  1.00  0.00    -0.271 A  
HETATM   29  C   UNL     1      -7.186  16.248  66.581  1.00  0.00    -0.160 A  
HETATM   30  C   UNL     1      -6.573  18.279  67.730  1.00  0.00    -0.204 A  
ENDBRANCH   8  24
ENDBRANCH   5   8
TORSDOF 6
ENDMDL
MODEL      124
REMARK 921   NORMALIZED FREE ENERGY PREDICTED BY IDOCK:   -4.12 KCAL/MOL
REMARK 922        TOTAL FREE ENERGY PREDICTED BY IDOCK:   -5.75 KCAL/MOL
REMARK 923 INTER-LIGAND FREE ENERGY PREDICTED BY IDOCK:   -7.07 KCAL/MOL
REMARK 924 INTRA-LIGAND FREE ENERGY PREDICTED BY IDOCK:    1.32 KCAL/MOL
REMARK 927      BINDING AFFINITY PREDICTED BY RF-SCORE:    0.00 PKD
ROOT
HETATM    1  F   UNL     1     -14.225  14.023  72.427  1.00  0.00    -0.530 F  
HETATM    2  C   UNL     1     -13.597  12.946  71.939  1.00  0.00    -0.293 A  
HETATM    3  C   UNL     1     -12.659  13.102  70.926  1.00  0.00    -0.377 A  
HETATM    4  C   UNL     1     -12.031  11.975  70.390  1.00  0.00    -0.379 A  
HETATM    5  C   UNL     1     -12.335  10.683  70.866  1.00  0.00    -0.502 A  
HETATM    6  C   UNL     1     -13.256  10.561  71.923  1.00  0.00    -0.526 A  
HETATM    7  C   UNL     1     -13.892  11.687  72.449  1.00  0.00     0.428 A  
ENDROOT
BRANCH   5   8
HETATM    8  C   UNL     1     -11.648   9.455  70.249  1.00  0.00    -0.138 C  
BRANCH   8   9
HETATM    9  N   UNL     1     -10.709   9.825  69.144  1.00  0.00    -0.217 NA 
HETATM   10  C   UNL     1     -11.112   9.231  67.840  1.00  0.00     0.135 C  
HETATM   11  C   UNL     1      -9.317   9.382  69.402  1.00  0.00    -0.169 C  
HETATM   12  C   UNL     1     -10.855   7.708  67.696  1.00  0.00    -0.101 C  
HETATM   13  N   UNL     1      -9.490   7.251  68.046  1.00  0.00    -0.136 NA 
HETATM   14  C   UNL     1      -9.102   7.852  69.337  1.00  0.00    -0.145 C  
BRANCH  13  15
HETATM   15  C   UNL     1      -8.478   7.570  67.023  1.00  0.00    -0.122 C  
BRANCH  15  16
HETATM   16  C   UNL     1      -8.967   8.602  66.060  1.00  0.00    -0.227 C  
HETATM   17  C   UNL     1      -8.499   9.859  66.025  1.00  0.00    -0.135 C  
BRANCH  17  18
HETATM   18  C   UNL     1      -9.180  10.851  65.201  1.00  0.00    -0.240 A  
HETATM   19  C   UNL     1      -9.555  12.063  65.792  1.00  0.00    -0.227 A  
HETATM   20  C   UNL     1     -10.302  12.992  65.070  1.00  0.00    -0.336 A  
HETATM   21  C   UNL     1     -10.668  12.711  63.755  1.00  0.00    -0.454 A  
HETATM   22  C   UNL     1     -10.283  11.509  63.159  1.00  0.00    -0.389 A  
HETATM   23  C   UNL     1      -9.537  10.576  63.881  1.00  0.00    -0.363 A  
ENDBRANCH  17  18
ENDBRANCH  15  16
ENDBRANCH  13  15
ENDBRANCH   8   9
BRANCH   8  24
HETATM   24  C   UNL     1     -11.012   8.570  71.343  1.00  0.00    -0.329 A  
HETATM   25  C   UNL     1     -10.837   6.384  72.423  1.00  0.00    -0.267 A  
HETATM   26  F   UNL     1      -9.133   6.004  74.009  1.00  0.00    -0.125 F  
HETATM   27  C   UNL     1     -11.462   7.245  71.515  1.00  0.00    -0.292 A  
HETATM   28  C   UNL     1      -9.325   8.151  73.057  1.00  0.00    -0.335 A  
HETATM   29  C   UNL     1      -9.959   9.023  72.162  1.00  0.00    -0.111 A  
HETATM   30  C   UNL     1      -9.763   6.840  73.173  1.00  0.00    -0.168 A  
ENDBRANCH   8  24
ENDBRANCH   5   8
TORSDOF 6
ENDMDL
MODEL      125
REMARK 921   NORMALIZED FREE ENERGY PREDICTED BY IDOCK:   -4.10 KCAL/MOL
REMARK 922        TOTAL FREE ENERGY PREDICTED BY IDOCK:   -5.73 KCAL/MOL
REMARK 923 INTER-LIGAND FREE ENERGY PREDICTED BY IDOCK:   -8.46 KCAL/MOL
REMARK 924 INTRA-LIGAND FREE ENERGY PREDICTED BY IDOCK:    2.73 KCAL/MOL
REMARK 927      BINDING AFFINITY PREDICTED BY RF-SCORE:    0.00 PKD
ROOT
HETATM    1  F   UNL     1     -12.786  15.490  63.740  1.00  0.00    -0.256 F  
HETATM    2  C   UNL     1     -11.897  14.812  64.477  1.00  0.00    -0.419 A  
HETATM    3  C   UNL     1     -10.917  15.506  65.176  1.00  0.00    -0.422 A  
HETATM    4  C   UNL     1      -9.967  14.797  65.916  1.00  0.00    -0.351 A  
HETATM    5  C   UNL     1      -9.992  13.389  65.964  1.00  0.00    -0.300 A  
HETATM    6  C   UNL     1     -11.023  12.716  65.282  1.00  0.00    -0.320 A  
HETATM    7  C   UNL     1     -11.964  13.424  64.533  1.00  0.00    -0.452 A  
ENDROOT
BRANCH   5   8
HETATM    8  C   UNL     1      -8.925  12.627  66.766  1.00  0.00    -0.197 C  
BRANCH   8   9
HETATM    9  N   UNL     1      -9.231  12.598  68.231  1.00  0.00    -0.201 NA 
HETATM   10  C   UNL     1      -9.165  11.221  68.792  1.00  0.00    -0.126 C  
HETATM   11  C   UNL     1     -10.583  13.121  68.546  1.00  0.00    -0.259 C  
HETATM   12  C   UNL     1     -10.348  10.291  68.414  1.00  0.00    -0.177 C  
HETATM   13  N   UNL     1     -11.702  10.851  68.639  1.00  0.00    -0.412 NA 
HETATM   14  C   UNL     1     -11.750  12.218  68.083  1.00  0.00    -0.349 C  
BRANCH  13  15
HETATM   15  C   UNL     1     -12.105  10.874  70.056  1.00  0.00    -0.355 C  
BRANCH  15  16
HETATM   16  C   UNL     1     -11.518   9.732  70.820  1.00  0.00    -0.417 C  
HETATM   17  C   UNL     1     -12.210   8.631  71.150  1.00  0.00    -0.272 C  
BRANCH  17  18
HETATM   18  C   UNL     1     -11.621   7.669  72.074  1.00  0.00    -0.334 A  
HETATM   19  C   UNL     1     -10.585   8.101  72.912  1.00  0.00    -0.327 A  
HETATM   20  C   UNL     1      -9.925   7.189  73.733  1.00  0.00    -0.373 A  
HETATM   21  C   UNL     1     -10.302   5.847  73.719  1.00  0.00    -0.272 A  
HETATM   22  C   UNL     1     -11.344   5.418  72.895  1.00  0.00    -0.365 A  
HETATM   23  C   UNL     1     -12.006   6.329  72.071  1.00  0.00    -0.353 A  
ENDBRANCH  17  18
ENDBRANCH  15  16
ENDBRANCH  13  15
ENDBRANCH   8   9
BRANCH   8  24
HETATM   24  C   UNL     1      -8.662  11.235  66.152  1.00  0.00    -0.179 A  
HETATM   25  C   UNL     1      -7.179   9.308  65.901  1.00  0.00    -0.091 A  
HETATM   26  F   UNL     1      -7.979   7.355  64.848  1.00  0.00    -0.104 F  
HETATM   27  C   UNL     1      -7.414  10.611  66.352  1.00  0.00    -0.138 A  
HETATM   28  C   UNL     1      -9.409   9.222  64.989  1.00  0.00    -0.196 A  
HETATM   29  C   UNL     1      -9.643  10.533  65.423  1.00  0.00    -0.291 A  
HETATM   30  C   UNL     1      -8.185   8.620  65.239  1.00  0.00    -0.147 A  
ENDBRANCH   8  24
ENDBRANCH   5   8
TORSDOF 6
ENDMDL
MODEL      126
REMARK 921   NORMALIZED FREE ENERGY PREDICTED BY IDOCK:   -4.09 KCAL/MOL
REMARK 922        TOTAL FREE ENERGY PREDICTED BY IDOCK:   -5.71 KCAL/MOL
REMARK 923 INTER-LIGAND FREE ENERGY PREDICTED BY IDOCK:   -5.25 KCAL/MOL
REMARK 924 INTRA-LIGAND FREE ENERGY PREDICTED BY IDOCK:   -0.46 KCAL/MOL
REMARK 927      BINDING AFFINITY PREDICTED BY RF-SCORE:    0.00 PKD
ROOT
HETATM    1  F   UNL     1     -13.257  12.911  63.699  1.00  0.00    -0.026 F  
HETATM    2  C   UNL     1     -12.379  13.463  64.546  1.00  0.00    -0.360 A  
HETATM    3  C   UNL     1     -12.405  13.105  65.888  1.00  0.00    -0.462 A  
HETATM    4  C   UNL     1     -11.515  13.708  66.779  1.00  0.00    -0.370 A  
HETATM    5  C   UNL     1     -10.588  14.672  66.333  1.00  0.00    -0.301 A  
HETATM    6  C   UNL     1     -10.555  14.981  64.961  1.00  0.00    -0.437 A  
HETATM    7  C   UNL     1     -11.454  14.387  64.074  1.00  0.00     0.050 A  
ENDROOT
BRANCH   5   8
HETATM    8  C   UNL     1      -9.630  15.339  67.333  1.00  0.00    -0.207 C  
BRANCH   8   9
HETATM    9  N   UNL     1      -8.212  14.905  67.136  1.00  0.00    -0.208 NA 
HETATM   10  C   UNL     1      -8.103  13.445  66.864  1.00  0.00     0.117 C  
HETATM   11  C   UNL     1      -7.357  15.182  68.317  1.00  0.00    -0.113 C  
HETATM   12  C   UNL     1      -8.331  12.521  68.089  1.00  0.00    -0.175 C  
HETATM   13  N   UNL     1      -7.548  12.857  69.301  1.00  0.00     0.270 NA 
HETATM   14  C   UNL     1      -7.661  14.307  69.555  1.00  0.00     0.149 C  
BRANCH  13  15
HETATM   15  C   UNL     1      -6.128  12.475  69.214  1.00  0.00    -0.099 C  
BRANCH  15  16
HETATM   16  C   UNL     1      -5.913  11.346  68.258  1.00  0.00    -0.045 C  
HETATM   17  C   UNL     1      -5.261  11.479  67.093  1.00  0.00    -0.083 C  
BRANCH  17  18
HETATM   18  C   UNL     1      -5.285  10.382  66.133  1.00  0.00    -0.062 A  
HETATM   19  C   UNL     1      -5.554  10.679  64.791  1.00  0.00    -0.089 A  
HETATM   20  C   UNL     1      -5.693   9.649  63.862  1.00  0.00    -0.091 A  
HETATM   21  C   UNL     1      -5.557   8.324  64.273  1.00  0.00    -0.055 A  
HETATM   22  C   UNL     1      -5.275   8.028  65.608  1.00  0.00    -0.028 A  
HETATM   23  C   UNL     1      -5.138   9.057  66.540  1.00  0.00    -0.033 A  
ENDBRANCH  17  18
ENDBRANCH  15  16
ENDBRANCH  13  15
ENDBRANCH   8   9
BRANCH   8  24
HETATM   24  C   UNL     1      -9.822  16.871  67.342  1.00  0.00    -0.261 A  
HETATM   25  C   UNL     1     -10.193  18.923  68.618  1.00  0.00    -0.371 A  
HETATM   26  F   UNL     1     -10.005  21.012  67.539  1.00  0.00    -0.588 F  
HETATM   27  C   UNL     1     -10.118  17.528  68.554  1.00  0.00    -0.363 A  
HETATM   28  C   UNL     1      -9.730  19.056  66.255  1.00  0.00    -0.392 A  
HETATM   29  C   UNL     1      -9.672  17.658  66.182  1.00  0.00    -0.228 A  
HETATM   30  C   UNL     1      -9.981  19.675  67.471  1.00  0.00    -0.388 A  
ENDBRANCH   8  24
ENDBRANCH   5   8
TORSDOF 6
ENDMDL
MODEL      127
REMARK 921   NORMALIZED FREE ENERGY PREDICTED BY IDOCK:   -4.06 KCAL/MOL
REMARK 922        TOTAL FREE ENERGY PREDICTED BY IDOCK:   -5.67 KCAL/MOL
REMARK 923 INTER-LIGAND FREE ENERGY PREDICTED BY IDOCK:   -9.59 KCAL/MOL
REMARK 924 INTRA-LIGAND FREE ENERGY PREDICTED BY IDOCK:    3.92 KCAL/MOL
REMARK 927      BINDING AFFINITY PREDICTED BY RF-SCORE:    0.00 PKD
ROOT
HETATM    1  F   UNL     1     -12.738  11.809  63.820  1.00  0.00    -0.537 F  
HETATM    2  C   UNL     1     -12.058  12.456  64.775  1.00  0.00    -0.416 A  
HETATM    3  C   UNL     1     -10.725  12.137  65.001  1.00  0.00    -0.338 A  
HETATM    4  C   UNL     1     -10.026  12.785  66.022  1.00  0.00    -0.277 A  
HETATM    5  C   UNL     1     -10.655  13.761  66.822  1.00  0.00    -0.273 A  
HETATM    6  C   UNL     1     -11.993  14.095  66.540  1.00  0.00    -0.466 A  
HETATM    7  C   UNL     1     -12.694  13.437  65.528  1.00  0.00    -0.469 A  
ENDROOT
BRANCH   5   8
HETATM    8  C   UNL     1      -9.875  14.448  67.954  1.00  0.00    -0.224 C  
BRANCH   8   9
HETATM    9  N   UNL     1      -9.082  15.619  67.466  1.00  0.00    -0.191 NA 
HETATM   10  C   UNL     1      -9.451  16.880  68.166  1.00  0.00    -0.251 C  
HETATM   11  C   UNL     1      -9.262  15.871  66.015  1.00  0.00    -0.337 C  
HETATM   12  C   UNL     1     -10.816  17.492  67.757  1.00  0.00    -0.249 C  
HETATM   13  N   UNL     1     -11.035  17.655  66.300  1.00  0.00     0.112 NA 
HETATM   14  C   UNL     1     -10.660  16.400  65.619  1.00  0.00    -0.323 C  
BRANCH  13  15
HETATM   15  C   UNL     1     -10.294  18.784  65.712  1.00  0.00    -0.213 C  
BRANCH  15  16
HETATM   16  C   UNL     1      -9.341  19.394  66.688  1.00  0.00    -0.408 C  
HETATM   17  C   UNL     1      -8.125  19.845  66.348  1.00  0.00    -0.357 C  
BRANCH  17  18
HETATM   18  C   UNL     1      -7.187  20.226  67.397  1.00  0.00    -0.328 A  
HETATM   19  C   UNL     1      -6.102  21.043  67.056  1.00  0.00    -0.362 A  
HETATM   20  C   UNL     1      -5.126  21.341  68.004  1.00  0.00    -0.246 A  
HETATM   21  C   UNL     1      -5.236  20.826  69.295  1.00  0.00    -0.379 A  
HETATM   22  C   UNL     1      -6.323  20.022  69.640  1.00  0.00    -0.387 A  
HETATM   23  C   UNL     1      -7.301  19.721  68.692  1.00  0.00    -0.342 A  
ENDBRANCH  17  18
ENDBRANCH  15  16
ENDBRANCH  13  15
ENDBRANCH   8   9
BRANCH   8  24
HETATM   24  C   UNL     1     -10.801  14.770  69.147  1.00  0.00    -0.267 A  
HETATM   25  C   UNL     1     -12.888  14.346  70.346  1.00  0.00    -0.301 A  
HETATM   26  F   UNL     1     -13.215  15.294  72.482  1.00  0.00    -0.364 F  
HETATM   27  C   UNL     1     -12.068  14.159  69.228  1.00  0.00    -0.364 A  
HETATM   28  C   UNL     1     -11.229  15.800  71.319  1.00  0.00    -0.376 A  
HETATM   29  C   UNL     1     -10.412  15.630  70.194  1.00  0.00    -0.316 A  
HETATM   30  C   UNL     1     -12.452  15.151  71.389  1.00  0.00    -0.344 A  
ENDBRANCH   8  24
ENDBRANCH   5   8
TORSDOF 6
ENDMDL
MODEL      128
REMARK 921   NORMALIZED FREE ENERGY PREDICTED BY IDOCK:   -3.98 KCAL/MOL
REMARK 922        TOTAL FREE ENERGY PREDICTED BY IDOCK:   -5.57 KCAL/MOL
REMARK 923 INTER-LIGAND FREE ENERGY PREDICTED BY IDOCK:   -9.48 KCAL/MOL
REMARK 924 INTRA-LIGAND FREE ENERGY PREDICTED BY IDOCK:    3.91 KCAL/MOL
REMARK 927      BINDING AFFINITY PREDICTED BY RF-SCORE:    0.00 PKD
ROOT
HETATM    1  F   UNL     1     -14.313  14.728  72.433  1.00  0.00    -0.503 F  
HETATM    2  C   UNL     1     -13.417  14.508  71.462  1.00  0.00    -0.374 A  
HETATM    3  C   UNL     1     -12.959  13.217  71.234  1.00  0.00    -0.339 A  
HETATM    4  C   UNL     1     -11.997  12.992  70.247  1.00  0.00    -0.360 A  
HETATM    5  C   UNL     1     -11.487  14.059  69.478  1.00  0.00    -0.331 A  
HETATM    6  C   UNL     1     -12.003  15.349  69.702  1.00  0.00    -0.366 A  
HETATM    7  C   UNL     1     -12.955  15.574  70.698  1.00  0.00    -0.425 A  
ENDROOT
BRANCH   5   8
HETATM    8  C   UNL     1     -10.414  13.793  68.411  1.00  0.00    -0.252 C  
BRANCH   8   9
HETATM    9  N   UNL     1      -9.637  12.544  68.686  1.00  0.00    -0.091 NA 
HETATM   10  C   UNL     1      -8.739  12.180  67.557  1.00  0.00    -0.173 C  
HETATM   11  C   UNL     1     -10.509  11.369  68.932  1.00  0.00    -0.193 C  
HETATM   12  C   UNL     1      -9.446  11.596  66.306  1.00  0.00    -0.218 C  
HETATM   13  N   UNL     1     -10.391  10.483  66.563  1.00  0.00    -0.240 NA 
HETATM   14  C   UNL     1     -11.271  10.857  67.688  1.00  0.00    -0.309 C  
BRANCH  13  15
HETATM   15  C   UNL     1      -9.729   9.200  66.852  1.00  0.00    -0.194 C  
BRANCH  15  16
HETATM   16  C   UNL     1      -9.846   8.824  68.293  1.00  0.00    -0.185 C  
HETATM   17  C   UNL     1     -10.372   7.663  68.712  1.00  0.00    -0.218 C  
BRANCH  17  18
HETATM   18  C   UNL     1     -10.640   7.474  70.133  1.00  0.00    -0.241 A  
HETATM   19  C   UNL     1     -11.561   6.489  70.511  1.00  0.00    -0.455 A  
HETATM   20  C   UNL     1     -11.925   6.349  71.849  1.00  0.00    -0.381 A  
HETATM   21  C   UNL     1     -11.366   7.190  72.809  1.00  0.00    -0.285 A  
HETATM   22  C   UNL     1     -10.437   8.163  72.436  1.00  0.00    -0.389 A  
HETATM   23  C   UNL     1     -10.072   8.306  71.097  1.00  0.00    -0.237 A  
ENDBRANCH  17  18
ENDBRANCH  15  16
ENDBRANCH  13  15
ENDBRANCH   8   9
BRANCH   8  24
HETATM   24  C   UNL     1     -11.019  13.856  66.991  1.00  0.00    -0.301 A  
HETATM   25  C   UNL     1     -10.740  14.388  64.622  1.00  0.00    -0.357 A  
HETATM   26  F   UNL     1     -12.410  13.750  63.083  1.00  0.00    -0.545 F  
HETATM   27  C   UNL     1     -10.266  14.412  65.938  1.00  0.00    -0.341 A  
HETATM   28  C   UNL     1     -12.757  13.300  65.369  1.00  0.00    -0.460 A  
HETATM   29  C   UNL     1     -12.295  13.337  66.691  1.00  0.00    -0.274 A  
HETATM   30  C   UNL     1     -11.974  13.817  64.348  1.00  0.00    -0.445 A  
ENDBRANCH   8  24
ENDBRANCH   5   8
TORSDOF 6
ENDMDL
MODEL      129
REMARK 921   NORMALIZED FREE ENERGY PREDICTED BY IDOCK:   -3.94 KCAL/MOL
REMARK 922        TOTAL FREE ENERGY PREDICTED BY IDOCK:   -5.52 KCAL/MOL
REMARK 923 INTER-LIGAND FREE ENERGY PREDICTED BY IDOCK:   -9.63 KCAL/MOL
REMARK 924 INTRA-LIGAND FREE ENERGY PREDICTED BY IDOCK:    4.11 KCAL/MOL
REMARK 927      BINDING AFFINITY PREDICTED BY RF-SCORE:    0.00 PKD
ROOT
HETATM    1  F   UNL     1     -12.950  12.322  63.349  1.00  0.00    -0.539 F  
HETATM    2  C   UNL     1     -12.378  12.503  64.546  1.00  0.00    -0.467 A  
HETATM    3  C   UNL     1     -11.390  11.623  64.972  1.00  0.00    -0.237 A  
HETATM    4  C   UNL     1     -10.819  11.788  66.236  1.00  0.00    -0.325 A  
HETATM    5  C   UNL     1     -11.231  12.837  67.083  1.00  0.00    -0.336 A  
HETATM    6  C   UNL     1     -12.201  13.738  66.607  1.00  0.00    -0.454 A  
HETATM    7  C   UNL     1     -12.780  13.565  65.348  1.00  0.00    -0.495 A  
ENDROOT
BRANCH   5   8
HETATM    8  C   UNL     1     -10.606  12.989  68.479  1.00  0.00    -0.258 C  
BRANCH   8   9
HETATM    9  N   UNL     1      -9.278  13.677  68.433  1.00  0.00    -0.192 NA 
HETATM   10  C   UNL     1      -9.355  15.081  68.922  1.00  0.00    -0.208 C  
HETATM   11  C   UNL     1      -8.707  13.735  67.065  1.00  0.00    -0.198 C  
HETATM   12  C   UNL     1     -10.032  16.086  67.954  1.00  0.00    -0.233 C  
HETATM   13  N   UNL     1      -9.527  16.076  66.561  1.00  0.00    -0.251 NA 
HETATM   14  C   UNL     1      -9.452  14.678  66.092  1.00  0.00    -0.276 C  
BRANCH  13  15
HETATM   15  C   UNL     1      -8.216  16.728  66.402  1.00  0.00    -0.314 C  
BRANCH  15  16
HETATM   16  C   UNL     1      -7.691  17.248  67.700  1.00  0.00    -0.194 C  
HETATM   17  C   UNL     1      -7.141  18.464  67.841  1.00  0.00    -0.229 C  
BRANCH  17  18
HETATM   18  C   UNL     1      -6.466  18.801  69.088  1.00  0.00    -0.297 A  
HETATM   19  C   UNL     1      -5.738  17.800  69.743  1.00  0.00    -0.241 A  
HETATM   20  C   UNL     1      -5.169  18.051  70.990  1.00  0.00    -0.250 A  
HETATM   21  C   UNL     1      -5.324  19.304  71.580  1.00  0.00    -0.365 A  
HETATM   22  C   UNL     1      -6.038  20.308  70.923  1.00  0.00    -0.278 A  
HETATM   23  C   UNL     1      -6.610  20.058  69.675  1.00  0.00    -0.340 A  
ENDBRANCH  17  18
ENDBRANCH  15  16
ENDBRANCH  13  15
ENDBRANCH   8   9
BRANCH   8  24
HETATM   24  C   UNL     1     -11.609  13.625  69.467  1.00  0.00    -0.361 A  
HETATM   25  C   UNL     1     -12.929  13.436  71.514  1.00  0.00    -0.429 A  
HETATM   26  F   UNL     1     -14.025  15.341  72.371  1.00  0.00    -0.467 F  
HETATM   27  C   UNL     1     -12.104  12.861  70.542  1.00  0.00    -0.364 A  
HETATM   28  C   UNL     1     -12.837  15.543  70.346  1.00  0.00    -0.327 A  
HETATM   29  C   UNL     1     -12.025  14.967  69.361  1.00  0.00    -0.336 A  
HETATM   30  C   UNL     1     -13.274  14.776  71.416  1.00  0.00    -0.371 A  
ENDBRANCH   8  24
ENDBRANCH   5   8
TORSDOF 6
ENDMDL
MODEL      130
REMARK 921   NORMALIZED FREE ENERGY PREDICTED BY IDOCK:   -3.83 KCAL/MOL
REMARK 922        TOTAL FREE ENERGY PREDICTED BY IDOCK:   -5.37 KCAL/MOL
REMARK 923 INTER-LIGAND FREE ENERGY PREDICTED BY IDOCK:   -5.94 KCAL/MOL
REMARK 924 INTRA-LIGAND FREE ENERGY PREDICTED BY IDOCK:    0.57 KCAL/MOL
REMARK 927      BINDING AFFINITY PREDICTED BY RF-SCORE:    0.00 PKD
ROOT
HETATM    1  F   UNL     1      -8.546   8.856  63.523  1.00  0.00    -0.189 F  
HETATM    2  C   UNL     1      -8.518   9.733  64.535  1.00  0.00    -0.176 A  
HETATM    3  C   UNL     1      -7.595   9.566  65.559  1.00  0.00    -0.105 A  
HETATM    4  C   UNL     1      -7.590  10.459  66.634  1.00  0.00    -0.114 A  
HETATM    5  C   UNL     1      -8.507  11.528  66.689  1.00  0.00    -0.172 A  
HETATM    6  C   UNL     1      -9.400  11.698  65.615  1.00  0.00    -0.195 A  
HETATM    7  C   UNL     1      -9.413  10.797  64.548  1.00  0.00    -0.297 A  
ENDROOT
BRANCH   5   8
HETATM    8  C   UNL     1      -8.499  12.487  67.890  1.00  0.00    -0.171 C  
BRANCH   8   9
HETATM    9  N   UNL     1      -8.079  13.871  67.508  1.00  0.00    -0.171 NA 
HETATM   10  C   UNL     1      -6.654  13.929  67.081  1.00  0.00     0.580 C  
HETATM   11  C   UNL     1      -8.230  14.844  68.618  1.00  0.00    -0.157 C  
HETATM   12  C   UNL     1      -5.612  13.810  68.224  1.00  0.00    -0.109 C  
HETATM   13  N   UNL     1      -5.818  14.716  69.378  1.00  0.00    -0.094 NA 
HETATM   14  C   UNL     1      -7.236  14.652  69.787  1.00  0.00    -0.058 C  
BRANCH  13  15
HETATM   15  C   UNL     1      -5.439  16.113  69.109  1.00  0.00    -0.112 C  
BRANCH  15  16
HETATM   16  C   UNL     1      -6.555  16.883  68.482  1.00  0.00    -0.165 C  
HETATM   17  C   UNL     1      -6.699  18.211  68.609  1.00  0.00    -0.240 C  
BRANCH  17  18
HETATM   18  C   UNL     1      -7.928  18.843  68.144  1.00  0.00    -0.330 A  
HETATM   19  C   UNL     1      -9.151  18.277  68.523  1.00  0.00    -0.328 A  
HETATM   20  C   UNL     1     -10.344  18.785  68.013  1.00  0.00    -0.442 A  
HETATM   21  C   UNL     1     -10.315  19.862  67.129  1.00  0.00    -0.581 A  
HETATM   22  C   UNL     1      -9.097  20.436  66.761  1.00  0.00    -0.371 A  
HETATM   23  C   UNL     1      -7.901  19.928  67.269  1.00  0.00    -0.319 A  
ENDBRANCH  17  18
ENDBRANCH  15  16
ENDBRANCH  13  15
ENDBRANCH   8   9
BRANCH   8  24
HETATM   24  C   UNL     1      -9.841  12.427  68.653  1.00  0.00    -0.086 A  
HETATM   25  C   UNL     1     -11.367  11.182  70.100  1.00  0.00    -0.295 A  
HETATM   26  F   UNL     1     -13.245  12.273  71.020  1.00  0.00    -0.268 F  
HETATM   27  C   UNL     1     -10.212  11.238  69.313  1.00  0.00    -0.058 A  
HETATM   28  C   UNL     1     -11.848  13.482  69.558  1.00  0.00    -0.392 A  
HETATM   29  C   UNL     1     -10.702  13.537  68.754  1.00  0.00    -0.261 A  
HETATM   30  C   UNL     1     -12.165  12.310  70.229  1.00  0.00    -0.262 A  
ENDBRANCH   8  24
ENDBRANCH   5   8
TORSDOF 6
ENDMDL
MODEL      131
REMARK 921   NORMALIZED FREE ENERGY PREDICTED BY IDOCK:   -3.79 KCAL/MOL
REMARK 922        TOTAL FREE ENERGY PREDICTED BY IDOCK:   -5.31 KCAL/MOL
REMARK 923 INTER-LIGAND FREE ENERGY PREDICTED BY IDOCK:   -5.20 KCAL/MOL
REMARK 924 INTRA-LIGAND FREE ENERGY PREDICTED BY IDOCK:   -0.12 KCAL/MOL
REMARK 927      BINDING AFFINITY PREDICTED BY RF-SCORE:    0.00 PKD
ROOT
HETATM    1  F   UNL     1     -11.101  18.119  64.875  1.00  0.00    -0.276 F  
HETATM    2  C   UNL     1     -10.930  17.049  65.663  1.00  0.00     0.051 A  
HETATM    3  C   UNL     1     -10.861  15.784  65.094  1.00  0.00    -0.444 A  
HETATM    4  C   UNL     1     -10.721  14.665  65.918  1.00  0.00    -0.312 A  
HETATM    5  C   UNL     1     -10.645  14.804  67.319  1.00  0.00    -0.273 A  
HETATM    6  C   UNL     1     -10.672  16.102  67.863  1.00  0.00    -0.321 A  
HETATM    7  C   UNL     1     -10.825  17.218  67.039  1.00  0.00    -0.045 A  
ENDROOT
BRANCH   5   8
HETATM    8  C   UNL     1     -10.511  13.559  68.209  1.00  0.00    -0.253 C  
BRANCH   8   9
HETATM    9  N   UNL     1     -11.745  12.712  68.188  1.00  0.00    -0.335 NA 
HETATM   10  C   UNL     1     -12.676  13.045  69.301  1.00  0.00     0.770 C  
HETATM   11  C   UNL     1     -11.448  11.263  68.302  1.00  0.00    -0.308 C  
HETATM   12  C   UNL     1     -12.233  12.560  70.706  1.00  0.00    -0.240 C  
HETATM   13  N   UNL     1     -11.844  11.133  70.799  1.00  0.00    -0.290 NA 
HETATM   14  C   UNL     1     -10.926  10.816  69.687  1.00  0.00    -0.264 C  
BRANCH  13  15
HETATM   15  C   UNL     1     -12.988  10.205  70.783  1.00  0.00    -0.305 C  
BRANCH  15  16
HETATM   16  C   UNL     1     -12.547   8.778  70.742  1.00  0.00     0.128 C  
HETATM   17  C   UNL     1     -11.778   8.216  71.687  1.00  0.00    -0.330 C  
BRANCH  17  18
HETATM   18  C   UNL     1     -11.224   6.887  71.457  1.00  0.00    -0.290 A  
HETATM   19  C   UNL     1     -11.479   5.887  72.404  1.00  0.00    -0.358 A  
HETATM   20  C   UNL     1     -10.880   4.635  72.277  1.00  0.00    -0.085 A  
HETATM   21  C   UNL     1     -10.030   4.381  71.202  1.00  0.00    -0.243 A  
HETATM   22  C   UNL     1      -9.785   5.373  70.250  1.00  0.00    -0.254 A  
HETATM   23  C   UNL     1     -10.383   6.627  70.376  1.00  0.00    -0.231 A  
ENDBRANCH  17  18
ENDBRANCH  15  16
ENDBRANCH  13  15
ENDBRANCH   8   9
BRANCH   8  24
HETATM   24  C   UNL     1      -9.214  12.786  67.887  1.00  0.00    -0.205 A  
HETATM   25  C   UNL     1      -6.982  12.069  68.578  1.00  0.00    -0.090 A  
HETATM   26  F   UNL     1      -5.824  10.469  67.288  1.00  0.00    -0.047 F  
HETATM   27  C   UNL     1      -8.130  12.840  68.786  1.00  0.00     0.090 A  
HETATM   28  C   UNL     1      -7.934  11.202  66.539  1.00  0.00    -0.158 A  
HETATM   29  C   UNL     1      -9.079  11.985  66.734  1.00  0.00    -0.197 A  
HETATM   30  C   UNL     1      -6.902  11.243  67.465  1.00  0.00    -0.086 A  
ENDBRANCH   8  24
ENDBRANCH   5   8
TORSDOF 6
ENDMDL
MODEL      132
REMARK 921   NORMALIZED FREE ENERGY PREDICTED BY IDOCK:   -3.71 KCAL/MOL
REMARK 922        TOTAL FREE ENERGY PREDICTED BY IDOCK:   -5.20 KCAL/MOL
REMARK 923 INTER-LIGAND FREE ENERGY PREDICTED BY IDOCK:   -5.99 KCAL/MOL
REMARK 924 INTRA-LIGAND FREE ENERGY PREDICTED BY IDOCK:    0.79 KCAL/MOL
REMARK 927      BINDING AFFINITY PREDICTED BY RF-SCORE:    0.00 PKD
ROOT
HETATM    1  F   UNL     1      -5.300  20.655  72.030  1.00  0.00    -0.355 F  
HETATM    2  C   UNL     1      -5.601  19.645  71.204  1.00  0.00    -0.269 A  
HETATM    3  C   UNL     1      -6.285  19.907  70.023  1.00  0.00    -0.385 A  
HETATM    4  C   UNL     1      -6.632  18.850  69.180  1.00  0.00    -0.318 A  
HETATM    5  C   UNL     1      -6.295  17.521  69.510  1.00  0.00    -0.230 A  
HETATM    6  C   UNL     1      -5.564  17.291  70.690  1.00  0.00    -0.082 A  
HETATM    7  C   UNL     1      -5.228  18.348  71.538  1.00  0.00    -0.161 A  
ENDROOT
BRANCH   5   8
HETATM    8  C   UNL     1      -6.705  16.370  68.578  1.00  0.00    -0.142 C  
BRANCH   8   9
HETATM    9  N   UNL     1      -6.830  15.069  69.306  1.00  0.00    -0.135 NA 
HETATM   10  C   UNL     1      -5.639  14.198  69.111  1.00  0.00    -0.084 C  
HETATM   11  C   UNL     1      -8.009  14.279  68.872  1.00  0.00    -0.080 C  
HETATM   12  C   UNL     1      -5.523  13.532  67.715  1.00  0.00    -0.070 C  
HETATM   13  N   UNL     1      -6.735  12.824  67.239  1.00  0.00    -0.133 NA 
HETATM   14  C   UNL     1      -7.908  13.697  67.443  1.00  0.00    -0.149 C  
BRANCH  13  15
HETATM   15  C   UNL     1      -6.958  11.525  67.896  1.00  0.00    -0.075 C  
BRANCH  15  16
HETATM   16  C   UNL     1      -8.279  11.473  68.594  1.00  0.00    -0.124 C  
HETATM   17  C   UNL     1      -8.785  10.354  69.133  1.00  0.00    -0.173 C  
BRANCH  17  18
HETATM   18  C   UNL     1     -10.166  10.351  69.602  1.00  0.00    -0.245 A  
HETATM   19  C   UNL     1     -10.978  11.447  69.287  1.00  0.00    -0.282 A  
HETATM   20  C   UNL     1     -12.269  11.533  69.806  1.00  0.00    -0.310 A  
HETATM   21  C   UNL     1     -12.748  10.521  70.636  1.00  0.00    -0.441 A  
HETATM   22  C   UNL     1     -11.945   9.421  70.940  1.00  0.00    -0.351 A  
HETATM   23  C   UNL     1     -10.652   9.334  70.423  1.00  0.00    -0.298 A  
ENDBRANCH  17  18
ENDBRANCH  15  16
ENDBRANCH  13  15
ENDBRANCH   8   9
BRANCH   8  24
HETATM   24  C   UNL     1      -7.952  16.748  67.749  1.00  0.00    -0.187 A  
HETATM   25  C   UNL     1      -8.920  17.353  65.588  1.00  0.00     0.481 A  
HETATM   26  F   UNL     1     -11.265  17.436  65.347  1.00  0.00    -0.177 F  
HETATM   27  C   UNL     1      -7.803  17.108  66.394  1.00  0.00    -0.352 A  
HETATM   28  C   UNL     1     -10.370  16.937  67.469  1.00  0.00    -0.318 A  
HETATM   29  C   UNL     1      -9.255  16.709  68.285  1.00  0.00    -0.217 A  
HETATM   30  C   UNL     1     -10.193  17.248  66.129  1.00  0.00    -0.331 A  
ENDBRANCH   8  24
ENDBRANCH   5   8
TORSDOF 6
ENDMDL
MODEL      133
REMARK 921   NORMALIZED FREE ENERGY PREDICTED BY IDOCK:   -3.59 KCAL/MOL
REMARK 922        TOTAL FREE ENERGY PREDICTED BY IDOCK:   -5.04 KCAL/MOL
REMARK 923 INTER-LIGAND FREE ENERGY PREDICTED BY IDOCK:   -7.93 KCAL/MOL
REMARK 924 INTRA-LIGAND FREE ENERGY PREDICTED BY IDOCK:    2.89 KCAL/MOL
REMARK 927      BINDING AFFINITY PREDICTED BY RF-SCORE:    0.00 PKD
ROOT
HETATM    1  F   UNL     1      -5.336  10.292  71.740  1.00  0.00    -0.084 F  
HETATM    2  C   UNL     1      -6.208   9.276  71.729  1.00  0.00     0.010 A  
HETATM    3  C   UNL     1      -6.241   8.392  72.801  1.00  0.00    -0.085 A  
HETATM    4  C   UNL     1      -7.123   7.310  72.774  1.00  0.00    -0.068 A  
HETATM    5  C   UNL     1      -7.983   7.106  71.675  1.00  0.00    -0.097 A  
HETATM    6  C   UNL     1      -7.958   8.042  70.626  1.00  0.00    -0.096 A  
HETATM    7  C   UNL     1      -7.066   9.116  70.648  1.00  0.00    -0.099 A  
ENDROOT
BRANCH   5   8
HETATM    8  C   UNL     1      -8.932   5.898  71.656  1.00  0.00    -0.139 C  
BRANCH   8   9
HETATM    9  N   UNL     1     -10.174   6.139  72.455  1.00  0.00    -0.182 NA 
HETATM   10  C   UNL     1     -11.407   6.013  71.631  1.00  0.00    -0.252 C  
HETATM   11  C   UNL     1     -10.209   7.490  73.068  1.00  0.00    -0.306 C  
HETATM   12  C   UNL     1     -11.676   7.187  70.653  1.00  0.00    -0.307 C  
HETATM   13  N   UNL     1     -11.616   8.543  71.246  1.00  0.00    -0.274 NA 
HETATM   14  C   UNL     1     -10.392   8.652  72.064  1.00  0.00    -0.346 C  
BRANCH  13  15
HETATM   15  C   UNL     1     -12.794   8.886  72.062  1.00  0.00    -0.397 C  
BRANCH  15  16
HETATM   16  C   UNL     1     -13.151  10.332  71.945  1.00  0.00    -0.568 C  
HETATM   17  C   UNL     1     -12.582  11.164  71.059  1.00  0.00    -0.503 C  
BRANCH  17  18
HETATM   18  C   UNL     1     -12.836  12.596  71.160  1.00  0.00    -0.311 A  
HETATM   19  C   UNL     1     -12.258  13.443  70.207  1.00  0.00    -0.405 A  
HETATM   20  C   UNL     1     -12.388  14.825  70.330  1.00  0.00    -0.400 A  
HETATM   21  C   UNL     1     -13.099  15.359  71.402  1.00  0.00    -0.563 A  
HETATM   22  C   UNL     1     -13.688  14.516  72.346  1.00  0.00    -0.583 A  
HETATM   23  C   UNL     1     -13.558  13.132  72.226  1.00  0.00    -0.677 A  
ENDBRANCH  17  18
ENDBRANCH  15  16
ENDBRANCH  13  15
ENDBRANCH   8   9
BRANCH   8  24
HETATM   24  C   UNL     1      -9.199   5.429  70.209  1.00  0.00    -0.185 A  
HETATM   25  C   UNL     1      -9.661   3.598  68.657  1.00  0.00    -0.159 A  
HETATM   26  F   UNL     1     -10.262   4.086  66.429  1.00  0.00    -0.222 F  
HETATM   27  C   UNL     1      -9.315   4.051  69.934  1.00  0.00    -0.240 A  
HETATM   28  C   UNL     1      -9.736   5.875  67.869  1.00  0.00    -0.128 A  
HETATM   29  C   UNL     1      -9.373   6.333  69.142  1.00  0.00    -0.133 A  
HETATM   30  C   UNL     1      -9.885   4.515  67.641  1.00  0.00    -0.127 A  
ENDBRANCH   8  24
ENDBRANCH   5   8
TORSDOF 6
ENDMDL
MODEL      134
REMARK 921   NORMALIZED FREE ENERGY PREDICTED BY IDOCK:   -3.58 KCAL/MOL
REMARK 922        TOTAL FREE ENERGY PREDICTED BY IDOCK:   -5.03 KCAL/MOL
REMARK 923 INTER-LIGAND FREE ENERGY PREDICTED BY IDOCK:   -8.02 KCAL/MOL
REMARK 924 INTRA-LIGAND FREE ENERGY PREDICTED BY IDOCK:    3.00 KCAL/MOL
REMARK 927      BINDING AFFINITY PREDICTED BY RF-SCORE:    0.00 PKD
ROOT
HETATM    1  F   UNL     1      -6.122  17.073  68.105  1.00  0.00    -0.122 F  
HETATM    2  C   UNL     1      -7.397  16.669  68.181  1.00  0.00    -0.170 A  
HETATM    3  C   UNL     1      -8.314  17.119  67.239  1.00  0.00    -0.208 A  
HETATM    4  C   UNL     1      -9.651  16.728  67.339  1.00  0.00    -0.236 A  
HETATM    5  C   UNL     1     -10.080  15.881  68.381  1.00  0.00    -0.223 A  
HETATM    6  C   UNL     1      -9.120  15.406  69.293  1.00  0.00    -0.260 A  
HETATM    7  C   UNL     1      -7.786  15.807  69.200  1.00  0.00    -0.227 A  
ENDROOT
BRANCH   5   8
HETATM    8  C   UNL     1     -11.560  15.479  68.486  1.00  0.00    -0.368 C  
BRANCH   8   9
HETATM    9  N   UNL     1     -11.870  14.245  67.699  1.00  0.00    -0.382 NA 
HETATM   10  C   UNL     1     -12.158  13.077  68.575  1.00  0.00    -0.149 C  
HETATM   11  C   UNL     1     -10.757  13.840  66.804  1.00  0.00    -0.276 C  
HETATM   12  C   UNL     1     -10.925  12.452  69.279  1.00  0.00    -0.087 C  
HETATM   13  N   UNL     1      -9.775  12.136  68.398  1.00  0.00    -0.210 NA 
HETATM   14  C   UNL     1      -9.504  13.301  67.532  1.00  0.00    -0.220 C  
BRANCH  13  15
HETATM   15  C   UNL     1      -9.976  10.934  67.571  1.00  0.00    -0.174 C  
BRANCH  15  16
HETATM   16  C   UNL     1     -10.387   9.756  68.392  1.00  0.00    -0.230 C  
HETATM   17  C   UNL     1      -9.514   8.930  68.989  1.00  0.00    -0.156 C  
BRANCH  17  18
HETATM   18  C   UNL     1      -9.998   7.692  69.587  1.00  0.00    -0.185 A  
HETATM   19  C   UNL     1     -10.590   7.753  70.855  1.00  0.00    -0.220 A  
HETATM   20  C   UNL     1     -10.967   6.581  71.507  1.00  0.00    -0.298 A  
HETATM   21  C   UNL     1     -10.758   5.349  70.890  1.00  0.00    -0.243 A  
HETATM   22  C   UNL     1     -10.180   5.287  69.621  1.00  0.00    -0.348 A  
HETATM   23  C   UNL     1      -9.799   6.459  68.967  1.00  0.00    -0.155 A  
ENDBRANCH  17  18
ENDBRANCH  15  16
ENDBRANCH  13  15
ENDBRANCH   8   9
BRANCH   8  24
HETATM   24  C   UNL     1     -12.011  15.413  69.961  1.00  0.00    -0.383 A  
HETATM   25  C   UNL     1     -11.443  15.607  72.331  1.00  0.00    -0.434 A  
HETATM   26  F   UNL     1     -13.165  15.602  73.943  1.00  0.00    -0.560 F  
HETATM   27  C   UNL     1     -11.055  15.556  70.987  1.00  0.00    -0.387 A  
HETATM   28  C   UNL     1     -13.746  15.321  71.677  1.00  0.00    -0.600 A  
HETATM   29  C   UNL     1     -13.361  15.252  70.331  1.00  0.00    -0.087 A  
HETATM   30  C   UNL     1     -12.787  15.506  72.661  1.00  0.00    -0.425 A  
ENDBRANCH   8  24
ENDBRANCH   5   8
TORSDOF 6
ENDMDL
MODEL      135
REMARK 921   NORMALIZED FREE ENERGY PREDICTED BY IDOCK:   -3.55 KCAL/MOL
REMARK 922        TOTAL FREE ENERGY PREDICTED BY IDOCK:   -4.98 KCAL/MOL
REMARK 923 INTER-LIGAND FREE ENERGY PREDICTED BY IDOCK:   -5.98 KCAL/MOL
REMARK 924 INTRA-LIGAND FREE ENERGY PREDICTED BY IDOCK:    1.00 KCAL/MOL
REMARK 927      BINDING AFFINITY PREDICTED BY RF-SCORE:    0.00 PKD
ROOT
HETATM    1  F   UNL     1     -10.719   1.479  74.072  1.00  0.00    -0.130 F  
HETATM    2  C   UNL     1     -10.553   2.594  73.348  1.00  0.00    -0.161 A  
HETATM    3  C   UNL     1     -10.029   2.504  72.064  1.00  0.00    -0.228 A  
HETATM    4  C   UNL     1      -9.821   3.670  71.323  1.00  0.00    -0.211 A  
HETATM    5  C   UNL     1     -10.140   4.934  71.860  1.00  0.00    -0.262 A  
HETATM    6  C   UNL     1     -10.711   4.989  73.144  1.00  0.00    -0.314 A  
HETATM    7  C   UNL     1     -10.907   3.824  73.889  1.00  0.00    -0.302 A  
ENDROOT
BRANCH   5   8
HETATM    8  C   UNL     1      -9.885   6.206  71.036  1.00  0.00    -0.182 C  
BRANCH   8   9
HETATM    9  N   UNL     1      -9.573   5.901  69.604  1.00  0.00    -0.145 NA 
HETATM   10  C   UNL     1      -8.170   5.440  69.420  1.00  0.00    -0.096 C  
HETATM   11  C   UNL     1      -9.755   7.075  68.715  1.00  0.00    -0.143 C  
HETATM   12  C   UNL     1      -7.086   6.544  69.535  1.00  0.00    -0.073 C  
HETATM   13  N   UNL     1      -7.318   7.759  68.718  1.00  0.00    -0.085 NA 
HETATM   14  C   UNL     1      -8.713   8.201  68.907  1.00  0.00    -0.137 C  
BRANCH  13  15
HETATM   15  C   UNL     1      -7.044   7.569  67.284  1.00  0.00    -0.085 C  
BRANCH  15  16
HETATM   16  C   UNL     1      -7.956   6.556  66.672  1.00  0.00    -0.109 C  
HETATM   17  C   UNL     1      -7.616   5.796  65.620  1.00  0.00    -0.086 C  
BRANCH  17  18
HETATM   18  C   UNL     1      -8.639   4.993  64.960  1.00  0.00    -0.149 A  
HETATM   19  C   UNL     1      -8.457   4.660  63.613  1.00  0.00    -0.125 A  
HETATM   20  C   UNL     1      -9.459   3.986  62.917  1.00  0.00    -0.131 A  
HETATM   21  C   UNL     1     -10.641   3.643  63.570  1.00  0.00    -0.266 A  
HETATM   22  C   UNL     1     -10.820   3.962  64.917  1.00  0.00     0.039 A  
HETATM   23  C   UNL     1      -9.818   4.638  65.615  1.00  0.00    -0.217 A  
ENDBRANCH  17  18
ENDBRANCH  15  16
ENDBRANCH  13  15
ENDBRANCH   8   9
BRANCH   8  24
HETATM   24  C   UNL     1     -11.029   7.226  71.225  1.00  0.00    -0.264 A  
HETATM   25  C   UNL     1     -13.428   7.676  71.350  1.00  0.00    -0.351 A  
HETATM   26  F   UNL     1     -14.178   9.797  72.059  1.00  0.00    -0.236 F  
HETATM   27  C   UNL     1     -12.366   6.805  71.081  1.00  0.00    -0.386 A  
HETATM   28  C   UNL     1     -11.858   9.432  71.865  1.00  0.00    -0.402 A  
HETATM   29  C   UNL     1     -10.791   8.569  71.581  1.00  0.00    -0.356 A  
HETATM   30  C   UNL     1     -13.163   8.976  71.756  1.00  0.00    -0.389 A  
ENDBRANCH   8  24
ENDBRANCH   5   8
TORSDOF 6
ENDMDL
MODEL      136
REMARK 921   NORMALIZED FREE ENERGY PREDICTED BY IDOCK:   -3.51 KCAL/MOL
REMARK 922        TOTAL FREE ENERGY PREDICTED BY IDOCK:   -4.94 KCAL/MOL
REMARK 923 INTER-LIGAND FREE ENERGY PREDICTED BY IDOCK:   -5.09 KCAL/MOL
REMARK 924 INTRA-LIGAND FREE ENERGY PREDICTED BY IDOCK:    0.15 KCAL/MOL
REMARK 927      BINDING AFFINITY PREDICTED BY RF-SCORE:    0.00 PKD
ROOT
HETATM    1  F   UNL     1      -5.139  21.001  71.626  1.00  0.00    -0.236 F  
HETATM    2  C   UNL     1      -5.426  19.850  71.003  1.00  0.00    -0.281 A  
HETATM    3  C   UNL     1      -5.955  19.881  69.719  1.00  0.00    -0.355 A  
HETATM    4  C   UNL     1      -6.289  18.683  69.083  1.00  0.00    -0.274 A  
HETATM    5  C   UNL     1      -6.094  17.444  69.728  1.00  0.00    -0.228 A  
HETATM    6  C   UNL     1      -5.516  17.442  71.010  1.00  0.00     0.017 A  
HETATM    7  C   UNL     1      -5.194  18.641  71.649  1.00  0.00    -0.201 A  
ENDROOT
BRANCH   5   8
HETATM    8  C   UNL     1      -6.488  16.138  69.019  1.00  0.00    -0.154 C  
BRANCH   8   9
HETATM    9  N   UNL     1      -6.664  15.003  69.979  1.00  0.00    -0.173 NA 
HETATM   10  C   UNL     1      -5.517  14.056  69.946  1.00  0.00    -0.100 C  
HETATM   11  C   UNL     1      -7.884  14.204  69.705  1.00  0.00     0.467 C  
HETATM   12  C   UNL     1      -5.450  13.136  68.698  1.00  0.00    -0.075 C  
HETATM   13  N   UNL     1      -6.699  12.410  68.368  1.00  0.00    -0.063 NA 
HETATM   14  C   UNL     1      -7.828  13.360  68.410  1.00  0.00    -0.138 C  
BRANCH  13  15
HETATM   15  C   UNL     1      -6.974  11.269  69.258  1.00  0.00    -0.119 C  
BRANCH  15  16
HETATM   16  C   UNL     1      -7.510  10.093  68.507  1.00  0.00    -0.086 C  
HETATM   17  C   UNL     1      -8.743   9.598  68.694  1.00  0.00    -0.124 C  
BRANCH  17  18
HETATM   18  C   UNL     1      -9.102   8.327  68.076  1.00  0.00    -0.139 A  
HETATM   19  C   UNL     1     -10.413   8.158  67.616  1.00  0.00    -0.300 A  
HETATM   20  C   UNL     1     -10.825   6.923  67.118  1.00  0.00    -0.447 A  
HETATM   21  C   UNL     1      -9.925   5.860  67.075  1.00  0.00    -0.195 A  
HETATM   22  C   UNL     1      -8.613   6.031  67.520  1.00  0.00    -0.106 A  
HETATM   23  C   UNL     1      -8.199   7.266  68.020  1.00  0.00    -0.120 A  
ENDBRANCH  17  18
ENDBRANCH  15  16
ENDBRANCH  13  15
ENDBRANCH   8   9
BRANCH   8  24
HETATM   24  C   UNL     1      -7.696  16.361  68.083  1.00  0.00    -0.161 A  
HETATM   25  C   UNL     1      -8.681  16.149  65.856  1.00  0.00    -0.126 A  
HETATM   26  F   UNL     1     -10.979  16.589  65.554  1.00  0.00    -0.304 F  
HETATM   27  C   UNL     1      -7.577  16.060  66.711  1.00  0.00    -0.247 A  
HETATM   28  C   UNL     1     -10.048  16.893  67.698  1.00  0.00    -0.278 A  
HETATM   29  C   UNL     1      -8.942  16.822  68.555  1.00  0.00    -0.244 A  
HETATM   30  C   UNL     1      -9.910  16.548  66.361  1.00  0.00    -0.293 A  
ENDBRANCH   8  24
ENDBRANCH   5   8
TORSDOF 6
ENDMDL
MODEL      137
REMARK 921   NORMALIZED FREE ENERGY PREDICTED BY IDOCK:   -3.51 KCAL/MOL
REMARK 922        TOTAL FREE ENERGY PREDICTED BY IDOCK:   -4.94 KCAL/MOL
REMARK 923 INTER-LIGAND FREE ENERGY PREDICTED BY IDOCK:   -5.08 KCAL/MOL
REMARK 924 INTRA-LIGAND FREE ENERGY PREDICTED BY IDOCK:    0.15 KCAL/MOL
REMARK 927      BINDING AFFINITY PREDICTED BY RF-SCORE:    0.00 PKD
ROOT
HETATM    1  F   UNL     1      -8.330   3.725  65.596  1.00  0.00    -0.102 F  
HETATM    2  C   UNL     1      -8.288   4.851  66.322  1.00  0.00    -0.111 A  
HETATM    3  C   UNL     1      -9.419   5.257  67.018  1.00  0.00    -0.137 A  
HETATM    4  C   UNL     1      -9.389   6.450  67.744  1.00  0.00    -0.117 A  
HETATM    5  C   UNL     1      -8.224   7.243  67.782  1.00  0.00    -0.119 A  
HETATM    6  C   UNL     1      -7.080   6.783  67.103  1.00  0.00    -0.079 A  
HETATM    7  C   UNL     1      -7.117   5.597  66.367  1.00  0.00    -0.072 A  
ENDROOT
BRANCH   5   8
HETATM    8  C   UNL     1      -8.217   8.563  68.570  1.00  0.00    -0.123 C  
BRANCH   8   9
HETATM    9  N   UNL     1      -8.350   9.757  67.678  1.00  0.00    -0.114 NA 
HETATM   10  C   UNL     1      -7.160   9.941  66.803  1.00  0.00    -0.090 C  
HETATM   11  C   UNL     1      -8.521  11.022  68.434  1.00  0.00    -0.144 C  
HETATM   12  C   UNL     1      -5.889  10.475  67.513  1.00  0.00    -0.044 C  
HETATM   13  N   UNL     1      -6.080  11.686  68.346  1.00  0.00    -0.049 NA 
HETATM   14  C   UNL     1      -7.265  11.491  69.204  1.00  0.00    -0.084 C  
BRANCH  13  15
HETATM   15  C   UNL     1      -6.227  12.925  67.565  1.00  0.00    -0.152 C  
BRANCH  15  16
HETATM   16  C   UNL     1      -7.575  13.543  67.748  1.00  0.00    -0.163 C  
HETATM   17  C   UNL     1      -7.762  14.846  68.008  1.00  0.00    -0.128 C  
BRANCH  17  18
HETATM   18  C   UNL     1      -9.091  15.315  68.380  1.00  0.00    -0.189 A  
HETATM   19  C   UNL     1      -9.830  14.559  69.298  1.00  0.00    -0.021 A  
HETATM   20  C   UNL     1     -11.144  14.914  69.598  1.00  0.00    -0.298 A  
HETATM   21  C   UNL     1     -11.716  16.027  68.985  1.00  0.00    -0.322 A  
HETATM   22  C   UNL     1     -10.976  16.790  68.081  1.00  0.00    -0.309 A  
HETATM   23  C   UNL     1      -9.661  16.436  67.777  1.00  0.00    -0.231 A  
ENDBRANCH  17  18
ENDBRANCH  15  16
ENDBRANCH  13  15
ENDBRANCH   8   9
BRANCH   8  24
HETATM   24  C   UNL     1      -9.245   8.523  69.722  1.00  0.00    -0.157 A  
HETATM   25  C   UNL     1      -9.689   8.438  72.124  1.00  0.00    -0.370 A  
HETATM   26  F   UNL     1     -11.890   8.758  72.911  1.00  0.00    -0.340 F  
HETATM   27  C   UNL     1      -8.796   8.371  71.050  1.00  0.00    -0.193 A  
HETATM   28  C   UNL     1     -11.517   8.757  70.584  1.00  0.00    -0.263 A  
HETATM   29  C   UNL     1     -10.630   8.673  69.504  1.00  0.00    -0.218 A  
HETATM   30  C   UNL     1     -11.040   8.647  71.882  1.00  0.00    -0.346 A  
ENDBRANCH   8  24
ENDBRANCH   5   8
TORSDOF 6
ENDMDL
MODEL      138
REMARK 921   NORMALIZED FREE ENERGY PREDICTED BY IDOCK:   -3.32 KCAL/MOL
REMARK 922        TOTAL FREE ENERGY PREDICTED BY IDOCK:   -4.68 KCAL/MOL
REMARK 923 INTER-LIGAND FREE ENERGY PREDICTED BY IDOCK:   -7.67 KCAL/MOL
REMARK 924 INTRA-LIGAND FREE ENERGY PREDICTED BY IDOCK:    2.99 KCAL/MOL
REMARK 927      BINDING AFFINITY PREDICTED BY RF-SCORE:    0.00 PKD
ROOT
HETATM    1  F   UNL     1      -5.309   9.050  67.551  1.00  0.00    -0.033 F  
HETATM    2  C   UNL     1      -6.466   9.725  67.584  1.00  0.00    -0.067 A  
HETATM    3  C   UNL     1      -6.521  10.957  68.224  1.00  0.00    -0.057 A  
HETATM    4  C   UNL     1      -7.735  11.644  68.292  1.00  0.00    -0.128 A  
HETATM    5  C   UNL     1      -8.904  11.104  67.717  1.00  0.00    -0.135 A  
HETATM    6  C   UNL     1      -8.808   9.876  67.038  1.00  0.00    -0.144 A  
HETATM    7  C   UNL     1      -7.596   9.184  66.981  1.00  0.00    -0.091 A  
ENDROOT
BRANCH   5   8
HETATM    8  C   UNL     1     -10.235  11.866  67.821  1.00  0.00    -0.200 C  
BRANCH   8   9
HETATM    9  N   UNL     1     -10.166  12.997  68.797  1.00  0.00    -0.150 NA 
HETATM   10  C   UNL     1     -11.455  13.733  68.898  1.00  0.00    -0.304 C  
HETATM   11  C   UNL     1      -9.131  14.000  68.442  1.00  0.00    -0.191 C  
HETATM   12  C   UNL     1     -11.794  14.649  67.693  1.00  0.00    -0.337 C  
HETATM   13  N   UNL     1     -10.724  15.585  67.277  1.00  0.00    -0.304 NA 
HETATM   14  C   UNL     1      -9.451  14.843  67.186  1.00  0.00    -0.225 C  
BRANCH  13  15
HETATM   15  C   UNL     1     -10.565  16.741  68.176  1.00  0.00    -0.350 C  
BRANCH  15  16
HETATM   16  C   UNL     1      -9.286  17.471  67.924  1.00  0.00    -0.265 C  
HETATM   17  C   UNL     1      -8.871  18.510  68.665  1.00  0.00    -0.325 C  
BRANCH  17  18
HETATM   18  C   UNL     1      -7.724  19.290  68.219  1.00  0.00    -0.351 A  
HETATM   19  C   UNL     1      -6.542  19.223  68.966  1.00  0.00    -0.340 A  
HETATM   20  C   UNL     1      -5.458  20.035  68.636  1.00  0.00    -0.241 A  
HETATM   21  C   UNL     1      -5.555  20.910  67.555  1.00  0.00    -0.302 A  
HETATM   22  C   UNL     1      -6.727  20.968  66.800  1.00  0.00    -0.360 A  
HETATM   23  C   UNL     1      -7.814  20.158  67.130  1.00  0.00    -0.357 A  
ENDBRANCH  17  18
ENDBRANCH  15  16
ENDBRANCH  13  15
ENDBRANCH   8   9
BRANCH   8  24
HETATM   24  C   UNL     1     -10.747  12.274  66.422  1.00  0.00    -0.284 A  
HETATM   25  C   UNL     1     -12.632  12.821  64.965  1.00  0.00    -0.538 A  
HETATM   26  F   UNL     1     -12.222  13.700  62.815  1.00  0.00    -0.413 F  
HETATM   27  C   UNL     1     -12.135  12.353  66.186  1.00  0.00    -0.295 A  
HETATM   28  C   UNL     1     -10.378  13.100  64.154  1.00  0.00    -0.286 A  
HETATM   29  C   UNL     1      -9.875  12.615  65.369  1.00  0.00    -0.157 A  
HETATM   30  C   UNL     1     -11.749  13.207  63.967  1.00  0.00    -0.439 A  
ENDBRANCH   8  24
ENDBRANCH   5   8
TORSDOF 6
ENDMDL
MODEL      139
REMARK 921   NORMALIZED FREE ENERGY PREDICTED BY IDOCK:   -3.31 KCAL/MOL
REMARK 922        TOTAL FREE ENERGY PREDICTED BY IDOCK:   -4.67 KCAL/MOL
REMARK 923 INTER-LIGAND FREE ENERGY PREDICTED BY IDOCK:   -6.24 KCAL/MOL
REMARK 924 INTRA-LIGAND FREE ENERGY PREDICTED BY IDOCK:    1.57 KCAL/MOL
REMARK 927      BINDING AFFINITY PREDICTED BY RF-SCORE:    0.00 PKD
ROOT
HETATM    1  F   UNL     1      -6.069   8.894  63.662  1.00  0.00    -0.077 F  
HETATM    2  C   UNL     1      -6.981   9.468  64.457  1.00  0.00    -0.103 A  
HETATM    3  C   UNL     1      -8.318   9.110  64.334  1.00  0.00    -0.180 A  
HETATM    4  C   UNL     1      -9.275   9.736  65.136  1.00  0.00    -0.297 A  
HETATM    5  C   UNL     1      -8.901  10.723  66.071  1.00  0.00    -0.192 A  
HETATM    6  C   UNL     1      -7.535  11.032  66.204  1.00  0.00    -0.076 A  
HETATM    7  C   UNL     1      -6.581  10.415  65.392  1.00  0.00    -0.109 A  
ENDROOT
BRANCH   5   8
HETATM    8  C   UNL     1      -9.972  11.414  66.929  1.00  0.00    -0.206 C  
BRANCH   8   9
HETATM    9  N   UNL     1      -9.623  11.408  68.384  1.00  0.00    -0.192 NA 
HETATM   10  C   UNL     1      -9.529  10.028  68.934  1.00  0.00    -0.172 C  
HETATM   11  C   UNL     1     -10.618  12.129  69.216  1.00  0.00     0.088 C  
HETATM   12  C   UNL     1     -10.883   9.300  69.142  1.00  0.00    -0.133 C  
HETATM   13  N   UNL     1     -11.911  10.060  69.891  1.00  0.00    -0.088 NA 
HETATM   14  C   UNL     1     -11.990  11.427  69.339  1.00  0.00    -0.339 C  
BRANCH  13  15
HETATM   15  C   UNL     1     -11.663  10.121  71.341  1.00  0.00    -0.290 C  
BRANCH  15  16
HETATM   16  C   UNL     1     -12.124  11.414  71.932  1.00  0.00     0.941 C  
HETATM   17  C   UNL     1     -12.807  12.339  71.240  1.00  0.00    -0.337 C  
BRANCH  17  18
HETATM   18  C   UNL     1     -13.028  13.653  71.833  1.00  0.00    -0.432 A  
HETATM   19  C   UNL     1     -12.473  13.916  73.091  1.00  0.00     0.302 A  
HETATM   20  C   UNL     1     -12.750  15.119  73.739  1.00  0.00    -0.667 A  
HETATM   21  C   UNL     1     -13.576  16.059  73.127  1.00  0.00    -0.517 A  
HETATM   22  C   UNL     1     -14.118  15.804  71.866  1.00  0.00    -0.284 A  
HETATM   23  C   UNL     1     -13.844  14.600  71.216  1.00  0.00    -0.420 A  
ENDBRANCH  17  18
ENDBRANCH  15  16
ENDBRANCH  13  15
ENDBRANCH   8   9
BRANCH   8  24
HETATM   24  C   UNL     1     -10.308  12.814  66.370  1.00  0.00    -0.271 A  
HETATM   25  C   UNL     1      -9.573  15.085  65.842  1.00  0.00    -0.356 A  
HETATM   26  F   UNL     1     -10.981  16.499  64.585  1.00  0.00    -0.428 F  
HETATM   27  C   UNL     1      -9.341  13.838  66.433  1.00  0.00    -0.215 A  
HETATM   28  C   UNL     1     -11.763  14.350  65.150  1.00  0.00    -0.372 A  
HETATM   29  C   UNL     1     -11.542  13.106  65.756  1.00  0.00    -0.383 A  
HETATM   30  C   UNL     1     -10.775  15.323  65.192  1.00  0.00    -0.436 A  
ENDBRANCH   8  24
ENDBRANCH   5   8
TORSDOF 6
ENDMDL
MODEL      140
REMARK 921   NORMALIZED FREE ENERGY PREDICTED BY IDOCK:   -3.30 KCAL/MOL
REMARK 922        TOTAL FREE ENERGY PREDICTED BY IDOCK:   -4.66 KCAL/MOL
REMARK 923 INTER-LIGAND FREE ENERGY PREDICTED BY IDOCK:   -6.36 KCAL/MOL
REMARK 924 INTRA-LIGAND FREE ENERGY PREDICTED BY IDOCK:    1.71 KCAL/MOL
REMARK 927      BINDING AFFINITY PREDICTED BY RF-SCORE:    0.00 PKD
ROOT
HETATM    1  F   UNL     1     -10.507  10.184  71.013  1.00  0.00    -0.315 F  
HETATM    2  C   UNL     1     -10.502  10.465  69.704  1.00  0.00    -0.243 A  
HETATM    3  C   UNL     1      -9.299  10.753  69.071  1.00  0.00    -0.168 A  
HETATM    4  C   UNL     1      -9.296  11.083  67.714  1.00  0.00    -0.162 A  
HETATM    5  C   UNL     1     -10.498  11.123  66.978  1.00  0.00    -0.277 A  
HETATM    6  C   UNL     1     -11.695  10.784  67.635  1.00  0.00     0.107 A  
HETATM    7  C   UNL     1     -11.697  10.466  68.995  1.00  0.00    -0.167 A  
ENDROOT
BRANCH   5   8
HETATM    8  C   UNL     1     -10.476  11.509  65.491  1.00  0.00    -0.275 C  
BRANCH   8   9
HETATM    9  N   UNL     1      -9.992  12.908  65.275  1.00  0.00    -0.224 NA 
HETATM   10  C   UNL     1      -9.453  13.516  66.523  1.00  0.00    -0.256 C  
HETATM   11  C   UNL     1     -11.058  13.817  64.786  1.00  0.00    -0.377 C  
HETATM   12  C   UNL     1     -10.517  13.929  67.574  1.00  0.00    -0.248 C  
HETATM   13  N   UNL     1     -11.635  14.758  67.064  1.00  0.00    -0.361 NA 
HETATM   14  C   UNL     1     -12.155  14.146  65.825  1.00  0.00    -0.420 C  
BRANCH  13  15
HETATM   15  C   UNL     1     -11.265  16.161  66.812  1.00  0.00     0.154 C  
BRANCH  15  16
HETATM   16  C   UNL     1      -9.819  16.415  67.090  1.00  0.00    -0.249 C  
HETATM   17  C   UNL     1      -9.387  17.249  68.048  1.00  0.00    -0.264 C  
BRANCH  17  18
HETATM   18  C   UNL     1      -7.972  17.596  68.106  1.00  0.00    -0.256 A  
HETATM   19  C   UNL     1      -7.468  18.494  67.158  1.00  0.00    -0.230 A  
HETATM   20  C   UNL     1      -6.102  18.769  67.112  1.00  0.00    -0.172 A  
HETATM   21  C   UNL     1      -5.242  18.149  68.017  1.00  0.00    -0.156 A  
HETATM   22  C   UNL     1      -5.745  17.264  68.972  1.00  0.00    -0.166 A  
HETATM   23  C   UNL     1      -7.112  16.986  69.019  1.00  0.00    -0.233 A  
ENDBRANCH  17  18
ENDBRANCH  15  16
ENDBRANCH  13  15
ENDBRANCH   8   9
BRANCH   8  24
HETATM   24  C   UNL     1      -9.725  10.449  64.656  1.00  0.00    -0.392 A  
HETATM   25  C   UNL     1      -8.643   8.260  64.545  1.00  0.00     0.033 A  
HETATM   26  F   UNL     1      -8.008   7.383  62.449  1.00  0.00    -0.111 F  
HETATM   27  C   UNL     1      -9.233   9.288  65.287  1.00  0.00    -0.275 A  
HETATM   28  C   UNL     1      -8.966   9.535  62.523  1.00  0.00    -0.268 A  
HETATM   29  C   UNL     1      -9.542  10.574  63.264  1.00  0.00    -0.373 A  
HETATM   30  C   UNL     1      -8.530   8.386  63.167  1.00  0.00    -0.017 A  
ENDBRANCH   8  24
ENDBRANCH   5   8
TORSDOF 6
ENDMDL
MODEL      141
REMARK 921   NORMALIZED FREE ENERGY PREDICTED BY IDOCK:   -3.29 KCAL/MOL
REMARK 922        TOTAL FREE ENERGY PREDICTED BY IDOCK:   -4.64 KCAL/MOL
REMARK 923 INTER-LIGAND FREE ENERGY PREDICTED BY IDOCK:   -7.34 KCAL/MOL
REMARK 924 INTRA-LIGAND FREE ENERGY PREDICTED BY IDOCK:    2.70 KCAL/MOL
REMARK 927      BINDING AFFINITY PREDICTED BY RF-SCORE:    0.00 PKD
ROOT
HETATM    1  F   UNL     1     -12.704  12.667  62.719  1.00  0.00    -0.273 F  
HETATM    2  C   UNL     1     -11.726  12.427  63.603  1.00  0.00    -0.514 A  
HETATM    3  C   UNL     1     -11.040  11.220  63.553  1.00  0.00    -0.261 A  
HETATM    4  C   UNL     1     -10.047  10.953  64.498  1.00  0.00    -0.404 A  
HETATM    5  C   UNL     1      -9.729  11.895  65.498  1.00  0.00    -0.237 A  
HETATM    6  C   UNL     1     -10.410  13.126  65.496  1.00  0.00    -0.299 A  
HETATM    7  C   UNL     1     -11.412  13.386  64.559  1.00  0.00    -0.402 A  
ENDROOT
BRANCH   5   8
HETATM    8  C   UNL     1      -8.647  11.574  66.541  1.00  0.00    -0.172 C  
BRANCH   8   9
HETATM    9  N   UNL     1      -9.082  11.911  67.932  1.00  0.00    -0.176 NA 
HETATM   10  C   UNL     1      -8.613  10.908  68.927  1.00  0.00    -0.140 C  
HETATM   11  C   UNL     1     -10.558  11.988  68.069  1.00  0.00    -0.208 C  
HETATM   12  C   UNL     1      -9.361   9.549  68.905  1.00  0.00    -0.149 C  
HETATM   13  N   UNL     1     -10.841   9.630  68.945  1.00  0.00    -0.206 NA 
HETATM   14  C   UNL     1     -11.290  10.631  67.957  1.00  0.00    -0.278 C  
BRANCH  13  15
HETATM   15  C   UNL     1     -11.380   9.962  70.274  1.00  0.00    -0.291 C  
BRANCH  15  16
HETATM   16  C   UNL     1     -11.470   8.759  71.156  1.00  0.00    -0.344 C  
HETATM   17  C   UNL     1     -10.777   8.626  72.297  1.00  0.00    -0.383 C  
BRANCH  17  18
HETATM   18  C   UNL     1     -10.765   7.337  72.978  1.00  0.00    -0.384 A  
HETATM   19  C   UNL     1      -9.781   7.105  73.946  1.00  0.00    -0.334 A  
HETATM   20  C   UNL     1      -9.668   5.850  74.542  1.00  0.00    -0.241 A  
HETATM   21  C   UNL     1     -10.542   4.829  74.173  1.00  0.00    -0.351 A  
HETATM   22  C   UNL     1     -11.533   5.062  73.218  1.00  0.00    -0.339 A  
HETATM   23  C   UNL     1     -11.647   6.317  72.619  1.00  0.00    -0.213 A  
ENDBRANCH  17  18
ENDBRANCH  15  16
ENDBRANCH  13  15
ENDBRANCH   8   9
BRANCH   8  24
HETATM   24  C   UNL     1      -8.135  10.126  66.377  1.00  0.00    -0.122 A  
HETATM   25  C   UNL     1      -8.572   7.820  65.695  1.00  0.00    -0.147 A  
HETATM   26  F   UNL     1      -6.784   6.287  65.568  1.00  0.00    -0.043 F  
HETATM   27  C   UNL     1      -9.025   9.117  65.956  1.00  0.00    -0.221 A  
HETATM   28  C   UNL     1      -6.336   8.475  66.317  1.00  0.00    -0.057 A  
HETATM   29  C   UNL     1      -6.788   9.772  66.596  1.00  0.00    -0.084 A  
HETATM   30  C   UNL     1      -7.228   7.516  65.862  1.00  0.00    -0.066 A  
ENDBRANCH   8  24
ENDBRANCH   5   8
TORSDOF 6
ENDMDL
MODEL      142
REMARK 921   NORMALIZED FREE ENERGY PREDICTED BY IDOCK:   -3.26 KCAL/MOL
REMARK 922        TOTAL FREE ENERGY PREDICTED BY IDOCK:   -4.60 KCAL/MOL
REMARK 923 INTER-LIGAND FREE ENERGY PREDICTED BY IDOCK:   -6.10 KCAL/MOL
REMARK 924 INTRA-LIGAND FREE ENERGY PREDICTED BY IDOCK:    1.50 KCAL/MOL
REMARK 927      BINDING AFFINITY PREDICTED BY RF-SCORE:    0.00 PKD
ROOT
HETATM    1  F   UNL     1      -8.563   3.465  66.054  1.00  0.00    -0.105 F  
HETATM    2  C   UNL     1      -8.803   4.756  66.321  1.00  0.00    -0.114 A  
HETATM    3  C   UNL     1      -9.991   5.115  66.947  1.00  0.00    -0.227 A  
HETATM    4  C   UNL     1     -10.259   6.463  67.192  1.00  0.00    -0.254 A  
HETATM    5  C   UNL     1      -9.338   7.463  66.816  1.00  0.00    -0.202 A  
HETATM    6  C   UNL     1      -8.125   7.066  66.225  1.00  0.00    -0.115 A  
HETATM    7  C   UNL     1      -7.864   5.718  65.969  1.00  0.00    -0.101 A  
ENDROOT
BRANCH   5   8
HETATM    8  C   UNL     1      -9.662   8.943  67.076  1.00  0.00    -0.190 C  
BRANCH   8   9
HETATM    9  N   UNL     1      -8.716   9.567  68.053  1.00  0.00    -0.120 NA 
HETATM   10  C   UNL     1      -9.427  10.327  69.118  1.00  0.00    -0.215 C  
HETATM   11  C   UNL     1      -7.772  10.516  67.413  1.00  0.00    -0.102 C  
HETATM   12  C   UNL     1     -10.036  11.682  68.673  1.00  0.00    -0.198 C  
HETATM   13  N   UNL     1      -9.118  12.592  67.948  1.00  0.00    -0.191 NA 
HETATM   14  C   UNL     1      -8.417  11.824  66.900  1.00  0.00    -0.174 C  
BRANCH  13  15
HETATM   15  C   UNL     1      -8.136  13.260  68.819  1.00  0.00     0.063 C  
BRANCH  15  16
HETATM   16  C   UNL     1      -8.241  14.749  68.737  1.00  0.00    -0.163 C  
HETATM   17  C   UNL     1      -9.401  15.414  68.847  1.00  0.00    -0.218 C  
BRANCH  17  18
HETATM   18  C   UNL     1      -9.436  16.840  68.542  1.00  0.00    -0.245 A  
HETATM   19  C   UNL     1     -10.507  17.332  67.786  1.00  0.00    -0.371 A  
HETATM   20  C   UNL     1     -10.523  18.666  67.383  1.00  0.00    -0.467 A  
HETATM   21  C   UNL     1      -9.471  19.508  67.739  1.00  0.00    -0.423 A  
HETATM   22  C   UNL     1      -8.409  19.022  68.504  1.00  0.00    -0.387 A  
HETATM   23  C   UNL     1      -8.390  17.687  68.908  1.00  0.00    -0.139 A  
ENDBRANCH  17  18
ENDBRANCH  15  16
ENDBRANCH  13  15
ENDBRANCH   8   9
BRANCH   8  24
HETATM   24  C   UNL     1      -9.795   9.721  65.748  1.00  0.00    -0.360 A  
HETATM   25  C   UNL     1     -10.915  11.462  64.449  1.00  0.00    -0.371 A  
HETATM   26  F   UNL     1     -10.026  12.109  62.362  1.00  0.00     0.191 F  
HETATM   27  C   UNL     1     -10.829  10.666  65.596  1.00  0.00    -0.010 A  
HETATM   28  C   UNL     1      -8.970  10.364  63.542  1.00  0.00    -0.247 A  
HETATM   29  C   UNL     1      -8.890   9.552  64.680  1.00  0.00    -0.250 A  
HETATM   30  C   UNL     1      -9.974  11.315  63.440  1.00  0.00    -0.395 A  
ENDBRANCH   8  24
ENDBRANCH   5   8
TORSDOF 6
ENDMDL
MODEL      143
REMARK 921   NORMALIZED FREE ENERGY PREDICTED BY IDOCK:   -3.23 KCAL/MOL
REMARK 922        TOTAL FREE ENERGY PREDICTED BY IDOCK:   -4.56 KCAL/MOL
REMARK 923 INTER-LIGAND FREE ENERGY PREDICTED BY IDOCK:   -4.40 KCAL/MOL
REMARK 924 INTRA-LIGAND FREE ENERGY PREDICTED BY IDOCK:   -0.16 KCAL/MOL
REMARK 927      BINDING AFFINITY PREDICTED BY RF-SCORE:    0.00 PKD
ROOT
HETATM    1  F   UNL     1     -13.321  15.366  70.300  1.00  0.00    -0.300 F  
HETATM    2  C   UNL     1     -12.051  15.438  69.880  1.00  0.00    -0.355 A  
HETATM    3  C   UNL     1     -11.018  15.254  70.791  1.00  0.00    -0.312 A  
HETATM    4  C   UNL     1      -9.694  15.366  70.362  1.00  0.00     0.435 A  
HETATM    5  C   UNL     1      -9.392  15.660  69.017  1.00  0.00    -0.243 A  
HETATM    6  C   UNL     1     -10.458  15.796  68.108  1.00  0.00    -0.263 A  
HETATM    7  C   UNL     1     -11.782  15.697  68.541  1.00  0.00    -0.339 A  
ENDROOT
BRANCH   5   8
HETATM    8  C   UNL     1      -7.929  15.800  68.569  1.00  0.00    -0.141 C  
BRANCH   8   9
HETATM    9  N   UNL     1      -7.617  14.950  67.378  1.00  0.00    -0.195 NA 
HETATM   10  C   UNL     1      -8.437  13.709  67.341  1.00  0.00    -0.201 C  
HETATM   11  C   UNL     1      -6.196  14.522  67.334  1.00  0.00     0.198 C  
HETATM   12  C   UNL     1      -8.035  12.615  68.364  1.00  0.00    -0.134 C  
HETATM   13  N   UNL     1      -6.597  12.255  68.388  1.00  0.00    -0.056 NA 
HETATM   14  C   UNL     1      -5.796  13.495  68.419  1.00  0.00    -0.092 C  
BRANCH  13  15
HETATM   15  C   UNL     1      -6.178  11.418  67.251  1.00  0.00    -0.093 C  
BRANCH  15  16
HETATM   16  C   UNL     1      -6.423   9.966  67.508  1.00  0.00    -0.068 C  
HETATM   17  C   UNL     1      -6.379   9.415  68.731  1.00  0.00    -0.047 C  
BRANCH  17  18
HETATM   18  C   UNL     1      -6.420   7.964  68.860  1.00  0.00    -0.048 A  
HETATM   19  C   UNL     1      -6.955   7.216  67.804  1.00  0.00    -0.076 A  
HETATM   20  C   UNL     1      -7.111   5.838  67.932  1.00  0.00    -0.071 A  
HETATM   21  C   UNL     1      -6.727   5.205  69.113  1.00  0.00    -0.052 A  
HETATM   22  C   UNL     1      -6.180   5.947  70.161  1.00  0.00    -0.027 A  
HETATM   23  C   UNL     1      -6.025   7.328  70.037  1.00  0.00    -0.024 A  
ENDBRANCH  17  18
ENDBRANCH  15  16
ENDBRANCH  13  15
ENDBRANCH   8   9
BRANCH   8  24
HETATM   24  C   UNL     1      -7.543  17.286  68.399  1.00  0.00    -0.241 A  
HETATM   25  C   UNL     1      -8.208  19.637  68.458  1.00  0.00    -0.332 A  
HETATM   26  F   UNL     1      -6.557  21.315  68.309  1.00  0.00    -0.317 F  
HETATM   27  C   UNL     1      -8.539  18.278  68.501  1.00  0.00    -0.323 A  
HETATM   28  C   UNL     1      -5.886  19.062  68.157  1.00  0.00    -0.215 A  
HETATM   29  C   UNL     1      -6.214  17.700  68.181  1.00  0.00    -0.167 A  
HETATM   30  C   UNL     1      -6.882  20.016  68.304  1.00  0.00    -0.302 A  
ENDBRANCH   8  24
ENDBRANCH   5   8
TORSDOF 6
ENDMDL
MODEL      144
REMARK 921   NORMALIZED FREE ENERGY PREDICTED BY IDOCK:   -3.22 KCAL/MOL
REMARK 922        TOTAL FREE ENERGY PREDICTED BY IDOCK:   -4.54 KCAL/MOL
REMARK 923 INTER-LIGAND FREE ENERGY PREDICTED BY IDOCK:   -3.69 KCAL/MOL
REMARK 924 INTRA-LIGAND FREE ENERGY PREDICTED BY IDOCK:   -0.85 KCAL/MOL
REMARK 927      BINDING AFFINITY PREDICTED BY RF-SCORE:    0.00 PKD
ROOT
HETATM    1  F   UNL     1     -11.496   6.234  66.680  1.00  0.00    -0.364 F  
HETATM    2  C   UNL     1     -10.433   6.654  67.378  1.00  0.00    -0.260 A  
HETATM    3  C   UNL     1     -10.585   6.991  68.717  1.00  0.00    -0.235 A  
HETATM    4  C   UNL     1      -9.485   7.465  69.436  1.00  0.00    -0.155 A  
HETATM    5  C   UNL     1      -8.224   7.602  68.821  1.00  0.00    -0.128 A  
HETATM    6  C   UNL     1      -8.092   7.211  67.476  1.00  0.00    -0.113 A  
HETATM    7  C   UNL     1      -9.195   6.750  66.755  1.00  0.00    -0.172 A  
ENDROOT
BRANCH   5   8
HETATM    8  C   UNL     1      -7.032   8.146  69.624  1.00  0.00    -0.049 C  
BRANCH   8   9
HETATM    9  N   UNL     1      -7.304   9.501  70.197  1.00  0.00    -0.106 NA 
HETATM   10  C   UNL     1      -8.013  10.387  69.234  1.00  0.00    -0.157 C  
HETATM   11  C   UNL     1      -6.067  10.214  70.599  1.00  0.00    -0.106 C  
HETATM   12  C   UNL     1      -7.145  10.932  68.069  1.00  0.00    -0.077 C  
HETATM   13  N   UNL     1      -5.862  11.560  68.465  1.00  0.00    -0.045 NA 
HETATM   14  C   UNL     1      -5.173  10.673  69.423  1.00  0.00    -0.038 C  
BRANCH  13  15
HETATM   15  C   UNL     1      -6.014  12.904  69.048  1.00  0.00    -0.084 C  
BRANCH  15  16
HETATM   16  C   UNL     1      -7.230  13.601  68.529  1.00  0.00    -0.109 C  
HETATM   17  C   UNL     1      -7.887  14.548  69.216  1.00  0.00    -0.023 C  
BRANCH  17  18
HETATM   18  C   UNL     1      -9.177  15.018  68.725  1.00  0.00    -0.200 A  
HETATM   19  C   UNL     1      -9.197  15.851  67.600  1.00  0.00    -0.208 A  
HETATM   20  C   UNL     1     -10.398  16.408  67.164  1.00  0.00    -0.290 A  
HETATM   21  C   UNL     1     -11.578  16.129  67.851  1.00  0.00    -0.000 A  
HETATM   22  C   UNL     1     -11.562  15.288  68.965  1.00  0.00    -0.360 A  
HETATM   23  C   UNL     1     -10.361  14.731  69.404  1.00  0.00    -0.171 A  
ENDBRANCH  17  18
ENDBRANCH  15  16
ENDBRANCH  13  15
ENDBRANCH   8   9
BRANCH   8  24
HETATM   24  C   UNL     1      -6.549   7.110  70.664  1.00  0.00    -0.048 A  
HETATM   25  C   UNL     1      -6.484   6.356  72.988  1.00  0.00    -0.068 A  
HETATM   26  F   UNL     1      -5.608   4.226  73.494  1.00  0.00    -0.006 F  
HETATM   27  C   UNL     1      -6.813   7.323  72.032  1.00  0.00    -0.055 A  
HETATM   28  C   UNL     1      -5.569   4.953  71.253  1.00  0.00    -0.012 A  
HETATM   29  C   UNL     1      -5.881   5.925  70.294  1.00  0.00    -0.024 A  
HETATM   30  C   UNL     1      -5.881   5.173  72.587  1.00  0.00    -0.025 A  
ENDBRANCH   8  24
ENDBRANCH   5   8
TORSDOF 6
ENDMDL
MODEL      145
REMARK 921   NORMALIZED FREE ENERGY PREDICTED BY IDOCK:   -3.17 KCAL/MOL
REMARK 922        TOTAL FREE ENERGY PREDICTED BY IDOCK:   -4.47 KCAL/MOL
REMARK 923 INTER-LIGAND FREE ENERGY PREDICTED BY IDOCK:   -4.56 KCAL/MOL
REMARK 924 INTRA-LIGAND FREE ENERGY PREDICTED BY IDOCK:    0.08 KCAL/MOL
REMARK 927      BINDING AFFINITY PREDICTED BY RF-SCORE:    0.00 PKD
ROOT
HETATM    1  F   UNL     1      -5.155  20.987  71.655  1.00  0.00    -0.236 F  
HETATM    2  C   UNL     1      -5.465  19.917  70.911  1.00  0.00    -0.271 A  
HETATM    3  C   UNL     1      -6.084  20.096  69.680  1.00  0.00    -0.389 A  
HETATM    4  C   UNL     1      -6.441  18.980  68.920  1.00  0.00    -0.290 A  
HETATM    5  C   UNL     1      -6.178  17.675  69.385  1.00  0.00    -0.249 A  
HETATM    6  C   UNL     1      -5.510  17.526  70.614  1.00  0.00    -0.193 A  
HETATM    7  C   UNL     1      -5.165  18.643  71.378  1.00  0.00    -0.265 A  
ENDROOT
BRANCH   5   8
HETATM    8  C   UNL     1      -6.598  16.459  68.543  1.00  0.00    -0.136 C  
BRANCH   8   9
HETATM    9  N   UNL     1      -6.779  15.229  69.375  1.00  0.00    -0.150 NA 
HETATM   10  C   UNL     1      -5.602  14.321  69.302  1.00  0.00    -0.082 C  
HETATM   11  C   UNL     1      -7.959  14.428  68.966  1.00  0.00    -0.057 C  
HETATM   12  C   UNL     1      -5.451  13.534  67.973  1.00  0.00    -0.117 C  
HETATM   13  N   UNL     1      -6.660  12.812  67.514  1.00  0.00    -0.152 NA 
HETATM   14  C   UNL     1      -7.820  13.722  67.598  1.00  0.00    -0.178 C  
BRANCH  13  15
HETATM   15  C   UNL     1      -6.937  11.579  68.272  1.00  0.00    -0.073 C  
BRANCH  15  16
HETATM   16  C   UNL     1      -7.278  10.437  67.372  1.00  0.00    -0.091 C  
HETATM   17  C   UNL     1      -6.425   9.927  66.470  1.00  0.00    -0.071 C  
BRANCH  17  18
HETATM   18  C   UNL     1      -6.913   8.960  65.494  1.00  0.00    -0.080 A  
HETATM   19  C   UNL     1      -7.749   7.929  65.940  1.00  0.00    -0.093 A  
HETATM   20  C   UNL     1      -8.150   6.924  65.062  1.00  0.00    -0.117 A  
HETATM   21  C   UNL     1      -7.718   6.953  63.736  1.00  0.00    -0.118 A  
HETATM   22  C   UNL     1      -6.896   7.987  63.287  1.00  0.00    -0.084 A  
HETATM   23  C   UNL     1      -6.493   8.993  64.165  1.00  0.00    -0.083 A  
ENDBRANCH  17  18
ENDBRANCH  15  16
ENDBRANCH  13  15
ENDBRANCH   8   9
BRANCH   8  24
HETATM   24  C   UNL     1      -7.812  16.798  67.652  1.00  0.00    -0.189 A  
HETATM   25  C   UNL     1     -10.094  17.655  67.465  1.00  0.00    -0.337 A  
HETATM   26  F   UNL     1     -11.009  18.069  65.331  1.00  0.00    -0.407 F  
HETATM   27  C   UNL     1      -9.011  17.239  68.248  1.00  0.00    -0.262 A  
HETATM   28  C   UNL     1      -8.841  17.158  65.466  1.00  0.00     0.799 A  
HETATM   29  C   UNL     1      -7.760  16.723  66.245  1.00  0.00    -0.310 A  
HETATM   30  C   UNL     1      -9.992  17.627  66.082  1.00  0.00    -0.272 A  
ENDBRANCH   8  24
ENDBRANCH   5   8
TORSDOF 6
ENDMDL
MODEL      146
REMARK 921   NORMALIZED FREE ENERGY PREDICTED BY IDOCK:   -3.16 KCAL/MOL
REMARK 922        TOTAL FREE ENERGY PREDICTED BY IDOCK:   -4.47 KCAL/MOL
REMARK 923 INTER-LIGAND FREE ENERGY PREDICTED BY IDOCK:   -4.95 KCAL/MOL
REMARK 924 INTRA-LIGAND FREE ENERGY PREDICTED BY IDOCK:    0.48 KCAL/MOL
REMARK 927      BINDING AFFINITY PREDICTED BY RF-SCORE:    0.00 PKD
ROOT
HETATM    1  F   UNL     1     -11.268  19.236  64.987  1.00  0.00    -0.231 F  
HETATM    2  C   UNL     1     -10.902  18.084  65.564  1.00  0.00     0.146 A  
HETATM    3  C   UNL     1     -10.706  16.957  64.775  1.00  0.00     0.223 A  
HETATM    4  C   UNL     1     -10.361  15.746  65.380  1.00  0.00    -0.417 A  
HETATM    5  C   UNL     1     -10.207  15.654  66.778  1.00  0.00    -0.278 A  
HETATM    6  C   UNL     1     -10.369  16.822  67.546  1.00  0.00    -0.301 A  
HETATM    7  C   UNL     1     -10.726  18.029  66.941  1.00  0.00    -0.214 A  
ENDROOT
BRANCH   5   8
HETATM    8  C   UNL     1      -9.848  14.307  67.426  1.00  0.00    -0.235 C  
BRANCH   8   9
HETATM    9  N   UNL     1      -9.870  13.181  66.441  1.00  0.00    -0.274 NA 
HETATM   10  C   UNL     1     -11.245  12.657  66.217  1.00  0.00    -0.311 C  
HETATM   11  C   UNL     1      -9.040  12.028  66.869  1.00  0.00    -0.196 C  
HETATM   12  C   UNL     1     -11.828  11.803  67.373  1.00  0.00    -0.135 C  
HETATM   13  N   UNL     1     -10.957  10.710  67.866  1.00  0.00    -0.273 NA 
HETATM   14  C   UNL     1      -9.597  11.243  68.079  1.00  0.00    -0.180 C  
BRANCH  13  15
HETATM   15  C   UNL     1     -10.902   9.545  66.966  1.00  0.00    -0.055 C  
BRANCH  15  16
HETATM   16  C   UNL     1     -10.584   8.285  67.704  1.00  0.00    -0.264 C  
HETATM   17  C   UNL     1     -10.133   7.173  67.105  1.00  0.00    -0.293 C  
BRANCH  17  18
HETATM   18  C   UNL     1     -10.053   5.934  67.870  1.00  0.00    -0.193 A  
HETATM   19  C   UNL     1     -10.332   5.979  69.241  1.00  0.00    -0.294 A  
HETATM   20  C   UNL     1     -10.163   4.841  70.027  1.00  0.00    -0.251 A  
HETATM   21  C   UNL     1      -9.721   3.656  69.442  1.00  0.00    -0.093 A  
HETATM   22  C   UNL     1      -9.456   3.605  68.072  1.00  0.00    -0.218 A  
HETATM   23  C   UNL     1      -9.623   4.744  67.283  1.00  0.00    -0.185 A  
ENDBRANCH  17  18
ENDBRANCH  15  16
ENDBRANCH  13  15
ENDBRANCH   8   9
BRANCH   8  24
HETATM   24  C   UNL     1      -8.532  14.414  68.228  1.00  0.00    -0.165 A  
HETATM   25  C   UNL     1      -7.385  15.071  70.284  1.00  0.00     0.318 A  
HETATM   26  F   UNL     1      -5.136  14.441  70.612  1.00  0.00    -0.095 F  
HETATM   27  C   UNL     1      -8.534  15.050  69.485  1.00  0.00    -0.084 A  
HETATM   28  C   UNL     1      -6.178  13.867  68.579  1.00  0.00    -0.093 A  
HETATM   29  C   UNL     1      -7.320  13.859  67.768  1.00  0.00    -0.170 A  
HETATM   30  C   UNL     1      -6.223  14.464  69.830  1.00  0.00    -0.139 A  
ENDBRANCH   8  24
ENDBRANCH   5   8
TORSDOF 6
ENDMDL
MODEL      147
REMARK 921   NORMALIZED FREE ENERGY PREDICTED BY IDOCK:   -3.13 KCAL/MOL
REMARK 922        TOTAL FREE ENERGY PREDICTED BY IDOCK:   -4.42 KCAL/MOL
REMARK 923 INTER-LIGAND FREE ENERGY PREDICTED BY IDOCK:   -5.59 KCAL/MOL
REMARK 924 INTRA-LIGAND FREE ENERGY PREDICTED BY IDOCK:    1.16 KCAL/MOL
REMARK 927      BINDING AFFINITY PREDICTED BY RF-SCORE:    0.00 PKD
ROOT
HETATM    1  F   UNL     1     -13.132  12.865  70.616  1.00  0.00    -0.161 F  
HETATM    2  C   UNL     1     -12.261  12.169  69.875  1.00  0.00    -0.170 A  
HETATM    3  C   UNL     1     -12.027  12.547  68.559  1.00  0.00    -0.266 A  
HETATM    4  C   UNL     1     -11.147  11.799  67.773  1.00  0.00    -0.302 A  
HETATM    5  C   UNL     1     -10.492  10.667  68.300  1.00  0.00    -0.214 A  
HETATM    6  C   UNL     1     -10.715  10.335  69.649  1.00  0.00    -0.299 A  
HETATM    7  C   UNL     1     -11.604  11.076  70.429  1.00  0.00    -0.389 A  
ENDROOT
BRANCH   5   8
HETATM    8  C   UNL     1      -9.544   9.845  67.413  1.00  0.00    -0.155 C  
BRANCH   8   9
HETATM    9  N   UNL     1      -8.126  10.314  67.511  1.00  0.00    -0.110 NA 
HETATM   10  C   UNL     1      -7.893  11.153  68.718  1.00  0.00    -0.142 C  
HETATM   11  C   UNL     1      -7.707  11.125  66.342  1.00  0.00    -0.124 C  
HETATM   12  C   UNL     1      -8.479  12.588  68.653  1.00  0.00     0.031 C  
HETATM   13  N   UNL     1      -8.139  13.366  67.438  1.00  0.00    -0.176 NA 
HETATM   14  C   UNL     1      -8.370  12.520  66.251  1.00  0.00     0.412 C  
BRANCH  13  15
HETATM   15  C   UNL     1      -6.757  13.875  67.429  1.00  0.00     0.029 C  
BRANCH  15  16
HETATM   16  C   UNL     1      -6.706  15.352  67.649  1.00  0.00    -0.198 C  
HETATM   17  C   UNL     1      -7.716  16.180  67.341  1.00  0.00    -0.187 C  
BRANCH  17  18
HETATM   18  C   UNL     1      -7.498  17.620  67.391  1.00  0.00    -0.209 A  
HETATM   19  C   UNL     1      -7.170  18.286  66.204  1.00  0.00    -0.301 A  
HETATM   20  C   UNL     1      -6.848  19.641  66.228  1.00  0.00    -0.228 A  
HETATM   21  C   UNL     1      -6.859  20.333  67.438  1.00  0.00    -0.295 A  
HETATM   22  C   UNL     1      -7.199  19.674  68.621  1.00  0.00    -0.371 A  
HETATM   23  C   UNL     1      -7.520  18.317  68.600  1.00  0.00    -0.308 A  
ENDBRANCH  17  18
ENDBRANCH  15  16
ENDBRANCH  13  15
ENDBRANCH   8   9
BRANCH   8  24
HETATM   24  C   UNL     1      -9.723   8.332  67.667  1.00  0.00    -0.201 A  
HETATM   25  C   UNL     1      -8.950   6.291  68.768  1.00  0.00    -0.125 A  
HETATM   26  F   UNL     1     -10.294   4.354  68.702  1.00  0.00    -0.127 F  
HETATM   27  C   UNL     1      -8.764   7.636  68.430  1.00  0.00    -0.127 A  
HETATM   28  C   UNL     1     -11.032   6.274  67.552  1.00  0.00    -0.444 A  
HETATM   29  C   UNL     1     -10.842   7.615  67.196  1.00  0.00    -0.258 A  
HETATM   30  C   UNL     1     -10.091   5.628  68.340  1.00  0.00    -0.173 A  
ENDBRANCH   8  24
ENDBRANCH   5   8
TORSDOF 6
ENDMDL
MODEL      148
REMARK 921   NORMALIZED FREE ENERGY PREDICTED BY IDOCK:   -3.05 KCAL/MOL
REMARK 922        TOTAL FREE ENERGY PREDICTED BY IDOCK:   -4.31 KCAL/MOL
REMARK 923 INTER-LIGAND FREE ENERGY PREDICTED BY IDOCK:   -7.72 KCAL/MOL
REMARK 924 INTRA-LIGAND FREE ENERGY PREDICTED BY IDOCK:    3.40 KCAL/MOL
REMARK 927      BINDING AFFINITY PREDICTED BY RF-SCORE:    0.00 PKD
ROOT
HETATM    1  F   UNL     1      -9.710  10.983  62.336  1.00  0.00    -0.248 F  
HETATM    2  C   UNL     1      -9.361  10.745  63.607  1.00  0.00    -0.273 A  
HETATM    3  C   UNL     1      -8.017  10.623  63.935  1.00  0.00     0.092 A  
HETATM    4  C   UNL     1      -7.654  10.338  65.253  1.00  0.00    -0.143 A  
HETATM    5  C   UNL     1      -8.633  10.176  66.254  1.00  0.00    -0.138 A  
HETATM    6  C   UNL     1      -9.984  10.349  65.900  1.00  0.00    -0.317 A  
HETATM    7  C   UNL     1     -10.347  10.621  64.579  1.00  0.00    -0.352 A  
ENDROOT
BRANCH   5   8
HETATM    8  C   UNL     1      -8.214   9.842  67.694  1.00  0.00    -0.114 C  
BRANCH   8   9
HETATM    9  N   UNL     1      -8.054  11.067  68.537  1.00  0.00    -0.133 NA 
HETATM   10  C   UNL     1      -9.327  11.467  69.197  1.00  0.00     0.161 C  
HETATM   11  C   UNL     1      -7.592  12.243  67.759  1.00  0.00    -0.131 C  
HETATM   12  C   UNL     1     -10.385  12.112  68.265  1.00  0.00    -0.212 C  
HETATM   13  N   UNL     1      -9.900  13.225  67.416  1.00  0.00    -0.223 NA 
HETATM   14  C   UNL     1      -8.635  12.817  66.772  1.00  0.00    -0.078 C  
BRANCH  13  15
HETATM   15  C   UNL     1      -9.703  14.487  68.149  1.00  0.00    -0.219 C  
BRANCH  15  16
HETATM   16  C   UNL     1     -10.621  14.598  69.323  1.00  0.00    -0.236 C  
HETATM   17  C   UNL     1     -11.448  15.636  69.518  1.00  0.00    -0.349 C  
BRANCH  17  18
HETATM   18  C   UNL     1     -12.147  15.762  70.791  1.00  0.00    -0.448 A  
HETATM   19  C   UNL     1     -11.450  16.293  71.883  1.00  0.00    -0.298 A  
HETATM   20  C   UNL     1     -12.046  16.331  73.142  1.00  0.00    -0.608 A  
HETATM   21  C   UNL     1     -13.340  15.842  73.308  1.00  0.00    -0.649 A  
HETATM   22  C   UNL     1     -14.042  15.324  72.218  1.00  0.00    -0.651 A  
HETATM   23  C   UNL     1     -13.447  15.284  70.957  1.00  0.00    -0.516 A  
ENDBRANCH  17  18
ENDBRANCH  15  16
ENDBRANCH  13  15
ENDBRANCH   8   9
BRANCH   8  24
HETATM   24  C   UNL     1      -9.148   8.775  68.308  1.00  0.00    -0.141 A  
HETATM   25  C   UNL     1     -10.889   7.090  67.989  1.00  0.00    -0.229 A  
HETATM   26  F   UNL     1     -11.458   5.655  69.773  1.00  0.00    -0.381 F  
HETATM   27  C   UNL     1     -10.101   8.133  67.492  1.00  0.00    -0.286 A  
HETATM   28  C   UNL     1      -9.839   7.326  70.147  1.00  0.00    -0.179 A  
HETATM   29  C   UNL     1      -9.060   8.383  69.659  1.00  0.00    -0.153 A  
HETATM   30  C   UNL     1     -10.738   6.684  69.308  1.00  0.00    -0.265 A  
ENDBRANCH   8  24
ENDBRANCH   5   8
TORSDOF 6
ENDMDL
MODEL      149
REMARK 921   NORMALIZED FREE ENERGY PREDICTED BY IDOCK:   -2.94 KCAL/MOL
REMARK 922        TOTAL FREE ENERGY PREDICTED BY IDOCK:   -4.16 KCAL/MOL
REMARK 923 INTER-LIGAND FREE ENERGY PREDICTED BY IDOCK:   -4.63 KCAL/MOL
REMARK 924 INTRA-LIGAND FREE ENERGY PREDICTED BY IDOCK:    0.47 KCAL/MOL
REMARK 927      BINDING AFFINITY PREDICTED BY RF-SCORE:    0.00 PKD
ROOT
HETATM    1  F   UNL     1     -11.268   7.614  73.335  1.00  0.00    -0.431 F  
HETATM    2  C   UNL     1     -10.655   7.951  72.192  1.00  0.00    -0.253 A  
HETATM    3  C   UNL     1     -11.098   9.057  71.478  1.00  0.00    -0.419 A  
HETATM    4  C   UNL     1     -10.484   9.386  70.268  1.00  0.00    -0.298 A  
HETATM    5  C   UNL     1      -9.418   8.612  69.764  1.00  0.00    -0.166 A  
HETATM    6  C   UNL     1      -8.962   7.524  70.531  1.00  0.00    -0.152 A  
HETATM    7  C   UNL     1      -9.586   7.189  71.735  1.00  0.00    -0.161 A  
ENDROOT
BRANCH   5   8
HETATM    8  C   UNL     1      -8.770   8.978  68.420  1.00  0.00    -0.130 C  
BRANCH   8   9
HETATM    9  N   UNL     1      -9.562   8.479  67.253  1.00  0.00    -0.161 NA 
HETATM   10  C   UNL     1     -10.776   7.728  67.677  1.00  0.00    -0.157 C  
HETATM   11  C   UNL     1      -8.784   7.569  66.377  1.00  0.00    -0.145 C  
HETATM   12  C   UNL     1     -10.514   6.309  68.247  1.00  0.00    -0.228 C  
HETATM   13  N   UNL     1      -9.656   5.432  67.416  1.00  0.00    -0.123 NA 
HETATM   14  C   UNL     1      -8.460   6.191  67.000  1.00  0.00    -0.105 C  
BRANCH  13  15
HETATM   15  C   UNL     1     -10.339   4.885  66.232  1.00  0.00    -0.298 C  
BRANCH  15  16
HETATM   16  C   UNL     1      -9.371   4.492  65.163  1.00  0.00    -0.160 C  
HETATM   17  C   UNL     1      -8.795   3.282  65.098  1.00  0.00    -0.130 C  
BRANCH  17  18
HETATM   18  C   UNL     1      -7.709   3.060  64.151  1.00  0.00    -0.077 A  
HETATM   19  C   UNL     1      -7.255   1.750  63.954  1.00  0.00    -0.051 A  
HETATM   20  C   UNL     1      -6.150   1.507  63.141  1.00  0.00    -0.009 A  
HETATM   21  C   UNL     1      -5.502   2.573  62.520  1.00  0.00    -0.008 A  
HETATM   22  C   UNL     1      -5.961   3.878  62.704  1.00  0.00    -0.013 A  
HETATM   23  C   UNL     1      -7.067   4.124  63.519  1.00  0.00    -0.045 A  
ENDBRANCH  17  18
ENDBRANCH  15  16
ENDBRANCH  13  15
ENDBRANCH   8   9
BRANCH   8  24
HETATM   24  C   UNL     1      -8.443  10.487  68.358  1.00  0.00    -0.128 A  
HETATM   25  C   UNL     1      -6.839  12.294  68.723  1.00  0.00    -0.092 A  
HETATM   26  F   UNL     1      -7.324  14.458  67.918  1.00  0.00    -0.100 F  
HETATM   27  C   UNL     1      -7.211  10.953  68.859  1.00  0.00    -0.095 A  
HETATM   28  C   UNL     1      -8.935  12.764  67.627  1.00  0.00    -0.191 A  
HETATM   29  C   UNL     1      -9.320  11.425  67.777  1.00  0.00    -0.162 A  
HETATM   30  C   UNL     1      -7.698  13.184  68.092  1.00  0.00    -0.143 A  
ENDBRANCH   8  24
ENDBRANCH   5   8
TORSDOF 6
ENDMDL
MODEL      150
REMARK 921   NORMALIZED FREE ENERGY PREDICTED BY IDOCK:   -2.91 KCAL/MOL
REMARK 922        TOTAL FREE ENERGY PREDICTED BY IDOCK:   -4.13 KCAL/MOL
REMARK 923 INTER-LIGAND FREE ENERGY PREDICTED BY IDOCK:   -4.86 KCAL/MOL
REMARK 924 INTRA-LIGAND FREE ENERGY PREDICTED BY IDOCK:    0.73 KCAL/MOL
REMARK 927      BINDING AFFINITY PREDICTED BY RF-SCORE:    0.00 PKD
ROOT
HETATM    1  F   UNL     1      -9.712  18.684  68.191  1.00  0.00    -0.293 F  
HETATM    2  C   UNL     1      -9.872  17.415  67.794  1.00  0.00    -0.283 A  
HETATM    3  C   UNL     1      -8.860  16.790  67.075  1.00  0.00    -0.227 A  
HETATM    4  C   UNL     1      -9.041  15.479  66.628  1.00  0.00    -0.310 A  
HETATM    5  C   UNL     1     -10.236  14.781  66.902  1.00  0.00    -0.257 A  
HETATM    6  C   UNL     1     -11.224  15.424  67.670  1.00  0.00    -0.311 A  
HETATM    7  C   UNL     1     -11.046  16.739  68.105  1.00  0.00    -0.254 A  
ENDROOT
BRANCH   5   8
HETATM    8  C   UNL     1     -10.424  13.347  66.384  1.00  0.00    -0.286 C  
BRANCH   8   9
HETATM    9  N   UNL     1      -9.424  12.989  65.329  1.00  0.00     0.175 NA 
HETATM   10  C   UNL     1     -10.066  12.723  64.013  1.00  0.00    -0.200 C  
HETATM   11  C   UNL     1      -8.638  11.778  65.671  1.00  0.00     0.301 C  
HETATM   12  C   UNL     1     -10.827  11.376  63.904  1.00  0.00    -0.393 C  
HETATM   13  N   UNL     1     -10.073  10.176  64.336  1.00  0.00    -0.191 NA 
HETATM   14  C   UNL     1      -9.438  10.456  65.640  1.00  0.00    -0.211 C  
BRANCH  13  15
HETATM   15  C   UNL     1      -9.054   9.736  63.368  1.00  0.00    -0.229 C  
BRANCH  15  16
HETATM   16  C   UNL     1      -8.657   8.312  63.585  1.00  0.00     0.169 C  
HETATM   17  C   UNL     1      -7.738   7.680  62.839  1.00  0.00    -0.124 C  
BRANCH  17  18
HETATM   18  C   UNL     1      -7.571   6.239  62.984  1.00  0.00    -0.080 A  
HETATM   19  C   UNL     1      -6.450   5.765  63.677  1.00  0.00    -0.029 A  
HETATM   20  C   UNL     1      -6.197   4.397  63.745  1.00  0.00    -0.022 A  
HETATM   21  C   UNL     1      -7.067   3.501  63.125  1.00  0.00    -0.048 A  
HETATM   22  C   UNL     1      -8.193   3.971  62.446  1.00  0.00    -0.075 A  
HETATM   23  C   UNL     1      -8.448   5.341  62.375  1.00  0.00    -0.115 A  
ENDBRANCH  17  18
ENDBRANCH  15  16
ENDBRANCH  13  15
ENDBRANCH   8   9
BRANCH   8  24
HETATM   24  C   UNL     1     -10.488  12.341  67.554  1.00  0.00    -0.230 A  
HETATM   25  C   UNL     1     -11.785  10.731  68.857  1.00  0.00    -0.338 A  
HETATM   26  F   UNL     1     -10.693   9.369  70.443  1.00  0.00    -0.227 F  
HETATM   27  C   UNL     1     -11.714  11.724  67.874  1.00  0.00    -0.347 A  
HETATM   28  C   UNL     1      -9.423  10.972  69.272  1.00  0.00     0.020 A  
HETATM   29  C   UNL     1      -9.349  11.979  68.301  1.00  0.00    -0.197 A  
HETATM   30  C   UNL     1     -10.636  10.352  69.535  1.00  0.00    -0.246 A  
ENDBRANCH   8  24
ENDBRANCH   5   8
TORSDOF 6
ENDMDL
MODEL      151
REMARK 921   NORMALIZED FREE ENERGY PREDICTED BY IDOCK:   -2.48 KCAL/MOL
REMARK 922        TOTAL FREE ENERGY PREDICTED BY IDOCK:   -3.54 KCAL/MOL
REMARK 923 INTER-LIGAND FREE ENERGY PREDICTED BY IDOCK:   -4.20 KCAL/MOL
REMARK 924 INTRA-LIGAND FREE ENERGY PREDICTED BY IDOCK:    0.66 KCAL/MOL
REMARK 927      BINDING AFFINITY PREDICTED BY RF-SCORE:    0.00 PKD
ROOT
HETATM    1  F   UNL     1     -12.011   1.658  73.991  1.00  0.00    -0.230 F  
HETATM    2  C   UNL     1     -11.277   2.649  73.468  1.00  0.00    -0.202 A  
HETATM    3  C   UNL     1     -10.284   2.350  72.544  1.00  0.00    -0.231 A  
HETATM    4  C   UNL     1      -9.494   3.379  72.027  1.00  0.00    -0.200 A  
HETATM    5  C   UNL     1      -9.693   4.716  72.428  1.00  0.00    -0.207 A  
HETATM    6  C   UNL     1     -10.735   4.993  73.332  1.00  0.00    -0.330 A  
HETATM    7  C   UNL     1     -11.517   3.962  73.858  1.00  0.00     0.049 A  
ENDROOT
BRANCH   5   8
HETATM    8  C   UNL     1      -8.799   5.830  71.863  1.00  0.00    -0.139 C  
BRANCH   8   9
HETATM    9  N   UNL     1      -7.864   5.327  70.809  1.00  0.00    -0.091 NA 
HETATM   10  C   UNL     1      -6.437   5.513  71.187  1.00  0.00    -0.036 C  
HETATM   11  C   UNL     1      -8.050   6.010  69.504  1.00  0.00    -0.107 C  
HETATM   12  C   UNL     1      -5.913   6.971  71.112  1.00  0.00    -0.036 C  
HETATM   13  N   UNL     1      -6.183   7.686  69.842  1.00  0.00    -0.027 NA 
HETATM   14  C   UNL     1      -7.600   7.489  69.477  1.00  0.00    -0.095 C  
BRANCH  13  15
HETATM   15  C   UNL     1      -5.317   7.263  68.729  1.00  0.00    -0.018 C  
BRANCH  15  16
HETATM   16  C   UNL     1      -5.997   7.411  67.407  1.00  0.00    -0.042 C  
HETATM   17  C   UNL     1      -6.036   8.563  66.721  1.00  0.00    -0.053 C  
BRANCH  17  18
HETATM   18  C   UNL     1      -6.899   8.668  65.550  1.00  0.00    -0.075 A  
HETATM   19  C   UNL     1      -7.330   7.487  64.934  1.00  0.00    -0.079 A  
HETATM   20  C   UNL     1      -8.066   7.543  63.752  1.00  0.00    -0.024 A  
HETATM   21  C   UNL     1      -8.375   8.780  63.189  1.00  0.00    -0.167 A  
HETATM   22  C   UNL     1      -7.958   9.959  63.809  1.00  0.00    -0.148 A  
HETATM   23  C   UNL     1      -7.219   9.905  64.992  1.00  0.00    -0.135 A  
ENDBRANCH  17  18
ENDBRANCH  15  16
ENDBRANCH  13  15
ENDBRANCH   8   9
BRANCH   8  24
HETATM   24  C   UNL     1      -9.644   7.047  71.425  1.00  0.00    -0.162 A  
HETATM   25  C   UNL     1     -11.619   7.915  70.276  1.00  0.00    -0.022 A  
HETATM   26  F   UNL     1     -12.176  10.198  70.485  1.00  0.00    -0.313 F  
HETATM   27  C   UNL     1     -10.772   6.850  70.604  1.00  0.00    -0.267 A  
HETATM   28  C   UNL     1     -10.214   9.419  71.533  1.00  0.00    -0.223 A  
HETATM   29  C   UNL     1      -9.354   8.360  71.849  1.00  0.00    -0.313 A  
HETATM   30  C   UNL     1     -11.341   9.186  70.758  1.00  0.00    -0.280 A  
ENDBRANCH   8  24
ENDBRANCH   5   8
TORSDOF 6
ENDMDL
MODEL      152
REMARK 921   NORMALIZED FREE ENERGY PREDICTED BY IDOCK:   -2.42 KCAL/MOL
REMARK 922        TOTAL FREE ENERGY PREDICTED BY IDOCK:   -3.46 KCAL/MOL
REMARK 923 INTER-LIGAND FREE ENERGY PREDICTED BY IDOCK:   -3.17 KCAL/MOL
REMARK 924 INTRA-LIGAND FREE ENERGY PREDICTED BY IDOCK:   -0.29 KCAL/MOL
REMARK 927      BINDING AFFINITY PREDICTED BY RF-SCORE:    0.00 PKD
ROOT
HETATM    1  F   UNL     1     -11.129   5.144  71.761  1.00  0.00    -0.254 F  
HETATM    2  C   UNL     1     -10.696   5.427  70.525  1.00  0.00    -0.196 A  
HETATM    3  C   UNL     1     -11.451   6.262  69.711  1.00  0.00    -0.449 A  
HETATM    4  C   UNL     1     -11.020   6.528  68.410  1.00  0.00    -0.358 A  
HETATM    5  C   UNL     1      -9.828   5.962  67.914  1.00  0.00    -0.139 A  
HETATM    6  C   UNL     1      -9.062   5.156  68.776  1.00  0.00    -0.140 A  
HETATM    7  C   UNL     1      -9.501   4.881  70.073  1.00  0.00    -0.234 A  
ENDROOT
BRANCH   5   8
HETATM    8  C   UNL     1      -9.382   6.251  66.472  1.00  0.00    -0.151 C  
BRANCH   8   9
HETATM    9  N   UNL     1      -7.996   6.811  66.408  1.00  0.00    -0.104 NA 
HETATM   10  C   UNL     1      -7.814   7.968  67.326  1.00  0.00    -0.109 C  
HETATM   11  C   UNL     1      -7.630   7.285  65.050  1.00  0.00    -0.107 C  
HETATM   12  C   UNL     1      -8.487   9.289  66.873  1.00  0.00    -0.127 C  
HETATM   13  N   UNL     1      -8.198   9.713  65.482  1.00  0.00    -0.122 NA 
HETATM   14  C   UNL     1      -8.378   8.555  64.584  1.00  0.00    -0.146 C  
BRANCH  13  15
HETATM   15  C   UNL     1      -6.850  10.280  65.304  1.00  0.00    -0.131 C  
BRANCH  15  16
HETATM   16  C   UNL     1      -6.411  11.058  66.501  1.00  0.00    -0.132 C  
HETATM   17  C   UNL     1      -7.128  12.058  67.036  1.00  0.00    -0.091 C  
BRANCH  17  18
HETATM   18  C   UNL     1      -6.526  12.897  68.065  1.00  0.00    -0.108 A  
HETATM   19  C   UNL     1      -6.337  12.351  69.341  1.00  0.00    -0.119 A  
HETATM   20  C   UNL     1      -5.865  13.151  70.380  1.00  0.00    -0.156 A  
HETATM   21  C   UNL     1      -5.577  14.493  70.143  1.00  0.00    -0.119 A  
HETATM   22  C   UNL     1      -5.752  15.035  68.868  1.00  0.00    -0.090 A  
HETATM   23  C   UNL     1      -6.226  14.237  67.827  1.00  0.00    -0.152 A  
ENDBRANCH  17  18
ENDBRANCH  15  16
ENDBRANCH  13  15
ENDBRANCH   8   9
BRANCH   8  24
HETATM   24  C   UNL     1      -9.602   5.017  65.569  1.00  0.00    -0.105 A  
HETATM   25  C   UNL     1      -9.541   2.589  65.297  1.00  0.00     0.102 A  
HETATM   26  F   UNL     1     -10.480   1.612  63.366  1.00  0.00    -0.118 F  
HETATM   27  C   UNL     1      -9.257   3.736  66.045  1.00  0.00    -0.161 A  
HETATM   28  C   UNL     1     -10.477   3.961  63.548  1.00  0.00    -0.198 A  
HETATM   29  C   UNL     1     -10.179   5.114  64.286  1.00  0.00     1.122 A  
HETATM   30  C   UNL     1     -10.164   2.711  64.063  1.00  0.00    -0.079 A  
ENDBRANCH   8  24
ENDBRANCH   5   8
TORSDOF 6
ENDMDL
MODEL      153
REMARK 921   NORMALIZED FREE ENERGY PREDICTED BY IDOCK:   -2.37 KCAL/MOL
REMARK 922        TOTAL FREE ENERGY PREDICTED BY IDOCK:   -3.39 KCAL/MOL
REMARK 923 INTER-LIGAND FREE ENERGY PREDICTED BY IDOCK:   -6.04 KCAL/MOL
REMARK 924 INTRA-LIGAND FREE ENERGY PREDICTED BY IDOCK:    2.65 KCAL/MOL
REMARK 927      BINDING AFFINITY PREDICTED BY RF-SCORE:    0.00 PKD
ROOT
HETATM    1  F   UNL     1     -11.540  12.845  62.979  1.00  0.00    -0.538 F  
HETATM    2  C   UNL     1     -10.818  12.209  63.910  1.00  0.00    -0.406 A  
HETATM    3  C   UNL     1     -10.170  11.024  63.582  1.00  0.00    -0.431 A  
HETATM    4  C   UNL     1      -9.447  10.341  64.561  1.00  0.00    -0.356 A  
HETATM    5  C   UNL     1      -9.364  10.839  65.878  1.00  0.00    -0.220 A  
HETATM    6  C   UNL     1      -9.993  12.063  66.169  1.00  0.00    -0.254 A  
HETATM    7  C   UNL     1     -10.726  12.739  65.192  1.00  0.00    -0.319 A  
ENDROOT
BRANCH   5   8
HETATM    8  C   UNL     1      -8.580  10.060  66.947  1.00  0.00    -0.125 C  
BRANCH   8   9
HETATM    9  N   UNL     1      -9.435   9.687  68.117  1.00  0.00    -0.132 NA 
HETATM   10  C   UNL     1      -8.814   8.622  68.951  1.00  0.00    -0.138 C  
HETATM   11  C   UNL     1     -10.772   9.185  67.714  1.00  0.00    -0.179 C  
HETATM   12  C   UNL     1      -8.839   7.198  68.337  1.00  0.00    -0.127 C  
HETATM   13  N   UNL     1     -10.158   6.733  67.846  1.00  0.00    -0.150 NA 
HETATM   14  C   UNL     1     -10.764   7.800  67.026  1.00  0.00    -0.246 C  
BRANCH  13  15
HETATM   15  C   UNL     1     -11.085   6.341  68.921  1.00  0.00    -0.362 C  
BRANCH  15  16
HETATM   16  C   UNL     1     -10.423   5.469  69.938  1.00  0.00    -0.386 C  
HETATM   17  C   UNL     1     -10.694   5.529  71.251  1.00  0.00    -0.288 C  
BRANCH  17  18
HETATM   18  C   UNL     1      -9.851   4.795  72.187  1.00  0.00    -0.228 A  
HETATM   19  C   UNL     1      -8.621   4.306  71.731  1.00  0.00    -0.118 A  
HETATM   20  C   UNL     1      -7.835   3.509  72.561  1.00  0.00    -0.068 A  
HETATM   21  C   UNL     1      -8.277   3.203  73.847  1.00  0.00    -0.074 A  
HETATM   22  C   UNL     1      -9.497   3.701  74.307  1.00  0.00    -0.118 A  
HETATM   23  C   UNL     1     -10.287   4.499  73.478  1.00  0.00    -0.244 A  
ENDBRANCH  17  18
ENDBRANCH  15  16
ENDBRANCH  13  15
ENDBRANCH   8   9
BRANCH   8  24
HETATM   24  C   UNL     1      -7.822   8.870  66.318  1.00  0.00    -0.102 A  
HETATM   25  C   UNL     1      -5.845   7.435  66.286  1.00  0.00    -0.036 A  
HETATM   26  F   UNL     1      -5.841   5.490  64.950  1.00  0.00    -0.019 F  
HETATM   27  C   UNL     1      -6.518   8.567  66.756  1.00  0.00    -0.057 A  
HETATM   28  C   UNL     1      -7.731   6.895  64.885  1.00  0.00    -0.113 A  
HETATM   29  C   UNL     1      -8.403   8.038  65.340  1.00  0.00    -0.161 A  
HETATM   30  C   UNL     1      -6.465   6.600  65.367  1.00  0.00    -0.046 A  
ENDBRANCH   8  24
ENDBRANCH   5   8
TORSDOF 6
ENDMDL
MODEL      154
REMARK 921   NORMALIZED FREE ENERGY PREDICTED BY IDOCK:   -2.36 KCAL/MOL
REMARK 922        TOTAL FREE ENERGY PREDICTED BY IDOCK:   -3.38 KCAL/MOL
REMARK 923 INTER-LIGAND FREE ENERGY PREDICTED BY IDOCK:   -6.30 KCAL/MOL
REMARK 924 INTRA-LIGAND FREE ENERGY PREDICTED BY IDOCK:    2.92 KCAL/MOL
REMARK 927      BINDING AFFINITY PREDICTED BY RF-SCORE:    0.00 PKD
ROOT
HETATM    1  F   UNL     1      -8.739   4.671  65.055  1.00  0.00    -0.121 F  
HETATM    2  C   UNL     1      -9.242   5.769  65.635  1.00  0.00    -0.021 A  
HETATM    3  C   UNL     1      -8.559   6.974  65.527  1.00  0.00    -0.091 A  
HETATM    4  C   UNL     1      -9.063   8.110  66.163  1.00  0.00    -0.232 A  
HETATM    5  C   UNL     1     -10.258   8.051  66.908  1.00  0.00    -0.385 A  
HETATM    6  C   UNL     1     -10.951   6.828  66.962  1.00  0.00    -0.439 A  
HETATM    7  C   UNL     1     -10.439   5.689  66.337  1.00  0.00    -0.256 A  
ENDROOT
BRANCH   5   8
HETATM    8  C   UNL     1     -10.786   9.308  67.618  1.00  0.00    -0.209 C  
BRANCH   8   9
HETATM    9  N   UNL     1     -10.132   9.526  68.946  1.00  0.00    -0.181 NA 
HETATM   10  C   UNL     1      -8.668   9.265  68.902  1.00  0.00    -0.131 C  
HETATM   11  C   UNL     1     -10.688   8.653  70.009  1.00  0.00    -0.228 C  
HETATM   12  C   UNL     1      -8.261   7.770  68.824  1.00  0.00    -0.128 C  
HETATM   13  N   UNL     1      -8.891   6.879  69.827  1.00  0.00    -0.141 NA 
HETATM   14  C   UNL     1     -10.341   7.153  69.863  1.00  0.00    -0.213 C  
BRANCH  13  15
HETATM   15  C   UNL     1      -8.324   7.015  71.179  1.00  0.00    -0.118 C  
BRANCH  15  16
HETATM   16  C   UNL     1      -8.889   6.006  72.125  1.00  0.00    -0.135 C  
HETATM   17  C   UNL     1      -8.290   4.838  72.403  1.00  0.00    -0.116 C  
BRANCH  17  18
HETATM   18  C   UNL     1      -9.015   3.830  73.168  1.00  0.00    -0.107 A  
HETATM   19  C   UNL     1      -8.329   2.676  73.565  1.00  0.00    -0.068 A  
HETATM   20  C   UNL     1      -9.011   1.642  74.203  1.00  0.00    -0.063 A  
HETATM   21  C   UNL     1     -10.377   1.763  74.447  1.00  0.00    -0.165 A  
HETATM   22  C   UNL     1     -11.061   2.918  74.064  1.00  0.00    -0.168 A  
HETATM   23  C   UNL     1     -10.380   3.955  73.424  1.00  0.00    -0.235 A  
ENDBRANCH  17  18
ENDBRANCH  15  16
ENDBRANCH  13  15
ENDBRANCH   8   9
BRANCH   8  24
HETATM   24  C   UNL     1     -10.728  10.535  66.681  1.00  0.00    -0.222 A  
HETATM   25  C   UNL     1     -11.177  12.910  66.319  1.00  0.00    -0.337 A  
HETATM   26  F   UNL     1     -10.319  13.975  64.397  1.00  0.00    -0.446 F  
HETATM   27  C   UNL     1     -11.304  11.753  67.095  1.00  0.00    -0.387 A  
HETATM   28  C   UNL     1      -9.942  11.665  64.664  1.00  0.00    -0.291 A  
HETATM   29  C   UNL     1     -10.081  10.500  65.429  1.00  0.00    -0.358 A  
HETATM   30  C   UNL     1     -10.482  12.859  65.119  1.00  0.00    -0.309 A  
ENDBRANCH   8  24
ENDBRANCH   5   8
TORSDOF 6
ENDMDL
MODEL      155
REMARK 921   NORMALIZED FREE ENERGY PREDICTED BY IDOCK:   -2.05 KCAL/MOL
REMARK 922        TOTAL FREE ENERGY PREDICTED BY IDOCK:   -2.96 KCAL/MOL
REMARK 923 INTER-LIGAND FREE ENERGY PREDICTED BY IDOCK:   -5.38 KCAL/MOL
REMARK 924 INTRA-LIGAND FREE ENERGY PREDICTED BY IDOCK:    2.42 KCAL/MOL
REMARK 927      BINDING AFFINITY PREDICTED BY RF-SCORE:    0.00 PKD
ROOT
HETATM    1  F   UNL     1      -5.884  20.803  71.612  1.00  0.00    -0.228 F  
HETATM    2  C   UNL     1      -5.919  19.755  70.779  1.00  0.00    -0.230 A  
HETATM    3  C   UNL     1      -6.751  19.793  69.667  1.00  0.00    -0.351 A  
HETATM    4  C   UNL     1      -6.817  18.685  68.819  1.00  0.00    -0.298 A  
HETATM    5  C   UNL     1      -6.047  17.532  69.075  1.00  0.00    -0.204 A  
HETATM    6  C   UNL     1      -5.180  17.540  70.184  1.00  0.00    -0.219 A  
HETATM    7  C   UNL     1      -5.125  18.643  71.038  1.00  0.00    -0.279 A  
ENDROOT
BRANCH   5   8
HETATM    8  C   UNL     1      -6.150  16.316  68.141  1.00  0.00    -0.118 C  
BRANCH   8   9
HETATM    9  N   UNL     1      -5.344  15.154  68.632  1.00  0.00    -0.089 NA 
HETATM   10  C   UNL     1      -5.239  14.072  67.615  1.00  0.00     0.099 C  
HETATM   11  C   UNL     1      -5.915  14.535  69.854  1.00  0.00    -0.132 C  
HETATM   12  C   UNL     1      -6.525  13.232  67.402  1.00  0.00    -0.034 C  
HETATM   13  N   UNL     1      -7.151  12.693  68.633  1.00  0.00    -0.093 NA 
HETATM   14  C   UNL     1      -7.244  13.775  69.634  1.00  0.00     0.288 C  
BRANCH  13  15
HETATM   15  C   UNL     1      -6.433  11.542  69.207  1.00  0.00    -0.103 C  
BRANCH  15  16
HETATM   16  C   UNL     1      -7.370  10.536  69.793  1.00  0.00    -0.139 C  
HETATM   17  C   UNL     1      -7.980   9.586  69.068  1.00  0.00    -0.092 C  
BRANCH  17  18
HETATM   18  C   UNL     1      -9.035   8.789  69.682  1.00  0.00    -0.145 A  
HETATM   19  C   UNL     1      -9.236   7.483  69.220  1.00  0.00    -0.144 A  
HETATM   20  C   UNL     1     -10.301   6.726  69.705  1.00  0.00    -0.223 A  
HETATM   21  C   UNL     1     -11.162   7.274  70.654  1.00  0.00    -0.300 A  
HETATM   22  C   UNL     1     -10.955   8.571  71.126  1.00  0.00    -0.306 A  
HETATM   23  C   UNL     1      -9.891   9.331  70.641  1.00  0.00    -0.332 A  
ENDBRANCH  17  18
ENDBRANCH  15  16
ENDBRANCH  13  15
ENDBRANCH   8   9
BRANCH   8  24
HETATM   24  C   UNL     1      -7.625  15.974  67.840  1.00  0.00    -0.144 A  
HETATM   25  C   UNL     1      -9.961  15.984  68.559  1.00  0.00    -0.222 A  
HETATM   26  F   UNL     1     -11.655  15.422  67.017  1.00  0.00    -0.300 F  
HETATM   27  C   UNL     1      -8.604  16.182  68.833  1.00  0.00    -0.245 A  
HETATM   28  C   UNL     1      -9.410  15.312  66.310  1.00  0.00    -0.345 A  
HETATM   29  C   UNL     1      -8.048  15.493  66.585  1.00  0.00    -0.189 A  
HETATM   30  C   UNL     1     -10.353  15.567  67.295  1.00  0.00    -0.267 A  
ENDBRANCH   8  24
ENDBRANCH   5   8
TORSDOF 6
ENDMDL
MODEL      156
REMARK 921   NORMALIZED FREE ENERGY PREDICTED BY IDOCK:   -2.03 KCAL/MOL
REMARK 922        TOTAL FREE ENERGY PREDICTED BY IDOCK:   -2.93 KCAL/MOL
REMARK 923 INTER-LIGAND FREE ENERGY PREDICTED BY IDOCK:   -5.47 KCAL/MOL
REMARK 924 INTRA-LIGAND FREE ENERGY PREDICTED BY IDOCK:    2.53 KCAL/MOL
REMARK 927      BINDING AFFINITY PREDICTED BY RF-SCORE:    0.00 PKD
ROOT
HETATM    1  F   UNL     1     -10.288  13.900  66.480  1.00  0.00    -0.268 F  
HETATM    2  C   UNL     1      -9.711  12.788  66.954  1.00  0.00    -0.234 A  
HETATM    3  C   UNL     1      -8.671  12.893  67.868  1.00  0.00    -0.186 A  
HETATM    4  C   UNL     1      -8.044  11.735  68.334  1.00  0.00    -0.150 A  
HETATM    5  C   UNL     1      -8.457  10.462  67.891  1.00  0.00    -0.114 A  
HETATM    6  C   UNL     1      -9.543  10.385  66.999  1.00  0.00    -0.197 A  
HETATM    7  C   UNL     1     -10.160  11.544  66.524  1.00  0.00    -0.246 A  
ENDROOT
BRANCH   5   8
HETATM    8  C   UNL     1      -7.741   9.201  68.400  1.00  0.00    -0.094 C  
BRANCH   8   9
HETATM    9  N   UNL     1      -8.094   8.882  69.819  1.00  0.00    -0.104 NA 
HETATM   10  C   UNL     1      -8.427   7.443  70.006  1.00  0.00    -0.138 C  
HETATM   11  C   UNL     1      -9.262   9.655  70.307  1.00  0.00    -0.236 C  
HETATM   12  C   UNL     1      -9.805   7.001  69.448  1.00  0.00    -0.160 C  
HETATM   13  N   UNL     1     -10.961   7.832  69.859  1.00  0.00    -0.228 NA 
HETATM   14  C   UNL     1     -10.615   9.255  69.673  1.00  0.00    -0.229 C  
BRANCH  13  15
HETATM   15  C   UNL     1     -11.392   7.600  71.248  1.00  0.00    -0.264 C  
BRANCH  15  16
HETATM   16  C   UNL     1     -11.332   6.153  71.616  1.00  0.00    -0.341 C  
HETATM   17  C   UNL     1     -10.700   5.695  72.708  1.00  0.00    -0.283 C  
BRANCH  17  18
HETATM   18  C   UNL     1     -10.512   4.258  72.872  1.00  0.00    -0.246 A  
HETATM   19  C   UNL     1      -9.933   3.539  71.819  1.00  0.00    -0.202 A  
HETATM   20  C   UNL     1      -9.834   2.151  71.892  1.00  0.00    -0.221 A  
HETATM   21  C   UNL     1     -10.309   1.483  73.019  1.00  0.00    -0.193 A  
HETATM   22  C   UNL     1     -10.874   2.200  74.075  1.00  0.00    -0.250 A  
HETATM   23  C   UNL     1     -10.975   3.589  74.004  1.00  0.00    -0.218 A  
ENDBRANCH  17  18
ENDBRANCH  15  16
ENDBRANCH  13  15
ENDBRANCH   8   9
BRANCH   8  24
HETATM   24  C   UNL     1      -7.940   8.021  67.423  1.00  0.00    -0.122 A  
HETATM   25  C   UNL     1      -7.134   5.898  66.519  1.00  0.00    -0.069 A  
HETATM   26  F   UNL     1      -8.531   4.635  65.099  1.00  0.00    -0.114 F  
HETATM   27  C   UNL     1      -6.940   7.034  67.313  1.00  0.00    -0.078 A  
HETATM   28  C   UNL     1      -9.309   6.718  65.877  1.00  0.00     0.051 A  
HETATM   29  C   UNL     1      -9.112   7.865  66.656  1.00  0.00    -0.199 A  
HETATM   30  C   UNL     1      -8.324   5.743  65.822  1.00  0.00    -0.134 A  
ENDBRANCH   8  24
ENDBRANCH   5   8
TORSDOF 6
ENDMDL
MODEL      157
REMARK 921   NORMALIZED FREE ENERGY PREDICTED BY IDOCK:   -1.84 KCAL/MOL
REMARK 922        TOTAL FREE ENERGY PREDICTED BY IDOCK:   -2.68 KCAL/MOL
REMARK 923 INTER-LIGAND FREE ENERGY PREDICTED BY IDOCK:   -5.50 KCAL/MOL
REMARK 924 INTRA-LIGAND FREE ENERGY PREDICTED BY IDOCK:    2.82 KCAL/MOL
REMARK 927      BINDING AFFINITY PREDICTED BY RF-SCORE:    0.00 PKD
ROOT
HETATM    1  F   UNL     1     -12.118  14.714  68.913  1.00  0.00    -0.328 F  
HETATM    2  C   UNL     1     -11.102  13.932  68.526  1.00  0.00    -0.265 A  
HETATM    3  C   UNL     1     -11.365  12.790  67.780  1.00  0.00    -0.342 A  
HETATM    4  C   UNL     1     -10.310  11.953  67.407  1.00  0.00    -0.228 A  
HETATM    5  C   UNL     1      -8.983  12.256  67.776  1.00  0.00    -0.177 A  
HETATM    6  C   UNL     1      -8.743  13.442  68.493  1.00  0.00    -0.071 A  
HETATM    7  C   UNL     1      -9.800  14.271  68.876  1.00  0.00    -0.140 A  
ENDROOT
BRANCH   5   8
HETATM    8  C   UNL     1      -7.839  11.311  67.374  1.00  0.00    -0.128 C  
BRANCH   8   9
HETATM    9  N   UNL     1      -7.539  10.300  68.436  1.00  0.00    -0.089 NA 
HETATM   10  C   UNL     1      -7.831   8.911  67.988  1.00  0.00    -0.102 C  
HETATM   11  C   UNL     1      -8.323  10.520  69.676  1.00  0.00     0.009 C  
HETATM   12  C   UNL     1      -9.335   8.541  67.905  1.00  0.00    -0.135 C  
HETATM   13  N   UNL     1     -10.139   8.849  69.111  1.00  0.00    -0.191 NA 
HETATM   14  C   UNL     1      -9.836  10.227  69.546  1.00  0.00    -0.220 C  
BRANCH  13  15
HETATM   15  C   UNL     1      -9.918   7.913  70.226  1.00  0.00    -0.189 C  
BRANCH  15  16
HETATM   16  C   UNL     1     -10.115   6.492  69.808  1.00  0.00    -0.207 C  
HETATM   17  C   UNL     1      -9.221   5.521  70.049  1.00  0.00    -0.172 C  
BRANCH  17  18
HETATM   18  C   UNL     1      -9.399   4.217  69.420  1.00  0.00    -0.238 A  
HETATM   19  C   UNL     1      -9.585   3.101  70.245  1.00  0.00    -0.180 A  
HETATM   20  C   UNL     1      -9.651   1.824  69.690  1.00  0.00    -0.058 A  
HETATM   21  C   UNL     1      -9.536   1.664  68.310  1.00  0.00    -0.236 A  
HETATM   22  C   UNL     1      -9.363   2.777  67.485  1.00  0.00    -0.201 A  
HETATM   23  C   UNL     1      -9.296   4.056  68.039  1.00  0.00    -0.220 A  
ENDBRANCH  17  18
ENDBRANCH  15  16
ENDBRANCH  13  15
ENDBRANCH   8   9
BRANCH   8  24
HETATM   24  C   UNL     1      -8.093  10.700  65.979  1.00  0.00    -0.159 A  
HETATM   25  C   UNL     1      -7.301   9.309  64.131  1.00  0.00    -0.106 A  
HETATM   26  F   UNL     1      -8.788   8.724  62.397  1.00  0.00    -0.217 F  
HETATM   27  C   UNL     1      -7.070   9.964  65.346  1.00  0.00    -0.121 A  
HETATM   28  C   UNL     1      -9.564  10.140  64.112  1.00  0.00    -0.336 A  
HETATM   29  C   UNL     1      -9.333  10.813  65.319  1.00  0.00    -0.247 A  
HETATM   30  C   UNL     1      -8.551   9.389  63.535  1.00  0.00    -0.206 A  
ENDBRANCH   8  24
ENDBRANCH   5   8
TORSDOF 6
ENDMDL
MODEL      158
REMARK 921   NORMALIZED FREE ENERGY PREDICTED BY IDOCK:   -1.79 KCAL/MOL
REMARK 922        TOTAL FREE ENERGY PREDICTED BY IDOCK:   -2.61 KCAL/MOL
REMARK 923 INTER-LIGAND FREE ENERGY PREDICTED BY IDOCK:   -5.51 KCAL/MOL
REMARK 924 INTRA-LIGAND FREE ENERGY PREDICTED BY IDOCK:    2.90 KCAL/MOL
REMARK 927      BINDING AFFINITY PREDICTED BY RF-SCORE:    0.00 PKD
ROOT
HETATM    1  F   UNL     1     -12.619  13.594  67.069  1.00  0.00    -0.354 F  
HETATM    2  C   UNL     1     -11.391  13.078  66.927  1.00  0.00    -0.311 A  
HETATM    3  C   UNL     1     -11.245  11.774  66.472  1.00  0.00    -0.380 A  
HETATM    4  C   UNL     1      -9.967  11.223  66.359  1.00  0.00    -0.252 A  
HETATM    5  C   UNL     1      -8.823  11.975  66.699  1.00  0.00    -0.191 A  
HETATM    6  C   UNL     1      -9.000  13.308  67.114  1.00  0.00    -0.229 A  
HETATM    7  C   UNL     1     -10.279  13.853  67.238  1.00  0.00    -0.249 A  
ENDROOT
BRANCH   5   8
HETATM    8  C   UNL     1      -7.427  11.344  66.588  1.00  0.00    -0.110 C  
BRANCH   8   9
HETATM    9  N   UNL     1      -6.880  10.938  67.920  1.00  0.00    -0.067 NA 
HETATM   10  C   UNL     1      -6.558   9.486  67.978  1.00  0.00    -0.062 C  
HETATM   11  C   UNL     1      -7.823  11.208  69.034  1.00  0.00    -0.103 C  
HETATM   12  C   UNL     1      -7.782   8.536  68.066  1.00  0.00    -0.103 C  
HETATM   13  N   UNL     1      -8.774   8.863  69.118  1.00  0.00    -0.130 NA 
HETATM   14  C   UNL     1      -9.079  10.306  69.052  1.00  0.00    -0.183 C  
BRANCH  13  15
HETATM   15  C   UNL     1      -8.334   8.507  70.478  1.00  0.00    -0.135 C  
BRANCH  15  16
HETATM   16  C   UNL     1      -8.742   7.118  70.849  1.00  0.00    -0.146 C  
HETATM   17  C   UNL     1      -9.959   6.808  71.321  1.00  0.00    -0.189 C  
BRANCH  17  18
HETATM   18  C   UNL     1     -10.197   5.472  71.855  1.00  0.00    -0.251 A  
HETATM   19  C   UNL     1     -11.176   5.315  72.844  1.00  0.00    -0.375 A  
HETATM   20  C   UNL     1     -11.359   4.076  73.455  1.00  0.00    -0.280 A  
HETATM   21  C   UNL     1     -10.568   2.994  73.075  1.00  0.00    -0.240 A  
HETATM   22  C   UNL     1      -9.601   3.145  72.080  1.00  0.00    -0.209 A  
HETATM   23  C   UNL     1      -9.414   4.384  71.467  1.00  0.00    -0.215 A  
ENDBRANCH  17  18
ENDBRANCH  15  16
ENDBRANCH  13  15
ENDBRANCH   8   9
BRANCH   8  24
HETATM   24  C   UNL     1      -7.413  10.215  65.534  1.00  0.00    -0.146 A  
HETATM   25  C   UNL     1      -8.660   8.622  64.162  1.00  0.00    -0.033 A  
HETATM   26  F   UNL     1      -7.541   7.422  62.467  1.00  0.00    -0.082 F  
HETATM   27  C   UNL     1      -8.619   9.573  65.187  1.00  0.00    -0.181 A  
HETATM   28  C   UNL     1      -6.286   8.880  63.827  1.00  0.00    -0.087 A  
HETATM   29  C   UNL     1      -6.237   9.820  64.865  1.00  0.00    -0.096 A  
HETATM   30  C   UNL     1      -7.496   8.297  63.480  1.00  0.00    -0.119 A  
ENDBRANCH   8  24
ENDBRANCH   5   8
TORSDOF 6
ENDMDL
MODEL      159
REMARK 921   NORMALIZED FREE ENERGY PREDICTED BY IDOCK:   -1.78 KCAL/MOL
REMARK 922        TOTAL FREE ENERGY PREDICTED BY IDOCK:   -2.60 KCAL/MOL
REMARK 923 INTER-LIGAND FREE ENERGY PREDICTED BY IDOCK:   -5.66 KCAL/MOL
REMARK 924 INTRA-LIGAND FREE ENERGY PREDICTED BY IDOCK:    3.06 KCAL/MOL
REMARK 927      BINDING AFFINITY PREDICTED BY RF-SCORE:    0.00 PKD
ROOT
HETATM    1  F   UNL     1      -9.418   9.713  62.667  1.00  0.00    -0.290 F  
HETATM    2  C   UNL     1      -8.917   9.468  63.884  1.00  0.00    -0.179 A  
HETATM    3  C   UNL     1      -7.590   9.074  64.011  1.00  0.00    -0.118 A  
HETATM    4  C   UNL     1      -7.077   8.781  65.277  1.00  0.00    -0.083 A  
HETATM    5  C   UNL     1      -7.888   8.884  66.426  1.00  0.00    -0.103 A  
HETATM    6  C   UNL     1      -9.214   9.327  66.271  1.00  0.00    -0.236 A  
HETATM    7  C   UNL     1      -9.729   9.607  65.004  1.00  0.00    -0.234 A  
ENDROOT
BRANCH   5   8
HETATM    8  C   UNL     1      -7.310   8.537  67.807  1.00  0.00    -0.093 C  
BRANCH   8   9
HETATM    9  N   UNL     1      -6.545   9.676  68.404  1.00  0.00    -0.053 NA 
HETATM   10  C   UNL     1      -7.321  10.383  69.460  1.00  0.00    -0.144 C  
HETATM   11  C   UNL     1      -6.163  10.700  67.401  1.00  0.00    -0.057 C  
HETATM   12  C   UNL     1      -8.475  11.282  68.947  1.00  0.00    -0.058 C  
HETATM   13  N   UNL     1      -8.115  12.241  67.875  1.00  0.00    -0.144 NA 
HETATM   14  C   UNL     1      -7.343  11.527  66.839  1.00  0.00    -0.140 C  
BRANCH  13  15
HETATM   15  C   UNL     1      -7.352  13.406  68.354  1.00  0.00    -0.112 C  
BRANCH  15  16
HETATM   16  C   UNL     1      -8.155  14.664  68.286  1.00  0.00    -0.143 C  
HETATM   17  C   UNL     1      -7.629  15.859  67.979  1.00  0.00    -0.137 C  
BRANCH  17  18
HETATM   18  C   UNL     1      -8.441  17.059  68.144  1.00  0.00    -0.227 A  
HETATM   19  C   UNL     1      -9.773  17.025  67.713  1.00  0.00    -0.258 A  
HETATM   20  C   UNL     1     -10.550  18.181  67.754  1.00  0.00    -0.407 A  
HETATM   21  C   UNL     1      -9.998  19.369  68.231  1.00  0.00    -0.516 A  
HETATM   22  C   UNL     1      -8.675  19.401  68.674  1.00  0.00    -0.403 A  
HETATM   23  C   UNL     1      -7.894  18.245  68.632  1.00  0.00    -0.313 A  
ENDBRANCH  17  18
ENDBRANCH  15  16
ENDBRANCH  13  15
ENDBRANCH   8   9
BRANCH   8  24
HETATM   24  C   UNL     1      -8.403   7.961  68.734  1.00  0.00    -0.128 A  
HETATM   25  C   UNL     1      -8.990   6.800  70.803  1.00  0.00    -0.151 A  
HETATM   26  F   UNL     1     -11.249   6.680  71.469  1.00  0.00    -0.264 F  
HETATM   27  C   UNL     1      -8.029   7.243  69.888  1.00  0.00    -0.122 A  
HETATM   28  C   UNL     1     -10.734   7.728  69.422  1.00  0.00    -0.177 A  
HETATM   29  C   UNL     1      -9.778   8.159  68.494  1.00  0.00    -0.170 A  
HETATM   30  C   UNL     1     -10.332   7.062  70.570  1.00  0.00    -0.201 A  
ENDBRANCH   8  24
ENDBRANCH   5   8
TORSDOF 6
ENDMDL
MODEL      160
REMARK 921   NORMALIZED FREE ENERGY PREDICTED BY IDOCK:   -1.75 KCAL/MOL
REMARK 922        TOTAL FREE ENERGY PREDICTED BY IDOCK:   -2.56 KCAL/MOL
REMARK 923 INTER-LIGAND FREE ENERGY PREDICTED BY IDOCK:   -4.42 KCAL/MOL
REMARK 924 INTRA-LIGAND FREE ENERGY PREDICTED BY IDOCK:    1.87 KCAL/MOL
REMARK 927      BINDING AFFINITY PREDICTED BY RF-SCORE:    0.00 PKD
ROOT
HETATM    1  F   UNL     1     -10.701   7.069  72.427  1.00  0.00    -0.211 F  
HETATM    2  C   UNL     1     -10.364   7.286  71.149  1.00  0.00    -0.198 A  
HETATM    3  C   UNL     1     -11.221   8.008  70.328  1.00  0.00    -0.192 A  
HETATM    4  C   UNL     1     -10.887   8.203  68.986  1.00  0.00    -0.014 A  
HETATM    5  C   UNL     1      -9.691   7.680  68.455  1.00  0.00    -0.162 A  
HETATM    6  C   UNL     1      -8.822   6.991  69.321  1.00  0.00    -0.139 A  
HETATM    7  C   UNL     1      -9.162   6.786  70.660  1.00  0.00    -0.155 A  
ENDROOT
BRANCH   5   8
HETATM    8  C   UNL     1      -9.352   7.887  66.971  1.00  0.00    -0.160 C  
BRANCH   8   9
HETATM    9  N   UNL     1      -8.221   8.847  66.776  1.00  0.00    -0.110 NA 
HETATM   10  C   UNL     1      -7.268   8.833  67.920  1.00  0.00    -0.084 C  
HETATM   11  C   UNL     1      -8.678  10.250  66.621  1.00  0.00    -0.127 C  
HETATM   12  C   UNL     1      -7.773   9.520  69.215  1.00  0.00    -0.086 C  
HETATM   13  N   UNL     1      -8.320  10.888  69.045  1.00  0.00    -0.142 NA 
HETATM   14  C   UNL     1      -9.258  10.887  67.905  1.00  0.00    -0.152 C  
BRANCH  13  15
HETATM   15  C   UNL     1      -7.286  11.917  68.841  1.00  0.00    -0.080 C  
BRANCH  15  16
HETATM   16  C   UNL     1      -7.878  13.283  68.712  1.00  0.00     0.008 C  
HETATM   17  C   UNL     1      -7.408  14.215  67.870  1.00  0.00    -0.163 C  
BRANCH  17  18
HETATM   18  C   UNL     1      -7.910  15.580  67.965  1.00  0.00    -0.132 A  
HETATM   19  C   UNL     1      -9.290  15.773  68.106  1.00  0.00    -0.194 A  
HETATM   20  C   UNL     1      -9.820  17.062  68.092  1.00  0.00    -0.273 A  
HETATM   21  C   UNL     1      -8.971  18.157  67.942  1.00  0.00    -0.273 A  
HETATM   22  C   UNL     1      -7.594  17.967  67.816  1.00  0.00    -0.220 A  
HETATM   23  C   UNL     1      -7.061  16.678  67.827  1.00  0.00    -0.152 A  
ENDBRANCH  17  18
ENDBRANCH  15  16
ENDBRANCH  13  15
ENDBRANCH   8   9
BRANCH   8  24
HETATM   24  C   UNL     1      -9.157   6.533  66.254  1.00  0.00    -0.168 A  
HETATM   25  C   UNL     1      -7.742   5.069  64.902  1.00  0.00    -0.084 A  
HETATM   26  F   UNL     1      -8.369   2.818  64.583  1.00  0.00    -0.084 F  
HETATM   27  C   UNL     1      -8.001   6.318  65.477  1.00  0.00    -0.115 A  
HETATM   28  C   UNL     1      -9.805   4.220  65.816  1.00  0.00    -0.228 A  
HETATM   29  C   UNL     1     -10.078   5.474  66.379  1.00  0.00    -0.220 A  
HETATM   30  C   UNL     1      -8.638   4.027  65.092  1.00  0.00    -0.114 A  
ENDBRANCH   8  24
ENDBRANCH   5   8
TORSDOF 6
ENDMDL
MODEL      161
REMARK 921   NORMALIZED FREE ENERGY PREDICTED BY IDOCK:   -1.25 KCAL/MOL
REMARK 922        TOTAL FREE ENERGY PREDICTED BY IDOCK:   -1.88 KCAL/MOL
REMARK 923 INTER-LIGAND FREE ENERGY PREDICTED BY IDOCK:   -3.94 KCAL/MOL
REMARK 924 INTRA-LIGAND FREE ENERGY PREDICTED BY IDOCK:    2.07 KCAL/MOL
REMARK 927      BINDING AFFINITY PREDICTED BY RF-SCORE:    0.00 PKD
ROOT
HETATM    1  F   UNL     1      -8.613  18.404  67.714  1.00  0.00    -0.253 F  
HETATM    2  C   UNL     1      -9.005  17.150  67.454  1.00  0.00    -0.220 A  
HETATM    3  C   UNL     1      -8.068  16.125  67.462  1.00  0.00    -0.164 A  
HETATM    4  C   UNL     1      -8.469  14.823  67.154  1.00  0.00    -0.247 A  
HETATM    5  C   UNL     1      -9.814  14.537  66.839  1.00  0.00    -0.265 A  
HETATM    6  C   UNL     1     -10.748  15.588  66.882  1.00  0.00    -0.317 A  
HETATM    7  C   UNL     1     -10.343  16.891  67.178  1.00  0.00    -0.304 A  
ENDROOT
BRANCH   5   8
HETATM    8  C   UNL     1     -10.231  13.102  66.482  1.00  0.00    -0.277 C  
BRANCH   8   9
HETATM    9  N   UNL     1      -9.333  12.489  65.454  1.00  0.00     0.115 NA 
HETATM   10  C   UNL     1     -10.091  11.707  64.439  1.00  0.00    -0.279 C  
HETATM   11  C   UNL     1      -8.333  11.564  66.043  1.00  0.00     0.042 C  
HETATM   12  C   UNL     1     -10.645  10.343  64.928  1.00  0.00     0.102 C  
HETATM   13  N   UNL     1      -9.667   9.458  65.603  1.00  0.00    -0.286 NA 
HETATM   14  C   UNL     1      -8.920  10.247  66.602  1.00  0.00    -0.140 C  
BRANCH  13  15
HETATM   15  C   UNL     1      -8.726   8.802  64.679  1.00  0.00    -0.068 C  
BRANCH  15  16
HETATM   16  C   UNL     1      -8.353   7.432  65.144  1.00  0.00    -0.085 C  
HETATM   17  C   UNL     1      -8.424   7.042  66.426  1.00  0.00    -0.130 C  
BRANCH  17  18
HETATM   18  C   UNL     1      -7.841   5.764  66.815  1.00  0.00    -0.101 A  
HETATM   19  C   UNL     1      -8.704   4.720  67.172  1.00  0.00    -0.103 A  
HETATM   20  C   UNL     1      -8.187   3.519  67.653  1.00  0.00    -0.088 A  
HETATM   21  C   UNL     1      -6.808   3.359  67.773  1.00  0.00    -0.050 A  
HETATM   22  C   UNL     1      -5.945   4.393  67.404  1.00  0.00    -0.024 A  
HETATM   23  C   UNL     1      -6.461   5.597  66.924  1.00  0.00    -0.047 A  
ENDBRANCH  17  18
ENDBRANCH  15  16
ENDBRANCH  13  15
ENDBRANCH   8   9
BRANCH   8  24
HETATM   24  C   UNL     1     -10.404  12.245  67.755  1.00  0.00    -0.216 A  
HETATM   25  C   UNL     1     -11.788  10.729  69.082  1.00  0.00    -0.347 A  
HETATM   26  F   UNL     1     -10.854   9.641  70.955  1.00  0.00    -0.327 F  
HETATM   27  C   UNL     1     -11.632  11.596  67.996  1.00  0.00    -0.383 A  
HETATM   28  C   UNL     1      -9.514  11.164  69.756  1.00  0.00     0.822 A  
HETATM   29  C   UNL     1      -9.359  12.047  68.680  1.00  0.00    -0.056 A  
HETATM   30  C   UNL     1     -10.722  10.507  69.942  1.00  0.00    -0.247 A  
ENDBRANCH   8  24
ENDBRANCH   5   8
TORSDOF 6
ENDMDL
MODEL      162
REMARK 921   NORMALIZED FREE ENERGY PREDICTED BY IDOCK:   -1.21 KCAL/MOL
REMARK 922        TOTAL FREE ENERGY PREDICTED BY IDOCK:   -1.83 KCAL/MOL
REMARK 923 INTER-LIGAND FREE ENERGY PREDICTED BY IDOCK:   -2.54 KCAL/MOL
REMARK 924 INTRA-LIGAND FREE ENERGY PREDICTED BY IDOCK:    0.71 KCAL/MOL
REMARK 927      BINDING AFFINITY PREDICTED BY RF-SCORE:    0.00 PKD
ROOT
HETATM    1  F   UNL     1     -13.561  15.626  68.787  1.00  0.00     1.813 F  
HETATM    2  C   UNL     1     -12.241  15.397  68.772  1.00  0.00    -0.030 A  
HETATM    3  C   UNL     1     -11.768  14.150  68.383  1.00  0.00    -0.380 A  
HETATM    4  C   UNL     1     -10.395  13.899  68.404  1.00  0.00    -0.249 A  
HETATM    5  C   UNL     1      -9.483  14.895  68.811  1.00  0.00    -0.214 A  
HETATM    6  C   UNL     1      -9.989  16.161  69.156  1.00  0.00    -0.251 A  
HETATM    7  C   UNL     1     -11.363  16.407  69.147  1.00  0.00    -0.241 A  
ENDROOT
BRANCH   5   8
HETATM    8  C   UNL     1      -7.977  14.591  68.847  1.00  0.00    -0.126 C  
BRANCH   8   9
HETATM    9  N   UNL     1      -7.577  13.585  67.814  1.00  0.00    -0.145 NA 
HETATM   10  C   UNL     1      -8.111  12.228  68.114  1.00  0.00    -0.158 C  
HETATM   11  C   UNL     1      -6.105  13.444  67.689  1.00  0.00    -0.122 C  
HETATM   12  C   UNL     1      -7.407  11.478  69.276  1.00  0.00    -0.009 C  
HETATM   13  N   UNL     1      -5.928  11.421  69.201  1.00  0.00    -0.047 NA 
HETATM   14  C   UNL     1      -5.414  12.772  68.898  1.00  0.00    -0.067 C  
BRANCH  13  15
HETATM   15  C   UNL     1      -5.422  10.460  68.206  1.00  0.00    -0.033 C  
BRANCH  15  16
HETATM   16  C   UNL     1      -6.387  10.260  67.083  1.00  0.00    -0.067 C  
HETATM   17  C   UNL     1      -6.128   9.490  66.015  1.00  0.00    -0.063 C  
BRANCH  17  18
HETATM   18  C   UNL     1      -7.036   9.525  64.875  1.00  0.00    -0.107 A  
HETATM   19  C   UNL     1      -8.390   9.796  65.110  1.00  0.00    -0.146 A  
HETATM   20  C   UNL     1      -9.307   9.733  64.063  1.00  0.00    -0.215 A  
HETATM   21  C   UNL     1      -8.872   9.402  62.781  1.00  0.00    -0.224 A  
HETATM   22  C   UNL     1      -7.521   9.144  62.542  1.00  0.00    -0.100 A  
HETATM   23  C   UNL     1      -6.600   9.206  63.589  1.00  0.00    -0.090 A  
ENDBRANCH  17  18
ENDBRANCH  15  16
ENDBRANCH  13  15
ENDBRANCH   8   9
BRANCH   8  24
HETATM   24  C   UNL     1      -7.150  15.894  68.806  1.00  0.00    -0.138 A  
HETATM   25  C   UNL     1      -6.652  18.020  67.708  1.00  0.00    -0.189 A  
HETATM   26  F   UNL     1      -5.243  19.580  68.778  1.00  0.00    -0.184 F  
HETATM   27  C   UNL     1      -7.306  16.783  67.724  1.00  0.00    -0.165 A  
HETATM   28  C   UNL     1      -5.625  17.505  69.828  1.00  0.00    -0.227 A  
HETATM   29  C   UNL     1      -6.263  16.258  69.840  1.00  0.00    -0.161 A  
HETATM   30  C   UNL     1      -5.832  18.377  68.769  1.00  0.00    -0.203 A  
ENDBRANCH   8  24
ENDBRANCH   5   8
TORSDOF 6
ENDMDL
MODEL      163
REMARK 921   NORMALIZED FREE ENERGY PREDICTED BY IDOCK:   -1.18 KCAL/MOL
REMARK 922        TOTAL FREE ENERGY PREDICTED BY IDOCK:   -1.79 KCAL/MOL
REMARK 923 INTER-LIGAND FREE ENERGY PREDICTED BY IDOCK:   -1.41 KCAL/MOL
REMARK 924 INTRA-LIGAND FREE ENERGY PREDICTED BY IDOCK:   -0.38 KCAL/MOL
REMARK 927      BINDING AFFINITY PREDICTED BY RF-SCORE:    0.00 PKD
ROOT
HETATM    1  F   UNL     1     -10.666  19.950  64.990  1.00  0.00    -0.399 F  
HETATM    2  C   UNL     1     -10.291  18.821  65.606  1.00  0.00    -0.038 A  
HETATM    3  C   UNL     1      -8.969  18.402  65.522  1.00  0.00     1.067 A  
HETATM    4  C   UNL     1      -8.587  17.205  66.132  1.00  0.00    -0.222 A  
HETATM    5  C   UNL     1      -9.524  16.420  66.834  1.00  0.00    -0.249 A  
HETATM    6  C   UNL     1     -10.845  16.892  66.939  1.00  0.00    -0.021 A  
HETATM    7  C   UNL     1     -11.229  18.082  66.318  1.00  0.00     0.835 A  
ENDROOT
BRANCH   5   8
HETATM    8  C   UNL     1      -9.087  15.096  67.480  1.00  0.00    -0.183 C  
BRANCH   8   9
HETATM    9  N   UNL     1      -8.753  14.051  66.462  1.00  0.00    -0.027 NA 
HETATM   10  C   UNL     1      -9.815  13.912  65.429  1.00  0.00    -0.163 C  
HETATM   11  C   UNL     1      -8.563  12.706  67.061  1.00  0.00    -0.181 C  
HETATM   12  C   UNL     1     -11.110  13.198  65.899  1.00  0.00    -0.278 C  
HETATM   13  N   UNL     1     -10.914  11.898  66.583  1.00  0.00    -0.277 NA 
HETATM   14  C   UNL     1      -9.855  12.050  67.600  1.00  0.00    -0.189 C  
BRANCH  13  15
HETATM   15  C   UNL     1     -10.575  10.793  65.670  1.00  0.00    -0.129 C  
BRANCH  15  16
HETATM   16  C   UNL     1     -10.121   9.577  66.411  1.00  0.00    -0.328 C  
HETATM   17  C   UNL     1      -8.901   9.037  66.267  1.00  0.00    -0.180 C  
BRANCH  17  18
HETATM   18  C   UNL     1      -8.622   7.737  66.865  1.00  0.00    -0.130 A  
HETATM   19  C   UNL     1      -9.494   6.677  66.588  1.00  0.00    -0.201 A  
HETATM   20  C   UNL     1      -9.324   5.449  67.224  1.00  0.00    -0.118 A  
HETATM   21  C   UNL     1      -8.280   5.278  68.131  1.00  0.00    -0.098 A  
HETATM   22  C   UNL     1      -7.401   6.330  68.397  1.00  0.00    -0.086 A  
HETATM   23  C   UNL     1      -7.570   7.562  67.764  1.00  0.00    -0.106 A  
ENDBRANCH  17  18
ENDBRANCH  15  16
ENDBRANCH  13  15
ENDBRANCH   8   9
BRANCH   8  24
HETATM   24  C   UNL     1      -7.974  15.332  68.525  1.00  0.00    -0.141 A  
HETATM   25  C   UNL     1      -5.945  16.525  69.184  1.00  0.00    -0.155 A  
HETATM   26  F   UNL     1      -5.132  16.307  71.387  1.00  0.00    -0.206 F  
HETATM   27  C   UNL     1      -6.911  16.206  68.223  1.00  0.00    -0.126 A  
HETATM   28  C   UNL     1      -7.039  15.070  70.766  1.00  0.00     0.782 A  
HETATM   29  C   UNL     1      -7.998  14.734  69.802  1.00  0.00     0.159 A  
HETATM   30  C   UNL     1      -6.028  15.967  70.452  1.00  0.00    -0.023 A  
ENDBRANCH   8  24
ENDBRANCH   5   8
TORSDOF 6
ENDMDL
MODEL      164
REMARK 921   NORMALIZED FREE ENERGY PREDICTED BY IDOCK:   -1.13 KCAL/MOL
REMARK 922        TOTAL FREE ENERGY PREDICTED BY IDOCK:   -1.72 KCAL/MOL
REMARK 923 INTER-LIGAND FREE ENERGY PREDICTED BY IDOCK:   -0.90 KCAL/MOL
REMARK 924 INTRA-LIGAND FREE ENERGY PREDICTED BY IDOCK:   -0.82 KCAL/MOL
REMARK 927      BINDING AFFINITY PREDICTED BY RF-SCORE:    0.00 PKD
ROOT
HETATM    1  F   UNL     1     -10.930  18.368  64.607  1.00  0.00     0.316 F  
HETATM    2  C   UNL     1     -10.853  17.072  64.936  1.00  0.00     0.098 A  
HETATM    3  C   UNL     1     -10.014  16.678  65.971  1.00  0.00    -0.346 A  
HETATM    4  C   UNL     1      -9.905  15.322  66.290  1.00  0.00    -0.316 A  
HETATM    5  C   UNL     1     -10.639  14.351  65.578  1.00  0.00    -0.360 A  
HETATM    6  C   UNL     1     -11.514  14.785  64.565  1.00  0.00    -0.333 A  
HETATM    7  C   UNL     1     -11.612  16.139  64.238  1.00  0.00    -0.062 A  
ENDROOT
BRANCH   5   8
HETATM    8  C   UNL     1     -10.489  12.863  65.931  1.00  0.00    -0.279 C  
BRANCH   8   9
HETATM    9  N   UNL     1      -9.087  12.374  65.745  1.00  0.00     0.072 NA 
HETATM   10  C   UNL     1      -8.677  12.372  64.314  1.00  0.00     1.943 C  
HETATM   11  C   UNL     1      -8.890  10.992  66.246  1.00  0.00    -0.180 C  
HETATM   12  C   UNL     1      -9.301  11.248  63.445  1.00  0.00    -0.241 C  
HETATM   13  N   UNL     1      -9.188   9.876  63.993  1.00  0.00    -0.262 NA 
HETATM   14  C   UNL     1      -9.592   9.895  65.413  1.00  0.00    -0.285 C  
BRANCH  13  15
HETATM   15  C   UNL     1      -7.840   9.296  63.865  1.00  0.00    -0.130 C  
BRANCH  15  16
HETATM   16  C   UNL     1      -7.783   7.898  64.390  1.00  0.00    -0.123 C  
HETATM   17  C   UNL     1      -8.652   6.940  64.034  1.00  0.00     0.458 C  
BRANCH  17  18
HETATM   18  C   UNL     1      -8.649   5.672  64.755  1.00  0.00    -0.061 A  
HETATM   19  C   UNL     1      -8.592   5.702  66.153  1.00  0.00    -0.132 A  
HETATM   20  C   UNL     1      -8.479   4.514  66.874  1.00  0.00    -0.105 A  
HETATM   21  C   UNL     1      -8.429   3.297  66.197  1.00  0.00    -0.111 A  
HETATM   22  C   UNL     1      -8.501   3.265  64.803  1.00  0.00    -0.098 A  
HETATM   23  C   UNL     1      -8.612   4.452  64.079  1.00  0.00    -0.121 A  
ENDBRANCH  17  18
ENDBRANCH  15  16
ENDBRANCH  13  15
ENDBRANCH   8   9
BRANCH   8  24
HETATM   24  C   UNL     1     -11.077  12.565  67.327  1.00  0.00    -0.319 A  
HETATM   25  C   UNL     1     -12.593  11.245  68.718  1.00  0.00     0.740 A  
HETATM   26  F   UNL     1     -12.479  11.437  71.067  1.00  0.00    -0.423 F  
HETATM   27  C   UNL     1     -12.111  11.616  67.458  1.00  0.00     0.191 A  
HETATM   28  C   UNL     1     -11.065  12.793  69.758  1.00  0.00     0.130 A  
HETATM   29  C   UNL     1     -10.591  13.181  68.498  1.00  0.00    -0.274 A  
HETATM   30  C   UNL     1     -12.053  11.825  69.857  1.00  0.00    -0.287 A  
ENDBRANCH   8  24
ENDBRANCH   5   8
TORSDOF 6
ENDMDL
MODEL      165
REMARK 921   NORMALIZED FREE ENERGY PREDICTED BY IDOCK:   -0.93 KCAL/MOL
REMARK 922        TOTAL FREE ENERGY PREDICTED BY IDOCK:   -1.45 KCAL/MOL
REMARK 923 INTER-LIGAND FREE ENERGY PREDICTED BY IDOCK:   -4.63 KCAL/MOL
REMARK 924 INTRA-LIGAND FREE ENERGY PREDICTED BY IDOCK:    3.18 KCAL/MOL
REMARK 927      BINDING AFFINITY PREDICTED BY RF-SCORE:    0.00 PKD
ROOT
HETATM    1  F   UNL     1     -12.861  15.607  68.196  1.00  0.00     0.634 F  
HETATM    2  C   UNL     1     -11.562  15.924  68.284  1.00  0.00    -0.272 A  
HETATM    3  C   UNL     1     -10.939  15.911  69.525  1.00  0.00    -0.311 A  
HETATM    4  C   UNL     1      -9.595  16.278  69.624  1.00  0.00     0.007 A  
HETATM    5  C   UNL     1      -8.863  16.657  68.480  1.00  0.00    -0.235 A  
HETATM    6  C   UNL     1      -9.510  16.617  67.231  1.00  0.00    -0.234 A  
HETATM    7  C   UNL     1     -10.857  16.262  67.135  1.00  0.00    -0.190 A  
ENDROOT
BRANCH   5   8
HETATM    8  C   UNL     1      -7.391  17.077  68.612  1.00  0.00    -0.229 C  
BRANCH   8   9
HETATM    9  N   UNL     1      -6.456  15.915  68.488  1.00  0.00    -0.109 NA 
HETATM   10  C   UNL     1      -6.654  15.167  67.217  1.00  0.00     0.066 C  
HETATM   11  C   UNL     1      -6.613  14.932  69.588  1.00  0.00    -0.162 C  
HETATM   12  C   UNL     1      -7.931  14.289  67.154  1.00  0.00    -0.101 C  
HETATM   13  N   UNL     1      -8.137  13.374  68.301  1.00  0.00    -0.147 NA 
HETATM   14  C   UNL     1      -7.933  14.127  69.554  1.00  0.00     0.408 C  
BRANCH  13  15
HETATM   15  C   UNL     1      -7.260  12.191  68.281  1.00  0.00    -0.095 C  
BRANCH  15  16
HETATM   16  C   UNL     1      -7.911  11.004  68.915  1.00  0.00    -0.138 C  
HETATM   17  C   UNL     1      -8.838  10.254  68.300  1.00  0.00    -0.126 C  
BRANCH  17  18
HETATM   18  C   UNL     1      -9.568   9.252  69.068  1.00  0.00    -0.159 A  
HETATM   19  C   UNL     1      -9.562   9.351  70.465  1.00  0.00    -0.330 A  
HETATM   20  C   UNL     1     -10.156   8.355  71.238  1.00  0.00    -0.260 A  
HETATM   21  C   UNL     1     -10.760   7.264  70.615  1.00  0.00    -0.252 A  
HETATM   22  C   UNL     1     -10.778   7.171  69.222  1.00  0.00    -0.231 A  
HETATM   23  C   UNL     1     -10.183   8.166  68.446  1.00  0.00    -0.240 A  
ENDBRANCH  17  18
ENDBRANCH  15  16
ENDBRANCH  13  15
ENDBRANCH   8   9
BRANCH   8  24
HETATM   24  C   UNL     1      -7.064  18.250  67.662  1.00  0.00    -0.202 A  
HETATM   25  C   UNL     1      -6.556  19.029  65.402  1.00  0.00    -0.292 A  
HETATM   26  F   UNL     1      -6.519  21.344  64.951  1.00  0.00    -0.214 F  
HETATM   27  C   UNL     1      -6.752  17.986  66.313  1.00  0.00    -0.282 A  
HETATM   28  C   UNL     1      -6.923  20.636  67.162  1.00  0.00    -0.377 A  
HETATM   29  C   UNL     1      -7.104  19.595  68.082  1.00  0.00    -0.327 A  
HETATM   30  C   UNL     1      -6.660  20.344  65.831  1.00  0.00    -0.235 A  
ENDBRANCH   8  24
ENDBRANCH   5   8
TORSDOF 6
ENDMDL
MODEL      166
REMARK 921   NORMALIZED FREE ENERGY PREDICTED BY IDOCK:   -0.65 KCAL/MOL
REMARK 922        TOTAL FREE ENERGY PREDICTED BY IDOCK:   -1.07 KCAL/MOL
REMARK 923 INTER-LIGAND FREE ENERGY PREDICTED BY IDOCK:   -3.69 KCAL/MOL
REMARK 924 INTRA-LIGAND FREE ENERGY PREDICTED BY IDOCK:    2.63 KCAL/MOL
REMARK 927      BINDING AFFINITY PREDICTED BY RF-SCORE:    0.00 PKD
ROOT
HETATM    1  F   UNL     1      -8.351   6.342  65.787  1.00  0.00    -0.119 F  
HETATM    2  C   UNL     1      -8.780   7.410  66.473  1.00  0.00    -0.140 A  
HETATM    3  C   UNL     1     -10.127   7.521  66.793  1.00  0.00    -0.313 A  
HETATM    4  C   UNL     1     -10.581   8.651  67.476  1.00  0.00    -0.292 A  
HETATM    5  C   UNL     1      -9.689   9.678  67.848  1.00  0.00    -0.169 A  
HETATM    6  C   UNL     1      -8.324   9.516  67.550  1.00  0.00    -0.125 A  
HETATM    7  C   UNL     1      -7.873   8.391  66.856  1.00  0.00    -0.095 A  
ENDROOT
BRANCH   5   8
HETATM    8  C   UNL     1     -10.212  10.923  68.581  1.00  0.00    -0.189 C  
BRANCH   8   9
HETATM    9  N   UNL     1      -9.964  10.860  70.055  1.00  0.00     0.429 NA 
HETATM   10  C   UNL     1      -9.271   9.605  70.455  1.00  0.00    -0.152 C  
HETATM   11  C   UNL     1     -11.214  10.928  70.851  1.00  0.00     0.496 C  
HETATM   12  C   UNL     1     -10.149   8.326  70.437  1.00  0.00    -0.190 C  
HETATM   13  N   UNL     1     -11.443   8.425  71.152  1.00  0.00    -0.269 NA 
HETATM   14  C   UNL     1     -12.116   9.676  70.749  1.00  0.00    -0.248 C  
BRANCH  13  15
HETATM   15  C   UNL     1     -11.314   8.377  72.618  1.00  0.00    -0.276 C  
BRANCH  15  16
HETATM   16  C   UNL     1     -10.019   7.765  73.044  1.00  0.00    -0.356 C  
HETATM   17  C   UNL     1      -9.198   7.117  72.204  1.00  0.00    -0.144 C  
BRANCH  17  18
HETATM   18  C   UNL     1      -8.067   6.372  72.746  1.00  0.00    -0.107 A  
HETATM   19  C   UNL     1      -7.047   5.982  71.870  1.00  0.00    -0.086 A  
HETATM   20  C   UNL     1      -6.004   5.178  72.326  1.00  0.00    -0.025 A  
HETATM   21  C   UNL     1      -5.979   4.768  73.658  1.00  0.00    -0.025 A  
HETATM   22  C   UNL     1      -6.988   5.167  74.536  1.00  0.00    -0.078 A  
HETATM   23  C   UNL     1      -8.034   5.971  74.081  1.00  0.00    -0.103 A  
ENDBRANCH  17  18
ENDBRANCH  15  16
ENDBRANCH  13  15
ENDBRANCH   8   9
BRANCH   8  24
HETATM   24  C   UNL     1      -9.694  12.216  67.912  1.00  0.00    -0.200 A  
HETATM   25  C   UNL     1      -9.365  13.528  65.876  1.00  0.00     0.055 A  
HETATM   26  F   UNL     1      -8.658  15.772  66.042  1.00  0.00    -0.333 F  
HETATM   27  C   UNL     1      -9.726  12.333  66.508  1.00  0.00    -0.242 A  
HETATM   28  C   UNL     1      -8.877  14.514  68.022  1.00  0.00    -0.175 A  
HETATM   29  C   UNL     1      -9.221  13.314  68.658  1.00  0.00     0.017 A  
HETATM   30  C   UNL     1      -8.960  14.613  66.641  1.00  0.00    -0.238 A  
ENDBRANCH   8  24
ENDBRANCH   5   8
TORSDOF 6
ENDMDL
MODEL      167
REMARK 921   NORMALIZED FREE ENERGY PREDICTED BY IDOCK:   -0.61 KCAL/MOL
REMARK 922        TOTAL FREE ENERGY PREDICTED BY IDOCK:   -1.01 KCAL/MOL
REMARK 923 INTER-LIGAND FREE ENERGY PREDICTED BY IDOCK:   -5.34 KCAL/MOL
REMARK 924 INTRA-LIGAND FREE ENERGY PREDICTED BY IDOCK:    4.32 KCAL/MOL
REMARK 927      BINDING AFFINITY PREDICTED BY RF-SCORE:    0.00 PKD
ROOT
HETATM    1  F   UNL     1     -10.531   5.786  65.754  1.00  0.00    -0.030 F  
HETATM    2  C   UNL     1     -10.661   6.208  67.019  1.00  0.00    -0.350 A  
HETATM    3  C   UNL     1     -10.671   7.571  67.287  1.00  0.00    -0.365 A  
HETATM    4  C   UNL     1     -10.770   8.012  68.608  1.00  0.00    -0.066 A  
HETATM    5  C   UNL     1     -10.862   7.092  69.672  1.00  0.00    -0.275 A  
HETATM    6  C   UNL     1     -10.894   5.719  69.366  1.00  0.00    -0.393 A  
HETATM    7  C   UNL     1     -10.783   5.279  68.046  1.00  0.00     0.012 A  
ENDROOT
BRANCH   5   8
HETATM    8  C   UNL     1     -10.948   7.597  71.121  1.00  0.00    -0.246 C  
BRANCH   8   9
HETATM    9  N   UNL     1      -9.654   7.439  71.855  1.00  0.00    -0.151 NA 
HETATM   10  C   UNL     1      -8.910   8.723  71.968  1.00  0.00    -0.121 C  
HETATM   11  C   UNL     1      -8.737   6.474  71.199  1.00  0.00    -0.138 C  
HETATM   12  C   UNL     1      -8.236   9.219  70.662  1.00  0.00    -0.190 C  
HETATM   13  N   UNL     1      -7.396   8.224  69.955  1.00  0.00    -0.062 NA 
HETATM   14  C   UNL     1      -8.143   6.955  69.855  1.00  0.00    -0.125 C  
BRANCH  13  15
HETATM   15  C   UNL     1      -6.092   7.986  70.598  1.00  0.00    -0.033 C  
BRANCH  15  16
HETATM   16  C   UNL     1      -5.794   6.528  70.730  1.00  0.00    -0.027 C  
HETATM   17  C   UNL     1      -5.490   5.740  69.687  1.00  0.00    -0.005 C  
BRANCH  17  18
HETATM   18  C   UNL     1      -5.424   4.296  69.881  1.00  0.00    -0.012 A  
HETATM   19  C   UNL     1      -5.392   3.474  68.748  1.00  0.00    -0.012 A  
HETATM   20  C   UNL     1      -5.437   2.088  68.889  1.00  0.00    -0.013 A  
HETATM   21  C   UNL     1      -5.510   1.525  70.161  1.00  0.00    -0.012 A  
HETATM   22  C   UNL     1      -5.529   2.343  71.292  1.00  0.00    -0.008 A  
HETATM   23  C   UNL     1      -5.485   3.730  71.154  1.00  0.00    -0.008 A  
ENDBRANCH  17  18
ENDBRANCH  15  16
ENDBRANCH  13  15
ENDBRANCH   8   9
BRANCH   8  24
HETATM   24  C   UNL     1     -11.528   9.028  71.173  1.00  0.00    -0.376 A  
HETATM   25  C   UNL     1     -11.686  11.256  70.181  1.00  0.00    -0.429 A  
HETATM   26  F   UNL     1     -13.281  12.786  71.006  1.00  0.00    -0.269 F  
HETATM   27  C   UNL     1     -11.104   9.985  70.229  1.00  0.00    -0.381 A  
HETATM   28  C   UNL     1     -13.098  10.680  72.049  1.00  0.00    -0.501 A  
HETATM   29  C   UNL     1     -12.506   9.412  72.112  1.00  0.00    -0.396 A  
HETATM   30  C   UNL     1     -12.689  11.586  71.081  1.00  0.00    -0.356 A  
ENDBRANCH   8  24
ENDBRANCH   5   8
TORSDOF 6
ENDMDL
MODEL      168
REMARK 921   NORMALIZED FREE ENERGY PREDICTED BY IDOCK:   -0.51 KCAL/MOL
REMARK 922        TOTAL FREE ENERGY PREDICTED BY IDOCK:   -0.88 KCAL/MOL
REMARK 923 INTER-LIGAND FREE ENERGY PREDICTED BY IDOCK:   -1.36 KCAL/MOL
REMARK 924 INTRA-LIGAND FREE ENERGY PREDICTED BY IDOCK:    0.48 KCAL/MOL
REMARK 927      BINDING AFFINITY PREDICTED BY RF-SCORE:    0.00 PKD
ROOT
HETATM    1  F   UNL     1     -13.416  12.564  66.691  1.00  0.00     2.484 F  
HETATM    2  C   UNL     1     -12.187  12.194  67.076  1.00  0.00     0.406 A  
HETATM    3  C   UNL     1     -11.505  12.958  68.015  1.00  0.00    -0.361 A  
HETATM    4  C   UNL     1     -10.210  12.593  68.389  1.00  0.00    -0.233 A  
HETATM    5  C   UNL     1      -9.588  11.458  67.828  1.00  0.00    -0.177 A  
HETATM    6  C   UNL     1     -10.321  10.679  66.914  1.00  0.00    -0.288 A  
HETATM    7  C   UNL     1     -11.611  11.052  66.531  1.00  0.00     0.446 A  
ENDROOT
BRANCH   5   8
HETATM    8  C   UNL     1      -8.155  11.086  68.238  1.00  0.00    -0.128 C  
BRANCH   8   9
HETATM    9  N   UNL     1      -7.542  12.105  69.146  1.00  0.00     0.086 NA 
HETATM   10  C   UNL     1      -7.959  13.491  68.800  1.00  0.00    -0.002 C  
HETATM   11  C   UNL     1      -6.058  12.086  69.112  1.00  0.00    -0.080 C  
HETATM   12  C   UNL     1      -7.311  14.080  67.520  1.00  0.00    -0.170 C  
HETATM   13  N   UNL     1      -5.834  13.976  67.442  1.00  0.00    -0.322 NA 
HETATM   14  C   UNL     1      -5.435  12.598  67.792  1.00  0.00    -0.116 C  
BRANCH  13  15
HETATM   15  C   UNL     1      -5.126  14.936  68.305  1.00  0.00    -0.115 C  
BRANCH  15  16
HETATM   16  C   UNL     1      -5.685  16.316  68.179  1.00  0.00    -0.110 C  
HETATM   17  C   UNL     1      -5.393  17.141  67.162  1.00  0.00    -0.181 C  
BRANCH  17  18
HETATM   18  C   UNL     1      -5.813  18.536  67.232  1.00  0.00    -0.150 A  
HETATM   19  C   UNL     1      -6.389  19.115  66.095  1.00  0.00    -0.210 A  
HETATM   20  C   UNL     1      -6.705  20.472  66.086  1.00  0.00    -0.272 A  
HETATM   21  C   UNL     1      -6.450  21.249  67.215  1.00  0.00    -0.414 A  
HETATM   22  C   UNL     1      -5.889  20.670  68.355  1.00  0.00    -0.355 A  
HETATM   23  C   UNL     1      -5.570  19.312  68.366  1.00  0.00    -0.213 A  
ENDBRANCH  17  18
ENDBRANCH  15  16
ENDBRANCH  13  15
ENDBRANCH   8   9
BRANCH   8  24
HETATM   24  C   UNL     1      -8.094   9.642  68.783  1.00  0.00    -0.097 A  
HETATM   25  C   UNL     1      -8.419   8.096  70.648  1.00  0.00    -0.128 A  
HETATM   26  F   UNL     1      -8.302   5.772  70.265  1.00  0.00    -0.107 F  
HETATM   27  C   UNL     1      -8.361   9.401  70.145  1.00  0.00    -0.197 A  
HETATM   28  C   UNL     1      -7.893   7.230  68.460  1.00  0.00    -0.122 A  
HETATM   29  C   UNL     1      -7.817   8.534  67.956  1.00  0.00    -0.103 A  
HETATM   30  C   UNL     1      -8.201   7.023  69.797  1.00  0.00    -0.131 A  
ENDBRANCH   8  24
ENDBRANCH   5   8
TORSDOF 6
ENDMDL
MODEL      169
REMARK 921   NORMALIZED FREE ENERGY PREDICTED BY IDOCK:   -0.48 KCAL/MOL
REMARK 922        TOTAL FREE ENERGY PREDICTED BY IDOCK:   -0.84 KCAL/MOL
REMARK 923 INTER-LIGAND FREE ENERGY PREDICTED BY IDOCK:   -2.40 KCAL/MOL
REMARK 924 INTRA-LIGAND FREE ENERGY PREDICTED BY IDOCK:    1.56 KCAL/MOL
REMARK 927      BINDING AFFINITY PREDICTED BY RF-SCORE:    0.00 PKD
ROOT
HETATM    1  F   UNL     1     -12.364   1.970  74.122  1.00  0.00     0.038 F  
HETATM    2  C   UNL     1     -11.530   2.774  73.449  1.00  0.00    -0.075 A  
HETATM    3  C   UNL     1     -10.624   2.222  72.553  1.00  0.00    -0.135 A  
HETATM    4  C   UNL     1      -9.728   3.055  71.879  1.00  0.00    -0.234 A  
HETATM    5  C   UNL     1      -9.735   4.448  72.095  1.00  0.00    -0.220 A  
HETATM    6  C   UNL     1     -10.693   4.983  72.975  1.00  0.00    -0.307 A  
HETATM    7  C   UNL     1     -11.580   4.147  73.658  1.00  0.00    -0.104 A  
ENDROOT
BRANCH   5   8
HETATM    8  C   UNL     1      -8.727   5.345  71.359  1.00  0.00    -0.131 C  
BRANCH   8   9
HETATM    9  N   UNL     1      -8.090   4.649  70.198  1.00  0.00    -0.067 NA 
HETATM   10  C   UNL     1      -6.635   4.416  70.410  1.00  0.00    -0.032 C  
HETATM   11  C   UNL     1      -8.218   5.412  68.931  1.00  0.00    -0.100 C  
HETATM   12  C   UNL     1      -5.736   5.673  70.291  1.00  0.00    -0.023 C  
HETATM   13  N   UNL     1      -5.931   6.489  69.069  1.00  0.00    -0.021 NA 
HETATM   14  C   UNL     1      -7.377   6.708  68.869  1.00  0.00    -0.094 C  
BRANCH  13  15
HETATM   15  C   UNL     1      -5.344   5.892  67.858  1.00  0.00    -0.004 C  
BRANCH  15  16
HETATM   16  C   UNL     1      -6.214   6.091  66.660  1.00  0.00    -0.030 C  
HETATM   17  C   UNL     1      -7.045   5.149  66.187  1.00  0.00    -0.072 C  
BRANCH  17  18
HETATM   18  C   UNL     1      -7.693   5.354  64.897  1.00  0.00    -0.088 A  
HETATM   19  C   UNL     1      -8.062   6.656  64.537  1.00  0.00    -0.073 A  
HETATM   20  C   UNL     1      -8.778   6.880  63.363  1.00  0.00     0.685 A  
HETATM   21  C   UNL     1      -9.122   5.803  62.547  1.00  0.00     0.367 A  
HETATM   22  C   UNL     1      -8.743   4.506  62.897  1.00  0.00    -0.118 A  
HETATM   23  C   UNL     1      -8.027   4.279  64.073  1.00  0.00    -0.090 A  
ENDBRANCH  17  18
ENDBRANCH  15  16
ENDBRANCH  13  15
ENDBRANCH   8   9
BRANCH   8  24
HETATM   24  C   UNL     1      -9.358   6.709  71.004  1.00  0.00    -0.161 A  
HETATM   25  C   UNL     1     -11.080   7.967  69.810  1.00  0.00    -0.067 A  
HETATM   26  F   UNL     1     -11.353  10.269  70.249  1.00  0.00    -0.275 F  
HETATM   27  C   UNL     1     -10.416   6.765  70.074  1.00  0.00    -0.241 A  
HETATM   28  C   UNL     1      -9.623   9.111  71.353  1.00  0.00    -0.316 A  
HETATM   29  C   UNL     1      -8.943   7.913  71.608  1.00  0.00    -0.173 A  
HETATM   30  C   UNL     1     -10.689   9.126  70.465  1.00  0.00    -0.238 A  
ENDBRANCH   8  24
ENDBRANCH   5   8
TORSDOF 6
ENDMDL
MODEL      170
REMARK 921   NORMALIZED FREE ENERGY PREDICTED BY IDOCK:   -0.45 KCAL/MOL
REMARK 922        TOTAL FREE ENERGY PREDICTED BY IDOCK:   -0.81 KCAL/MOL
REMARK 923 INTER-LIGAND FREE ENERGY PREDICTED BY IDOCK:   -4.57 KCAL/MOL
REMARK 924 INTRA-LIGAND FREE ENERGY PREDICTED BY IDOCK:    3.76 KCAL/MOL
REMARK 927      BINDING AFFINITY PREDICTED BY RF-SCORE:    0.00 PKD
ROOT
HETATM    1  F   UNL     1     -11.167   7.464  73.340  1.00  0.00    -0.376 F  
HETATM    2  C   UNL     1     -10.204   7.717  72.444  1.00  0.00    -0.247 A  
HETATM    3  C   UNL     1     -10.208   8.925  71.758  1.00  0.00    -0.414 A  
HETATM    4  C   UNL     1      -9.227   9.174  70.796  1.00  0.00    -0.321 A  
HETATM    5  C   UNL     1      -8.230   8.217  70.516  1.00  0.00    -0.117 A  
HETATM    6  C   UNL     1      -8.226   7.021  71.258  1.00  0.00    -0.113 A  
HETATM    7  C   UNL     1      -9.215   6.768  72.210  1.00  0.00    -0.138 A  
ENDROOT
BRANCH   5   8
HETATM    8  C   UNL     1      -7.171   8.501  69.439  1.00  0.00    -0.062 C  
BRANCH   8   9
HETATM    9  N   UNL     1      -7.669   8.202  68.061  1.00  0.00    -0.111 NA 
HETATM   10  C   UNL     1      -8.885   8.989  67.718  1.00  0.00    -0.124 C  
HETATM   11  C   UNL     1      -8.023   6.772  67.876  1.00  0.00    -0.114 C  
HETATM   12  C   UNL     1     -10.194   8.527  68.411  1.00  0.00    -0.203 C  
HETATM   13  N   UNL     1     -10.498   7.080  68.308  1.00  0.00    -0.194 NA 
HETATM   14  C   UNL     1      -9.283   6.312  68.645  1.00  0.00    -0.124 C  
BRANCH  13  15
HETATM   15  C   UNL     1     -10.995   6.672  66.983  1.00  0.00    -0.393 C  
BRANCH  15  16
HETATM   16  C   UNL     1     -10.032   5.771  66.280  1.00  0.00    -0.129 C  
HETATM   17  C   UNL     1     -10.399   4.643  65.653  1.00  0.00    -0.266 C  
BRANCH  17  18
HETATM   18  C   UNL     1      -9.371   3.723  65.182  1.00  0.00    -0.157 A  
HETATM   19  C   UNL     1      -8.140   3.703  65.848  1.00  0.00    -0.093 A  
HETATM   20  C   UNL     1      -7.096   2.917  65.364  1.00  0.00    -0.058 A  
HETATM   21  C   UNL     1      -7.284   2.149  64.216  1.00  0.00    -0.056 A  
HETATM   22  C   UNL     1      -8.515   2.157  63.559  1.00  0.00    -0.084 A  
HETATM   23  C   UNL     1      -9.562   2.944  64.041  1.00  0.00    -0.140 A  
ENDBRANCH  17  18
ENDBRANCH  15  16
ENDBRANCH  13  15
ENDBRANCH   8   9
BRANCH   8  24
HETATM   24  C   UNL     1      -6.588   9.922  69.601  1.00  0.00    -0.056 A  
HETATM   25  C   UNL     1      -6.255  12.162  68.680  1.00  0.00    -0.059 A  
HETATM   26  F   UNL     1      -5.373  13.864  70.054  1.00  0.00    -0.088 F  
HETATM   27  C   UNL     1      -6.677  10.836  68.531  1.00  0.00    -0.057 A  
HETATM   28  C   UNL     1      -5.594  11.697  70.951  1.00  0.00    -0.069 A  
HETATM   29  C   UNL     1      -5.998  10.364  70.802  1.00  0.00    -0.080 A  
HETATM   30  C   UNL     1      -5.734  12.584  69.894  1.00  0.00    -0.124 A  
ENDBRANCH   8  24
ENDBRANCH   5   8
TORSDOF 6
ENDMDL
MODEL      171
REMARK 921   NORMALIZED FREE ENERGY PREDICTED BY IDOCK:   -0.40 KCAL/MOL
REMARK 922        TOTAL FREE ENERGY PREDICTED BY IDOCK:   -0.73 KCAL/MOL
REMARK 923 INTER-LIGAND FREE ENERGY PREDICTED BY IDOCK:   -4.37 KCAL/MOL
REMARK 924 INTRA-LIGAND FREE ENERGY PREDICTED BY IDOCK:    3.64 KCAL/MOL
REMARK 927      BINDING AFFINITY PREDICTED BY RF-SCORE:    0.00 PKD
ROOT
HETATM    1  F   UNL     1     -10.236   5.575  65.723  1.00  0.00    -0.133 F  
HETATM    2  C   UNL     1     -10.285   6.661  66.505  1.00  0.00    -0.059 A  
HETATM    3  C   UNL     1      -9.751   7.859  66.046  1.00  0.00     0.031 A  
HETATM    4  C   UNL     1      -9.768   8.983  66.875  1.00  0.00    -0.260 A  
HETATM    5  C   UNL     1     -10.323   8.918  68.169  1.00  0.00    -0.261 A  
HETATM    6  C   UNL     1     -10.896   7.703  68.590  1.00  0.00    -0.013 A  
HETATM    7  C   UNL     1     -10.867   6.577  67.765  1.00  0.00    -0.395 A  
ENDROOT
BRANCH   5   8
HETATM    8  C   UNL     1     -10.313  10.160  69.074  1.00  0.00    -0.212 C  
BRANCH   8   9
HETATM    9  N   UNL     1      -9.089  10.227  69.932  1.00  0.00    -0.072 NA 
HETATM   10  C   UNL     1      -7.869  10.557  69.146  1.00  0.00    -0.138 C  
HETATM   11  C   UNL     1      -8.811   8.950  70.635  1.00  0.00    -0.198 C  
HETATM   12  C   UNL     1      -7.319   9.409  68.260  1.00  0.00    -0.078 C  
HETATM   13  N   UNL     1      -7.130   8.106  68.940  1.00  0.00    -0.065 NA 
HETATM   14  C   UNL     1      -8.346   7.795  69.718  1.00  0.00    -0.131 C  
BRANCH  13  15
HETATM   15  C   UNL     1      -5.949   8.062  69.818  1.00  0.00    -0.023 C  
BRANCH  15  16
HETATM   16  C   UNL     1      -6.199   7.249  71.047  1.00  0.00    -0.036 C  
HETATM   17  C   UNL     1      -5.840   5.962  71.167  1.00  0.00    -0.025 C  
BRANCH  17  18
HETATM   18  C   UNL     1      -6.312   5.194  72.313  1.00  0.00    -0.032 A  
HETATM   19  C   UNL     1      -6.117   3.807  72.310  1.00  0.00    -0.009 A  
HETATM   20  C   UNL     1      -6.647   3.025  73.333  1.00  0.00    -0.025 A  
HETATM   21  C   UNL     1      -7.368   3.628  74.362  1.00  0.00    -0.054 A  
HETATM   22  C   UNL     1      -7.551   5.012  74.374  1.00  0.00    -0.089 A  
HETATM   23  C   UNL     1      -7.023   5.798  73.349  1.00  0.00    -0.085 A  
ENDBRANCH  17  18
ENDBRANCH  15  16
ENDBRANCH  13  15
ENDBRANCH   8   9
BRANCH   8  24
HETATM   24  C   UNL     1     -10.576  11.442  68.253  1.00  0.00    -0.224 A  
HETATM   25  C   UNL     1      -9.837  13.666  67.559  1.00  0.00    -0.227 A  
HETATM   26  F   UNL     1     -10.991  14.788  65.834  1.00  0.00    -0.306 F  
HETATM   27  C   UNL     1      -9.690  12.533  68.365  1.00  0.00    -0.189 A  
HETATM   28  C   UNL     1     -11.789  12.685  66.537  1.00  0.00    -0.463 A  
HETATM   29  C   UNL     1     -11.656  11.556  67.355  1.00  0.00    -0.307 A  
HETATM   30  C   UNL     1     -10.876  13.724  66.640  1.00  0.00    -0.288 A  
ENDBRANCH   8  24
ENDBRANCH   5   8
TORSDOF 6
ENDMDL
MODEL      172
REMARK 921   NORMALIZED FREE ENERGY PREDICTED BY IDOCK:   -0.34 KCAL/MOL
REMARK 922        TOTAL FREE ENERGY PREDICTED BY IDOCK:   -0.65 KCAL/MOL
REMARK 923 INTER-LIGAND FREE ENERGY PREDICTED BY IDOCK:   -1.77 KCAL/MOL
REMARK 924 INTRA-LIGAND FREE ENERGY PREDICTED BY IDOCK:    1.12 KCAL/MOL
REMARK 927      BINDING AFFINITY PREDICTED BY RF-SCORE:    0.00 PKD
ROOT
HETATM    1  F   UNL     1     -12.281  18.782  66.134  1.00  0.00     2.646 F  
HETATM    2  C   UNL     1     -11.129  18.389  66.692  1.00  0.00     0.385 A  
HETATM    3  C   UNL     1     -10.499  17.242  66.225  1.00  0.00    -0.268 A  
HETATM    4  C   UNL     1      -9.317  16.810  66.831  1.00  0.00    -0.250 A  
HETATM    5  C   UNL     1      -8.754  17.526  67.908  1.00  0.00    -0.247 A  
HETATM    6  C   UNL     1      -9.390  18.708  68.329  1.00  0.00    -0.359 A  
HETATM    7  C   UNL     1     -10.579  19.131  67.730  1.00  0.00    -0.498 A  
ENDROOT
BRANCH   5   8
HETATM    8  C   UNL     1      -7.464  17.023  68.575  1.00  0.00    -0.221 C  
BRANCH   8   9
HETATM    9  N   UNL     1      -6.592  16.265  67.624  1.00  0.00    -0.134 NA 
HETATM   10  C   UNL     1      -7.312  15.132  66.981  1.00  0.00     0.020 C  
HETATM   11  C   UNL     1      -5.392  15.689  68.279  1.00  0.00    -0.108 C  
HETATM   12  C   UNL     1      -7.571  13.905  67.894  1.00  0.00    -0.156 C  
HETATM   13  N   UNL     1      -6.389  13.388  68.624  1.00  0.00    -0.084 NA 
HETATM   14  C   UNL     1      -5.683  14.522  69.252  1.00  0.00    -0.092 C  
BRANCH  13  15
HETATM   15  C   UNL     1      -5.457  12.625  67.777  1.00  0.00    -0.116 C  
BRANCH  15  16
HETATM   16  C   UNL     1      -6.164  11.596  66.957  1.00  0.00    -0.144 C  
HETATM   17  C   UNL     1      -5.726  11.178  65.760  1.00  0.00    -0.005 C  
BRANCH  17  18
HETATM   18  C   UNL     1      -6.587  10.334  64.941  1.00  0.00    -0.105 A  
HETATM   19  C   UNL     1      -6.102   9.887  63.706  1.00  0.00    -0.123 A  
HETATM   20  C   UNL     1      -6.931   9.169  62.847  1.00  0.00    -0.091 A  
HETATM   21  C   UNL     1      -8.244   8.893  63.224  1.00  0.00    -0.182 A  
HETATM   22  C   UNL     1      -8.726   9.325  64.461  1.00  0.00    -0.218 A  
HETATM   23  C   UNL     1      -7.898  10.046  65.322  1.00  0.00    -0.138 A  
ENDBRANCH  17  18
ENDBRANCH  15  16
ENDBRANCH  13  15
ENDBRANCH   8   9
BRANCH   8  24
HETATM   24  C   UNL     1      -6.740  18.170  69.312  1.00  0.00    -0.217 A  
HETATM   25  C   UNL     1      -6.345  20.569  69.568  1.00  0.00    -0.191 A  
HETATM   26  F   UNL     1      -5.127  21.354  71.429  1.00  0.00    -0.101 F  
HETATM   27  C   UNL     1      -6.900  19.496  68.861  1.00  0.00    -0.376 A  
HETATM   28  C   UNL     1      -5.409  19.029  71.170  1.00  0.00    -0.271 A  
HETATM   29  C   UNL     1      -5.947  17.951  70.456  1.00  0.00     0.178 A  
HETATM   30  C   UNL     1      -5.619  20.326  70.725  1.00  0.00    -0.298 A  
ENDBRANCH   8  24
ENDBRANCH   5   8
TORSDOF 6
ENDMDL
MODEL      173
REMARK 921   NORMALIZED FREE ENERGY PREDICTED BY IDOCK:   -0.25 KCAL/MOL
REMARK 922        TOTAL FREE ENERGY PREDICTED BY IDOCK:   -0.54 KCAL/MOL
REMARK 923 INTER-LIGAND FREE ENERGY PREDICTED BY IDOCK:   -2.44 KCAL/MOL
REMARK 924 INTRA-LIGAND FREE ENERGY PREDICTED BY IDOCK:    1.91 KCAL/MOL
REMARK 927      BINDING AFFINITY PREDICTED BY RF-SCORE:    0.00 PKD
ROOT
HETATM    1  F   UNL     1     -12.912  12.422  65.027  1.00  0.00    -0.533 F  
HETATM    2  C   UNL     1     -11.915  12.273  65.910  1.00  0.00    -0.287 A  
HETATM    3  C   UNL     1     -10.868  13.186  65.919  1.00  0.00    -0.288 A  
HETATM    4  C   UNL     1      -9.810  13.010  66.814  1.00  0.00    -0.243 A  
HETATM    5  C   UNL     1      -9.794  11.921  67.710  1.00  0.00    -0.187 A  
HETATM    6  C   UNL     1     -10.890  11.040  67.708  1.00  0.00    -0.297 A  
HETATM    7  C   UNL     1     -11.941  11.209  66.804  1.00  0.00     1.019 A  
ENDROOT
BRANCH   5   8
HETATM    8  C   UNL     1      -8.611  11.734  68.672  1.00  0.00    -0.062 C  
BRANCH   8   9
HETATM    9  N   UNL     1      -7.857  10.470  68.405  1.00  0.00    -0.105 NA 
HETATM   10  C   UNL     1      -8.221   9.386  69.359  1.00  0.00    -0.119 C  
HETATM   11  C   UNL     1      -6.387  10.646  68.503  1.00  0.00    -0.054 C  
HETATM   12  C   UNL     1      -7.658   9.548  70.795  1.00  0.00    -0.071 C  
HETATM   13  N   UNL     1      -6.204   9.820  70.889  1.00  0.00    -0.126 NA 
HETATM   14  C   UNL     1      -5.858  10.892  69.934  1.00  0.00    -0.077 C  
BRANCH  13  15
HETATM   15  C   UNL     1      -5.363   8.637  70.638  1.00  0.00    -0.027 C  
BRANCH  15  16
HETATM   16  C   UNL     1      -6.063   7.369  71.004  1.00  0.00    -0.035 C  
HETATM   17  C   UNL     1      -6.736   6.615  70.120  1.00  0.00    -0.052 C  
BRANCH  17  18
HETATM   18  C   UNL     1      -7.561   5.515  70.604  1.00  0.00    -0.089 A  
HETATM   19  C   UNL     1      -8.347   4.816  69.680  1.00  0.00    -0.082 A  
HETATM   20  C   UNL     1      -9.230   3.830  70.116  1.00  0.00    -0.218 A  
HETATM   21  C   UNL     1      -9.324   3.540  71.476  1.00  0.00    -0.209 A  
HETATM   22  C   UNL     1      -8.532   4.227  72.398  1.00  0.00    -0.105 A  
HETATM   23  C   UNL     1      -7.648   5.215  71.964  1.00  0.00    -0.097 A  
ENDBRANCH  17  18
ENDBRANCH  15  16
ENDBRANCH  13  15
ENDBRANCH   8   9
BRANCH   8  24
HETATM   24  C   UNL     1      -7.723  12.998  68.707  1.00  0.00     0.004 A  
HETATM   25  C   UNL     1      -6.737  14.893  67.520  1.00  0.00    -0.167 A  
HETATM   26  F   UNL     1      -5.649  16.592  68.742  1.00  0.00    -0.115 F  
HETATM   27  C   UNL     1      -7.447  13.688  67.510  1.00  0.00    -0.181 A  
HETATM   28  C   UNL     1      -6.507  14.737  69.915  1.00  0.00    -0.164 A  
HETATM   29  C   UNL     1      -7.202  13.521  69.908  1.00  0.00     0.627 A  
HETATM   30  C   UNL     1      -6.288  15.415  68.725  1.00  0.00    -0.101 A  
ENDBRANCH   8  24
ENDBRANCH   5   8
TORSDOF 6
ENDMDL
MODEL      174
REMARK 921   NORMALIZED FREE ENERGY PREDICTED BY IDOCK:    0.11 KCAL/MOL
REMARK 922        TOTAL FREE ENERGY PREDICTED BY IDOCK:   -0.05 KCAL/MOL
REMARK 923 INTER-LIGAND FREE ENERGY PREDICTED BY IDOCK:   -4.04 KCAL/MOL
REMARK 924 INTRA-LIGAND FREE ENERGY PREDICTED BY IDOCK:    3.99 KCAL/MOL
REMARK 927      BINDING AFFINITY PREDICTED BY RF-SCORE:    0.00 PKD
ROOT
HETATM    1  F   UNL     1     -12.199   6.625  72.349  1.00  0.00    -0.291 F  
HETATM    2  C   UNL     1     -11.530   6.834  71.208  1.00  0.00    -0.302 A  
HETATM    3  C   UNL     1     -11.638   8.062  70.567  1.00  0.00    -0.141 A  
HETATM    4  C   UNL     1     -10.970   8.268  69.358  1.00  0.00    -0.013 A  
HETATM    5  C   UNL     1     -10.185   7.248  68.783  1.00  0.00    -0.188 A  
HETATM    6  C   UNL     1     -10.059   6.031  69.477  1.00  0.00    -0.246 A  
HETATM    7  C   UNL     1     -10.738   5.821  70.680  1.00  0.00    -0.351 A  
ENDROOT
BRANCH   5   8
HETATM    8  C   UNL     1      -9.475   7.487  67.441  1.00  0.00    -0.142 C  
BRANCH   8   9
HETATM    9  N   UNL     1      -8.250   8.333  67.591  1.00  0.00    -0.125 NA 
HETATM   10  C   UNL     1      -7.002   7.566  67.328  1.00  0.00    -0.083 C  
HETATM   11  C   UNL     1      -8.115   8.911  68.951  1.00  0.00    -0.112 C  
HETATM   12  C   UNL     1      -6.586   6.570  68.442  1.00  0.00    -0.059 C  
HETATM   13  N   UNL     1      -6.543   7.125  69.816  1.00  0.00    -0.043 NA 
HETATM   14  C   UNL     1      -7.784   7.887  70.061  1.00  0.00    -0.089 C  
BRANCH  13  15
HETATM   15  C   UNL     1      -5.373   7.981  70.073  1.00  0.00    -0.023 C  
BRANCH  15  16
HETATM   16  C   UNL     1      -5.758   9.415  70.245  1.00  0.00    -0.036 C  
HETATM   17  C   UNL     1      -5.245  10.410  69.507  1.00  0.00    -0.038 C  
BRANCH  17  18
HETATM   18  C   UNL     1      -5.518  11.792  69.885  1.00  0.00    -0.094 A  
HETATM   19  C   UNL     1      -5.871  12.700  68.879  1.00  0.00    -0.071 A  
HETATM   20  C   UNL     1      -6.034  14.050  69.182  1.00  0.00    -0.091 A  
HETATM   21  C   UNL     1      -5.850  14.492  70.491  1.00  0.00    -0.173 A  
HETATM   22  C   UNL     1      -5.511  13.586  71.498  1.00  0.00    -0.191 A  
HETATM   23  C   UNL     1      -5.345  12.233  71.196  1.00  0.00    -0.103 A  
ENDBRANCH  17  18
ENDBRANCH  15  16
ENDBRANCH  13  15
ENDBRANCH   8   9
BRANCH   8  24
HETATM   24  C   UNL     1      -9.232   6.155  66.700  1.00  0.00    -0.155 A  
HETATM   25  C   UNL     1      -9.528   3.730  66.606  1.00  0.00    -0.212 A  
HETATM   26  F   UNL     1      -8.944   2.562  64.642  1.00  0.00    -0.100 F  
HETATM   27  C   UNL     1      -9.637   4.943  67.295  1.00  0.00    -0.173 A  
HETATM   28  C   UNL     1      -8.558   4.885  64.726  1.00  0.00    -0.149 A  
HETATM   29  C   UNL     1      -8.648   6.100  65.417  1.00  0.00    -0.111 A  
HETATM   30  C   UNL     1      -9.005   3.715  65.321  1.00  0.00    -0.135 A  
ENDBRANCH   8  24
ENDBRANCH   5   8
TORSDOF 6
ENDMDL
MODEL      175
REMARK 921   NORMALIZED FREE ENERGY PREDICTED BY IDOCK:    0.20 KCAL/MOL
REMARK 922        TOTAL FREE ENERGY PREDICTED BY IDOCK:    0.07 KCAL/MOL
REMARK 923 INTER-LIGAND FREE ENERGY PREDICTED BY IDOCK:   -4.76 KCAL/MOL
REMARK 924 INTRA-LIGAND FREE ENERGY PREDICTED BY IDOCK:    4.84 KCAL/MOL
REMARK 927      BINDING AFFINITY PREDICTED BY RF-SCORE:    0.00 PKD
ROOT
HETATM    1  F   UNL     1     -11.569  12.174  63.183  1.00  0.00    -0.448 F  
HETATM    2  C   UNL     1     -10.757  11.791  64.178  1.00  0.00    -0.357 A  
HETATM    3  C   UNL     1     -10.885  10.515  64.712  1.00  0.00     0.284 A  
HETATM    4  C   UNL     1     -10.065  10.128  65.774  1.00  0.00    -0.324 A  
HETATM    5  C   UNL     1      -9.107  11.015  66.307  1.00  0.00    -0.196 A  
HETATM    6  C   UNL     1      -8.970  12.284  65.716  1.00  0.00     0.217 A  
HETATM    7  C   UNL     1      -9.800  12.674  64.663  1.00  0.00    -0.063 A  
ENDROOT
BRANCH   5   8
HETATM    8  C   UNL     1      -8.228  10.578  67.490  1.00  0.00    -0.114 C  
BRANCH   8   9
HETATM    9  N   UNL     1      -8.430  11.439  68.696  1.00  0.00    -0.152 NA 
HETATM   10  C   UNL     1      -9.870  11.598  69.040  1.00  0.00     0.052 C  
HETATM   11  C   UNL     1      -7.882  12.807  68.523  1.00  0.00    -0.099 C  
HETATM   12  C   UNL     1     -10.679  12.530  68.101  1.00  0.00    -0.227 C  
HETATM   13  N   UNL     1     -10.082  13.864  67.851  1.00  0.00    -0.236 NA 
HETATM   14  C   UNL     1      -8.655  13.692  67.517  1.00  0.00    -0.197 C  
BRANCH  13  15
HETATM   15  C   UNL     1     -10.222  14.797  68.982  1.00  0.00    -0.237 C  
BRANCH  15  16
HETATM   16  C   UNL     1      -9.376  16.016  68.806  1.00  0.00    -0.222 C  
HETATM   17  C   UNL     1      -9.856  17.191  68.373  1.00  0.00    -0.296 C  
BRANCH  17  18
HETATM   18  C   UNL     1      -8.925  18.259  68.030  1.00  0.00    -0.301 A  
HETATM   19  C   UNL     1      -8.105  18.092  66.907  1.00  0.00    -0.254 A  
HETATM   20  C   UNL     1      -7.128  19.039  66.607  1.00  0.00    -0.223 A  
HETATM   21  C   UNL     1      -6.973  20.155  67.428  1.00  0.00    -0.288 A  
HETATM   22  C   UNL     1      -7.798  20.330  68.540  1.00  0.00     0.049 A  
HETATM   23  C   UNL     1      -8.776  19.382  68.843  1.00  0.00    -0.325 A  
ENDBRANCH  17  18
ENDBRANCH  15  16
ENDBRANCH  13  15
ENDBRANCH   8   9
BRANCH   8  24
HETATM   24  C   UNL     1      -8.385   9.066  67.765  1.00  0.00    -0.117 A  
HETATM   25  C   UNL     1      -7.372   6.844  67.869  1.00  0.00    -0.097 A  
HETATM   26  F   UNL     1      -8.591   5.053  68.803  1.00  0.00    -0.087 F  
HETATM   27  C   UNL     1      -7.299   8.200  67.531  1.00  0.00    -0.093 A  
HETATM   28  C   UNL     1      -9.636   7.159  68.638  1.00  0.00    -0.140 A  
HETATM   29  C   UNL     1      -9.573   8.513  68.285  1.00  0.00    -0.156 A  
HETATM   30  C   UNL     1      -8.534   6.340  68.435  1.00  0.00    -0.115 A  
ENDBRANCH   8  24
ENDBRANCH   5   8
TORSDOF 6
ENDMDL
MODEL      176
REMARK 921   NORMALIZED FREE ENERGY PREDICTED BY IDOCK:    0.29 KCAL/MOL
REMARK 922        TOTAL FREE ENERGY PREDICTED BY IDOCK:    0.20 KCAL/MOL
REMARK 923 INTER-LIGAND FREE ENERGY PREDICTED BY IDOCK:   -1.74 KCAL/MOL
REMARK 924 INTRA-LIGAND FREE ENERGY PREDICTED BY IDOCK:    1.94 KCAL/MOL
REMARK 927      BINDING AFFINITY PREDICTED BY RF-SCORE:    0.00 PKD
ROOT
HETATM    1  F   UNL     1     -10.594  19.030  64.882  1.00  0.00     0.201 F  
HETATM    2  C   UNL     1     -10.467  17.956  65.672  1.00  0.00    -0.104 A  
HETATM    3  C   UNL     1     -10.130  16.731  65.112  1.00  0.00     0.377 A  
HETATM    4  C   UNL     1     -10.034  15.603  65.930  1.00  0.00    -0.379 A  
HETATM    5  C   UNL     1     -10.272  15.693  67.317  1.00  0.00    -0.266 A  
HETATM    6  C   UNL     1     -10.569  16.956  67.862  1.00  0.00    -0.361 A  
HETATM    7  C   UNL     1     -10.676  18.081  67.041  1.00  0.00    -0.251 A  
ENDROOT
BRANCH   5   8
HETATM    8  C   UNL     1     -10.183  14.436  68.196  1.00  0.00    -0.232 C  
BRANCH   8   9
HETATM    9  N   UNL     1     -10.454  13.184  67.424  1.00  0.00    -0.241 NA 
HETATM   10  C   UNL     1     -11.806  12.631  67.706  1.00  0.00    -0.323 C  
HETATM   11  C   UNL     1      -9.482  12.103  67.724  1.00  0.00    -0.192 C  
HETATM   12  C   UNL     1     -11.970  11.946  69.088  1.00  0.00    -0.276 C  
HETATM   13  N   UNL     1     -10.943  10.933  69.428  1.00  0.00    -0.237 NA 
HETATM   14  C   UNL     1      -9.608  11.493  69.139  1.00  0.00     0.176 C  
BRANCH  13  15
HETATM   15  C   UNL     1     -11.113   9.654  68.717  1.00  0.00    -0.049 C  
BRANCH  15  16
HETATM   16  C   UNL     1     -11.476   8.543  69.648  1.00  0.00     0.332 C  
HETATM   17  C   UNL     1     -11.025   8.460  70.909  1.00  0.00    -0.279 C  
BRANCH  17  18
HETATM   18  C   UNL     1     -11.258   7.239  71.670  1.00  0.00    -0.275 A  
HETATM   19  C   UNL     1     -12.579   6.873  71.955  1.00  0.00    -0.336 A  
HETATM   20  C   UNL     1     -12.841   5.773  72.769  1.00  0.00     0.666 A  
HETATM   21  C   UNL     1     -11.782   5.036  73.295  1.00  0.00    -0.134 A  
HETATM   22  C   UNL     1     -10.464   5.390  73.002  1.00  0.00    -0.246 A  
HETATM   23  C   UNL     1     -10.200   6.492  72.188  1.00  0.00    -0.203 A  
ENDBRANCH  17  18
ENDBRANCH  15  16
ENDBRANCH  13  15
ENDBRANCH   8   9
BRANCH   8  24
HETATM   24  C   UNL     1      -8.857  14.411  68.988  1.00  0.00     0.009 A  
HETATM   25  C   UNL     1      -6.579  13.556  69.224  1.00  0.00    -0.103 A  
HETATM   26  F   UNL     1      -5.138  14.514  70.827  1.00  0.00    -0.101 F  
HETATM   27  C   UNL     1      -7.829  13.530  68.596  1.00  0.00    -0.084 A  
HETATM   28  C   UNL     1      -7.354  15.305  70.692  1.00  0.00     0.968 A  
HETATM   29  C   UNL     1      -8.612  15.271  70.078  1.00  0.00     0.362 A  
HETATM   30  C   UNL     1      -6.348  14.455  70.255  1.00  0.00    -0.158 A  
ENDBRANCH   8  24
ENDBRANCH   5   8
TORSDOF 6
ENDMDL
MODEL      177
REMARK 921   NORMALIZED FREE ENERGY PREDICTED BY IDOCK:    0.33 KCAL/MOL
REMARK 922        TOTAL FREE ENERGY PREDICTED BY IDOCK:    0.25 KCAL/MOL
REMARK 923 INTER-LIGAND FREE ENERGY PREDICTED BY IDOCK:   -3.19 KCAL/MOL
REMARK 924 INTRA-LIGAND FREE ENERGY PREDICTED BY IDOCK:    3.44 KCAL/MOL
REMARK 927      BINDING AFFINITY PREDICTED BY RF-SCORE:    0.00 PKD
ROOT
HETATM    1  F   UNL     1      -5.321   8.585  72.803  1.00  0.00    -0.036 F  
HETATM    2  C   UNL     1      -6.261   8.526  71.850  1.00  0.00    -0.067 A  
HETATM    3  C   UNL     1      -6.272   9.479  70.840  1.00  0.00    -0.086 A  
HETATM    4  C   UNL     1      -7.274   9.440  69.868  1.00  0.00    -0.083 A  
HETATM    5  C   UNL     1      -8.271   8.444  69.897  1.00  0.00    -0.122 A  
HETATM    6  C   UNL     1      -8.208   7.466  70.907  1.00  0.00    -0.114 A  
HETATM    7  C   UNL     1      -7.213   7.514  71.885  1.00  0.00    -0.064 A  
ENDROOT
BRANCH   5   8
HETATM    8  C   UNL     1      -9.377   8.431  68.830  1.00  0.00    -0.147 C  
BRANCH   8   9
HETATM    9  N   UNL     1     -10.334   9.570  68.992  1.00  0.00    -0.199 NA 
HETATM   10  C   UNL     1     -11.456   9.505  68.015  1.00  0.00     0.638 C  
HETATM   11  C   UNL     1      -9.688  10.893  68.810  1.00  0.00    -0.189 C  
HETATM   12  C   UNL     1     -11.088   9.877  66.555  1.00  0.00     0.401 C  
HETATM   13  N   UNL     1     -10.357  11.155  66.382  1.00  0.00    -0.244 NA 
HETATM   14  C   UNL     1      -9.252  11.207  67.360  1.00  0.00    -0.153 C  
BRANCH  13  15
HETATM   15  C   UNL     1     -11.209  12.348  66.526  1.00  0.00    -0.319 C  
BRANCH  15  16
HETATM   16  C   UNL     1     -10.399  13.597  66.660  1.00  0.00    -0.275 C  
HETATM   17  C   UNL     1     -10.209  14.232  67.826  1.00  0.00    -0.235 C  
BRANCH  17  18
HETATM   18  C   UNL     1      -9.588  15.551  67.827  1.00  0.00    -0.209 A  
HETATM   19  C   UNL     1      -8.687  15.861  68.853  1.00  0.00    -0.225 A  
HETATM   20  C   UNL     1      -8.155  17.145  68.951  1.00  0.00    -0.203 A  
HETATM   21  C   UNL     1      -8.519  18.117  68.020  1.00  0.00    -0.268 A  
HETATM   22  C   UNL     1      -9.406  17.805  66.989  1.00  0.00    -0.259 A  
HETATM   23  C   UNL     1      -9.942  16.521  66.889  1.00  0.00    -0.273 A  
ENDBRANCH  17  18
ENDBRANCH  15  16
ENDBRANCH  13  15
ENDBRANCH   8   9
BRANCH   8  24
HETATM   24  C   UNL     1      -8.774   8.314  67.412  1.00  0.00    -0.125 A  
HETATM   25  C   UNL     1      -6.859   8.615  65.924  1.00  0.00    -0.068 A  
HETATM   26  F   UNL     1      -6.935   7.731  63.739  1.00  0.00    -0.058 F  
HETATM   27  C   UNL     1      -7.474   8.800  67.167  1.00  0.00    -0.088 A  
HETATM   28  C   UNL     1      -8.836   7.500  65.111  1.00  0.00     0.202 A  
HETATM   29  C   UNL     1      -9.463   7.698  66.348  1.00  0.00    -0.224 A  
HETATM   30  C   UNL     1      -7.540   7.951  64.914  1.00  0.00    -0.104 A  
ENDBRANCH   8  24
ENDBRANCH   5   8
TORSDOF 6
ENDMDL
MODEL      178
REMARK 921   NORMALIZED FREE ENERGY PREDICTED BY IDOCK:    0.35 KCAL/MOL
REMARK 922        TOTAL FREE ENERGY PREDICTED BY IDOCK:    0.28 KCAL/MOL
REMARK 923 INTER-LIGAND FREE ENERGY PREDICTED BY IDOCK:   -0.48 KCAL/MOL
REMARK 924 INTRA-LIGAND FREE ENERGY PREDICTED BY IDOCK:    0.76 KCAL/MOL
REMARK 927      BINDING AFFINITY PREDICTED BY RF-SCORE:    0.00 PKD
ROOT
HETATM    1  F   UNL     1     -12.578   4.984  65.158  1.00  0.00     1.706 F  
HETATM    2  C   UNL     1     -11.327   5.095  65.623  1.00  0.00     0.683 A  
HETATM    3  C   UNL     1     -10.261   4.714  64.816  1.00  0.00     0.108 A  
HETATM    4  C   UNL     1      -8.959   4.794  65.314  1.00  0.00    -0.151 A  
HETATM    5  C   UNL     1      -8.712   5.259  66.622  1.00  0.00    -0.113 A  
HETATM    6  C   UNL     1      -9.807   5.680  67.398  1.00  0.00    -0.160 A  
HETATM    7  C   UNL     1     -11.110   5.588  66.904  1.00  0.00     0.129 A  
ENDROOT
BRANCH   5   8
HETATM    8  C   UNL     1      -7.273   5.320  67.158  1.00  0.00    -0.078 C  
BRANCH   8   9
HETATM    9  N   UNL     1      -6.897   6.692  67.620  1.00  0.00    -0.077 NA 
HETATM   10  C   UNL     1      -7.971   7.688  67.357  1.00  0.00    -0.119 C  
HETATM   11  C   UNL     1      -5.671   7.205  66.960  1.00  0.00    -0.022 C  
HETATM   12  C   UNL     1      -8.136   8.113  65.875  1.00  0.00    -0.115 C  
HETATM   13  N   UNL     1      -6.894   8.535  65.186  1.00  0.00    -0.067 NA 
HETATM   14  C   UNL     1      -5.837   7.541  65.459  1.00  0.00    -0.037 C  
BRANCH  13  15
HETATM   15  C   UNL     1      -6.429   9.878  65.572  1.00  0.00    -0.091 C  
BRANCH  15  16
HETATM   16  C   UNL     1      -7.569  10.810  65.828  1.00  0.00    -0.079 C  
HETATM   17  C   UNL     1      -7.881  11.276  67.047  1.00  0.00    -0.150 C  
BRANCH  17  18
HETATM   18  C   UNL     1      -9.130  12.005  67.232  1.00  0.00    -0.178 A  
HETATM   19  C   UNL     1      -9.266  12.815  68.367  1.00  0.00    -0.136 A  
HETATM   20  C   UNL     1     -10.480  13.442  68.636  1.00  0.00    -0.237 A  
HETATM   21  C   UNL     1     -11.558  13.264  67.771  1.00  0.00    -0.380 A  
HETATM   22  C   UNL     1     -11.420  12.468  66.632  1.00  0.00    -0.417 A  
HETATM   23  C   UNL     1     -10.206  11.837  66.360  1.00  0.00    -0.248 A  
ENDBRANCH  17  18
ENDBRANCH  15  16
ENDBRANCH  13  15
ENDBRANCH   8   9
BRANCH   8  24
HETATM   24  C   UNL     1      -7.028   4.215  68.209  1.00  0.00    -0.051 A  
HETATM   25  C   UNL     1      -5.459   2.988  69.624  1.00  0.00    -0.016 A  
HETATM   26  F   UNL     1      -6.285   1.517  71.273  1.00  0.00    -0.015 F  
HETATM   27  C   UNL     1      -5.710   3.907  68.600  1.00  0.00    -0.022 A  
HETATM   28  C   UNL     1      -7.828   2.612  69.868  1.00  0.00    -0.049 A  
HETATM   29  C   UNL     1      -8.084   3.518  68.831  1.00  0.00    -0.070 A  
HETATM   30  C   UNL     1      -6.521   2.362  70.261  1.00  0.00    -0.028 A  
ENDBRANCH   8  24
ENDBRANCH   5   8
TORSDOF 6
ENDMDL
MODEL      179
REMARK 921   NORMALIZED FREE ENERGY PREDICTED BY IDOCK:    0.68 KCAL/MOL
REMARK 922        TOTAL FREE ENERGY PREDICTED BY IDOCK:    0.73 KCAL/MOL
REMARK 923 INTER-LIGAND FREE ENERGY PREDICTED BY IDOCK:   -6.13 KCAL/MOL
REMARK 924 INTRA-LIGAND FREE ENERGY PREDICTED BY IDOCK:    6.86 KCAL/MOL
REMARK 927      BINDING AFFINITY PREDICTED BY RF-SCORE:    0.00 PKD
ROOT
HETATM    1  F   UNL     1      -9.524   9.118  64.537  1.00  0.00    -0.198 F  
HETATM    2  C   UNL     1      -9.484  10.061  65.488  1.00  0.00    -0.237 A  
HETATM    3  C   UNL     1      -8.323  10.802  65.667  1.00  0.00    -0.144 A  
HETATM    4  C   UNL     1      -8.268  11.759  66.683  1.00  0.00    -0.117 A  
HETATM    5  C   UNL     1      -9.376  11.984  67.525  1.00  0.00    -0.179 A  
HETATM    6  C   UNL     1     -10.553  11.249  67.291  1.00  0.00    -0.271 A  
HETATM    7  C   UNL     1     -10.602  10.284  66.283  1.00  0.00    -0.150 A  
ENDROOT
BRANCH   5   8
HETATM    8  C   UNL     1      -9.288  13.027  68.651  1.00  0.00     0.014 C  
BRANCH   8   9
HETATM    9  N   UNL     1      -8.762  14.341  68.166  1.00  0.00    -0.167 NA 
HETATM   10  C   UNL     1      -9.382  15.492  68.877  1.00  0.00    -0.222 C  
HETATM   11  C   UNL     1      -9.003  14.557  66.718  1.00  0.00    -0.246 C  
HETATM   12  C   UNL     1     -10.849  15.807  68.481  1.00  0.00    -0.290 C  
HETATM   13  N   UNL     1     -11.109  15.927  67.027  1.00  0.00    -0.194 NA 
HETATM   14  C   UNL     1     -10.484  14.783  66.334  1.00  0.00    -0.293 C  
BRANCH  13  15
HETATM   15  C   UNL     1     -10.626  17.190  66.441  1.00  0.00    -0.172 C  
BRANCH  15  16
HETATM   16  C   UNL     1      -9.487  17.764  67.219  1.00  0.00    -0.255 C  
HETATM   17  C   UNL     1      -8.522  18.517  66.668  1.00  0.00    -0.288 C  
BRANCH  17  18
HETATM   18  C   UNL     1      -7.343  18.854  67.458  1.00  0.00    -0.242 A  
HETATM   19  C   UNL     1      -6.301  17.921  67.528  1.00  0.00    -0.179 A  
HETATM   20  C   UNL     1      -5.206  18.158  68.357  1.00  0.00    -0.162 A  
HETATM   21  C   UNL     1      -5.150  19.329  69.110  1.00  0.00    -0.200 A  
HETATM   22  C   UNL     1      -6.182  20.267  69.031  1.00  0.00    -0.366 A  
HETATM   23  C   UNL     1      -7.280  20.031  68.203  1.00  0.00    -0.320 A  
ENDBRANCH  17  18
ENDBRANCH  15  16
ENDBRANCH  13  15
ENDBRANCH   8   9
BRANCH   8  24
HETATM   24  C   UNL     1     -10.626  13.129  69.415  1.00  0.00     0.218 A  
HETATM   25  C   UNL     1     -12.596  12.015  70.339  1.00  0.00    -0.128 A  
HETATM   26  F   UNL     1     -14.059  13.218  71.745  1.00  0.00    -0.370 F  
HETATM   27  C   UNL     1     -11.432  11.982  69.564  1.00  0.00    -0.351 A  
HETATM   28  C   UNL     1     -12.221  14.352  70.802  1.00  0.00    -0.413 A  
HETATM   29  C   UNL     1     -11.064  14.328  70.012  1.00  0.00    -0.075 A  
HETATM   30  C   UNL     1     -12.970  13.196  70.965  1.00  0.00    -0.133 A  
ENDBRANCH   8  24
ENDBRANCH   5   8
TORSDOF 6
ENDMDL
MODEL      180
REMARK 921   NORMALIZED FREE ENERGY PREDICTED BY IDOCK:    1.24 KCAL/MOL
REMARK 922        TOTAL FREE ENERGY PREDICTED BY IDOCK:    1.49 KCAL/MOL
REMARK 923 INTER-LIGAND FREE ENERGY PREDICTED BY IDOCK:   -2.20 KCAL/MOL
REMARK 924 INTRA-LIGAND FREE ENERGY PREDICTED BY IDOCK:    3.69 KCAL/MOL
REMARK 927      BINDING AFFINITY PREDICTED BY RF-SCORE:    0.00 PKD
ROOT
HETATM    1  F   UNL     1      -8.323   3.757  65.421  1.00  0.00    -0.101 F  
HETATM    2  C   UNL     1      -8.000   4.787  66.214  1.00  0.00    -0.103 A  
HETATM    3  C   UNL     1      -8.993   5.418  66.953  1.00  0.00    -0.110 A  
HETATM    4  C   UNL     1      -8.663   6.515  67.751  1.00  0.00    -0.115 A  
HETATM    5  C   UNL     1      -7.336   6.988  67.819  1.00  0.00    -0.097 A  
HETATM    6  C   UNL     1      -6.345   6.301  67.093  1.00  0.00    -0.037 A  
HETATM    7  C   UNL     1      -6.679   5.211  66.286  1.00  0.00    -0.057 A  
ENDROOT
BRANCH   5   8
HETATM    8  C   UNL     1      -6.998   8.210  68.687  1.00  0.00    -0.068 C  
BRANCH   8   9
HETATM    9  N   UNL     1      -7.993   9.315  68.522  1.00  0.00    -0.100 NA 
HETATM   10  C   UNL     1      -8.900   9.088  67.364  1.00  0.00    -0.118 C  
HETATM   11  C   UNL     1      -7.354  10.637  68.309  1.00  0.00    -0.089 C  
HETATM   12  C   UNL     1      -8.261   9.307  65.967  1.00  0.00    -0.111 C  
HETATM   13  N   UNL     1      -7.539  10.588  65.784  1.00  0.00    -0.147 NA 
HETATM   14  C   UNL     1      -6.649  10.802  66.943  1.00  0.00    -0.091 C  
BRANCH  13  15
HETATM   15  C   UNL     1      -8.428  11.750  65.616  1.00  0.00     0.392 C  
BRANCH  15  16
HETATM   16  C   UNL     1      -9.118  12.112  66.891  1.00  0.00    -0.203 C  
HETATM   17  C   UNL     1     -10.185  11.452  67.366  1.00  0.00    -0.221 C  
BRANCH  17  18
HETATM   18  C   UNL     1     -10.919  12.004  68.498  1.00  0.00    -0.280 A  
HETATM   19  C   UNL     1     -12.114  11.384  68.882  1.00  0.00    -0.285 A  
HETATM   20  C   UNL     1     -12.900  11.943  69.889  1.00  0.00     0.453 A  
HETATM   21  C   UNL     1     -12.488  13.118  70.514  1.00  0.00    -0.322 A  
HETATM   22  C   UNL     1     -11.290  13.730  70.142  1.00  0.00    -0.025 A  
HETATM   23  C   UNL     1     -10.503  13.174  69.133  1.00  0.00     0.066 A  
ENDBRANCH  17  18
ENDBRANCH  15  16
ENDBRANCH  13  15
ENDBRANCH   8   9
BRANCH   8  24
HETATM   24  C   UNL     1      -6.758   7.795  70.155  1.00  0.00    -0.041 A  
HETATM   25  C   UNL     1      -5.991   8.393  72.397  1.00  0.00    -0.064 A  
HETATM   26  F   UNL     1      -6.387   6.917  74.194  1.00  0.00    -0.071 F  
HETATM   27  C   UNL     1      -6.128   8.695  71.038  1.00  0.00    -0.040 A  
HETATM   28  C   UNL     1      -7.061   6.263  72.033  1.00  0.00    -0.082 A  
HETATM   29  C   UNL     1      -7.184   6.553  70.668  1.00  0.00    -0.074 A  
HETATM   30  C   UNL     1      -6.474   7.187  72.885  1.00  0.00    -0.063 A  
ENDBRANCH   8  24
ENDBRANCH   5   8
TORSDOF 6
ENDMDL
MODEL      181
REMARK 921   NORMALIZED FREE ENERGY PREDICTED BY IDOCK:    1.31 KCAL/MOL
REMARK 922        TOTAL FREE ENERGY PREDICTED BY IDOCK:    1.57 KCAL/MOL
REMARK 923 INTER-LIGAND FREE ENERGY PREDICTED BY IDOCK:   -1.93 KCAL/MOL
REMARK 924 INTRA-LIGAND FREE ENERGY PREDICTED BY IDOCK:    3.50 KCAL/MOL
REMARK 927      BINDING AFFINITY PREDICTED BY RF-SCORE:    0.00 PKD
ROOT
HETATM    1  F   UNL     1     -12.933  12.401  65.025  1.00  0.00    -0.533 F  
HETATM    2  C   UNL     1     -11.930  12.275  65.904  1.00  0.00    -0.287 A  
HETATM    3  C   UNL     1     -10.868  13.169  65.863  1.00  0.00    -0.288 A  
HETATM    4  C   UNL     1      -9.805  13.016  66.755  1.00  0.00    -0.243 A  
HETATM    5  C   UNL     1      -9.797  11.967  67.698  1.00  0.00    -0.191 A  
HETATM    6  C   UNL     1     -10.907  11.104  67.744  1.00  0.00    -0.288 A  
HETATM    7  C   UNL     1     -11.964  11.251  66.844  1.00  0.00     0.714 A  
ENDROOT
BRANCH   5   8
HETATM    8  C   UNL     1      -8.607  11.803  68.656  1.00  0.00    -0.062 C  
BRANCH   8   9
HETATM    9  N   UNL     1      -7.917  10.487  68.483  1.00  0.00    -0.111 NA 
HETATM   10  C   UNL     1      -8.266   9.522  69.562  1.00  0.00    -0.134 C  
HETATM   11  C   UNL     1      -6.438  10.610  68.485  1.00  0.00    -0.054 C  
HETATM   12  C   UNL     1      -7.618   9.805  70.943  1.00  0.00     0.247 C  
HETATM   13  N   UNL     1      -6.152  10.023  70.931  1.00  0.00    -0.180 NA 
HETATM   14  C   UNL     1      -5.821  10.977  69.855  1.00  0.00    -0.086 C  
BRANCH  13  15
HETATM   15  C   UNL     1      -5.371   8.787  70.762  1.00  0.00    -0.027 C  
BRANCH  15  16
HETATM   16  C   UNL     1      -5.836   7.991  69.585  1.00  0.00    -0.026 C  
HETATM   17  C   UNL     1      -5.280   8.081  68.367  1.00  0.00    -0.032 C  
BRANCH  17  18
HETATM   18  C   UNL     1      -5.932   7.431  67.236  1.00  0.00    -0.045 A  
HETATM   19  C   UNL     1      -5.401   7.633  65.957  1.00  0.00    -0.028 A  
HETATM   20  C   UNL     1      -6.055   7.118  64.839  1.00  0.00    -0.037 A  
HETATM   21  C   UNL     1      -7.238   6.398  65.001  1.00  0.00    -0.067 A  
HETATM   22  C   UNL     1      -7.761   6.185  66.278  1.00  0.00    -0.099 A  
HETATM   23  C   UNL     1      -7.109   6.700  67.398  1.00  0.00    -0.080 A  
ENDBRANCH  17  18
ENDBRANCH  15  16
ENDBRANCH  13  15
ENDBRANCH   8   9
BRANCH   8  24
HETATM   24  C   UNL     1      -7.663  13.022  68.577  1.00  0.00    -0.111 A  
HETATM   25  C   UNL     1      -6.623  14.777  67.230  1.00  0.00     0.159 A  
HETATM   26  F   UNL     1      -5.427  16.507  68.297  1.00  0.00    -0.099 F  
HETATM   27  C   UNL     1      -7.388  13.609  67.326  1.00  0.00    -0.027 A  
HETATM   28  C   UNL     1      -6.336  14.786  69.624  1.00  0.00    -0.142 A  
HETATM   29  C   UNL     1      -7.087  13.607  69.724  1.00  0.00     0.329 A  
HETATM   30  C   UNL     1      -6.119  15.363  68.382  1.00  0.00    -0.103 A  
ENDBRANCH   8  24
ENDBRANCH   5   8
TORSDOF 6
ENDMDL
MODEL      182
REMARK 921   NORMALIZED FREE ENERGY PREDICTED BY IDOCK:    1.59 KCAL/MOL
REMARK 922        TOTAL FREE ENERGY PREDICTED BY IDOCK:    1.96 KCAL/MOL
REMARK 923 INTER-LIGAND FREE ENERGY PREDICTED BY IDOCK:   -2.69 KCAL/MOL
REMARK 924 INTRA-LIGAND FREE ENERGY PREDICTED BY IDOCK:    4.64 KCAL/MOL
REMARK 927      BINDING AFFINITY PREDICTED BY RF-SCORE:    0.00 PKD
ROOT
HETATM    1  F   UNL     1     -11.332   7.360  73.017  1.00  0.00    -0.332 F  
HETATM    2  C   UNL     1     -10.272   7.802  72.326  1.00  0.00    -0.228 A  
HETATM    3  C   UNL     1     -10.334   9.038  71.695  1.00  0.00    -0.420 A  
HETATM    4  C   UNL     1      -9.244   9.483  70.944  1.00  0.00    -0.125 A  
HETATM    5  C   UNL     1      -8.081   8.695  70.822  1.00  0.00    -0.141 A  
HETATM    6  C   UNL     1      -8.030   7.468  71.509  1.00  0.00    -0.094 A  
HETATM    7  C   UNL     1      -9.126   7.019  72.249  1.00  0.00    -0.146 A  
ENDROOT
BRANCH   5   8
HETATM    8  C   UNL     1      -6.900   9.193  69.974  1.00  0.00    -0.049 C  
BRANCH   8   9
HETATM    9  N   UNL     1      -7.126   8.985  68.509  1.00  0.00    -0.071 NA 
HETATM   10  C   UNL     1      -7.495  10.248  67.812  1.00  0.00    -0.088 C  
HETATM   11  C   UNL     1      -8.211   8.013  68.228  1.00  0.00    -0.123 C  
HETATM   12  C   UNL     1      -8.936  10.757  68.075  1.00  0.00    -0.139 C  
HETATM   13  N   UNL     1     -10.014   9.757  67.887  1.00  0.00    -0.156 NA 
HETATM   14  C   UNL     1      -9.633   8.510  68.579  1.00  0.00    -0.151 C  
BRANCH  13  15
HETATM   15  C   UNL     1     -10.318   9.472  66.474  1.00  0.00    -0.193 C  
BRANCH  15  16
HETATM   16  C   UNL     1     -10.978  10.631  65.802  1.00  0.00     0.091 C  
HETATM   17  C   UNL     1     -10.359  11.418  64.909  1.00  0.00    -0.347 C  
BRANCH  17  18
HETATM   18  C   UNL     1     -11.009  12.645  64.467  1.00  0.00    -0.365 A  
HETATM   19  C   UNL     1     -10.625  13.853  65.062  1.00  0.00    -0.418 A  
HETATM   20  C   UNL     1     -11.296  15.033  64.746  1.00  0.00    -0.409 A  
HETATM   21  C   UNL     1     -12.348  15.006  63.833  1.00  0.00     0.114 A  
HETATM   22  C   UNL     1     -12.724  13.805  63.228  1.00  0.00     0.633 A  
HETATM   23  C   UNL     1     -12.055  12.622  63.544  1.00  0.00    -0.648 A  
ENDBRANCH  17  18
ENDBRANCH  15  16
ENDBRANCH  13  15
ENDBRANCH   8   9
BRANCH   8  24
HETATM   24  C   UNL     1      -6.522  10.643  70.351  1.00  0.00    -0.102 A  
HETATM   25  C   UNL     1      -5.654  12.211  72.012  1.00  0.00     0.773 A  
HETATM   26  F   UNL     1      -5.151  14.424  71.370  1.00  0.00    -0.107 F  
HETATM   27  C   UNL     1      -6.104  10.932  71.665  1.00  0.00     0.970 A  
HETATM   28  C   UNL     1      -6.072  12.969  69.762  1.00  0.00    -0.123 A  
HETATM   29  C   UNL     1      -6.540  11.695  69.414  1.00  0.00    -0.115 A  
HETATM   30  C   UNL     1      -5.626  13.212  71.053  1.00  0.00    -0.175 A  
ENDBRANCH   8  24
ENDBRANCH   5   8
TORSDOF 6
ENDMDL
MODEL      183
REMARK 921   NORMALIZED FREE ENERGY PREDICTED BY IDOCK:    1.80 KCAL/MOL
REMARK 922        TOTAL FREE ENERGY PREDICTED BY IDOCK:    2.23 KCAL/MOL
REMARK 923 INTER-LIGAND FREE ENERGY PREDICTED BY IDOCK:   -2.73 KCAL/MOL
REMARK 924 INTRA-LIGAND FREE ENERGY PREDICTED BY IDOCK:    4.97 KCAL/MOL
REMARK 927      BINDING AFFINITY PREDICTED BY RF-SCORE:    0.00 PKD
ROOT
HETATM    1  F   UNL     1     -12.933  12.401  65.025  1.00  0.00    -0.533 F  
HETATM    2  C   UNL     1     -11.930  12.275  65.904  1.00  0.00    -0.287 A  
HETATM    3  C   UNL     1     -10.868  13.169  65.863  1.00  0.00    -0.288 A  
HETATM    4  C   UNL     1      -9.805  13.016  66.755  1.00  0.00    -0.243 A  
HETATM    5  C   UNL     1      -9.797  11.967  67.698  1.00  0.00    -0.191 A  
HETATM    6  C   UNL     1     -10.907  11.104  67.744  1.00  0.00    -0.288 A  
HETATM    7  C   UNL     1     -11.964  11.251  66.844  1.00  0.00     0.714 A  
ENDROOT
BRANCH   5   8
HETATM    8  C   UNL     1      -8.607  11.803  68.656  1.00  0.00    -0.062 C  
BRANCH   8   9
HETATM    9  N   UNL     1      -7.917  10.487  68.483  1.00  0.00    -0.111 NA 
HETATM   10  C   UNL     1      -6.437  10.610  68.585  1.00  0.00    -0.051 C  
HETATM   11  C   UNL     1      -8.201   9.858  67.170  1.00  0.00    -0.121 C  
HETATM   12  C   UNL     1      -5.738  11.262  67.364  1.00  0.00    -0.057 C  
HETATM   13  N   UNL     1      -6.096  10.696  66.042  1.00  0.00    -0.119 NA 
HETATM   14  C   UNL     1      -7.565  10.575  65.957  1.00  0.00    -0.140 C  
BRANCH  13  15
HETATM   15  C   UNL     1      -5.470   9.391  65.767  1.00  0.00    -0.040 C  
BRANCH  15  16
HETATM   16  C   UNL     1      -5.696   8.421  66.881  1.00  0.00    -0.041 C  
HETATM   17  C   UNL     1      -6.700   7.531  66.892  1.00  0.00    -0.066 C  
BRANCH  17  18
HETATM   18  C   UNL     1      -6.967   6.773  68.109  1.00  0.00    -0.080 A  
HETATM   19  C   UNL     1      -8.089   5.936  68.138  1.00  0.00    -0.109 A  
HETATM   20  C   UNL     1      -8.440   5.278  69.315  1.00  0.00    -0.101 A  
HETATM   21  C   UNL     1      -7.668   5.455  70.462  1.00  0.00    -0.084 A  
HETATM   22  C   UNL     1      -6.542   6.279  70.431  1.00  0.00    -0.048 A  
HETATM   23  C   UNL     1      -6.189   6.939  69.254  1.00  0.00    -0.030 A  
ENDBRANCH  17  18
ENDBRANCH  15  16
ENDBRANCH  13  15
ENDBRANCH   8   9
BRANCH   8  24
HETATM   24  C   UNL     1      -7.663  13.022  68.577  1.00  0.00    -0.111 A  
HETATM   25  C   UNL     1      -6.776  14.899  67.286  1.00  0.00     0.062 A  
HETATM   26  F   UNL     1      -5.430  16.513  68.356  1.00  0.00    -0.108 F  
HETATM   27  C   UNL     1      -7.539  13.729  67.364  1.00  0.00    -0.153 A  
HETATM   28  C   UNL     1      -6.190  14.671  69.614  1.00  0.00    -0.133 A  
HETATM   29  C   UNL     1      -6.939  13.490  69.693  1.00  0.00     0.189 A  
HETATM   30  C   UNL     1      -6.123  15.368  68.417  1.00  0.00    -0.103 A  
ENDBRANCH   8  24
ENDBRANCH   5   8
TORSDOF 6
ENDMDL
MODEL      184
REMARK 921   NORMALIZED FREE ENERGY PREDICTED BY IDOCK:    2.32 KCAL/MOL
REMARK 922        TOTAL FREE ENERGY PREDICTED BY IDOCK:    2.94 KCAL/MOL
REMARK 923 INTER-LIGAND FREE ENERGY PREDICTED BY IDOCK:    2.65 KCAL/MOL
REMARK 924 INTRA-LIGAND FREE ENERGY PREDICTED BY IDOCK:    0.29 KCAL/MOL
REMARK 927      BINDING AFFINITY PREDICTED BY RF-SCORE:    0.00 PKD
ROOT
HETATM    1  F   UNL     1     -13.961  15.393  66.729  1.00  0.00     3.835 F  
HETATM    2  C   UNL     1     -12.740  14.934  67.034  1.00  0.00     1.183 A  
HETATM    3  C   UNL     1     -12.611  13.864  67.910  1.00  0.00     0.524 A  
HETATM    4  C   UNL     1     -11.337  13.409  68.257  1.00  0.00    -0.330 A  
HETATM    5  C   UNL     1     -10.182  14.020  67.728  1.00  0.00    -0.240 A  
HETATM    6  C   UNL     1     -10.346  15.073  66.809  1.00  0.00    -0.270 A  
HETATM    7  C   UNL     1     -11.620  15.535  66.472  1.00  0.00     0.182 A  
ENDROOT
BRANCH   5   8
HETATM    8  C   UNL     1      -8.789  13.519  68.139  1.00  0.00    -0.179 C  
BRANCH   8   9
HETATM    9  N   UNL     1      -8.208  12.572  67.136  1.00  0.00    -0.183 NA 
HETATM   10  C   UNL     1      -9.259  11.877  66.344  1.00  0.00    -0.215 C  
HETATM   11  C   UNL     1      -7.377  11.513  67.761  1.00  0.00    -0.096 C  
HETATM   12  C   UNL     1     -10.040  10.771  67.100  1.00  0.00    -0.204 C  
HETATM   13  N   UNL     1      -9.209   9.766  67.805  1.00  0.00    -0.131 NA 
HETATM   14  C   UNL     1      -8.168  10.469  68.582  1.00  0.00    -0.130 C  
BRANCH  13  15
HETATM   15  C   UNL     1      -8.582   8.781  66.907  1.00  0.00    -0.115 C  
BRANCH  15  16
HETATM   16  C   UNL     1      -7.953   7.658  67.665  1.00  0.00    -0.121 C  
HETATM   17  C   UNL     1      -8.003   7.550  69.002  1.00  0.00    -0.122 C  
BRANCH  17  18
HETATM   18  C   UNL     1      -7.184   6.543  69.666  1.00  0.00    -0.078 A  
HETATM   19  C   UNL     1      -6.033   6.963  70.345  1.00  0.00    -0.024 A  
HETATM   20  C   UNL     1      -5.168   6.023  70.901  1.00  0.00    -0.013 A  
HETATM   21  C   UNL     1      -5.454   4.665  70.783  1.00  0.00    -0.011 A  
HETATM   22  C   UNL     1      -6.608   4.244  70.119  1.00  0.00    -0.033 A  
HETATM   23  C   UNL     1      -7.476   5.183  69.560  1.00  0.00    -0.057 A  
ENDBRANCH  17  18
ENDBRANCH  15  16
ENDBRANCH  13  15
ENDBRANCH   8   9
BRANCH   8  24
HETATM   24  C   UNL     1      -7.860  14.700  68.498  1.00  0.00    -0.133 A  
HETATM   25  C   UNL     1      -6.350  16.471  67.755  1.00  0.00    -0.164 A  
HETATM   26  F   UNL     1      -5.616  18.097  69.298  1.00  0.00    -0.186 F  
HETATM   27  C   UNL     1      -7.117  15.333  67.482  1.00  0.00    -0.224 A  
HETATM   28  C   UNL     1      -6.998  16.354  70.074  1.00  0.00     0.446 A  
HETATM   29  C   UNL     1      -7.754  15.204  69.810  1.00  0.00    -0.066 A  
HETATM   30  C   UNL     1      -6.311  16.981  69.045  1.00  0.00    -0.198 A  
ENDBRANCH   8  24
ENDBRANCH   5   8
TORSDOF 6
ENDMDL
MODEL      185
REMARK 921   NORMALIZED FREE ENERGY PREDICTED BY IDOCK:    3.33 KCAL/MOL
REMARK 922        TOTAL FREE ENERGY PREDICTED BY IDOCK:    4.31 KCAL/MOL
REMARK 923 INTER-LIGAND FREE ENERGY PREDICTED BY IDOCK:    2.18 KCAL/MOL
REMARK 924 INTRA-LIGAND FREE ENERGY PREDICTED BY IDOCK:    2.13 KCAL/MOL
REMARK 927      BINDING AFFINITY PREDICTED BY RF-SCORE:    0.00 PKD
ROOT
HETATM    1  F   UNL     1     -10.707   3.422  66.072  1.00  0.00     0.673 F  
HETATM    2  C   UNL     1      -9.916   4.177  66.845  1.00  0.00    -0.088 A  
HETATM    3  C   UNL     1     -10.470   4.890  67.900  1.00  0.00     0.029 A  
HETATM    4  C   UNL     1      -9.652   5.707  68.684  1.00  0.00    -0.163 A  
HETATM    5  C   UNL     1      -8.271   5.814  68.419  1.00  0.00    -0.108 A  
HETATM    6  C   UNL     1      -7.731   5.045  67.372  1.00  0.00    -0.092 A  
HETATM    7  C   UNL     1      -8.553   4.239  66.581  1.00  0.00    -0.112 A  
ENDROOT
BRANCH   5   8
HETATM    8  C   UNL     1      -7.392   6.734  69.280  1.00  0.00    -0.093 C  
BRANCH   8   9
HETATM    9  N   UNL     1      -7.965   8.110  69.406  1.00  0.00    -0.112 NA 
HETATM   10  C   UNL     1      -8.326   8.693  68.085  1.00  0.00    -0.127 C  
HETATM   11  C   UNL     1      -7.030   9.065  70.050  1.00  0.00    -0.050 C  
HETATM   12  C   UNL     1      -7.130   9.152  67.211  1.00  0.00    -0.079 C  
HETATM   13  N   UNL     1      -6.143  10.030  67.884  1.00  0.00    -0.053 NA 
HETATM   14  C   UNL     1      -5.799   9.443  69.194  1.00  0.00    -0.035 C  
BRANCH  13  15
HETATM   15  C   UNL     1      -6.609  11.415  68.064  1.00  0.00    -0.058 C  
BRANCH  15  16
HETATM   16  C   UNL     1      -8.100  11.507  68.054  1.00  0.00    -0.136 C  
HETATM   17  C   UNL     1      -8.858  11.341  69.149  1.00  0.00     0.125 C  
BRANCH  17  18
HETATM   18  C   UNL     1     -10.305  11.237  69.005  1.00  0.00    -0.189 A  
HETATM   19  C   UNL     1     -11.038  12.410  68.792  1.00  0.00    -0.307 A  
HETATM   20  C   UNL     1     -12.431  12.368  68.757  1.00  0.00     0.537 A  
HETATM   21  C   UNL     1     -13.089  11.152  68.929  1.00  0.00     2.399 A  
HETATM   22  C   UNL     1     -12.359   9.979  69.127  1.00  0.00     0.864 A  
HETATM   23  C   UNL     1     -10.965  10.019  69.165  1.00  0.00    -0.256 A  
ENDBRANCH  17  18
ENDBRANCH  15  16
ENDBRANCH  13  15
ENDBRANCH   8   9
BRANCH   8  24
HETATM   24  C   UNL     1      -7.054   6.068  70.632  1.00  0.00    -0.075 A  
HETATM   25  C   UNL     1      -6.732   6.285  73.045  1.00  0.00    -0.073 A  
HETATM   26  F   UNL     1      -6.501   4.344  74.366  1.00  0.00    -0.047 F  
HETATM   27  C   UNL     1      -6.932   6.865  71.788  1.00  0.00    -0.070 A  
HETATM   28  C   UNL     1      -6.719   4.097  72.033  1.00  0.00    -0.026 A  
HETATM   29  C   UNL     1      -6.901   4.674  70.770  1.00  0.00    -0.036 A  
HETATM   30  C   UNL     1      -6.645   4.905  73.158  1.00  0.00    -0.065 A  
ENDBRANCH   8  24
ENDBRANCH   5   8
TORSDOF 6
ENDMDL
MODEL      186
REMARK 921   NORMALIZED FREE ENERGY PREDICTED BY IDOCK:    3.74 KCAL/MOL
REMARK 922        TOTAL FREE ENERGY PREDICTED BY IDOCK:    4.85 KCAL/MOL
REMARK 923 INTER-LIGAND FREE ENERGY PREDICTED BY IDOCK:    2.58 KCAL/MOL
REMARK 924 INTRA-LIGAND FREE ENERGY PREDICTED BY IDOCK:    2.27 KCAL/MOL
REMARK 927      BINDING AFFINITY PREDICTED BY RF-SCORE:    0.00 PKD
ROOT
HETATM    1  F   UNL     1     -12.853   4.949  65.104  1.00  0.00     2.566 F  
HETATM    2  C   UNL     1     -11.523   4.912  65.265  1.00  0.00     0.846 A  
HETATM    3  C   UNL     1     -10.748   4.174  64.380  1.00  0.00    -0.152 A  
HETATM    4  C   UNL     1      -9.366   4.105  64.569  1.00  0.00    -0.162 A  
HETATM    5  C   UNL     1      -8.749   4.777  65.644  1.00  0.00    -0.131 A  
HETATM    6  C   UNL     1      -9.555   5.553  66.497  1.00  0.00    -0.169 A  
HETATM    7  C   UNL     1     -10.938   5.611  66.314  1.00  0.00     0.007 A  
ENDROOT
BRANCH   5   8
HETATM    8  C   UNL     1      -7.229   4.671  65.847  1.00  0.00    -0.076 C  
BRANCH   8   9
HETATM    9  N   UNL     1      -6.531   5.970  65.595  1.00  0.00    -0.042 NA 
HETATM   10  C   UNL     1      -7.449   7.135  65.719  1.00  0.00    -0.081 C  
HETATM   11  C   UNL     1      -5.929   6.046  64.241  1.00  0.00    -0.025 C  
HETATM   12  C   UNL     1      -8.451   7.320  64.548  1.00  0.00     0.186 C  
HETATM   13  N   UNL     1      -7.860   7.299  63.189  1.00  0.00    -0.126 NA 
HETATM   14  C   UNL     1      -6.949   6.143  63.083  1.00  0.00    -0.046 C  
BRANCH  13  15
HETATM   15  C   UNL     1      -7.142   8.536  62.837  1.00  0.00    -0.091 C  
BRANCH  15  16
HETATM   16  C   UNL     1      -7.804   9.747  63.408  1.00  0.00    -0.145 C  
HETATM   17  C   UNL     1      -7.364  10.380  64.506  1.00  0.00    -0.013 C  
BRANCH  17  18
HETATM   18  C   UNL     1      -8.191  11.418  65.110  1.00  0.00     0.520 A  
HETATM   19  C   UNL     1      -9.210  11.991  64.338  1.00  0.00     0.397 A  
HETATM   20  C   UNL     1      -9.951  13.058  64.840  1.00  0.00    -0.151 A  
HETATM   21  C   UNL     1      -9.679  13.550  66.115  1.00  0.00    -0.264 A  
HETATM   22  C   UNL     1      -8.674  12.972  66.892  1.00  0.00    -0.158 A  
HETATM   23  C   UNL     1      -7.928  11.904  66.391  1.00  0.00     0.129 A  
ENDBRANCH  17  18
ENDBRANCH  15  16
ENDBRANCH  13  15
ENDBRANCH   8   9
BRANCH   8  24
HETATM   24  C   UNL     1      -6.898   4.035  67.215  1.00  0.00    -0.051 A  
HETATM   25  C   UNL     1      -5.238   3.050  68.714  1.00  0.00    -0.012 A  
HETATM   26  F   UNL     1      -5.808   2.633  70.965  1.00  0.00    -0.012 F  
HETATM   27  C   UNL     1      -5.602   3.534  67.453  1.00  0.00    -0.021 A  
HETATM   28  C   UNL     1      -7.463   3.498  69.529  1.00  0.00    -0.048 A  
HETATM   29  C   UNL     1      -7.837   3.968  68.263  1.00  0.00    -0.069 A  
HETATM   30  C   UNL     1      -6.167   3.052  69.745  1.00  0.00    -0.028 A  
ENDBRANCH   8  24
ENDBRANCH   5   8
TORSDOF 6
ENDMDL
MODEL      187
REMARK 921   NORMALIZED FREE ENERGY PREDICTED BY IDOCK:    3.74 KCAL/MOL
REMARK 922        TOTAL FREE ENERGY PREDICTED BY IDOCK:    4.86 KCAL/MOL
REMARK 923 INTER-LIGAND FREE ENERGY PREDICTED BY IDOCK:    5.09 KCAL/MOL
REMARK 924 INTRA-LIGAND FREE ENERGY PREDICTED BY IDOCK:   -0.23 KCAL/MOL
REMARK 927      BINDING AFFINITY PREDICTED BY RF-SCORE:    0.00 PKD
ROOT
HETATM    1  F   UNL     1     -12.741  19.072  65.223  1.00  0.00     6.520 F  
HETATM    2  C   UNL     1     -11.624  18.607  65.799  1.00  0.00     2.325 A  
HETATM    3  C   UNL     1     -11.014  17.469  65.288  1.00  0.00     0.232 A  
HETATM    4  C   UNL     1      -9.872  16.961  65.910  1.00  0.00    -0.241 A  
HETATM    5  C   UNL     1      -9.328  17.592  67.048  1.00  0.00    -0.262 A  
HETATM    6  C   UNL     1      -9.942  18.768  67.516  1.00  0.00    -0.382 A  
HETATM    7  C   UNL     1     -11.092  19.267  66.901  1.00  0.00    -0.204 A  
ENDROOT
BRANCH   5   8
HETATM    8  C   UNL     1      -8.082  17.006  67.731  1.00  0.00    -0.190 C  
BRANCH   8   9
HETATM    9  N   UNL     1      -7.336  16.065  66.838  1.00  0.00    -0.221 NA 
HETATM   10  C   UNL     1      -8.164  14.894  66.437  1.00  0.00     0.409 C  
HETATM   11  C   UNL     1      -6.111  15.521  67.474  1.00  0.00    -0.089 C  
HETATM   12  C   UNL     1      -8.397  13.834  67.545  1.00  0.00    -0.192 C  
HETATM   13  N   UNL     1      -7.180  13.360  68.246  1.00  0.00    -0.099 NA 
HETATM   14  C   UNL     1      -6.368  14.530  68.633  1.00  0.00    -0.086 C  
BRANCH  13  15
HETATM   15  C   UNL     1      -6.365  12.426  67.452  1.00  0.00    -0.157 C  
BRANCH  15  16
HETATM   16  C   UNL     1      -7.080  11.138  67.199  1.00  0.00    -0.113 C  
HETATM   17  C   UNL     1      -7.439  10.290  68.175  1.00  0.00    -0.086 C  
BRANCH  17  18
HETATM   18  C   UNL     1      -7.939   8.967  67.820  1.00  0.00    -0.102 A  
HETATM   19  C   UNL     1      -8.050   8.639  66.463  1.00  0.00    -0.103 A  
HETATM   20  C   UNL     1      -8.623   7.428  66.081  1.00  0.00    -0.154 A  
HETATM   21  C   UNL     1      -9.079   6.542  67.055  1.00  0.00    -0.133 A  
HETATM   22  C   UNL     1      -8.957   6.860  68.408  1.00  0.00    -0.121 A  
HETATM   23  C   UNL     1      -8.385   8.074  68.793  1.00  0.00    -0.127 A  
ENDBRANCH  17  18
ENDBRANCH  15  16
ENDBRANCH  13  15
ENDBRANCH   8   9
BRANCH   8  24
HETATM   24  C   UNL     1      -7.206  18.125  68.336  1.00  0.00    -0.264 A  
HETATM   25  C   UNL     1      -5.971  20.210  68.023  1.00  0.00    -0.270 A  
HETATM   26  F   UNL     1      -5.140  21.363  69.906  1.00  0.00    -0.410 F  
HETATM   27  C   UNL     1      -6.678  19.125  67.495  1.00  0.00    -0.214 A  
HETATM   28  C   UNL     1      -6.247  19.310  70.243  1.00  0.00    -0.148 A  
HETATM   29  C   UNL     1      -6.941  18.213  69.717  1.00  0.00     0.276 A  
HETATM   30  C   UNL     1      -5.777  20.301  69.394  1.00  0.00    -0.309 A  
ENDBRANCH   8  24
ENDBRANCH   5   8
TORSDOF 6
ENDMDL
MODEL      188
REMARK 921   NORMALIZED FREE ENERGY PREDICTED BY IDOCK:    4.04 KCAL/MOL
REMARK 922        TOTAL FREE ENERGY PREDICTED BY IDOCK:    5.27 KCAL/MOL
REMARK 923 INTER-LIGAND FREE ENERGY PREDICTED BY IDOCK:    1.82 KCAL/MOL
REMARK 924 INTRA-LIGAND FREE ENERGY PREDICTED BY IDOCK:    3.45 KCAL/MOL
REMARK 927      BINDING AFFINITY PREDICTED BY RF-SCORE:    0.00 PKD
ROOT
HETATM    1  F   UNL     1     -10.473  16.290  64.759  1.00  0.00    -0.331 F  
HETATM    2  C   UNL     1     -10.989  15.631  65.804  1.00  0.00    -0.248 A  
HETATM    3  C   UNL     1     -10.520  15.904  67.083  1.00  0.00    -0.313 A  
HETATM    4  C   UNL     1     -11.032  15.191  68.170  1.00  0.00    -0.287 A  
HETATM    5  C   UNL     1     -12.019  14.202  67.986  1.00  0.00    -0.372 A  
HETATM    6  C   UNL     1     -12.505  13.979  66.684  1.00  0.00    -0.296 A  
HETATM    7  C   UNL     1     -11.984  14.683  65.597  1.00  0.00    -0.243 A  
ENDROOT
BRANCH   5   8
HETATM    8  C   UNL     1     -12.553  13.414  69.192  1.00  0.00     0.446 C  
BRANCH   8   9
HETATM    9  N   UNL     1     -11.714  12.214  69.503  1.00  0.00    -0.321 NA 
HETATM   10  C   UNL     1     -10.526  12.558  70.332  1.00  0.00     2.924 C  
HETATM   11  C   UNL     1     -11.200  11.542  68.284  1.00  0.00    -0.261 C  
HETATM   12  C   UNL     1      -9.386  13.300  69.586  1.00  0.00     1.745 C  
HETATM   13  N   UNL     1      -8.938  12.678  68.318  1.00  0.00    -0.194 NA 
HETATM   14  C   UNL     1     -10.126  12.339  67.509  1.00  0.00    -0.201 C  
BRANCH  13  15
HETATM   15  C   UNL     1      -8.104  11.480  68.508  1.00  0.00    -0.146 C  
BRANCH  15  16
HETATM   16  C   UNL     1      -8.110  10.599  67.300  1.00  0.00    -0.116 C  
HETATM   17  C   UNL     1      -7.595   9.361  67.287  1.00  0.00    -0.091 C  
BRANCH  17  18
HETATM   18  C   UNL     1      -7.454   8.661  66.016  1.00  0.00    -0.085 A  
HETATM   19  C   UNL     1      -6.897   7.376  66.022  1.00  0.00    -0.057 A  
HETATM   20  C   UNL     1      -6.647   6.717  64.820  1.00  0.00    -0.042 A  
HETATM   21  C   UNL     1      -6.958   7.340  63.613  1.00  0.00    -0.062 A  
HETATM   22  C   UNL     1      -7.527   8.614  63.605  1.00  0.00    -0.110 A  
HETATM   23  C   UNL     1      -7.777   9.277  64.807  1.00  0.00    -0.111 A  
ENDBRANCH  17  18
ENDBRANCH  15  16
ENDBRANCH  13  15
ENDBRANCH   8   9
BRANCH   8  24
HETATM   24  C   UNL     1     -12.787  14.346  70.401  1.00  0.00    -0.301 A  
HETATM   25  C   UNL     1     -12.744  16.603  71.338  1.00  0.00     2.076 A  
HETATM   26  F   UNL     1     -13.699  17.000  73.458  1.00  0.00     0.274 F  
HETATM   27  C   UNL     1     -12.448  15.711  70.302  1.00  0.00    -0.369 A  
HETATM   28  C   UNL     1     -13.678  14.794  72.629  1.00  0.00    -0.547 A  
HETATM   29  C   UNL     1     -13.368  13.894  71.602  1.00  0.00    -0.437 A  
HETATM   30  C   UNL     1     -13.372  16.140  72.485  1.00  0.00    -0.101 A  
ENDBRANCH   8  24
ENDBRANCH   5   8
TORSDOF 6
ENDMDL
MODEL      189
REMARK 921   NORMALIZED FREE ENERGY PREDICTED BY IDOCK:    4.10 KCAL/MOL
REMARK 922        TOTAL FREE ENERGY PREDICTED BY IDOCK:    5.35 KCAL/MOL
REMARK 923 INTER-LIGAND FREE ENERGY PREDICTED BY IDOCK:    2.21 KCAL/MOL
REMARK 924 INTRA-LIGAND FREE ENERGY PREDICTED BY IDOCK:    3.13 KCAL/MOL
REMARK 927      BINDING AFFINITY PREDICTED BY RF-SCORE:    0.00 PKD
ROOT
HETATM    1  F   UNL     1     -10.713  14.572  62.712  1.00  0.00     3.814 F  
HETATM    2  C   UNL     1     -11.089  14.115  63.914  1.00  0.00     0.449 A  
HETATM    3  C   UNL     1     -10.237  14.266  65.000  1.00  0.00    -0.402 A  
HETATM    4  C   UNL     1     -10.612  13.757  66.245  1.00  0.00    -0.289 A  
HETATM    5  C   UNL     1     -11.846  13.096  66.414  1.00  0.00    -0.455 A  
HETATM    6  C   UNL     1     -12.707  12.997  65.305  1.00  0.00    -0.432 A  
HETATM    7  C   UNL     1     -12.325  13.495  64.058  1.00  0.00    -0.391 A  
ENDROOT
BRANCH   5   8
HETATM    8  C   UNL     1     -12.231  12.524  67.787  1.00  0.00     0.185 C  
BRANCH   8   9
HETATM    9  N   UNL     1     -11.538  11.230  68.078  1.00  0.00    -0.490 NA 
HETATM   10  C   UNL     1     -12.498  10.132  68.374  1.00  0.00     2.606 C  
HETATM   11  C   UNL     1     -10.621  11.319  69.241  1.00  0.00    -0.148 C  
HETATM   12  C   UNL     1     -13.183  10.205  69.764  1.00  0.00     1.033 C  
HETATM   13  N   UNL     1     -12.273  10.390  70.920  1.00  0.00    -0.349 NA 
HETATM   14  C   UNL     1     -11.324  11.477  70.609  1.00  0.00     0.603 C  
BRANCH  13  15
HETATM   15  C   UNL     1     -11.533   9.172  71.291  1.00  0.00    -0.335 C  
BRANCH  15  16
HETATM   16  C   UNL     1     -10.060   9.414  71.358  1.00  0.00    -0.263 C  
HETATM   17  C   UNL     1      -9.144   8.449  71.181  1.00  0.00    -0.217 C  
BRANCH  17  18
HETATM   18  C   UNL     1      -7.744   8.733  71.474  1.00  0.00    -0.139 A  
HETATM   19  C   UNL     1      -7.194   8.216  72.653  1.00  0.00    -0.127 A  
HETATM   20  C   UNL     1      -5.893   8.553  73.023  1.00  0.00    -0.078 A  
HETATM   21  C   UNL     1      -5.141   9.401  72.212  1.00  0.00    -0.075 A  
HETATM   22  C   UNL     1      -5.684   9.906  71.029  1.00  0.00    -0.085 A  
HETATM   23  C   UNL     1      -6.987   9.572  70.658  1.00  0.00    -0.121 A  
ENDBRANCH  17  18
ENDBRANCH  15  16
ENDBRANCH  13  15
ENDBRANCH   8   9
BRANCH   8  24
HETATM   24  C   UNL     1     -12.064  13.588  68.894  1.00  0.00    -0.315 A  
HETATM   25  C   UNL     1     -12.599  14.357  71.152  1.00  0.00    -0.422 A  
HETATM   26  F   UNL     1     -11.427  16.190  72.064  1.00  0.00    -0.463 F  
HETATM   27  C   UNL     1     -12.804  13.472  70.088  1.00  0.00     0.075 A  
HETATM   28  C   UNL     1     -10.946  15.537  69.852  1.00  0.00    -0.315 A  
HETATM   29  C   UNL     1     -11.160  14.664  68.777  1.00  0.00    -0.274 A  
HETATM   30  C   UNL     1     -11.659  15.371  71.030  1.00  0.00    -0.367 A  
ENDBRANCH   8  24
ENDBRANCH   5   8
TORSDOF 6
ENDMDL
MODEL      190
REMARK 921   NORMALIZED FREE ENERGY PREDICTED BY IDOCK:    5.78 KCAL/MOL
REMARK 922        TOTAL FREE ENERGY PREDICTED BY IDOCK:    7.62 KCAL/MOL
REMARK 923 INTER-LIGAND FREE ENERGY PREDICTED BY IDOCK:   -1.44 KCAL/MOL
REMARK 924 INTRA-LIGAND FREE ENERGY PREDICTED BY IDOCK:    9.05 KCAL/MOL
REMARK 927      BINDING AFFINITY PREDICTED BY RF-SCORE:    0.00 PKD
ROOT
HETATM    1  F   UNL     1      -5.433   8.716  72.942  1.00  0.00    -0.046 F  
HETATM    2  C   UNL     1      -6.667   8.548  72.450  1.00  0.00    -0.077 A  
HETATM    3  C   UNL     1      -7.152   9.438  71.500  1.00  0.00     0.190 A  
HETATM    4  C   UNL     1      -8.453   9.286  71.014  1.00  0.00    -0.150 A  
HETATM    5  C   UNL     1      -9.278   8.239  71.473  1.00  0.00    -0.231 A  
HETATM    6  C   UNL     1      -8.744   7.327  72.402  1.00  0.00    -0.138 A  
HETATM    7  C   UNL     1      -7.448   7.487  72.896  1.00  0.00    -0.095 A  
ENDROOT
BRANCH   5   8
HETATM    8  C   UNL     1     -10.713   8.101  70.941  1.00  0.00    -0.221 C  
BRANCH   8   9
HETATM    9  N   UNL     1     -11.393   9.426  70.795  1.00  0.00    -0.279 NA 
HETATM   10  C   UNL     1     -12.451   9.403  69.748  1.00  0.00     1.076 C  
HETATM   11  C   UNL     1     -10.454  10.515  70.426  1.00  0.00     0.198 C  
HETATM   12  C   UNL     1     -11.938   9.379  68.284  1.00  0.00     2.331 C  
HETATM   13  N   UNL     1     -10.928  10.408  67.941  1.00  0.00    -0.280 NA 
HETATM   14  C   UNL     1      -9.889  10.423  68.989  1.00  0.00    -0.212 C  
BRANCH  13  15
HETATM   15  C   UNL     1     -11.491  11.759  67.776  1.00  0.00    -0.311 C  
BRANCH  15  16
HETATM   16  C   UNL     1     -10.546  12.817  68.244  1.00  0.00    -0.251 C  
HETATM   17  C   UNL     1     -10.894  14.105  68.390  1.00  0.00    -0.266 C  
BRANCH  17  18
HETATM   18  C   UNL     1      -9.857  15.098  68.645  1.00  0.00    -0.218 A  
HETATM   19  C   UNL     1     -10.185  16.453  68.505  1.00  0.00    -0.257 A  
HETATM   20  C   UNL     1      -9.198  17.427  68.634  1.00  0.00    -0.265 A  
HETATM   21  C   UNL     1      -7.885  17.049  68.908  1.00  0.00    -0.224 A  
HETATM   22  C   UNL     1      -7.559  15.701  69.062  1.00  0.00    -0.187 A  
HETATM   23  C   UNL     1      -8.545  14.722  68.931  1.00  0.00    -0.160 A  
ENDBRANCH  17  18
ENDBRANCH  15  16
ENDBRANCH  13  15
ENDBRANCH   8   9
BRANCH   8  24
HETATM   24  C   UNL     1     -10.748   7.233  69.664  1.00  0.00    -0.249 A  
HETATM   25  C   UNL     1     -10.617   7.094  67.228  1.00  0.00    -0.398 A  
HETATM   26  F   UNL     1     -10.479   4.980  66.190  1.00  0.00    -0.239 F  
HETATM   27  C   UNL     1     -10.694   7.854  68.400  1.00  0.00    -0.073 A  
HETATM   28  C   UNL     1     -10.695   5.069  68.534  1.00  0.00     0.269 A  
HETATM   29  C   UNL     1     -10.791   5.825  69.710  1.00  0.00    -0.419 A  
HETATM   30  C   UNL     1     -10.601   5.709  67.307  1.00  0.00    -0.254 A  
ENDBRANCH   8  24
ENDBRANCH   5   8
TORSDOF 6
ENDMDL
MODEL      191
REMARK 921   NORMALIZED FREE ENERGY PREDICTED BY IDOCK:    7.18 KCAL/MOL
REMARK 922        TOTAL FREE ENERGY PREDICTED BY IDOCK:    9.51 KCAL/MOL
REMARK 923 INTER-LIGAND FREE ENERGY PREDICTED BY IDOCK:    0.16 KCAL/MOL
REMARK 924 INTRA-LIGAND FREE ENERGY PREDICTED BY IDOCK:    9.34 KCAL/MOL
REMARK 927      BINDING AFFINITY PREDICTED BY RF-SCORE:    0.00 PKD
ROOT
HETATM    1  F   UNL     1     -10.604   9.391  62.959  1.00  0.00     2.149 F  
HETATM    2  C   UNL     1      -9.705   9.316  63.950  1.00  0.00     1.220 A  
HETATM    3  C   UNL     1     -10.126   9.452  65.267  1.00  0.00     0.277 A  
HETATM    4  C   UNL     1      -9.184   9.412  66.297  1.00  0.00    -0.229 A  
HETATM    5  C   UNL     1      -7.814   9.231  66.018  1.00  0.00    -0.102 A  
HETATM    6  C   UNL     1      -7.424   9.052  64.678  1.00  0.00    -0.103 A  
HETATM    7  C   UNL     1      -8.365   9.105  63.648  1.00  0.00    -0.187 A  
ENDROOT
BRANCH   5   8
HETATM    8  C   UNL     1      -6.792   9.211  67.165  1.00  0.00    -0.080 C  
BRANCH   8   9
HETATM    9  N   UNL     1      -7.145  10.171  68.257  1.00  0.00    -0.075 NA 
HETATM   10  C   UNL     1      -8.340   9.730  69.028  1.00  0.00    -0.127 C  
HETATM   11  C   UNL     1      -7.445  11.532  67.750  1.00  0.00    -0.101 C  
HETATM   12  C   UNL     1      -9.699   9.889  68.297  1.00  0.00    -0.144 C  
HETATM   13  N   UNL     1      -9.958  11.224  67.706  1.00  0.00    -0.174 NA 
HETATM   14  C   UNL     1      -8.764  11.650  66.950  1.00  0.00    -0.185 C  
BRANCH  13  15
HETATM   15  C   UNL     1     -10.313  12.252  68.699  1.00  0.00    -0.188 C  
BRANCH  15  16
HETATM   16  C   UNL     1      -9.738  13.586  68.350  1.00  0.00    -0.207 C  
HETATM   17  C   UNL     1     -10.012  14.231  67.205  1.00  0.00    -0.252 C  
BRANCH  17  18
HETATM   18  C   UNL     1      -9.244  15.420  66.856  1.00  0.00    -0.254 A  
HETATM   19  C   UNL     1      -8.035  15.652  67.524  1.00  0.00    -0.184 A  
HETATM   20  C   UNL     1      -7.325  16.829  67.298  1.00  0.00    -0.206 A  
HETATM   21  C   UNL     1      -7.821  17.773  66.400  1.00  0.00    -0.312 A  
HETATM   22  C   UNL     1      -9.019  17.538  65.723  1.00  0.00     0.246 A  
HETATM   23  C   UNL     1      -9.732  16.360  65.949  1.00  0.00    -0.327 A  
ENDBRANCH  17  18
ENDBRANCH  15  16
ENDBRANCH  13  15
ENDBRANCH   8   9
BRANCH   8  24
HETATM   24  C   UNL     1      -6.540   7.768  67.655  1.00  0.00    -0.063 A  
HETATM   25  C   UNL     1      -6.190   6.224  69.517  1.00  0.00    -0.033 A  
HETATM   26  F   UNL     1      -6.207   3.899  69.118  1.00  0.00    -0.025 F  
HETATM   27  C   UNL     1      -6.315   7.528  69.025  1.00  0.00    -0.039 A  
HETATM   28  C   UNL     1      -6.457   5.356  67.283  1.00  0.00    -0.051 A  
HETATM   29  C   UNL     1      -6.566   6.660  66.783  1.00  0.00    -0.048 A  
HETATM   30  C   UNL     1      -6.279   5.150  68.644  1.00  0.00    -0.031 A  
ENDBRANCH   8  24
ENDBRANCH   5   8
TORSDOF 6
ENDMDL
MODEL      192
REMARK 921   NORMALIZED FREE ENERGY PREDICTED BY IDOCK:    7.43 KCAL/MOL
REMARK 922        TOTAL FREE ENERGY PREDICTED BY IDOCK:    9.84 KCAL/MOL
REMARK 923 INTER-LIGAND FREE ENERGY PREDICTED BY IDOCK:   -0.93 KCAL/MOL
REMARK 924 INTRA-LIGAND FREE ENERGY PREDICTED BY IDOCK:   10.77 KCAL/MOL
REMARK 927      BINDING AFFINITY PREDICTED BY RF-SCORE:    0.00 PKD
ROOT
HETATM    1  F   UNL     1      -9.895   8.925  64.176  1.00  0.00     0.637 F  
HETATM    2  C   UNL     1      -9.945   9.693  65.272  1.00  0.00    -0.089 A  
HETATM    3  C   UNL     1      -9.560  11.026  65.192  1.00  0.00    -0.281 A  
HETATM    4  C   UNL     1      -9.575  11.818  66.342  1.00  0.00    -0.234 A  
HETATM    5  C   UNL     1      -9.980  11.283  67.582  1.00  0.00    -0.197 A  
HETATM    6  C   UNL     1     -10.407   9.942  67.624  1.00  0.00    -0.275 A  
HETATM    7  C   UNL     1     -10.378   9.149  66.475  1.00  0.00    -0.269 A  
ENDROOT
BRANCH   5   8
HETATM    8  C   UNL     1      -9.971  12.165  68.840  1.00  0.00     0.043 C  
BRANCH   8   9
HETATM    9  N   UNL     1     -10.112  13.619  68.514  1.00  0.00    -0.232 NA 
HETATM   10  C   UNL     1     -10.343  14.448  69.729  1.00  0.00     0.227 C  
HETATM   11  C   UNL     1     -11.240  13.893  67.591  1.00  0.00    -0.295 C  
HETATM   12  C   UNL     1     -11.761  14.337  70.349  1.00  0.00    -0.262 C  
HETATM   13  N   UNL     1     -12.890  14.516  69.407  1.00  0.00     0.244 NA 
HETATM   14  C   UNL     1     -12.644  13.693  68.206  1.00  0.00     0.656 C  
BRANCH  13  15
HETATM   15  C   UNL     1     -13.117  15.917  69.014  1.00  0.00     2.001 C  
BRANCH  15  16
HETATM   16  C   UNL     1     -11.849  16.708  69.015  1.00  0.00     0.445 C  
HETATM   17  C   UNL     1     -11.169  17.015  67.899  1.00  0.00     0.015 C  
BRANCH  17  18
HETATM   18  C   UNL     1      -9.839  17.602  68.014  1.00  0.00    -0.310 A  
HETATM   19  C   UNL     1      -8.841  16.866  68.665  1.00  0.00    -0.262 A  
HETATM   20  C   UNL     1      -7.589  17.434  68.890  1.00  0.00    -0.224 A  
HETATM   21  C   UNL     1      -7.332  18.734  68.460  1.00  0.00    -0.324 A  
HETATM   22  C   UNL     1      -8.321  19.464  67.798  1.00  0.00    -0.340 A  
HETATM   23  C   UNL     1      -9.577  18.898  67.573  1.00  0.00    -0.347 A  
ENDBRANCH  17  18
ENDBRANCH  15  16
ENDBRANCH  13  15
ENDBRANCH   8   9
BRANCH   8  24
HETATM   24  C   UNL     1     -10.991  11.654  69.881  1.00  0.00     0.104 A  
HETATM   25  C   UNL     1     -11.623   9.969  71.535  1.00  0.00    -0.300 A  
HETATM   26  F   UNL     1     -13.478  10.357  72.939  1.00  0.00     0.009 F  
HETATM   27  C   UNL     1     -10.777  10.412  70.513  1.00  0.00    -0.096 A  
HETATM   28  C   UNL     1     -12.956  11.964  71.297  1.00  0.00    -0.334 A  
HETATM   29  C   UNL     1     -12.123  12.404  70.261  1.00  0.00    -0.377 A  
HETATM   30  C   UNL     1     -12.695  10.757  71.929  1.00  0.00    -0.263 A  
ENDBRANCH   8  24
ENDBRANCH   5   8
TORSDOF 6
ENDMDL
MODEL      193
REMARK 921   NORMALIZED FREE ENERGY PREDICTED BY IDOCK:    8.99 KCAL/MOL
REMARK 922        TOTAL FREE ENERGY PREDICTED BY IDOCK:   11.95 KCAL/MOL
REMARK 923 INTER-LIGAND FREE ENERGY PREDICTED BY IDOCK:    4.73 KCAL/MOL
REMARK 924 INTRA-LIGAND FREE ENERGY PREDICTED BY IDOCK:    7.22 KCAL/MOL
REMARK 927      BINDING AFFINITY PREDICTED BY RF-SCORE:    0.00 PKD
ROOT
HETATM    1  F   UNL     1     -12.676   4.270  71.813  1.00  0.00     3.146 F  
HETATM    2  C   UNL     1     -11.747   4.935  71.113  1.00  0.00     2.260 A  
HETATM    3  C   UNL     1     -12.016   6.224  70.672  1.00  0.00    -0.091 A  
HETATM    4  C   UNL     1     -11.064   6.904  69.910  1.00  0.00    -0.333 A  
HETATM    5  C   UNL     1      -9.832   6.299  69.586  1.00  0.00    -0.192 A  
HETATM    6  C   UNL     1      -9.570   5.010  70.084  1.00  0.00    -0.257 A  
HETATM    7  C   UNL     1     -10.528   4.326  70.835  1.00  0.00     0.267 A  
ENDROOT
BRANCH   5   8
HETATM    8  C   UNL     1      -8.806   7.056  68.728  1.00  0.00    -0.129 C  
BRANCH   8   9
HETATM    9  N   UNL     1      -7.781   7.762  69.561  1.00  0.00    -0.103 NA 
HETATM   10  C   UNL     1      -6.683   6.854  69.990  1.00  0.00    -0.052 C  
HETATM   11  C   UNL     1      -8.353   8.351  70.797  1.00  0.00    -0.130 C  
HETATM   12  C   UNL     1      -7.054   5.842  71.106  1.00  0.00    -0.073 C  
HETATM   13  N   UNL     1      -7.713   6.419  72.302  1.00  0.00    -0.098 NA 
HETATM   14  C   UNL     1      -8.796   7.320  71.861  1.00  0.00    -0.122 C  
BRANCH  13  15
HETATM   15  C   UNL     1      -6.792   7.143  73.194  1.00  0.00    -0.069 C  
BRANCH  15  16
HETATM   16  C   UNL     1      -6.720   8.598  72.858  1.00  0.00    -0.023 C  
HETATM   17  C   UNL     1      -6.087   9.074  71.775  1.00  0.00    -0.075 C  
BRANCH  17  18
HETATM   18  C   UNL     1      -5.886  10.512  71.642  1.00  0.00     0.368 A  
HETATM   19  C   UNL     1      -5.242  11.193  72.683  1.00  0.00     0.494 A  
HETATM   20  C   UNL     1      -5.126  12.581  72.644  1.00  0.00     0.249 A  
HETATM   21  C   UNL     1      -5.650  13.288  71.563  1.00  0.00    -0.060 A  
HETATM   22  C   UNL     1      -6.280  12.610  70.518  1.00  0.00     0.211 A  
HETATM   23  C   UNL     1      -6.398  11.220  70.555  1.00  0.00     0.116 A  
ENDBRANCH  17  18
ENDBRANCH  15  16
ENDBRANCH  13  15
ENDBRANCH   8   9
BRANCH   8  24
HETATM   24  C   UNL     1      -8.206   6.135  67.643  1.00  0.00    -0.113 A  
HETATM   25  C   UNL     1      -8.222   3.981  66.489  1.00  0.00    -0.101 A  
HETATM   26  F   UNL     1      -6.919   3.694  64.544  1.00  0.00    -0.045 F  
HETATM   27  C   UNL     1      -8.666   4.808  67.527  1.00  0.00    -0.104 A  
HETATM   28  C   UNL     1      -6.806   5.756  65.679  1.00  0.00    -0.056 A  
HETATM   29  C   UNL     1      -7.234   6.583  66.726  1.00  0.00    -0.077 A  
HETATM   30  C   UNL     1      -7.309   4.468  65.565  1.00  0.00    -0.080 A  
ENDBRANCH   8  24
ENDBRANCH   5   8
TORSDOF 6
ENDMDL
MODEL      194
REMARK 921   NORMALIZED FREE ENERGY PREDICTED BY IDOCK:    9.53 KCAL/MOL
REMARK 922        TOTAL FREE ENERGY PREDICTED BY IDOCK:   12.68 KCAL/MOL
REMARK 923 INTER-LIGAND FREE ENERGY PREDICTED BY IDOCK:    9.17 KCAL/MOL
REMARK 924 INTRA-LIGAND FREE ENERGY PREDICTED BY IDOCK:    3.51 KCAL/MOL
REMARK 927      BINDING AFFINITY PREDICTED BY RF-SCORE:    0.00 PKD
ROOT
HETATM    1  F   UNL     1     -14.128  16.564  67.084  1.00  0.00     5.812 F  
HETATM    2  C   UNL     1     -12.881  16.367  67.531  1.00  0.00     3.666 A  
HETATM    3  C   UNL     1     -12.526  16.828  68.792  1.00  0.00     2.245 A  
HETATM    4  C   UNL     1     -11.216  16.657  69.244  1.00  0.00    -0.123 A  
HETATM    5  C   UNL     1     -10.251  16.019  68.437  1.00  0.00    -0.236 A  
HETATM    6  C   UNL     1     -10.652  15.523  67.183  1.00  0.00    -0.300 A  
HETATM    7  C   UNL     1     -11.959  15.706  66.728  1.00  0.00     0.690 A  
ENDROOT
BRANCH   5   8
HETATM    8  C   UNL     1      -8.809  15.859  68.945  1.00  0.00    -0.225 C  
BRANCH   8   9
HETATM    9  N   UNL     1      -8.397  14.423  69.039  1.00  0.00    -0.075 NA 
HETATM   10  C   UNL     1      -7.187  14.240  69.885  1.00  0.00     0.185 C  
HETATM   11  C   UNL     1      -8.085  13.828  67.716  1.00  0.00    -0.176 C  
HETATM   12  C   UNL     1      -5.850  14.696  69.243  1.00  0.00    -0.101 C  
HETATM   13  N   UNL     1      -5.583  14.177  67.881  1.00  0.00    -0.230 NA 
HETATM   14  C   UNL     1      -6.793  14.360  67.055  1.00  0.00     0.736 C  
BRANCH  13  15
HETATM   15  C   UNL     1      -5.171  12.763  67.856  1.00  0.00    -0.100 C  
BRANCH  15  16
HETATM   16  C   UNL     1      -6.288  11.865  67.432  1.00  0.00    -0.128 C  
HETATM   17  C   UNL     1      -6.623  10.743  68.088  1.00  0.00    -0.062 C  
BRANCH  17  18
HETATM   18  C   UNL     1      -7.580   9.824  67.485  1.00  0.00    -0.091 A  
HETATM   19  C   UNL     1      -7.127   8.953  66.486  1.00  0.00    -0.084 A  
HETATM   20  C   UNL     1      -8.030   8.134  65.810  1.00  0.00    -0.105 A  
HETATM   21  C   UNL     1      -9.384   8.183  66.135  1.00  0.00    -0.232 A  
HETATM   22  C   UNL     1      -9.836   9.041  67.140  1.00  0.00    -0.262 A  
HETATM   23  C   UNL     1      -8.934   9.862  67.817  1.00  0.00    -0.134 A  
ENDBRANCH  17  18
ENDBRANCH  15  16
ENDBRANCH  13  15
ENDBRANCH   8   9
BRANCH   8  24
HETATM   24  C   UNL     1      -7.836  16.739  68.129  1.00  0.00    -0.182 A  
HETATM   25  C   UNL     1      -7.252  17.788  66.001  1.00  0.00    -0.322 A  
HETATM   26  F   UNL     1      -5.494  19.359  65.923  1.00  0.00    -0.157 F  
HETATM   27  C   UNL     1      -8.050  16.915  66.747  1.00  0.00    -0.276 A  
HETATM   28  C   UNL     1      -5.967  18.302  67.975  1.00  0.00    -0.169 A  
HETATM   29  C   UNL     1      -6.751  17.415  68.723  1.00  0.00    -0.219 A  
HETATM   30  C   UNL     1      -6.229  18.486  66.625  1.00  0.00    -0.171 A  
ENDBRANCH   8  24
ENDBRANCH   5   8
TORSDOF 6
ENDMDL
MODEL      195
REMARK 921   NORMALIZED FREE ENERGY PREDICTED BY IDOCK:    9.74 KCAL/MOL
REMARK 922        TOTAL FREE ENERGY PREDICTED BY IDOCK:   12.96 KCAL/MOL
REMARK 923 INTER-LIGAND FREE ENERGY PREDICTED BY IDOCK:    7.54 KCAL/MOL
REMARK 924 INTRA-LIGAND FREE ENERGY PREDICTED BY IDOCK:    5.42 KCAL/MOL
REMARK 927      BINDING AFFINITY PREDICTED BY RF-SCORE:    0.00 PKD
ROOT
HETATM    1  F   UNL     1     -14.059  16.502  67.113  1.00  0.00     5.812 F  
HETATM    2  C   UNL     1     -12.810  16.218  67.503  1.00  0.00     3.455 A  
HETATM    3  C   UNL     1     -12.372  16.640  68.753  1.00  0.00     1.550 A  
HETATM    4  C   UNL     1     -11.057  16.378  69.145  1.00  0.00    -0.303 A  
HETATM    5  C   UNL     1     -10.172  15.688  68.292  1.00  0.00    -0.223 A  
HETATM    6  C   UNL     1     -10.657  15.235  67.052  1.00  0.00    -0.306 A  
HETATM    7  C   UNL     1     -11.967  15.509  66.655  1.00  0.00     0.568 A  
ENDROOT
BRANCH   5   8
HETATM    8  C   UNL     1      -8.723  15.428  68.735  1.00  0.00    -0.195 C  
BRANCH   8   9
HETATM    9  N   UNL     1      -8.426  13.968  68.872  1.00  0.00    -0.027 NA 
HETATM   10  C   UNL     1      -7.545  13.468  67.781  1.00  0.00    -0.162 C  
HETATM   11  C   UNL     1      -9.649  13.128  68.849  1.00  0.00     0.216 C  
HETATM   12  C   UNL     1      -8.226  13.311  66.396  1.00  0.00     0.752 C  
HETATM   13  N   UNL     1      -9.499  12.553  66.388  1.00  0.00    -0.240 NA 
HETATM   14  C   UNL     1     -10.359  13.056  67.478  1.00  0.00    -0.224 C  
BRANCH  13  15
HETATM   15  C   UNL     1      -9.323  11.097  66.522  1.00  0.00    -0.180 C  
BRANCH  15  16
HETATM   16  C   UNL     1      -9.698  10.614  67.886  1.00  0.00    -0.177 C  
HETATM   17  C   UNL     1     -10.318   9.446  68.110  1.00  0.00    -0.255 C  
BRANCH  17  18
HETATM   18  C   UNL     1     -10.833   9.156  69.443  1.00  0.00    -0.165 A  
HETATM   19  C   UNL     1     -10.101   8.292  70.266  1.00  0.00    -0.195 A  
HETATM   20  C   UNL     1     -10.612   7.905  71.503  1.00  0.00    -0.262 A  
HETATM   21  C   UNL     1     -11.851   8.387  71.920  1.00  0.00    -0.398 A  
HETATM   22  C   UNL     1     -12.576   9.260  71.107  1.00  0.00    -0.324 A  
HETATM   23  C   UNL     1     -12.067   9.648  69.867  1.00  0.00     0.235 A  
ENDBRANCH  17  18
ENDBRANCH  15  16
ENDBRANCH  13  15
ENDBRANCH   8   9
BRANCH   8  24
HETATM   24  C   UNL     1      -7.726  16.189  67.835  1.00  0.00    -0.148 A  
HETATM   25  C   UNL     1      -7.341  17.822  66.057  1.00  0.00    -0.307 A  
HETATM   26  F   UNL     1      -5.143  18.546  65.599  1.00  0.00    -0.148 F  
HETATM   27  C   UNL     1      -8.212  17.037  66.819  1.00  0.00    -0.273 A  
HETATM   28  C   UNL     1      -5.463  16.904  67.259  1.00  0.00    -0.178 A  
HETATM   29  C   UNL     1      -6.330  16.103  68.013  1.00  0.00    -0.145 A  
HETATM   30  C   UNL     1      -5.975  17.761  66.296  1.00  0.00    -0.209 A  
ENDBRANCH   8  24
ENDBRANCH   5   8
TORSDOF 6
ENDMDL
MODEL      196
REMARK 921   NORMALIZED FREE ENERGY PREDICTED BY IDOCK:   17.15 KCAL/MOL
REMARK 922        TOTAL FREE ENERGY PREDICTED BY IDOCK:   22.98 KCAL/MOL
REMARK 923 INTER-LIGAND FREE ENERGY PREDICTED BY IDOCK:   20.14 KCAL/MOL
REMARK 924 INTRA-LIGAND FREE ENERGY PREDICTED BY IDOCK:    2.83 KCAL/MOL
REMARK 927      BINDING AFFINITY PREDICTED BY RF-SCORE:    0.00 PKD
ROOT
HETATM    1  F   UNL     1     -11.280   8.805  62.809  1.00  0.00     7.374 F  
HETATM    2  C   UNL     1     -10.401   8.528  63.781  1.00  0.00     6.731 A  
HETATM    3  C   UNL     1     -10.832   8.486  65.101  1.00  0.00     5.460 A  
HETATM    4  C   UNL     1      -9.909   8.235  66.119  1.00  0.00    -0.138 A  
HETATM    5  C   UNL     1      -8.548   8.020  65.823  1.00  0.00    -0.174 A  
HETATM    6  C   UNL     1      -8.149   8.025  64.474  1.00  0.00    -0.132 A  
HETATM    7  C   UNL     1      -9.070   8.289  63.458  1.00  0.00     1.081 A  
ENDROOT
BRANCH   5   8
HETATM    8  C   UNL     1      -7.544   7.766  66.959  1.00  0.00    -0.100 C  
BRANCH   8   9
HETATM    9  N   UNL     1      -8.167   7.921  68.311  1.00  0.00    -0.123 NA 
HETATM   10  C   UNL     1      -8.832   9.243  68.476  1.00  0.00    -0.129 C  
HETATM   11  C   UNL     1      -7.183   7.800  69.414  1.00  0.00    -0.080 C  
HETATM   12  C   UNL     1      -7.875  10.451  68.656  1.00  0.00    -0.108 C  
HETATM   13  N   UNL     1      -6.829  10.291  69.695  1.00  0.00    -0.079 NA 
HETATM   14  C   UNL     1      -6.183   8.975  69.522  1.00  0.00    -0.040 C  
BRANCH  13  15
HETATM   15  C   UNL     1      -7.336  10.422  71.071  1.00  0.00     1.422 C  
BRANCH  15  16
HETATM   16  C   UNL     1      -8.576   9.617  71.287  1.00  0.00     0.695 C  
HETATM   17  C   UNL     1      -8.564   8.325  71.649  1.00  0.00    -0.202 C  
BRANCH  17  18
HETATM   18  C   UNL     1      -9.809   7.567  71.628  1.00  0.00    -0.185 A  
HETATM   19  C   UNL     1      -9.736   6.168  71.630  1.00  0.00    -0.177 A  
HETATM   20  C   UNL     1     -10.897   5.408  71.502  1.00  0.00    -0.218 A  
HETATM   21  C   UNL     1     -12.130   6.045  71.378  1.00  0.00     0.177 A  
HETATM   22  C   UNL     1     -12.206   7.439  71.390  1.00  0.00    -0.374 A  
HETATM   23  C   UNL     1     -11.045   8.203  71.516  1.00  0.00    -0.302 A  
ENDBRANCH  17  18
ENDBRANCH  15  16
ENDBRANCH  13  15
ENDBRANCH   8   9
BRANCH   8  24
HETATM   24  C   UNL     1      -6.810   6.422  66.757  1.00  0.00    -0.066 A  
HETATM   25  C   UNL     1      -6.556   4.068  67.363  1.00  0.00    -0.046 A  
HETATM   26  F   UNL     1      -5.155   2.680  66.069  1.00  0.00    -0.004 F  
HETATM   27  C   UNL     1      -7.124   5.327  67.587  1.00  0.00    -0.067 A  
HETATM   28  C   UNL     1      -5.303   4.963  65.507  1.00  0.00    -0.013 A  
HETATM   29  C   UNL     1      -5.856   6.230  65.738  1.00  0.00    -0.025 A  
HETATM   30  C   UNL     1      -5.664   3.894  66.315  1.00  0.00    -0.018 A  
ENDBRANCH   8  24
ENDBRANCH   5   8
TORSDOF 6
ENDMDL
MODEL      197
REMARK 921   NORMALIZED FREE ENERGY PREDICTED BY IDOCK:   17.53 KCAL/MOL
REMARK 922        TOTAL FREE ENERGY PREDICTED BY IDOCK:   23.49 KCAL/MOL
REMARK 923 INTER-LIGAND FREE ENERGY PREDICTED BY IDOCK:   18.38 KCAL/MOL
REMARK 924 INTRA-LIGAND FREE ENERGY PREDICTED BY IDOCK:    5.10 KCAL/MOL
REMARK 927      BINDING AFFINITY PREDICTED BY RF-SCORE:    0.00 PKD
ROOT
HETATM    1  F   UNL     1     -11.280   8.805  62.809  1.00  0.00     7.374 F  
HETATM    2  C   UNL     1     -10.401   8.528  63.781  1.00  0.00     6.731 A  
HETATM    3  C   UNL     1     -10.832   8.486  65.101  1.00  0.00     5.460 A  
HETATM    4  C   UNL     1      -9.909   8.235  66.119  1.00  0.00    -0.138 A  
HETATM    5  C   UNL     1      -8.548   8.020  65.823  1.00  0.00    -0.174 A  
HETATM    6  C   UNL     1      -8.149   8.025  64.474  1.00  0.00    -0.132 A  
HETATM    7  C   UNL     1      -9.070   8.289  63.458  1.00  0.00     1.081 A  
ENDROOT
BRANCH   5   8
HETATM    8  C   UNL     1      -7.544   7.766  66.959  1.00  0.00    -0.100 C  
BRANCH   8   9
HETATM    9  N   UNL     1      -8.167   7.921  68.311  1.00  0.00    -0.123 NA 
HETATM   10  C   UNL     1      -7.940   9.277  68.883  1.00  0.00    -0.098 C  
HETATM   11  C   UNL     1      -7.642   6.949  69.300  1.00  0.00    -0.096 C  
HETATM   12  C   UNL     1      -6.501   9.550  69.393  1.00  0.00    -0.044 C  
HETATM   13  N   UNL     1      -5.939   8.528  70.307  1.00  0.00    -0.027 NA 
HETATM   14  C   UNL     1      -6.176   7.190  69.730  1.00  0.00    -0.031 C  
BRANCH  13  15
HETATM   15  C   UNL     1      -6.488   8.588  71.672  1.00  0.00    -0.067 C  
BRANCH  15  16
HETATM   16  C   UNL     1      -7.387   7.430  71.962  1.00  0.00    -0.072 C  
HETATM   17  C   UNL     1      -6.937   6.190  72.210  1.00  0.00    -0.075 C  
BRANCH  17  18
HETATM   18  C   UNL     1      -7.887   5.086  72.270  1.00  0.00    -0.100 A  
HETATM   19  C   UNL     1      -9.245   5.365  72.075  1.00  0.00    -0.152 A  
HETATM   20  C   UNL     1     -10.195   4.358  72.231  1.00  0.00    -0.255 A  
HETATM   21  C   UNL     1      -9.787   3.071  72.577  1.00  0.00    -0.219 A  
HETATM   22  C   UNL     1      -8.433   2.787  72.758  1.00  0.00    -0.071 A  
HETATM   23  C   UNL     1      -7.479   3.794  72.604  1.00  0.00    -0.060 A  
ENDBRANCH  17  18
ENDBRANCH  15  16
ENDBRANCH  13  15
ENDBRANCH   8   9
BRANCH   8  24
HETATM   24  C   UNL     1      -6.810   6.422  66.757  1.00  0.00    -0.066 A  
HETATM   25  C   UNL     1      -6.056   4.292  67.689  1.00  0.00    -0.031 A  
HETATM   26  F   UNL     1      -5.169   2.645  66.253  1.00  0.00    -0.004 F  
HETATM   27  C   UNL     1      -6.622   5.561  67.857  1.00  0.00    -0.053 A  
HETATM   28  C   UNL     1      -5.800   4.718  65.329  1.00  0.00    -0.018 A  
HETATM   29  C   UNL     1      -6.350   5.996  65.495  1.00  0.00    -0.038 A  
HETATM   30  C   UNL     1      -5.667   3.876  66.423  1.00  0.00    -0.018 A  
ENDBRANCH   8  24
ENDBRANCH   5   8
TORSDOF 6
ENDMDL
MODEL      198
REMARK 921   NORMALIZED FREE ENERGY PREDICTED BY IDOCK:   17.97 KCAL/MOL
REMARK 922        TOTAL FREE ENERGY PREDICTED BY IDOCK:   24.07 KCAL/MOL
REMARK 923 INTER-LIGAND FREE ENERGY PREDICTED BY IDOCK:   14.78 KCAL/MOL
REMARK 924 INTRA-LIGAND FREE ENERGY PREDICTED BY IDOCK:    9.29 KCAL/MOL
REMARK 927      BINDING AFFINITY PREDICTED BY RF-SCORE:    0.00 PKD
ROOT
HETATM    1  F   UNL     1     -11.954  12.200  63.564  1.00  0.00    -0.479 F  
HETATM    2  C   UNL     1     -10.939  11.335  63.437  1.00  0.00    -0.171 A  
HETATM    3  C   UNL     1     -11.209   9.988  63.234  1.00  0.00     4.232 A  
HETATM    4  C   UNL     1     -10.152   9.080  63.139  1.00  0.00     3.595 A  
HETATM    5  C   UNL     1      -8.815   9.515  63.244  1.00  0.00    -0.233 A  
HETATM    6  C   UNL     1      -8.571  10.892  63.405  1.00  0.00    -0.020 A  
HETATM    7  C   UNL     1      -9.629  11.796  63.513  1.00  0.00    -0.241 A  
ENDROOT
BRANCH   5   8
HETATM    8  C   UNL     1      -7.666   8.498  63.158  1.00  0.00    -0.133 C  
BRANCH   8   9
HETATM    9  N   UNL     1      -6.379   9.049  63.685  1.00  0.00    -0.088 NA 
HETATM   10  C   UNL     1      -6.328   9.034  65.173  1.00  0.00    -0.061 C  
HETATM   11  C   UNL     1      -6.141  10.453  63.266  1.00  0.00    -0.122 C  
HETATM   12  C   UNL     1      -7.204  10.103  65.879  1.00  0.00    -0.121 C  
HETATM   13  N   UNL     1      -7.036  11.493  65.394  1.00  0.00     0.914 NA 
HETATM   14  C   UNL     1      -7.083  11.492  63.918  1.00  0.00     2.341 C  
BRANCH  13  15
HETATM   15  C   UNL     1      -5.792  12.135  65.853  1.00  0.00     2.023 C  
BRANCH  15  16
HETATM   16  C   UNL     1      -5.956  12.768  67.196  1.00  0.00     0.110 C  
HETATM   17  C   UNL     1      -5.653  12.148  68.347  1.00  0.00    -0.054 C  
BRANCH  17  18
HETATM   18  C   UNL     1      -6.044  12.760  69.611  1.00  0.00    -0.126 A  
HETATM   19  C   UNL     1      -7.181  13.578  69.631  1.00  0.00     0.376 A  
HETATM   20  C   UNL     1      -7.526  14.267  70.792  1.00  0.00     1.703 A  
HETATM   21  C   UNL     1      -6.737  14.135  71.934  1.00  0.00     1.912 A  
HETATM   22  C   UNL     1      -5.612  13.310  71.920  1.00  0.00     0.111 A  
HETATM   23  C   UNL     1      -5.263  12.620  70.758  1.00  0.00    -0.152 A  
ENDBRANCH  17  18
ENDBRANCH  15  16
ENDBRANCH  13  15
ENDBRANCH   8   9
BRANCH   8  24
HETATM   24  C   UNL     1      -8.076   7.148  63.788  1.00  0.00    -0.000 A  
HETATM   25  C   UNL     1      -9.094   5.934  65.649  1.00  0.00    -0.058 A  
HETATM   26  F   UNL     1      -9.531   3.627  65.430  1.00  0.00    -0.140 F  
HETATM   27  C   UNL     1      -8.615   7.124  65.090  1.00  0.00     0.053 A  
HETATM   28  C   UNL     1      -8.466   4.742  63.649  1.00  0.00    -0.128 A  
HETATM   29  C   UNL     1      -7.969   5.927  63.091  1.00  0.00    -0.108 A  
HETATM   30  C   UNL     1      -9.031   4.758  64.916  1.00  0.00    -0.151 A  
ENDBRANCH   8  24
ENDBRANCH   5   8
TORSDOF 6
ENDMDL
MODEL      199
REMARK 921   NORMALIZED FREE ENERGY PREDICTED BY IDOCK:   18.21 KCAL/MOL
REMARK 922        TOTAL FREE ENERGY PREDICTED BY IDOCK:   24.40 KCAL/MOL
REMARK 923 INTER-LIGAND FREE ENERGY PREDICTED BY IDOCK:   19.56 KCAL/MOL
REMARK 924 INTRA-LIGAND FREE ENERGY PREDICTED BY IDOCK:    4.84 KCAL/MOL
REMARK 927      BINDING AFFINITY PREDICTED BY RF-SCORE:    0.00 PKD
ROOT
HETATM    1  F   UNL     1      -9.382  16.552  63.282  1.00  0.00     8.594 F  
HETATM    2  C   UNL     1     -10.162  16.351  64.352  1.00  0.00     1.982 A  
HETATM    3  C   UNL     1      -9.640  16.542  65.625  1.00  0.00    -0.063 A  
HETATM    4  C   UNL     1     -10.441  16.296  66.742  1.00  0.00    -0.287 A  
HETATM    5  C   UNL     1     -11.774  15.860  66.593  1.00  0.00     0.644 A  
HETATM    6  C   UNL     1     -12.288  15.718  65.291  1.00  0.00     1.034 A  
HETATM    7  C   UNL     1     -11.482  15.952  64.176  1.00  0.00    -0.058 A  
ENDROOT
BRANCH   5   8
HETATM    8  C   UNL     1     -12.633  15.574  67.835  1.00  0.00     1.379 C  
BRANCH   8   9
HETATM    9  N   UNL     1     -12.862  14.110  68.042  1.00  0.00     0.969 NA 
HETATM   10  C   UNL     1     -12.593  13.691  69.445  1.00  0.00     0.226 C  
HETATM   11  C   UNL     1     -12.003  13.267  67.174  1.00  0.00    -0.348 C  
HETATM   12  C   UNL     1     -11.095  13.625  69.844  1.00  0.00     0.145 C  
HETATM   13  N   UNL     1     -10.219  12.862  68.924  1.00  0.00    -0.067 NA 
HETATM   14  C   UNL     1     -10.500  13.284  67.538  1.00  0.00    -0.235 C  
BRANCH  13  15
HETATM   15  C   UNL     1     -10.367  11.401  69.041  1.00  0.00    -0.142 C  
BRANCH  15  16
HETATM   16  C   UNL     1      -9.729  10.683  67.897  1.00  0.00    -0.177 C  
HETATM   17  C   UNL     1      -9.838   9.360  67.702  1.00  0.00    -0.217 C  
BRANCH  17  18
HETATM   18  C   UNL     1      -9.011   8.718  66.687  1.00  0.00    -0.168 A  
HETATM   19  C   UNL     1      -9.203   7.353  66.439  1.00  0.00    -0.203 A  
HETATM   20  C   UNL     1      -8.363   6.679  65.555  1.00  0.00    -0.144 A  
HETATM   21  C   UNL     1      -7.334   7.369  64.917  1.00  0.00    -0.080 A  
HETATM   22  C   UNL     1      -7.149   8.732  65.154  1.00  0.00    -0.086 A  
HETATM   23  C   UNL     1      -7.989   9.410  66.039  1.00  0.00    -0.110 A  
ENDBRANCH  17  18
ENDBRANCH  15  16
ENDBRANCH  13  15
ENDBRANCH   8   9
BRANCH   8  24
HETATM   24  C   UNL     1     -12.069  16.302  69.075  1.00  0.00     0.230 A  
HETATM   25  C   UNL     1     -11.064  18.309  70.043  1.00  0.00     2.617 A  
HETATM   26  F   UNL     1     -10.848  18.487  72.385  1.00  0.00     0.885 F  
HETATM   27  C   UNL     1     -11.487  17.578  68.928  1.00  0.00     1.203 A  
HETATM   28  C   UNL     1     -11.738  16.500  71.487  1.00  0.00    -0.160 A  
HETATM   29  C   UNL     1     -12.148  15.756  70.372  1.00  0.00    -0.399 A  
HETATM   30  C   UNL     1     -11.209  17.770  71.313  1.00  0.00     2.600 A  
ENDBRANCH   8  24
ENDBRANCH   5   8
TORSDOF 6
ENDMDL
MODEL      200
REMARK 921   NORMALIZED FREE ENERGY PREDICTED BY IDOCK:   21.92 KCAL/MOL
REMARK 922        TOTAL FREE ENERGY PREDICTED BY IDOCK:   29.41 KCAL/MOL
REMARK 923 INTER-LIGAND FREE ENERGY PREDICTED BY IDOCK:   20.94 KCAL/MOL
REMARK 924 INTRA-LIGAND FREE ENERGY PREDICTED BY IDOCK:    8.48 KCAL/MOL
REMARK 927      BINDING AFFINITY PREDICTED BY RF-SCORE:    0.00 PKD
ROOT
HETATM    1  F   UNL     1     -11.878  13.917  72.111  1.00  0.00    -0.052 F  
HETATM    2  C   UNL     1     -11.371  12.766  71.652  1.00  0.00     3.784 A  
HETATM    3  C   UNL     1     -10.773  12.733  70.399  1.00  0.00     2.113 A  
HETATM    4  C   UNL     1     -10.277  11.525  69.904  1.00  0.00     0.924 A  
HETATM    5  C   UNL     1     -10.372  10.340  70.662  1.00  0.00     0.174 A  
HETATM    6  C   UNL     1     -10.943  10.413  71.946  1.00  0.00     2.280 A  
HETATM    7  C   UNL     1     -11.450  11.619  72.434  1.00  0.00     6.084 A  
ENDROOT
BRANCH   5   8
HETATM    8  C   UNL     1      -9.839   9.016  70.091  1.00  0.00    -0.187 C  
BRANCH   8   9
HETATM    9  N   UNL     1      -9.263   9.182  68.720  1.00  0.00    -0.136 NA 
HETATM   10  C   UNL     1      -9.458   7.970  67.878  1.00  0.00    -0.145 C  
HETATM   11  C   UNL     1      -7.804   9.455  68.740  1.00  0.00    -0.084 C  
HETATM   12  C   UNL     1      -8.554   6.761  68.232  1.00  0.00    -0.124 C  
HETATM   13  N   UNL     1      -7.106   7.053  68.346  1.00  0.00    -0.079 NA 
HETATM   14  C   UNL     1      -6.928   8.259  69.179  1.00  0.00    -0.063 C  
BRANCH  13  15
HETATM   15  C   UNL     1      -6.435   7.239  67.048  1.00  0.00    -0.055 C  
BRANCH  15  16
HETATM   16  C   UNL     1      -6.794   8.546  66.418  1.00  0.00    -0.074 C  
HETATM   17  C   UNL     1      -6.393   9.732  66.899  1.00  0.00    -0.065 C  
BRANCH  17  18
HETATM   18  C   UNL     1      -6.964  10.955  66.347  1.00  0.00    -0.134 A  
HETATM   19  C   UNL     1      -6.424  12.183  66.750  1.00  0.00     0.118 A  
HETATM   20  C   UNL     1      -7.009  13.375  66.331  1.00  0.00     2.627 A  
HETATM   21  C   UNL     1      -8.131  13.342  65.504  1.00  0.00     3.421 A  
HETATM   22  C   UNL     1      -8.663  12.119  65.090  1.00  0.00     0.918 A  
HETATM   23  C   UNL     1      -8.079  10.923  65.511  1.00  0.00    -0.025 A  
ENDBRANCH  17  18
ENDBRANCH  15  16
ENDBRANCH  13  15
ENDBRANCH   8   9
BRANCH   8  24
HETATM   24  C   UNL     1      -8.888   8.326  71.093  1.00  0.00    -0.182 A  
HETATM   25  C   UNL     1      -7.546   6.375  71.696  1.00  0.00    -0.095 A  
HETATM   26  F   UNL     1      -6.064   6.503  73.526  1.00  0.00    -0.058 F  
HETATM   27  C   UNL     1      -8.488   6.994  70.868  1.00  0.00    -0.134 A  
HETATM   28  C   UNL     1      -7.406   8.376  73.033  1.00  0.00    -0.109 A  
HETATM   29  C   UNL     1      -8.362   8.994  72.218  1.00  0.00     0.362 A  
HETATM   30  C   UNL     1      -7.001   7.078  72.760  1.00  0.00    -0.069 A  
ENDBRANCH   8  24
ENDBRANCH   5   8
TORSDOF 6
ENDMDL
MODEL      201
REMARK 921   NORMALIZED FREE ENERGY PREDICTED BY IDOCK:   25.93 KCAL/MOL
REMARK 922        TOTAL FREE ENERGY PREDICTED BY IDOCK:   34.83 KCAL/MOL
REMARK 923 INTER-LIGAND FREE ENERGY PREDICTED BY IDOCK:   35.49 KCAL/MOL
REMARK 924 INTRA-LIGAND FREE ENERGY PREDICTED BY IDOCK:   -0.66 KCAL/MOL
REMARK 927      BINDING AFFINITY PREDICTED BY RF-SCORE:    0.00 PKD
ROOT
HETATM    1  F   UNL     1      -8.752  16.783  63.942  1.00  0.00     7.063 F  
HETATM    2  C   UNL     1      -8.647  15.546  64.446  1.00  0.00     8.386 A  
HETATM    3  C   UNL     1      -7.611  15.251  65.324  1.00  0.00     6.991 A  
HETATM    4  C   UNL     1      -7.478  13.952  65.820  1.00  0.00     5.323 A  
HETATM    5  C   UNL     1      -8.384  12.939  65.445  1.00  0.00     2.456 A  
HETATM    6  C   UNL     1      -9.449  13.279  64.590  1.00  0.00     0.691 A  
HETATM    7  C   UNL     1      -9.573  14.574  64.084  1.00  0.00     3.377 A  
ENDROOT
BRANCH   5   8
HETATM    8  C   UNL     1      -8.209  11.511  65.986  1.00  0.00     0.089 C  
BRANCH   8   9
HETATM    9  N   UNL     1      -6.774  11.086  66.008  1.00  0.00    -0.075 NA 
HETATM   10  C   UNL     1      -6.211  10.933  64.638  1.00  0.00     0.353 C  
HETATM   11  C   UNL     1      -6.571   9.788  66.697  1.00  0.00    -0.071 C  
HETATM   12  C   UNL     1      -6.686   9.679  63.860  1.00  0.00    -0.113 C  
HETATM   13  N   UNL     1      -6.573   8.392  64.586  1.00  0.00    -0.065 NA 
HETATM   14  C   UNL     1      -7.130   8.559  65.942  1.00  0.00    -0.076 C  
BRANCH  13  15
HETATM   15  C   UNL     1      -5.194   7.880  64.671  1.00  0.00    -0.029 C  
BRANCH  15  16
HETATM   16  C   UNL     1      -5.158   6.443  65.079  1.00  0.00    -0.017 C  
HETATM   17  C   UNL     1      -6.201   5.610  64.941  1.00  0.00    -0.032 C  
BRANCH  17  18
HETATM   18  C   UNL     1      -6.146   4.290  65.559  1.00  0.00    -0.024 A  
HETATM   19  C   UNL     1      -5.426   4.143  66.751  1.00  0.00    -0.013 A  
HETATM   20  C   UNL     1      -5.259   2.880  67.315  1.00  0.00    -0.009 A  
HETATM   21  C   UNL     1      -5.815   1.765  66.691  1.00  0.00    -0.019 A  
HETATM   22  C   UNL     1      -6.545   1.912  65.510  1.00  0.00    -0.024 A  
HETATM   23  C   UNL     1      -6.712   3.175  64.942  1.00  0.00    -0.040 A  
ENDBRANCH  17  18
ENDBRANCH  15  16
ENDBRANCH  13  15
ENDBRANCH   8   9
BRANCH   8  24
HETATM   24  C   UNL     1      -8.935  11.340  67.338  1.00  0.00    -0.144 A  
HETATM   25  C   UNL     1     -10.379   9.994  68.779  1.00  0.00    -0.216 A  
HETATM   26  F   UNL     1     -10.652  10.599  71.042  1.00  0.00     0.081 F  
HETATM   27  C   UNL     1      -9.790  10.237  67.533  1.00  0.00    -0.204 A  
HETATM   28  C   UNL     1      -9.324  11.974  69.664  1.00  0.00     1.632 A  
HETATM   29  C   UNL     1      -8.746  12.231  68.414  1.00  0.00    -0.139 A  
HETATM   30  C   UNL     1     -10.127  10.855  69.837  1.00  0.00     0.361 A  
ENDBRANCH   8  24
ENDBRANCH   5   8
TORSDOF 6
ENDMDL
MODEL      202
REMARK 921   NORMALIZED FREE ENERGY PREDICTED BY IDOCK:   39.67 KCAL/MOL
REMARK 922        TOTAL FREE ENERGY PREDICTED BY IDOCK:   53.39 KCAL/MOL
REMARK 923 INTER-LIGAND FREE ENERGY PREDICTED BY IDOCK:   43.92 KCAL/MOL
REMARK 924 INTRA-LIGAND FREE ENERGY PREDICTED BY IDOCK:    9.48 KCAL/MOL
REMARK 927      BINDING AFFINITY PREDICTED BY RF-SCORE:    0.00 PKD
ROOT
HETATM    1  F   UNL     1      -8.827  15.056  62.686  1.00  0.00    13.582 F  
HETATM    2  C   UNL     1      -9.310  14.555  63.831  1.00  0.00     6.262 A  
HETATM    3  C   UNL     1      -8.451  14.350  64.903  1.00  0.00     5.544 A  
HETATM    4  C   UNL     1      -8.946  13.792  66.084  1.00  0.00     0.223 A  
HETATM    5  C   UNL     1     -10.306  13.439  66.202  1.00  0.00    -0.295 A  
HETATM    6  C   UNL     1     -11.160  13.699  65.115  1.00  0.00    -0.324 A  
HETATM    7  C   UNL     1     -10.661  14.245  63.931  1.00  0.00     1.272 A  
ENDROOT
BRANCH   5   8
HETATM    8  C   UNL     1     -10.826  12.807  67.503  1.00  0.00    -0.239 C  
BRANCH   8   9
HETATM    9  N   UNL     1     -10.931  11.318  67.407  1.00  0.00    -0.264 NA 
HETATM   10  C   UNL     1     -11.882  10.756  68.405  1.00  0.00    -0.050 C  
HETATM   11  C   UNL     1      -9.633  10.635  67.627  1.00  0.00    -0.161 C  
HETATM   12  C   UNL     1     -11.374  10.736  69.871  1.00  0.00    -0.311 C  
HETATM   13  N   UNL     1     -10.033  10.140  70.077  1.00  0.00    -0.217 NA 
HETATM   14  C   UNL     1      -9.103  10.702  69.078  1.00  0.00    -0.166 C  
BRANCH  13  15
HETATM   15  C   UNL     1     -10.021   8.669  70.000  1.00  0.00    -0.185 C  
BRANCH  15  16
HETATM   16  C   UNL     1      -9.427   8.184  68.717  1.00  0.00    -0.148 C  
HETATM   17  C   UNL     1      -9.840   7.075  68.085  1.00  0.00    -0.151 C  
BRANCH  17  18
HETATM   18  C   UNL     1      -9.065   6.565  66.960  1.00  0.00    -0.133 A  
HETATM   19  C   UNL     1      -7.811   5.999  67.219  1.00  0.00    -0.102 A  
HETATM   20  C   UNL     1      -6.994   5.598  66.163  1.00  0.00    -0.060 A  
HETATM   21  C   UNL     1      -7.432   5.759  64.850  1.00  0.00    -0.079 A  
HETATM   22  C   UNL     1      -8.688   6.310  64.591  1.00  0.00     0.255 A  
HETATM   23  C   UNL     1      -9.508   6.714  65.646  1.00  0.00     0.332 A  
ENDBRANCH  17  18
ENDBRANCH  15  16
ENDBRANCH  13  15
ENDBRANCH   8   9
BRANCH   8  24
HETATM   24  C   UNL     1     -10.014  13.302  68.720  1.00  0.00    -0.051 A  
HETATM   25  C   UNL     1      -9.198  12.904  70.990  1.00  0.00    10.797 A  
HETATM   26  F   UNL     1      -7.589  14.357  71.918  1.00  0.00     1.908 F  
HETATM   27  C   UNL     1     -10.006  12.541  69.907  1.00  0.00     2.095 A  
HETATM   28  C   UNL     1      -8.417  14.827  69.763  1.00  0.00     0.283 A  
HETATM   29  C   UNL     1      -9.237  14.478  68.682  1.00  0.00    -0.192 A  
HETATM   30  C   UNL     1      -8.398  14.034  70.901  1.00  0.00     4.493 A  
ENDBRANCH   8  24
ENDBRANCH   5   8
TORSDOF 6
ENDMDL
MODEL      203
REMARK 921   NORMALIZED FREE ENERGY PREDICTED BY IDOCK:   47.53 KCAL/MOL
REMARK 922        TOTAL FREE ENERGY PREDICTED BY IDOCK:   64.00 KCAL/MOL
REMARK 923 INTER-LIGAND FREE ENERGY PREDICTED BY IDOCK:   54.18 KCAL/MOL
REMARK 924 INTRA-LIGAND FREE ENERGY PREDICTED BY IDOCK:    9.83 KCAL/MOL
REMARK 927      BINDING AFFINITY PREDICTED BY RF-SCORE:    0.00 PKD
ROOT
HETATM    1  F   UNL     1      -6.026   8.612  72.401  1.00  0.00    -0.053 F  
HETATM    2  C   UNL     1      -7.295   8.933  72.117  1.00  0.00     0.144 A  
HETATM    3  C   UNL     1      -7.576  10.168  71.545  1.00  0.00     2.177 A  
HETATM    4  C   UNL     1      -8.902  10.519  71.282  1.00  0.00     4.189 A  
HETATM    5  C   UNL     1      -9.957   9.635  71.586  1.00  0.00     0.598 A  
HETATM    6  C   UNL     1      -9.638   8.375  72.124  1.00  0.00    -0.367 A  
HETATM    7  C   UNL     1      -8.313   8.030  72.398  1.00  0.00    -0.205 A  
ENDROOT
BRANCH   5   8
HETATM    8  C   UNL     1     -11.411  10.049  71.309  1.00  0.00    -0.263 C  
BRANCH   8   9
HETATM    9  N   UNL     1     -11.598  11.533  71.362  1.00  0.00     1.093 NA 
HETATM   10  C   UNL     1     -12.604  12.009  70.373  1.00  0.00    -0.049 C  
HETATM   11  C   UNL     1     -10.346  12.280  71.088  1.00  0.00     7.026 C  
HETATM   12  C   UNL     1     -12.134  12.011  68.895  1.00  0.00    -0.145 C  
HETATM   13  N   UNL     1     -10.834  12.674  68.636  1.00  0.00    -0.244 NA 
HETATM   14  C   UNL     1      -9.849  12.197  69.626  1.00  0.00     1.366 C  
BRANCH  13  15
HETATM   15  C   UNL     1     -10.903  14.145  68.669  1.00  0.00    -0.255 C  
BRANCH  15  16
HETATM   16  C   UNL     1      -9.645  14.750  69.203  1.00  0.00    -0.133 C  
HETATM   17  C   UNL     1      -9.474  16.070  69.372  1.00  0.00    -0.226 C  
BRANCH  17  18
HETATM   18  C   UNL     1      -8.148  16.581  69.694  1.00  0.00     0.451 A  
HETATM   19  C   UNL     1      -7.180  16.606  68.682  1.00  0.00    -0.192 A  
HETATM   20  C   UNL     1      -5.872  16.986  68.975  1.00  0.00    -0.162 A  
HETATM   21  C   UNL     1      -5.532  17.346  70.278  1.00  0.00    -0.244 A  
HETATM   22  C   UNL     1      -6.498  17.335  71.285  1.00  0.00     2.740 A  
HETATM   23  C   UNL     1      -7.808  16.953  70.995  1.00  0.00     5.686 A  
ENDBRANCH  17  18
ENDBRANCH  15  16
ENDBRANCH  13  15
ENDBRANCH   8   9
BRANCH   8  24
HETATM   24  C   UNL     1     -11.932   9.397  70.009  1.00  0.00     0.202 A  
HETATM   25  C   UNL     1     -12.335   9.564  67.604  1.00  0.00     5.668 A  
HETATM   26  F   UNL     1     -12.977   7.641  66.397  1.00  0.00     7.391 F  
HETATM   27  C   UNL     1     -11.970  10.152  68.819  1.00  0.00     0.417 A  
HETATM   28  C   UNL     1     -12.686   7.460  68.728  1.00  0.00     5.378 A  
HETATM   29  C   UNL     1     -12.339   8.049  69.951  1.00  0.00     1.269 A  
HETATM   30  C   UNL     1     -12.673   8.218  67.567  1.00  0.00    10.920 A  
ENDBRANCH   8  24
ENDBRANCH   5   8
TORSDOF 6
ENDMDL
MODEL      204
REMARK 921   NORMALIZED FREE ENERGY PREDICTED BY IDOCK:   65.24 KCAL/MOL
REMARK 922        TOTAL FREE ENERGY PREDICTED BY IDOCK:   87.94 KCAL/MOL
REMARK 923 INTER-LIGAND FREE ENERGY PREDICTED BY IDOCK:   77.89 KCAL/MOL
REMARK 924 INTRA-LIGAND FREE ENERGY PREDICTED BY IDOCK:   10.04 KCAL/MOL
REMARK 927      BINDING AFFINITY PREDICTED BY RF-SCORE:    0.00 PKD
ROOT
HETATM    1  F   UNL     1      -6.600   8.721  72.149  1.00  0.00    -0.078 F  
HETATM    2  C   UNL     1      -7.914   8.907  71.972  1.00  0.00     0.132 A  
HETATM    3  C   UNL     1      -8.372  10.119  71.470  1.00  0.00     2.990 A  
HETATM    4  C   UNL     1      -9.744  10.328  71.320  1.00  0.00     2.251 A  
HETATM    5  C   UNL     1     -10.671   9.323  71.668  1.00  0.00    -0.393 A  
HETATM    6  C   UNL     1     -10.175   8.091  72.131  1.00  0.00    -0.308 A  
HETATM    7  C   UNL     1      -8.803   7.888  72.293  1.00  0.00    -0.202 A  
ENDROOT
BRANCH   5   8
HETATM    8  C   UNL     1     -12.178   9.581  71.515  1.00  0.00    -0.386 C  
BRANCH   8   9
HETATM    9  N   UNL     1     -12.505  11.041  71.498  1.00  0.00    -0.322 NA 
HETATM   10  C   UNL     1     -13.903  11.299  71.056  1.00  0.00     1.582 C  
HETATM   11  C   UNL     1     -11.623  11.816  70.591  1.00  0.00     0.307 C  
HETATM   12  C   UNL     1     -14.167  11.110  69.540  1.00  0.00     6.702 C  
HETATM   13  N   UNL     1     -13.226  11.808  68.632  1.00  0.00     2.638 NA 
HETATM   14  C   UNL     1     -11.845  11.547  69.085  1.00  0.00    -0.340 C  
BRANCH  13  15
HETATM   15  C   UNL     1     -13.457  13.260  68.543  1.00  0.00     5.137 C  
BRANCH  15  16
HETATM   16  C   UNL     1     -12.181  14.016  68.358  1.00  0.00    -0.202 C  
HETATM   17  C   UNL     1     -11.960  15.230  68.885  1.00  0.00    -0.292 C  
BRANCH  17  18
HETATM   18  C   UNL     1     -10.777  15.979  68.478  1.00  0.00    -0.287 A  
HETATM   19  C   UNL     1     -10.762  16.556  67.202  1.00  0.00    -0.220 A  
HETATM   20  C   UNL     1      -9.612  17.188  66.734  1.00  0.00    -0.279 A  
HETATM   21  C   UNL     1      -8.478  17.247  67.543  1.00  0.00    -0.210 A  
HETATM   22  C   UNL     1      -8.496  16.684  68.821  1.00  0.00    -0.255 A  
HETATM   23  C   UNL     1      -9.646  16.050  69.291  1.00  0.00    -0.255 A  
ENDBRANCH  17  18
ENDBRANCH  15  16
ENDBRANCH  13  15
ENDBRANCH   8   9
BRANCH   8  24
HETATM   24  C   UNL     1     -12.753   8.795  70.316  1.00  0.00     0.934 A  
HETATM   25  C   UNL     1     -13.536   8.793  68.001  1.00  0.00    17.763 A  
HETATM   26  F   UNL     1     -13.972   6.741  66.923  1.00  0.00    11.916 F  
HETATM   27  C   UNL     1     -13.113   9.485  69.140  1.00  0.00     3.988 A  
HETATM   28  C   UNL     1     -13.306   6.704  69.182  1.00  0.00     7.965 A  
HETATM   29  C   UNL     1     -12.898   7.393  70.332  1.00  0.00     0.452 A  
HETATM   30  C   UNL     1     -13.612   7.408  68.027  1.00  0.00    17.163 A  
ENDBRANCH   8  24
ENDBRANCH   5   8
TORSDOF 6
ENDMDL
MODEL      205
REMARK 921   NORMALIZED FREE ENERGY PREDICTED BY IDOCK:   67.00 KCAL/MOL
REMARK 922        TOTAL FREE ENERGY PREDICTED BY IDOCK:   90.31 KCAL/MOL
REMARK 923 INTER-LIGAND FREE ENERGY PREDICTED BY IDOCK:   90.78 KCAL/MOL
REMARK 924 INTRA-LIGAND FREE ENERGY PREDICTED BY IDOCK:   -0.47 KCAL/MOL
REMARK 927      BINDING AFFINITY PREDICTED BY RF-SCORE:    0.00 PKD
ROOT
HETATM    1  F   UNL     1     -11.617   8.405  73.036  1.00  0.00    -0.412 F  
HETATM    2  C   UNL     1     -10.708   9.265  72.558  1.00  0.00     0.991 A  
HETATM    3  C   UNL     1     -11.072  10.585  72.327  1.00  0.00     3.934 A  
HETATM    4  C   UNL     1     -10.136  11.474  71.793  1.00  0.00    10.493 A  
HETATM    5  C   UNL     1      -8.826  11.049  71.490  1.00  0.00     8.643 A  
HETATM    6  C   UNL     1      -8.474   9.717  71.777  1.00  0.00     1.490 A  
HETATM    7  C   UNL     1      -9.415   8.826  72.299  1.00  0.00    -0.246 A  
ENDROOT
BRANCH   5   8
HETATM    8  C   UNL     1      -7.817  12.037  70.884  1.00  0.00     6.455 C  
BRANCH   8   9
HETATM    9  N   UNL     1      -8.185  12.439  69.491  1.00  0.00     1.020 NA 
HETATM   10  C   UNL     1      -8.456  11.264  68.619  1.00  0.00    -0.143 C  
HETATM   11  C   UNL     1      -7.121  13.228  68.822  1.00  0.00    -0.100 C  
HETATM   12  C   UNL     1      -7.205  10.462  68.175  1.00  0.00    -0.087 C  
HETATM   13  N   UNL     1      -6.102  11.263  67.594  1.00  0.00    -0.048 NA 
HETATM   14  C   UNL     1      -5.847  12.427  68.466  1.00  0.00    -0.054 C  
BRANCH  13  15
HETATM   15  C   UNL     1      -6.361  11.717  66.217  1.00  0.00     0.225 C  
BRANCH  15  16
HETATM   16  C   UNL     1      -7.339  10.832  65.514  1.00  0.00     0.016 C  
HETATM   17  C   UNL     1      -8.061  11.226  64.454  1.00  0.00     0.762 C  
BRANCH  17  18
HETATM   18  C   UNL     1      -9.138  10.372  63.968  1.00  0.00    -0.271 A  
HETATM   19  C   UNL     1      -8.860   9.478  62.927  1.00  0.00    -0.242 A  
HETATM   20  C   UNL     1      -9.885   8.722  62.362  1.00  0.00     2.408 A  
HETATM   21  C   UNL     1     -11.187   8.856  62.841  1.00  0.00    11.439 A  
HETATM   22  C   UNL     1     -11.464   9.737  63.888  1.00  0.00     6.838 A  
HETATM   23  C   UNL     1     -10.439  10.496  64.454  1.00  0.00    -0.112 A  
ENDBRANCH  17  18
ENDBRANCH  15  16
ENDBRANCH  13  15
ENDBRANCH   8   9
BRANCH   8  24
HETATM   24  C   UNL     1      -7.571  13.227  71.837  1.00  0.00     8.630 A  
HETATM   25  C   UNL     1      -7.015  14.031  74.077  1.00  0.00     3.067 A  
HETATM   26  F   UNL     1      -6.550  16.319  74.410  1.00  0.00     3.067 F  
HETATM   27  C   UNL     1      -7.346  12.986  73.207  1.00  0.00     9.237 A  
HETATM   28  C   UNL     1      -7.171  15.600  72.253  1.00  0.00     5.645 A  
HETATM   29  C   UNL     1      -7.520  14.560  71.382  1.00  0.00     2.748 A  
HETATM   30  C   UNL     1      -6.913  15.325  73.588  1.00  0.00     5.388 A  
ENDBRANCH   8  24
ENDBRANCH   5   8
TORSDOF 6
ENDMDL
