MODEL        1
REMARK 921   NORMALIZED FREE ENERGY PREDICTED BY IDOCK:   -7.76 KCAL/MOL
REMARK 922        TOTAL FREE ENERGY PREDICTED BY IDOCK:  -10.20 KCAL/MOL
REMARK 923 INTER-LIGAND FREE ENERGY PREDICTED BY IDOCK:   -9.57 KCAL/MOL
REMARK 924 INTRA-LIGAND FREE ENERGY PREDICTED BY IDOCK:   -0.63 KCAL/MOL
REMARK 927      BINDING AFFINITY PREDICTED BY RF-SCORE:    0.00 PKD
ROOT
HETATM    1  C   UNL     1      -9.436  15.833  68.077  1.00  0.00    -0.202 C  
HETATM    2  C   UNL     1      -8.395  15.164  67.261  1.00  0.00    -0.225 C  
HETATM    3  C   UNL     1      -9.168  14.010  66.615  1.00  0.00    -0.262 C  
HETATM    4  C   UNL     1      -9.108  12.666  67.406  1.00  0.00    -0.191 C  
HETATM    5  C   UNL     1      -7.706  12.299  67.935  1.00  0.00    -0.133 C  
HETATM    6  C   UNL     1      -7.846  11.110  68.868  1.00  0.00    -0.131 C  
HETATM    7  F   UNL     1      -6.647  10.903  69.476  1.00  0.00    -0.060 F  
HETATM    8  C   UNL     1      -8.292   9.884  68.108  1.00  0.00    -0.110 C  
HETATM    9  C   UNL     1      -8.057   8.689  68.703  1.00  0.00    -0.117 C  
HETATM   10  C   UNL     1      -9.139   8.427  69.738  1.00  0.00    -0.153 C  
HETATM   11  C   UNL     1     -10.497   8.968  69.402  1.00  0.00    -0.229 C  
HETATM   12  O   UNL     1      -8.935   7.757  70.737  1.00  0.00    -0.145 OA 
HETATM   13  C   UNL     1     -10.725   9.705  68.293  1.00  0.00    -0.262 C  
HETATM   14  C   UNL     1      -9.608  10.067  67.293  1.00  0.00    -0.188 C  
HETATM   15  C   UNL     1      -9.637  11.491  66.555  1.00  0.00    -0.205 C  
HETATM   16  C   UNL     1      -9.673   8.991  66.175  1.00  0.00    -0.354 C  
HETATM   17  F   UNL     1      -8.702  11.377  65.526  1.00  0.00    -0.182 F  
HETATM   18  C   UNL     1     -10.942  11.892  65.815  1.00  0.00    -0.311 C  
HETATM   19  C   UNL     1     -10.811  13.297  65.159  1.00  0.00    -0.323 C  
HETATM   20  O   UNL     1     -12.117  11.766  66.600  1.00  0.00    -0.527 OA 
HETATM   21  C   UNL     1     -10.608  14.597  66.058  1.00  0.00    -0.314 C  
HETATM   22  H   UNL     1     -12.916  12.011  66.148  1.00  0.00     0.000 HD 
HETATM   23  C   UNL     1     -12.263  14.676  66.103  1.00  0.00    -0.167 C  
HETATM   24  C   UNL     1     -10.632  15.866  67.144  1.00  0.00    -0.316 C  
HETATM   25  O   UNL     1     -11.677  15.881  68.152  1.00  0.00    -0.292 OA 
HETATM   26  C   UNL     1     -11.734  13.588  69.090  1.00  0.00    -0.374 C  
HETATM   27  O   UNL     1      -9.812  15.055  69.227  1.00  0.00    -0.217 OA 
HETATM   28  C   UNL     1     -11.240  15.029  69.231  1.00  0.00    -0.286 C  
HETATM   29  C   UNL     1     -11.808  15.438  70.586  1.00  0.00    -0.388 C  
ENDROOT
BRANCH  24  30
HETATM   30  C   UNL     1     -10.499  17.104  66.157  1.00  0.00    -0.275 C  
HETATM   31  O   UNL     1     -10.548  16.935  64.927  1.00  0.00    -0.702 OA 
BRANCH  30  32
HETATM   32  C   UNL     1     -10.306  18.531  66.679  1.00  0.00    -0.408 C  
BRANCH  32  33
HETATM   33  O   UNL     1      -9.277  19.238  65.934  1.00  0.00    -0.424 OA 
BRANCH  33  34
HETATM   34  C   UNL     1      -7.991  18.893  66.249  1.00  0.00    -0.273 C  
HETATM   35  C   UNL     1      -7.569  19.370  67.603  1.00  0.00    -0.292 C  
HETATM   36  O   UNL     1      -7.254  18.247  65.499  1.00  0.00    -0.536 OA 
ENDBRANCH  33  34
ENDBRANCH  32  33
ENDBRANCH  30  32
ENDBRANCH  24  30
TORSDOF 4
ENDMDL
MODEL        2
REMARK 921   NORMALIZED FREE ENERGY PREDICTED BY IDOCK:   -7.72 KCAL/MOL
REMARK 922        TOTAL FREE ENERGY PREDICTED BY IDOCK:  -10.16 KCAL/MOL
REMARK 923 INTER-LIGAND FREE ENERGY PREDICTED BY IDOCK:   -9.75 KCAL/MOL
REMARK 924 INTRA-LIGAND FREE ENERGY PREDICTED BY IDOCK:   -0.40 KCAL/MOL
REMARK 927      BINDING AFFINITY PREDICTED BY RF-SCORE:    0.00 PKD
ROOT
HETATM    1  C   UNL     1      -9.300  15.726  67.911  1.00  0.00    -0.200 C  
HETATM    2  C   UNL     1      -8.375  14.839  67.167  1.00  0.00    -0.240 C  
HETATM    3  C   UNL     1      -9.248  13.614  66.877  1.00  0.00    -0.257 C  
HETATM    4  C   UNL     1      -9.143  12.476  67.938  1.00  0.00    -0.199 C  
HETATM    5  C   UNL     1      -7.704  12.159  68.394  1.00  0.00    -0.134 C  
HETATM    6  C   UNL     1      -7.778  11.214  69.579  1.00  0.00     0.117 C  
HETATM    7  F   UNL     1      -6.526  11.081  70.096  1.00  0.00    -0.118 F  
HETATM    8  C   UNL     1      -8.341   9.876  69.162  1.00  0.00    -0.145 C  
HETATM    9  C   UNL     1      -8.079   8.831  69.983  1.00  0.00    -0.111 C  
HETATM   10  C   UNL     1      -9.049   8.861  71.153  1.00  0.00    -0.249 C  
HETATM   11  C   UNL     1     -10.417   9.387  70.841  1.00  0.00    -0.381 C  
HETATM   12  O   UNL     1      -8.757   8.417  72.251  1.00  0.00    -0.185 OA 
HETATM   13  C   UNL     1     -10.742   9.874  69.623  1.00  0.00    -0.277 C  
HETATM   14  C   UNL     1      -9.731   9.946  68.462  1.00  0.00    -0.163 C  
HETATM   15  C   UNL     1      -9.797  11.173  67.429  1.00  0.00    -0.173 C  
HETATM   16  C   UNL     1      -9.949   8.656  67.625  1.00  0.00    -0.248 C  
HETATM   17  F   UNL     1      -8.983  10.785  66.365  1.00  0.00    -0.152 F  
HETATM   18  C   UNL     1     -11.162  11.471  66.752  1.00  0.00    -0.285 C  
HETATM   19  C   UNL     1     -11.061  12.689  65.788  1.00  0.00    -0.332 C  
HETATM   20  O   UNL     1     -12.248  11.584  67.658  1.00  0.00    -0.513 OA 
HETATM   21  C   UNL     1     -10.722  14.142  66.347  1.00  0.00    -0.288 C  
HETATM   22  H   UNL     1     -13.084  11.767  67.244  1.00  0.00     0.000 HD 
HETATM   23  C   UNL     1     -12.359  14.317  66.538  1.00  0.00    -0.345 C  
HETATM   24  C   UNL     1     -10.589  15.617  67.118  1.00  0.00    -0.308 C  
HETATM   25  O   UNL     1     -11.517  15.910  68.196  1.00  0.00    -0.350 OA 
HETATM   26  C   UNL     1     -11.541  13.885  69.625  1.00  0.00    -0.347 C  
HETATM   27  O   UNL     1      -9.572  15.241  69.238  1.00  0.00    -0.227 OA 
HETATM   28  C   UNL     1     -10.992  15.293  69.389  1.00  0.00    -0.271 C  
HETATM   29  C   UNL     1     -11.396  16.021  70.668  1.00  0.00    -0.424 C  
ENDROOT
BRANCH  24  30
HETATM   30  C   UNL     1     -10.526  16.599  65.870  1.00  0.00    -0.313 C  
HETATM   31  O   UNL     1     -10.590  16.150  64.713  1.00  0.00    -0.630 OA 
BRANCH  30  32
HETATM   32  C   UNL     1     -10.387  18.114  66.046  1.00  0.00    -0.353 C  
BRANCH  32  33
HETATM   33  O   UNL     1      -9.038  18.565  65.743  1.00  0.00    -0.418 OA 
BRANCH  33  34
HETATM   34  C   UNL     1      -8.653  19.713  66.379  1.00  0.00    -0.361 C  
HETATM   35  C   UNL     1      -9.768  20.373  67.127  1.00  0.00    -0.601 C  
HETATM   36  O   UNL     1      -7.503  20.159  66.348  1.00  0.00    -0.273 OA 
ENDBRANCH  33  34
ENDBRANCH  32  33
ENDBRANCH  30  32
ENDBRANCH  24  30
TORSDOF 4
ENDMDL
MODEL        3
REMARK 921   NORMALIZED FREE ENERGY PREDICTED BY IDOCK:   -7.15 KCAL/MOL
REMARK 922        TOTAL FREE ENERGY PREDICTED BY IDOCK:   -9.45 KCAL/MOL
REMARK 923 INTER-LIGAND FREE ENERGY PREDICTED BY IDOCK:   -8.84 KCAL/MOL
REMARK 924 INTRA-LIGAND FREE ENERGY PREDICTED BY IDOCK:   -0.61 KCAL/MOL
REMARK 927      BINDING AFFINITY PREDICTED BY RF-SCORE:    0.00 PKD
ROOT
HETATM    1  C   UNL     1     -10.039   9.419  69.523  1.00  0.00    -0.205 C  
HETATM    2  C   UNL     1     -11.377  10.011  69.287  1.00  0.00    -0.169 C  
HETATM    3  C   UNL     1     -11.202  10.703  67.932  1.00  0.00    -0.376 C  
HETATM    4  C   UNL     1     -10.790  12.205  68.018  1.00  0.00    -0.258 C  
HETATM    5  C   UNL     1     -11.566  13.020  69.073  1.00  0.00    -0.367 C  
HETATM    6  C   UNL     1     -10.903  14.380  69.204  1.00  0.00    -0.257 C  
HETATM    7  F   UNL     1     -11.468  15.028  70.259  1.00  0.00    -0.235 F  
HETATM    8  C   UNL     1     -11.057  15.174  67.929  1.00  0.00    -0.322 C  
HETATM    9  C   UNL     1     -10.899  16.516  68.034  1.00  0.00    -0.337 C  
HETATM   10  C   UNL     1      -9.415  16.843  68.045  1.00  0.00    -0.243 C  
HETATM   11  C   UNL     1      -8.549  15.938  67.222  1.00  0.00    -0.205 C  
HETATM   12  O   UNL     1      -8.970  17.821  68.624  1.00  0.00    -0.287 OA 
HETATM   13  C   UNL     1      -9.044  14.859  66.577  1.00  0.00    -0.309 C  
HETATM   14  C   UNL     1     -10.531  14.458  66.649  1.00  0.00    -0.274 C  
HETATM   15  C   UNL     1     -10.934  12.905  66.650  1.00  0.00    -0.276 C  
HETATM   16  C   UNL     1     -11.202  15.086  65.398  1.00  0.00    -0.356 C  
HETATM   17  F   UNL     1     -12.308  12.895  66.413  1.00  0.00    -0.449 F  
HETATM   18  C   UNL     1     -10.364  12.014  65.513  1.00  0.00    -0.263 C  
HETATM   19  C   UNL     1     -10.841  10.539  65.658  1.00  0.00     0.054 C  
HETATM   20  O   UNL     1      -8.958  12.116  65.343  1.00  0.00    -0.400 OA 
HETATM   21  C   UNL     1     -10.409   9.666  66.919  1.00  0.00    -0.307 C  
HETATM   22  H   UNL     1      -8.609  11.570  64.648  1.00  0.00     0.000 HD 
HETATM   23  C   UNL     1      -9.084   9.241  66.018  1.00  0.00    -0.235 C  
HETATM   24  C   UNL     1      -9.683   8.831  68.171  1.00  0.00    -0.158 C  
HETATM   25  O   UNL     1      -8.238   8.902  68.290  1.00  0.00    -0.118 OA 
HETATM   26  C   UNL     1      -7.664  11.301  68.050  1.00  0.00    -0.108 C  
HETATM   27  O   UNL     1      -9.047  10.415  69.830  1.00  0.00    -0.125 OA 
HETATM   28  C   UNL     1      -7.929  10.124  68.991  1.00  0.00    -0.115 C  
HETATM   29  C   UNL     1      -6.631  10.046  69.789  1.00  0.00    -0.074 C  
ENDROOT
BRANCH  24  30
HETATM   30  C   UNL     1     -10.373   7.407  68.015  1.00  0.00    -0.199 C  
HETATM   31  O   UNL     1     -11.128   7.175  67.056  1.00  0.00    -0.345 OA 
BRANCH  30  32
HETATM   32  C   UNL     1     -10.134   6.285  69.029  1.00  0.00    -0.172 C  
BRANCH  32  33
HETATM   33  O   UNL     1     -11.374   5.864  69.662  1.00  0.00    -0.370 OA 
BRANCH  33  34
HETATM   34  C   UNL     1     -11.684   6.519  70.823  1.00  0.00    -0.366 C  
HETATM   35  C   UNL     1     -10.567   6.513  71.817  1.00  0.00    -0.245 C  
HETATM   36  O   UNL     1     -12.771   7.066  71.029  1.00  0.00    -0.367 OA 
ENDBRANCH  33  34
ENDBRANCH  32  33
ENDBRANCH  30  32
ENDBRANCH  24  30
TORSDOF 4
ENDMDL
MODEL        4
REMARK 921   NORMALIZED FREE ENERGY PREDICTED BY IDOCK:   -7.11 KCAL/MOL
REMARK 922        TOTAL FREE ENERGY PREDICTED BY IDOCK:   -9.40 KCAL/MOL
REMARK 923 INTER-LIGAND FREE ENERGY PREDICTED BY IDOCK:   -8.87 KCAL/MOL
REMARK 924 INTRA-LIGAND FREE ENERGY PREDICTED BY IDOCK:   -0.53 KCAL/MOL
REMARK 927      BINDING AFFINITY PREDICTED BY RF-SCORE:    0.00 PKD
ROOT
HETATM    1  C   UNL     1      -9.607  12.129  66.203  1.00  0.00    -0.240 C  
HETATM    2  C   UNL     1      -8.544  12.583  67.131  1.00  0.00    -0.200 C  
HETATM    3  C   UNL     1      -9.286  13.580  68.027  1.00  0.00    -0.213 C  
HETATM    4  C   UNL     1      -9.206  15.064  67.552  1.00  0.00    -0.189 C  
HETATM    5  C   UNL     1      -7.803  15.514  67.097  1.00  0.00    -0.256 C  
HETATM    6  C   UNL     1      -7.929  16.881  66.451  1.00  0.00    -0.317 C  
HETATM    7  F   UNL     1      -6.732  17.197  65.886  1.00  0.00    -0.237 F  
HETATM    8  C   UNL     1      -8.341  17.917  67.470  1.00  0.00    -0.228 C  
HETATM    9  C   UNL     1      -8.088  19.209  67.149  1.00  0.00    -0.281 C  
HETATM   10  C   UNL     1      -9.175  19.713  66.214  1.00  0.00    -0.375 C  
HETATM   11  C   UNL     1     -10.540  19.136  66.442  1.00  0.00    -0.522 C  
HETATM   12  O   UNL     1      -8.967  20.583  65.385  1.00  0.00     0.339 OA 
HETATM   13  C   UNL     1     -10.771  18.176  67.364  1.00  0.00    -0.355 C  
HETATM   14  C   UNL     1      -9.652  17.582  68.243  1.00  0.00    -0.299 C  
HETATM   15  C   UNL     1      -9.702  16.030  68.649  1.00  0.00    -0.217 C  
HETATM   16  C   UNL     1      -9.683  18.385  69.572  1.00  0.00     0.273 C  
HETATM   17  F   UNL     1      -8.754  15.898  69.664  1.00  0.00    -0.250 F  
HETATM   18  C   UNL     1     -11.008  15.500  69.301  1.00  0.00    -0.268 C  
HETATM   19  C   UNL     1     -10.899  13.982  69.629  1.00  0.00    -0.013 C  
HETATM   20  O   UNL     1     -12.188  15.817  68.581  1.00  0.00    -0.536 OA 
HETATM   21  C   UNL     1     -10.732  12.909  68.463  1.00  0.00    -0.275 C  
HETATM   22  H   UNL     1     -12.987  15.492  68.979  1.00  0.00     0.000 HD 
HETATM   23  C   UNL     1     -12.389  12.872  68.425  1.00  0.00     0.213 C  
HETATM   24  C   UNL     1     -10.794  11.913  67.123  1.00  0.00    -0.255 C  
HETATM   25  O   UNL     1     -11.849  12.139  66.152  1.00  0.00    -0.543 OA 
HETATM   26  C   UNL     1     -11.869  14.584  65.745  1.00  0.00    -0.327 C  
HETATM   27  O   UNL     1      -9.979  13.149  65.259  1.00  0.00    -0.254 OA 
HETATM   28  C   UNL     1     -11.406  13.201  65.282  1.00  0.00    -0.296 C  
HETATM   29  C   UNL     1     -11.997  13.111  63.878  1.00  0.00    -0.550 C  
ENDROOT
BRANCH  24  30
HETATM   30  C   UNL     1     -10.676  10.485  67.811  1.00  0.00    -0.272 C  
HETATM   31  O   UNL     1     -10.770   9.449  67.131  1.00  0.00    -0.249 OA 
BRANCH  30  32
HETATM   32  C   UNL     1     -10.445  10.336  69.318  1.00  0.00    -0.228 C  
BRANCH  32  33
HETATM   33  O   UNL     1     -11.222   9.239  69.872  1.00  0.00    -0.217 OA 
BRANCH  33  34
HETATM   34  C   UNL     1     -11.757   9.472  71.109  1.00  0.00    -0.363 C  
HETATM   35  C   UNL     1     -12.880  10.460  71.087  1.00  0.00    -0.511 C  
HETATM   36  O   UNL     1     -11.361   8.921  72.140  1.00  0.00    -0.356 OA 
ENDBRANCH  33  34
ENDBRANCH  32  33
ENDBRANCH  30  32
ENDBRANCH  24  30
TORSDOF 4
ENDMDL
MODEL        5
REMARK 921   NORMALIZED FREE ENERGY PREDICTED BY IDOCK:   -7.10 KCAL/MOL
REMARK 922        TOTAL FREE ENERGY PREDICTED BY IDOCK:   -9.39 KCAL/MOL
REMARK 923 INTER-LIGAND FREE ENERGY PREDICTED BY IDOCK:   -8.82 KCAL/MOL
REMARK 924 INTRA-LIGAND FREE ENERGY PREDICTED BY IDOCK:   -0.57 KCAL/MOL
REMARK 927      BINDING AFFINITY PREDICTED BY RF-SCORE:    0.00 PKD
ROOT
HETATM    1  C   UNL     1      -9.192  14.944  67.648  1.00  0.00    -0.187 C  
HETATM    2  C   UNL     1      -8.332  13.912  67.022  1.00  0.00    -0.113 C  
HETATM    3  C   UNL     1      -9.261  12.696  66.959  1.00  0.00    -0.212 C  
HETATM    4  C   UNL     1      -9.155  11.734  68.182  1.00  0.00    -0.185 C  
HETATM    5  C   UNL     1      -7.712  11.430  68.633  1.00  0.00    -0.137 C  
HETATM    6  C   UNL     1      -7.773  10.686  69.955  1.00  0.00     0.100 C  
HETATM    7  F   UNL     1      -6.507  10.582  70.443  1.00  0.00    -0.107 F  
HETATM    8  C   UNL     1      -8.402   9.326  69.773  1.00  0.00    -0.143 C  
HETATM    9  C   UNL     1      -8.146   8.411  70.740  1.00  0.00    -0.114 C  
HETATM   10  C   UNL     1      -9.066   8.666  71.922  1.00  0.00    -0.256 C  
HETATM   11  C   UNL     1     -10.426   9.196  71.579  1.00  0.00    -0.422 C  
HETATM   12  O   UNL     1      -8.746   8.387  73.066  1.00  0.00    -0.267 OA 
HETATM   13  C   UNL     1     -10.781   9.500  70.311  1.00  0.00    -0.315 C  
HETATM   14  C   UNL     1      -9.816   9.345  69.119  1.00  0.00    -0.174 C  
HETATM   15  C   UNL     1      -9.878  10.397  67.909  1.00  0.00    -0.154 C  
HETATM   16  C   UNL     1     -10.117   7.951  68.505  1.00  0.00    -0.216 C  
HETATM   17  F   UNL     1      -9.123   9.813  66.891  1.00  0.00    -0.143 F  
HETATM   18  C   UNL     1     -11.258  10.644  67.240  1.00  0.00    -0.161 C  
HETATM   19  C   UNL     1     -11.150  11.691  66.093  1.00  0.00    -0.335 C  
HETATM   20  O   UNL     1     -12.301  10.945  68.154  1.00  0.00    -0.636 OA 
HETATM   21  C   UNL     1     -10.735  13.197  66.404  1.00  0.00    -0.293 C  
HETATM   22  H   UNL     1     -13.145  11.097  67.745  1.00  0.00     0.000 HD 
HETATM   23  C   UNL     1     -12.355  13.471  66.621  1.00  0.00    -0.351 C  
HETATM   24  C   UNL     1     -10.515  14.768  66.927  1.00  0.00    -0.277 C  
HETATM   25  O   UNL     1     -11.387  15.266  67.976  1.00  0.00    -0.318 OA 
HETATM   26  C   UNL     1     -11.428  13.493  69.708  1.00  0.00    -0.246 C  
HETATM   27  O   UNL     1      -9.428  14.684  69.043  1.00  0.00    -0.196 OA 
HETATM   28  C   UNL     1     -10.837  14.821  69.233  1.00  0.00    -0.264 C  
HETATM   29  C   UNL     1     -11.161  15.757  70.394  1.00  0.00    -0.383 C  
ENDROOT
BRANCH  24  30
HETATM   30  C   UNL     1     -10.467  15.539  65.538  1.00  0.00    -0.386 C  
HETATM   31  O   UNL     1     -10.255  14.919  64.482  1.00  0.00    -0.104 OA 
BRANCH  30  32
HETATM   32  C   UNL     1     -10.677  17.053  65.452  1.00  0.00    -0.116 C  
BRANCH  32  33
HETATM   33  O   UNL     1      -9.578  17.781  66.067  1.00  0.00    -0.499 OA 
BRANCH  33  34
HETATM   34  C   UNL     1      -9.942  18.661  67.050  1.00  0.00    -0.340 C  
HETATM   35  C   UNL     1      -9.315  20.010  66.892  1.00  0.00    -0.515 C  
HETATM   36  O   UNL     1     -10.714  18.377  67.970  1.00  0.00    -0.357 OA 
ENDBRANCH  33  34
ENDBRANCH  32  33
ENDBRANCH  30  32
ENDBRANCH  24  30
TORSDOF 4
ENDMDL
MODEL        6
REMARK 921   NORMALIZED FREE ENERGY PREDICTED BY IDOCK:   -6.99 KCAL/MOL
REMARK 922        TOTAL FREE ENERGY PREDICTED BY IDOCK:   -9.25 KCAL/MOL
REMARK 923 INTER-LIGAND FREE ENERGY PREDICTED BY IDOCK:   -8.92 KCAL/MOL
REMARK 924 INTRA-LIGAND FREE ENERGY PREDICTED BY IDOCK:   -0.33 KCAL/MOL
REMARK 927      BINDING AFFINITY PREDICTED BY RF-SCORE:    0.00 PKD
ROOT
HETATM    1  C   UNL     1     -12.029  12.908  67.911  1.00  0.00    -0.282 C  
HETATM    2  C   UNL     1     -11.515  12.240  69.130  1.00  0.00    -0.352 C  
HETATM    3  C   UNL     1     -10.048  11.977  68.772  1.00  0.00    -0.113 C  
HETATM    4  C   UNL     1      -9.774  10.574  68.148  1.00  0.00    -0.166 C  
HETATM    5  C   UNL     1     -10.494   9.408  68.857  1.00  0.00    -0.236 C  
HETATM    6  C   UNL     1     -10.325   8.160  68.010  1.00  0.00    -0.211 C  
HETATM    7  F   UNL     1     -11.110   7.180  68.535  1.00  0.00    -0.195 F  
HETATM    8  C   UNL     1      -8.877   7.735  67.966  1.00  0.00    -0.124 C  
HETATM    9  C   UNL     1      -8.638   6.447  67.618  1.00  0.00    -0.115 C  
HETATM   10  C   UNL     1      -8.709   6.320  66.105  1.00  0.00    -0.145 C  
HETATM   11  C   UNL     1      -8.244   7.518  65.335  1.00  0.00    -0.136 C  
HETATM   12  O   UNL     1      -9.049   5.285  65.556  1.00  0.00    -0.159 OA 
HETATM   13  C   UNL     1      -7.862   8.663  65.944  1.00  0.00    -0.102 C  
HETATM   14  C   UNL     1      -7.890   8.837  67.475  1.00  0.00    -0.102 C  
HETATM   15  C   UNL     1      -8.262  10.266  68.103  1.00  0.00    -0.114 C  
HETATM   16  C   UNL     1      -6.458   8.499  67.969  1.00  0.00    -0.057 C  
HETATM   17  F   UNL     1      -7.902  10.168  69.448  1.00  0.00    -0.096 F  
HETATM   18  C   UNL     1      -7.464  11.501  67.604  1.00  0.00    -0.110 C  
HETATM   19  C   UNL     1      -7.946  12.806  68.302  1.00  0.00    -0.151 C  
HETATM   20  O   UNL     1      -7.412  11.627  66.191  1.00  0.00    -0.366 OA 
HETATM   21  C   UNL     1      -9.429  13.344  68.081  1.00  0.00    -0.218 C  
HETATM   22  H   UNL     1      -6.924  12.383  65.885  1.00  0.00     0.000 HD 
HETATM   23  C   UNL     1      -8.808  14.165  66.782  1.00  0.00    -0.190 C  
HETATM   24  C   UNL     1     -10.922  13.887  67.565  1.00  0.00    -0.276 C  
HETATM   25  O   UNL     1     -11.161  13.968  66.135  1.00  0.00    -0.309 OA 
HETATM   26  C   UNL     1     -10.352  11.821  65.199  1.00  0.00    -0.323 C  
HETATM   27  O   UNL     1     -12.157  11.999  66.803  1.00  0.00    -0.613 OA 
HETATM   28  C   UNL     1     -11.540  12.650  65.691  1.00  0.00    -0.377 C  
HETATM   29  C   UNL     1     -12.454  12.668  64.470  1.00  0.00    -0.525 C  
ENDROOT
BRANCH  24  30
HETATM   30  C   UNL     1     -11.082  15.199  68.447  1.00  0.00    -0.282 C  
HETATM   31  O   UNL     1     -11.658  16.200  67.987  1.00  0.00    -0.236 OA 
BRANCH  30  32
HETATM   32  C   UNL     1     -10.538  15.277  69.876  1.00  0.00    -0.276 C  
BRANCH  32  33
HETATM   33  O   UNL     1     -11.221  16.299  70.653  1.00  0.00    -0.371 OA 
BRANCH  33  34
HETATM   34  C   UNL     1     -12.277  15.853  71.399  1.00  0.00    -0.448 C  
HETATM   35  C   UNL     1     -11.916  15.581  72.825  1.00  0.00    -0.573 C  
HETATM   36  O   UNL     1     -13.415  15.697  70.948  1.00  0.00    -0.569 OA 
ENDBRANCH  33  34
ENDBRANCH  32  33
ENDBRANCH  30  32
ENDBRANCH  24  30
TORSDOF 4
ENDMDL
MODEL        7
REMARK 921   NORMALIZED FREE ENERGY PREDICTED BY IDOCK:   -6.97 KCAL/MOL
REMARK 922        TOTAL FREE ENERGY PREDICTED BY IDOCK:   -9.23 KCAL/MOL
REMARK 923 INTER-LIGAND FREE ENERGY PREDICTED BY IDOCK:   -8.66 KCAL/MOL
REMARK 924 INTRA-LIGAND FREE ENERGY PREDICTED BY IDOCK:   -0.57 KCAL/MOL
REMARK 927      BINDING AFFINITY PREDICTED BY RF-SCORE:    0.00 PKD
ROOT
HETATM    1  C   UNL     1      -8.898  16.930  66.088  1.00  0.00    -0.244 C  
HETATM    2  C   UNL     1     -10.058  16.277  65.436  1.00  0.00    -0.179 C  
HETATM    3  C   UNL     1     -10.746  15.570  66.608  1.00  0.00    -0.306 C  
HETATM    4  C   UNL     1     -10.306  14.089  66.820  1.00  0.00    -0.271 C  
HETATM    5  C   UNL     1     -10.207  13.259  65.524  1.00  0.00    -0.298 C  
HETATM    6  C   UNL     1      -9.551  11.932  65.857  1.00  0.00    -0.231 C  
HETATM    7  F   UNL     1      -9.295  11.278  64.691  1.00  0.00    -0.221 F  
HETATM    8  C   UNL     1     -10.438  11.109  66.761  1.00  0.00    -0.297 C  
HETATM    9  C   UNL     1     -10.191   9.777  66.796  1.00  0.00    -0.300 C  
HETATM   10  C   UNL     1      -9.019   9.514  67.727  1.00  0.00    -0.122 C  
HETATM   11  C   UNL     1      -8.906  10.441  68.900  1.00  0.00    -0.161 C  
HETATM   12  O   UNL     1      -8.266   8.567  67.572  1.00  0.00    -0.115 OA 
HETATM   13  C   UNL     1      -9.743  11.487  69.075  1.00  0.00     0.016 C  
HETATM   14  C   UNL     1     -10.868  11.825  68.077  1.00  0.00    -0.256 C  
HETATM   15  C   UNL     1     -11.249  13.359  67.801  1.00  0.00    -0.279 C  
HETATM   16  C   UNL     1     -12.150  11.148  68.633  1.00  0.00    -0.180 C  
HETATM   17  F   UNL     1     -12.464  13.307  67.119  1.00  0.00    -0.343 F  
HETATM   18  C   UNL     1     -11.562  14.254  69.031  1.00  0.00    -0.305 C  
HETATM   19  C   UNL     1     -11.906  15.710  68.599  1.00  0.00    -0.306 C  
HETATM   20  O   UNL     1     -10.575  14.209  70.050  1.00  0.00    -0.409 OA 
HETATM   21  C   UNL     1     -10.814  16.622  67.880  1.00  0.00    -0.321 C  
HETATM   22  H   UNL     1     -10.766  14.757  70.802  1.00  0.00     0.000 HD 
HETATM   23  C   UNL     1     -10.373  17.087  69.409  1.00  0.00    -0.230 C  
HETATM   24  C   UNL     1      -9.500  17.509  67.354  1.00  0.00    -0.255 C  
HETATM   25  O   UNL     1      -8.301  17.502  68.173  1.00  0.00    -0.233 OA 
HETATM   26  C   UNL     1      -7.902  15.125  68.753  1.00  0.00    -0.147 C  
HETATM   27  O   UNL     1      -7.892  15.982  66.488  1.00  0.00    -0.256 OA 
HETATM   28  C   UNL     1      -7.566  16.306  67.840  1.00  0.00    -0.137 C  
HETATM   29  C   UNL     1      -6.060  16.453  68.038  1.00  0.00    -0.128 C  
ENDROOT
BRANCH  24  30
HETATM   30  C   UNL     1     -10.195  18.899  67.022  1.00  0.00    -0.378 C  
HETATM   31  O   UNL     1     -11.386  19.094  67.318  1.00  0.00    -0.123 OA 
BRANCH  30  32
HETATM   32  C   UNL     1      -9.432  20.033  66.332  1.00  0.00    -0.403 C  
BRANCH  32  33
HETATM   33  O   UNL     1      -8.453  20.638  67.222  1.00  0.00    -0.336 OA 
BRANCH  33  34
HETATM   34  C   UNL     1      -7.147  20.429  66.876  1.00  0.00    -0.277 C  
HETATM   35  C   UNL     1      -6.179  20.961  67.884  1.00  0.00    -0.393 C  
HETATM   36  O   UNL     1      -6.797  19.853  65.841  1.00  0.00    -0.237 OA 
ENDBRANCH  33  34
ENDBRANCH  32  33
ENDBRANCH  30  32
ENDBRANCH  24  30
TORSDOF 4
ENDMDL
MODEL        8
REMARK 921   NORMALIZED FREE ENERGY PREDICTED BY IDOCK:   -6.81 KCAL/MOL
REMARK 922        TOTAL FREE ENERGY PREDICTED BY IDOCK:   -9.03 KCAL/MOL
REMARK 923 INTER-LIGAND FREE ENERGY PREDICTED BY IDOCK:   -8.67 KCAL/MOL
REMARK 924 INTRA-LIGAND FREE ENERGY PREDICTED BY IDOCK:   -0.36 KCAL/MOL
REMARK 927      BINDING AFFINITY PREDICTED BY RF-SCORE:    0.00 PKD
ROOT
HETATM    1  C   UNL     1     -11.928  12.715  67.465  1.00  0.00    -0.250 C  
HETATM    2  C   UNL     1     -11.600  11.860  68.631  1.00  0.00    -0.366 C  
HETATM    3  C   UNL     1     -10.105  11.588  68.435  1.00  0.00    -0.207 C  
HETATM    4  C   UNL     1      -9.781  10.277  67.655  1.00  0.00    -0.189 C  
HETATM    5  C   UNL     1     -10.617   9.054  68.085  1.00  0.00    -0.225 C  
HETATM    6  C   UNL     1     -10.363   7.933  67.095  1.00  0.00    -0.328 C  
HETATM    7  F   UNL     1     -11.234   6.922  67.363  1.00  0.00    -0.364 F  
HETATM    8  C   UNL     1      -8.932   7.457  67.182  1.00  0.00    -0.134 C  
HETATM    9  C   UNL     1      -8.677   6.222  66.684  1.00  0.00    -0.126 C  
HETATM   10  C   UNL     1      -8.543   6.313  65.173  1.00  0.00    -0.023 C  
HETATM   11  C   UNL     1      -7.950   7.588  64.653  1.00  0.00    -0.133 C  
HETATM   12  O   UNL     1      -8.828   5.382  64.438  1.00  0.00    -0.072 OA 
HETATM   13  C   UNL     1      -7.629   8.617  65.468  1.00  0.00    -0.087 C  
HETATM   14  C   UNL     1      -7.862   8.574  66.991  1.00  0.00    -0.096 C  
HETATM   15  C   UNL     1      -8.284   9.915  67.766  1.00  0.00    -0.114 C  
HETATM   16  C   UNL     1      -6.519   8.110  67.615  1.00  0.00    -0.057 C  
HETATM   17  F   UNL     1      -8.114   9.612  69.117  1.00  0.00    -0.086 F  
HETATM   18  C   UNL     1      -7.397  11.173  67.562  1.00  0.00    -0.102 C  
HETATM   19  C   UNL     1      -7.940  12.386  68.373  1.00  0.00    -0.149 C  
HETATM   20  O   UNL     1      -7.150  11.496  66.202  1.00  0.00    -0.369 OA 
HETATM   21  C   UNL     1      -9.366  13.012  68.039  1.00  0.00    -0.213 C  
HETATM   22  H   UNL     1      -6.607  12.266  66.077  1.00  0.00     0.000 HD 
HETATM   23  C   UNL     1      -8.555  13.981  66.966  1.00  0.00    -0.193 C  
HETATM   24  C   UNL     1     -10.762  13.684  67.415  1.00  0.00    -0.267 C  
HETATM   25  O   UNL     1     -10.801  13.978  65.993  1.00  0.00    -0.290 OA 
HETATM   26  C   UNL     1      -9.921  11.952  64.869  1.00  0.00    -0.269 C  
HETATM   27  O   UNL     1     -11.924  11.978  66.229  1.00  0.00    -0.596 OA 
HETATM   28  C   UNL     1     -11.146  12.752  65.315  1.00  0.00    -0.287 C  
HETATM   29  C   UNL     1     -11.884  12.981  64.000  1.00  0.00    -0.510 C  
ENDROOT
BRANCH  24  30
HETATM   30  C   UNL     1     -11.011  14.865  68.450  1.00  0.00    -0.261 C  
HETATM   31  O   UNL     1     -10.891  14.667  69.670  1.00  0.00    -0.241 OA 
BRANCH  30  32
HETATM   32  C   UNL     1     -11.403  16.270  67.986  1.00  0.00    -0.205 C  
BRANCH  32  33
HETATM   33  O   UNL     1     -10.252  17.012  67.494  1.00  0.00    -0.302 OA 
BRANCH  33  34
HETATM   34  C   UNL     1     -10.529  17.941  66.530  1.00  0.00    -0.313 C  
HETATM   35  C   UNL     1     -10.745  19.315  67.081  1.00  0.00    -0.584 C  
HETATM   36  O   UNL     1     -10.588  17.679  65.325  1.00  0.00    -0.663 OA 
ENDBRANCH  33  34
ENDBRANCH  32  33
ENDBRANCH  30  32
ENDBRANCH  24  30
TORSDOF 4
ENDMDL
MODEL        9
REMARK 921   NORMALIZED FREE ENERGY PREDICTED BY IDOCK:   -6.65 KCAL/MOL
REMARK 922        TOTAL FREE ENERGY PREDICTED BY IDOCK:   -8.83 KCAL/MOL
REMARK 923 INTER-LIGAND FREE ENERGY PREDICTED BY IDOCK:   -8.23 KCAL/MOL
REMARK 924 INTRA-LIGAND FREE ENERGY PREDICTED BY IDOCK:   -0.60 KCAL/MOL
REMARK 927      BINDING AFFINITY PREDICTED BY RF-SCORE:    0.00 PKD
ROOT
HETATM    1  C   UNL     1      -9.218  17.510  65.857  1.00  0.00     0.089 C  
HETATM    2  C   UNL     1     -10.529  17.016  65.373  1.00  0.00    -0.129 C  
HETATM    3  C   UNL     1     -10.940  16.029  66.470  1.00  0.00    -0.080 C  
HETATM    4  C   UNL     1     -10.525  14.549  66.201  1.00  0.00    -0.303 C  
HETATM    5  C   UNL     1     -10.780  14.066  64.759  1.00  0.00    -0.442 C  
HETATM    6  C   UNL     1     -10.119  12.711  64.587  1.00  0.00    -0.235 C  
HETATM    7  F   UNL     1     -10.183  12.369  63.272  1.00  0.00    -0.408 F  
HETATM    8  C   UNL     1     -10.794  11.674  65.454  1.00  0.00    -0.336 C  
HETATM    9  C   UNL     1     -10.602  10.380  65.103  1.00  0.00    -0.034 C  
HETATM   10  C   UNL     1      -9.250   9.918  65.623  1.00  0.00    -0.194 C  
HETATM   11  C   UNL     1      -8.816  10.530  66.921  1.00  0.00    -0.143 C  
HETATM   12  O   UNL     1      -8.599   9.053  65.062  1.00  0.00    -0.165 OA 
HETATM   13  C   UNL     1      -9.540  11.485  67.545  1.00  0.00    -0.179 C  
HETATM   14  C   UNL     1     -10.860  12.036  66.968  1.00  0.00    -0.297 C  
HETATM   15  C   UNL     1     -11.230  13.583  67.177  1.00  0.00    -0.305 C  
HETATM   16  C   UNL     1     -11.994  11.218  67.642  1.00  0.00     0.071 C  
HETATM   17  F   UNL     1     -12.576  13.677  66.823  1.00  0.00    -0.392 F  
HETATM   18  C   UNL     1     -11.196  14.142  68.626  1.00  0.00    -0.266 C  
HETATM   19  C   UNL     1     -11.573  15.652  68.658  1.00  0.00    -0.391 C  
HETATM   20  O   UNL     1      -9.994  13.867  69.327  1.00  0.00    -0.423 OA 
HETATM   21  C   UNL     1     -10.652  16.734  67.936  1.00  0.00    -0.350 C  
HETATM   22  H   UNL     1      -9.973  14.209  70.213  1.00  0.00     0.000 HD 
HETATM   23  C   UNL     1      -9.833  16.817  69.375  1.00  0.00    -0.095 C  
HETATM   24  C   UNL     1      -9.469  17.748  67.335  1.00  0.00    -0.254 C  
HETATM   25  O   UNL     1      -8.108  17.564  67.805  1.00  0.00    -0.213 OA 
HETATM   26  C   UNL     1      -7.681  15.126  67.674  1.00  0.00    -0.186 C  
HETATM   27  O   UNL     1      -8.187  16.513  65.755  1.00  0.00    -0.273 OA 
HETATM   28  C   UNL     1      -7.528  16.501  67.022  1.00  0.00    -0.204 C  
HETATM   29  C   UNL     1      -6.014  16.624  66.872  1.00  0.00    -0.152 C  
ENDROOT
BRANCH  24  30
HETATM   30  C   UNL     1     -10.165  19.164  67.532  1.00  0.00    -0.403 C  
HETATM   31  O   UNL     1     -11.395  19.244  67.685  1.00  0.00    -0.131 OA 
BRANCH  30  32
HETATM   32  C   UNL     1      -9.354  20.463  67.539  1.00  0.00    -0.367 C  
BRANCH  32  33
HETATM   33  O   UNL     1      -8.502  20.568  66.365  1.00  0.00    -0.110 OA 
BRANCH  33  34
HETATM   34  C   UNL     1      -7.163  20.663  66.626  1.00  0.00    -0.219 C  
HETATM   35  C   UNL     1      -6.312  20.034  65.569  1.00  0.00    -0.267 C  
HETATM   36  O   UNL     1      -6.699  21.218  67.626  1.00  0.00    -0.441 OA 
ENDBRANCH  33  34
ENDBRANCH  32  33
ENDBRANCH  30  32
ENDBRANCH  24  30
TORSDOF 4
ENDMDL
MODEL       10
REMARK 921   NORMALIZED FREE ENERGY PREDICTED BY IDOCK:   -6.61 KCAL/MOL
REMARK 922        TOTAL FREE ENERGY PREDICTED BY IDOCK:   -8.79 KCAL/MOL
REMARK 923 INTER-LIGAND FREE ENERGY PREDICTED BY IDOCK:   -8.19 KCAL/MOL
REMARK 924 INTRA-LIGAND FREE ENERGY PREDICTED BY IDOCK:   -0.60 KCAL/MOL
REMARK 927      BINDING AFFINITY PREDICTED BY RF-SCORE:    0.00 PKD
ROOT
HETATM    1  C   UNL     1      -7.162  10.058  67.514  1.00  0.00    -0.089 C  
HETATM    2  C   UNL     1      -7.073  11.205  68.449  1.00  0.00    -0.076 C  
HETATM    3  C   UNL     1      -8.545  11.523  68.729  1.00  0.00    -0.055 C  
HETATM    4  C   UNL     1      -9.163  12.609  67.796  1.00  0.00    -0.195 C  
HETATM    5  C   UNL     1      -8.261  13.839  67.562  1.00  0.00    -0.194 C  
HETATM    6  C   UNL     1      -8.884  14.683  66.465  1.00  0.00    -0.155 C  
HETATM    7  F   UNL     1      -8.002  15.664  66.130  1.00  0.00    -0.210 F  
HETATM    8  C   UNL     1     -10.201  15.266  66.922  1.00  0.00    -0.268 C  
HETATM    9  C   UNL     1     -10.650  16.346  66.237  1.00  0.00    -0.243 C  
HETATM   10  C   UNL     1     -11.316  15.880  64.953  1.00  0.00    -0.256 C  
HETATM   11  C   UNL     1     -12.021  14.560  65.035  1.00  0.00    -0.399 C  
HETATM   12  O   UNL     1     -11.338  16.568  63.946  1.00  0.00    -1.057 OA 
HETATM   13  C   UNL     1     -12.000  13.800  66.152  1.00  0.00    -0.449 C  
HETATM   14  C   UNL     1     -11.237  14.216  67.425  1.00  0.00    -0.334 C  
HETATM   15  C   UNL     1     -10.529  13.093  68.327  1.00  0.00    -0.250 C  
HETATM   16  C   UNL     1     -12.278  14.920  68.336  1.00  0.00    -0.053 C  
HETATM   17  F   UNL     1     -10.211  13.744  69.519  1.00  0.00    -0.012 F  
HETATM   18  C   UNL     1     -11.396  11.892  68.791  1.00  0.00    -0.274 C  
HETATM   19  C   UNL     1     -10.566  10.893  69.649  1.00  0.00    -0.178 C  
HETATM   20  O   UNL     1     -12.106  11.249  67.744  1.00  0.00    -0.631 OA 
HETATM   21  C   UNL     1      -9.338  10.102  69.012  1.00  0.00    -0.192 C  
HETATM   22  H   UNL     1     -12.637  10.513  68.027  1.00  0.00     0.000 HD 
HETATM   23  C   UNL     1     -10.455   8.950  68.594  1.00  0.00    -0.223 C  
HETATM   24  C   UNL     1      -8.242   9.194  68.138  1.00  0.00    -0.116 C  
HETATM   25  O   UNL     1      -8.708   8.543  66.927  1.00  0.00    -0.124 OA 
HETATM   26  C   UNL     1      -9.987  10.269  65.691  1.00  0.00    -0.347 C  
HETATM   27  O   UNL     1      -7.630  10.451  66.211  1.00  0.00    -0.114 OA 
HETATM   28  C   UNL     1      -8.663   9.525  65.872  1.00  0.00    -0.147 C  
HETATM   29  C   UNL     1      -8.441   8.914  64.492  1.00  0.00    -0.178 C  
ENDROOT
BRANCH  24  30
HETATM   30  C   UNL     1      -7.607   8.305  69.292  1.00  0.00    -0.094 C  
HETATM   31  O   UNL     1      -6.993   7.260  69.016  1.00  0.00    -0.072 OA 
BRANCH  30  32
HETATM   32  C   UNL     1      -7.728   8.697  70.767  1.00  0.00    -0.090 C  
BRANCH  32  33
HETATM   33  O   UNL     1      -8.414   7.673  71.539  1.00  0.00    -0.111 OA 
BRANCH  33  34
HETATM   34  C   UNL     1      -8.989   8.109  72.701  1.00  0.00    -0.232 C  
HETATM   35  C   UNL     1     -10.484   8.098  72.657  1.00  0.00    -0.401 C  
HETATM   36  O   UNL     1      -8.343   8.469  73.690  1.00  0.00    -0.373 OA 
ENDBRANCH  33  34
ENDBRANCH  32  33
ENDBRANCH  30  32
ENDBRANCH  24  30
TORSDOF 4
ENDMDL
MODEL       11
REMARK 921   NORMALIZED FREE ENERGY PREDICTED BY IDOCK:   -6.54 KCAL/MOL
REMARK 922        TOTAL FREE ENERGY PREDICTED BY IDOCK:   -8.70 KCAL/MOL
REMARK 923 INTER-LIGAND FREE ENERGY PREDICTED BY IDOCK:   -8.36 KCAL/MOL
REMARK 924 INTRA-LIGAND FREE ENERGY PREDICTED BY IDOCK:   -0.34 KCAL/MOL
REMARK 927      BINDING AFFINITY PREDICTED BY RF-SCORE:    0.00 PKD
ROOT
HETATM    1  C   UNL     1      -9.173   8.407  66.283  1.00  0.00    -0.208 C  
HETATM    2  C   UNL     1     -10.515   7.950  66.715  1.00  0.00    -0.317 C  
HETATM    3  C   UNL     1     -10.605   8.486  68.148  1.00  0.00    -0.181 C  
HETATM    4  C   UNL     1     -10.146   7.479  69.247  1.00  0.00    -0.188 C  
HETATM    5  C   UNL     1     -10.667   6.041  69.053  1.00  0.00    -0.393 C  
HETATM    6  C   UNL     1      -9.957   5.140  70.048  1.00  0.00    -0.256 C  
HETATM    7  F   UNL     1     -10.276   3.850  69.756  1.00  0.00    -0.198 F  
HETATM    8  C   UNL     1     -10.349   5.493  71.463  1.00  0.00    -0.282 C  
HETATM    9  C   UNL     1     -10.139   4.538  72.401  1.00  0.00    -0.243 C  
HETATM   10  C   UNL     1      -8.676   4.559  72.814  1.00  0.00    -0.113 C  
HETATM   11  C   UNL     1      -8.022   5.907  72.798  1.00  0.00    -0.104 C  
HETATM   12  O   UNL     1      -8.096   3.558  73.203  1.00  0.00    -0.073 OA 
HETATM   13  C   UNL     1      -8.666   7.016  72.372  1.00  0.00    -0.136 C  
HETATM   14  C   UNL     1     -10.116   6.984  71.850  1.00  0.00    -0.198 C  
HETATM   15  C   UNL     1     -10.550   7.965  70.656  1.00  0.00    -0.219 C  
HETATM   16  C   UNL     1     -11.014   7.346  73.063  1.00  0.00    -0.422 C  
HETATM   17  F   UNL     1     -11.944   7.910  70.640  1.00  0.00    -0.278 F  
HETATM   18  C   UNL     1     -10.248   9.479  70.823  1.00  0.00    -0.293 C  
HETATM   19  C   UNL     1     -10.723  10.290  69.583  1.00  0.00    -0.299 C  
HETATM   20  O   UNL     1      -8.906   9.769  71.181  1.00  0.00    -0.299 OA 
HETATM   21  C   UNL     1     -10.064  10.047  68.153  1.00  0.00    -0.186 C  
HETATM   22  H   UNL     1      -8.721  10.695  71.283  1.00  0.00     0.000 HD 
HETATM   23  C   UNL     1      -8.963  11.204  68.598  1.00  0.00    -0.162 C  
HETATM   24  C   UNL     1      -9.118   9.835  66.792  1.00  0.00    -0.146 C  
HETATM   25  O   UNL     1      -7.678   9.945  66.939  1.00  0.00    -0.098 OA 
HETATM   26  C   UNL     1      -7.105   8.594  68.936  1.00  0.00    -0.066 C  
HETATM   27  O   UNL     1      -8.114   7.681  66.933  1.00  0.00    -0.112 OA 
HETATM   28  C   UNL     1      -7.200   8.669  67.411  1.00  0.00    -0.080 C  
HETATM   29  C   UNL     1      -5.768   8.367  66.979  1.00  0.00    -0.042 C  
ENDROOT
BRANCH  24  30
HETATM   30  C   UNL     1      -9.861  10.792  65.763  1.00  0.00    -0.240 C  
HETATM   31  O   UNL     1      -9.404  10.963  64.621  1.00  0.00    -0.208 OA 
BRANCH  30  32
HETATM   32  C   UNL     1     -11.150  11.529  66.139  1.00  0.00    -0.244 C  
BRANCH  32  33
HETATM   33  O   UNL     1     -11.196  12.859  65.551  1.00  0.00    -0.281 OA 
BRANCH  33  34
HETATM   34  C   UNL     1     -12.291  13.111  64.771  1.00  0.00    -0.423 C  
HETATM   35  C   UNL     1     -12.205  12.482  63.417  1.00  0.00    -0.613 C  
HETATM   36  O   UNL     1     -13.256  13.783  65.145  1.00  0.00    -0.757 OA 
ENDBRANCH  33  34
ENDBRANCH  32  33
ENDBRANCH  30  32
ENDBRANCH  24  30
TORSDOF 4
ENDMDL
MODEL       12
REMARK 921   NORMALIZED FREE ENERGY PREDICTED BY IDOCK:   -6.54 KCAL/MOL
REMARK 922        TOTAL FREE ENERGY PREDICTED BY IDOCK:   -8.70 KCAL/MOL
REMARK 923 INTER-LIGAND FREE ENERGY PREDICTED BY IDOCK:   -8.10 KCAL/MOL
REMARK 924 INTRA-LIGAND FREE ENERGY PREDICTED BY IDOCK:   -0.60 KCAL/MOL
REMARK 927      BINDING AFFINITY PREDICTED BY RF-SCORE:    0.00 PKD
ROOT
HETATM    1  C   UNL     1      -9.027   8.588  68.701  1.00  0.00    -0.139 C  
HETATM    2  C   UNL     1     -10.439   8.776  68.293  1.00  0.00    -0.236 C  
HETATM    3  C   UNL     1     -10.383  10.078  67.487  1.00  0.00    -0.282 C  
HETATM    4  C   UNL     1     -10.675  11.367  68.315  1.00  0.00    -0.240 C  
HETATM    5  C   UNL     1     -11.872  11.248  69.281  1.00  0.00    -0.423 C  
HETATM    6  C   UNL     1     -11.886  12.475  70.174  1.00  0.00    -0.258 C  
HETATM    7  F   UNL     1     -12.823  12.286  71.143  1.00  0.00    -0.422 F  
HETATM    8  C   UNL     1     -12.179  13.718  69.368  1.00  0.00    -0.325 C  
HETATM    9  C   UNL     1     -12.632  14.791  70.060  1.00  0.00    -0.268 C  
HETATM   10  C   UNL     1     -11.453  15.501  70.705  1.00  0.00    -0.367 C  
HETATM   11  C   UNL     1     -10.171  15.458  69.929  1.00  0.00    -0.279 C  
HETATM   12  O   UNL     1     -11.561  16.127  71.746  1.00  0.00    -0.459 OA 
HETATM   13  C   UNL     1     -10.052  14.769  68.772  1.00  0.00    -0.237 C  
HETATM   14  C   UNL     1     -11.215  13.957  68.167  1.00  0.00    -0.293 C  
HETATM   15  C   UNL     1     -10.905  12.585  67.394  1.00  0.00    -0.240 C  
HETATM   16  C   UNL     1     -11.900  14.895  67.138  1.00  0.00    -0.229 C  
HETATM   17  F   UNL     1     -12.090  12.278  66.726  1.00  0.00    -0.414 F  
HETATM   18  C   UNL     1      -9.847  12.622  66.258  1.00  0.00    -0.262 C  
HETATM   19  C   UNL     1      -9.658  11.218  65.615  1.00  0.00    -0.260 C  
HETATM   20  O   UNL     1      -8.614  13.220  66.631  1.00  0.00    -0.418 OA 
HETATM   21  C   UNL     1      -9.082  10.003  66.471  1.00  0.00    -0.172 C  
HETATM   22  H   UNL     1      -7.967  13.243  65.936  1.00  0.00     0.000 HD 
HETATM   23  C   UNL     1      -7.587  10.526  65.981  1.00  0.00    -0.140 C  
HETATM   24  C   UNL     1      -8.259   8.914  67.434  1.00  0.00    -0.108 C  
HETATM   25  O   UNL     1      -7.020   9.350  68.052  1.00  0.00    -0.077 OA 
HETATM   26  C   UNL     1      -7.507  11.577  69.026  1.00  0.00    -0.073 C  
HETATM   27  O   UNL     1      -8.618   9.534  69.704  1.00  0.00    -0.150 OA 
HETATM   28  C   UNL     1      -7.373  10.070  69.251  1.00  0.00    -0.091 C  
HETATM   29  C   UNL     1      -6.300   9.995  70.334  1.00  0.00    -0.115 C  
ENDROOT
BRANCH  24  30
HETATM   30  C   UNL     1      -8.237   7.639  66.486  1.00  0.00    -0.125 C  
HETATM   31  O   UNL     1      -8.612   7.727  65.304  1.00  0.00    -0.130 OA 
BRANCH  30  32
HETATM   32  C   UNL     1      -7.759   6.273  66.987  1.00  0.00    -0.100 C  
BRANCH  32  33
HETATM   33  O   UNL     1      -8.611   5.198  66.504  1.00  0.00    -0.111 OA 
BRANCH  33  34
HETATM   34  C   UNL     1      -9.838   5.116  67.102  1.00  0.00    -0.170 C  
HETATM   35  C   UNL     1      -9.758   4.953  68.587  1.00  0.00    -0.225 C  
HETATM   36  O   UNL     1     -10.905   5.178  66.485  1.00  0.00    -0.258 OA 
ENDBRANCH  33  34
ENDBRANCH  32  33
ENDBRANCH  30  32
ENDBRANCH  24  30
TORSDOF 4
ENDMDL
MODEL       13
REMARK 921   NORMALIZED FREE ENERGY PREDICTED BY IDOCK:   -6.44 KCAL/MOL
REMARK 922        TOTAL FREE ENERGY PREDICTED BY IDOCK:   -8.57 KCAL/MOL
REMARK 923 INTER-LIGAND FREE ENERGY PREDICTED BY IDOCK:   -8.09 KCAL/MOL
REMARK 924 INTRA-LIGAND FREE ENERGY PREDICTED BY IDOCK:   -0.48 KCAL/MOL
REMARK 927      BINDING AFFINITY PREDICTED BY RF-SCORE:    0.00 PKD
ROOT
HETATM    1  C   UNL     1     -10.127   9.302  69.376  1.00  0.00    -0.197 C  
HETATM    2  C   UNL     1     -11.463   9.852  69.046  1.00  0.00     0.003 C  
HETATM    3  C   UNL     1     -11.204  10.593  67.731  1.00  0.00    -0.383 C  
HETATM    4  C   UNL     1     -10.860  12.105  67.895  1.00  0.00    -0.254 C  
HETATM    5  C   UNL     1     -11.752  12.857  68.904  1.00  0.00    -0.370 C  
HETATM    6  C   UNL     1     -11.157  14.235  69.130  1.00  0.00    -0.262 C  
HETATM    7  F   UNL     1     -11.832  14.828  70.152  1.00  0.00    -0.272 F  
HETATM    8  C   UNL     1     -11.236  15.064  67.870  1.00  0.00    -0.330 C  
HETATM    9  C   UNL     1     -11.140  16.407  68.027  1.00  0.00    -0.292 C  
HETATM   10  C   UNL     1      -9.676  16.788  68.172  1.00  0.00    -0.247 C  
HETATM   11  C   UNL     1      -8.710  15.942  67.399  1.00  0.00    -0.197 C  
HETATM   12  O   UNL     1      -9.319  17.762  68.814  1.00  0.00    -0.282 OA 
HETATM   13  C   UNL     1      -9.107  14.867  66.684  1.00  0.00    -0.309 C  
HETATM   14  C   UNL     1     -10.578  14.410  66.619  1.00  0.00    -0.282 C  
HETATM   15  C   UNL     1     -10.918  12.843  66.540  1.00  0.00    -0.275 C  
HETATM   16  C   UNL     1     -11.167  15.052  65.334  1.00  0.00    -0.356 C  
HETATM   17  F   UNL     1     -12.267  12.790  66.189  1.00  0.00    -0.459 F  
HETATM   18  C   UNL     1     -10.221  12.011  65.430  1.00  0.00    -0.263 C  
HETATM   19  C   UNL     1     -10.650  10.516  65.491  1.00  0.00    -0.138 C  
HETATM   20  O   UNL     1      -8.811  12.170  65.382  1.00  0.00    -0.314 OA 
HETATM   21  C   UNL     1     -10.289   9.619  66.758  1.00  0.00    -0.292 C  
HETATM   22  H   UNL     1      -8.385  11.661  64.703  1.00  0.00     0.000 HD 
HETATM   23  C   UNL     1      -8.878   9.273  65.960  1.00  0.00    -0.191 C  
HETATM   24  C   UNL     1      -9.638   8.771  68.041  1.00  0.00    -0.142 C  
HETATM   25  O   UNL     1      -8.211   8.891  68.284  1.00  0.00    -0.118 OA 
HETATM   26  C   UNL     1      -7.715  11.317  68.163  1.00  0.00    -0.112 C  
HETATM   27  O   UNL     1      -9.204  10.324  69.793  1.00  0.00    -0.180 OA 
HETATM   28  C   UNL     1      -8.009  10.101  69.043  1.00  0.00    -0.115 C  
HETATM   29  C   UNL     1      -6.780  10.045  69.945  1.00  0.00    -0.099 C  
ENDROOT
BRANCH  24  30
HETATM   30  C   UNL     1     -10.255   7.329  67.787  1.00  0.00    -0.195 C  
HETATM   31  O   UNL     1     -11.158   7.170  66.949  1.00  0.00    -0.327 OA 
BRANCH  30  32
HETATM   32  C   UNL     1      -9.765   6.099  68.557  1.00  0.00    -0.127 C  
BRANCH  32  33
HETATM   33  O   UNL     1      -8.899   5.266  67.738  1.00  0.00    -0.107 OA 
BRANCH  33  34
HETATM   34  C   UNL     1      -9.456   4.092  67.311  1.00  0.00    -0.189 C  
HETATM   35  C   UNL     1      -9.302   2.976  68.294  1.00  0.00    -0.253 C  
HETATM   36  O   UNL     1     -10.035   3.965  66.228  1.00  0.00    -0.165 OA 
ENDBRANCH  33  34
ENDBRANCH  32  33
ENDBRANCH  30  32
ENDBRANCH  24  30
TORSDOF 4
ENDMDL
MODEL       14
REMARK 921   NORMALIZED FREE ENERGY PREDICTED BY IDOCK:   -6.40 KCAL/MOL
REMARK 922        TOTAL FREE ENERGY PREDICTED BY IDOCK:   -8.53 KCAL/MOL
REMARK 923 INTER-LIGAND FREE ENERGY PREDICTED BY IDOCK:   -8.15 KCAL/MOL
REMARK 924 INTRA-LIGAND FREE ENERGY PREDICTED BY IDOCK:   -0.37 KCAL/MOL
REMARK 927      BINDING AFFINITY PREDICTED BY RF-SCORE:    0.00 PKD
ROOT
HETATM    1  C   UNL     1      -9.571  12.011  66.388  1.00  0.00    -0.228 C  
HETATM    2  C   UNL     1      -8.504  12.554  67.262  1.00  0.00    -0.185 C  
HETATM    3  C   UNL     1      -9.269  13.542  68.149  1.00  0.00    -0.208 C  
HETATM    4  C   UNL     1      -9.287  15.009  67.621  1.00  0.00    -0.194 C  
HETATM    5  C   UNL     1      -7.926  15.517  67.100  1.00  0.00    -0.255 C  
HETATM    6  C   UNL     1      -8.148  16.852  66.413  1.00  0.00    -0.315 C  
HETATM    7  F   UNL     1      -6.989  17.210  65.795  1.00  0.00    -0.239 F  
HETATM    8  C   UNL     1      -8.582  17.900  67.409  1.00  0.00    -0.239 C  
HETATM    9  C   UNL     1      -8.411  19.192  67.036  1.00  0.00    -0.294 C  
HETATM   10  C   UNL     1      -9.554  19.602  66.123  1.00  0.00    -0.386 C  
HETATM   11  C   UNL     1     -10.877  18.961  66.418  1.00  0.00    -0.231 C  
HETATM   12  O   UNL     1      -9.422  20.452  65.257  1.00  0.00     0.152 OA 
HETATM   13  C   UNL     1     -11.025  18.024  67.380  1.00  0.00    -0.095 C  
HETATM   14  C   UNL     1      -9.846  17.524  68.239  1.00  0.00    -0.319 C  
HETATM   15  C   UNL     1      -9.798  15.988  68.700  1.00  0.00    -0.218 C  
HETATM   16  C   UNL     1      -9.877  18.372  69.540  1.00  0.00     0.230 C  
HETATM   17  F   UNL     1      -8.811  15.943  69.685  1.00  0.00    -0.250 F  
HETATM   18  C   UNL     1     -11.050  15.412  69.416  1.00  0.00    -0.282 C  
HETATM   19  C   UNL     1     -10.848  13.915  69.792  1.00  0.00     0.115 C  
HETATM   20  O   UNL     1     -12.270  15.639  68.726  1.00  0.00    -0.578 OA 
HETATM   21  C   UNL     1     -10.661  12.811  68.658  1.00  0.00    -0.273 C  
HETATM   22  H   UNL     1     -13.036  15.286  69.164  1.00  0.00     0.000 HD 
HETATM   23  C   UNL     1     -12.314  12.684  68.680  1.00  0.00     0.251 C  
HETATM   24  C   UNL     1     -10.712  11.765  67.356  1.00  0.00    -0.236 C  
HETATM   25  O   UNL     1     -11.810  11.899  66.416  1.00  0.00    -0.561 OA 
HETATM   26  C   UNL     1     -11.977  14.322  65.925  1.00  0.00    -0.400 C  
HETATM   27  O   UNL     1     -10.029  12.974  65.423  1.00  0.00    -0.263 OA 
HETATM   28  C   UNL     1     -11.456  12.950  65.495  1.00  0.00    -0.326 C  
HETATM   29  C   UNL     1     -12.087  12.778  64.117  1.00  0.00    -0.513 C  
ENDROOT
BRANCH  24  30
HETATM   30  C   UNL     1     -10.494  10.371  68.089  1.00  0.00    -0.188 C  
HETATM   31  O   UNL     1     -10.285  10.330  69.313  1.00  0.00    -0.201 OA 
BRANCH  30  32
HETATM   32  C   UNL     1     -10.531   9.046  67.321  1.00  0.00    -0.273 C  
BRANCH  32  33
HETATM   33  O   UNL     1      -9.971   7.958  68.106  1.00  0.00    -0.167 OA 
BRANCH  33  34
HETATM   34  C   UNL     1     -10.694   6.797  68.088  1.00  0.00    -0.236 C  
HETATM   35  C   UNL     1     -10.695   6.126  66.751  1.00  0.00    -0.371 C  
HETATM   36  O   UNL     1     -11.280   6.341  69.074  1.00  0.00    -0.375 OA 
ENDBRANCH  33  34
ENDBRANCH  32  33
ENDBRANCH  30  32
ENDBRANCH  24  30
TORSDOF 4
ENDMDL
MODEL       15
REMARK 921   NORMALIZED FREE ENERGY PREDICTED BY IDOCK:   -6.40 KCAL/MOL
REMARK 922        TOTAL FREE ENERGY PREDICTED BY IDOCK:   -8.52 KCAL/MOL
REMARK 923 INTER-LIGAND FREE ENERGY PREDICTED BY IDOCK:   -8.11 KCAL/MOL
REMARK 924 INTRA-LIGAND FREE ENERGY PREDICTED BY IDOCK:   -0.41 KCAL/MOL
REMARK 927      BINDING AFFINITY PREDICTED BY RF-SCORE:    0.00 PKD
ROOT
HETATM    1  C   UNL     1      -8.752  11.160  66.410  1.00  0.00    -0.177 C  
HETATM    2  C   UNL     1      -8.075  11.690  67.617  1.00  0.00    -0.140 C  
HETATM    3  C   UNL     1      -9.130  12.634  68.203  1.00  0.00    -0.204 C  
HETATM    4  C   UNL     1      -9.001  14.119  67.741  1.00  0.00    -0.187 C  
HETATM    5  C   UNL     1      -7.559  14.666  67.746  1.00  0.00    -0.173 C  
HETATM    6  C   UNL     1      -7.562  16.020  67.060  1.00  0.00    -0.230 C  
HETATM    7  F   UNL     1      -6.271  16.418  66.898  1.00  0.00    -0.196 F  
HETATM    8  C   UNL     1      -8.347  17.026  67.867  1.00  0.00    -0.201 C  
HETATM    9  C   UNL     1      -8.091  18.332  67.611  1.00  0.00    -0.249 C  
HETATM   10  C   UNL     1      -8.852  18.755  66.366  1.00  0.00    -0.291 C  
HETATM   11  C   UNL     1     -10.176  18.082  66.160  1.00  0.00    -0.364 C  
HETATM   12  O   UNL     1      -8.448  19.635  65.624  1.00  0.00    -0.369 OA 
HETATM   13  C   UNL     1     -10.626  17.111  66.984  1.00  0.00    -0.227 C  
HETATM   14  C   UNL     1      -9.811  16.601  68.189  1.00  0.00    -0.250 C  
HETATM   15  C   UNL     1      -9.885  15.051  68.597  1.00  0.00    -0.222 C  
HETATM   16  C   UNL     1     -10.319  17.403  69.418  1.00  0.00    -0.120 C  
HETATM   17  F   UNL     1      -9.305  14.989  69.865  1.00  0.00    -0.154 F  
HETATM   18  C   UNL     1     -11.292  14.430  68.812  1.00  0.00    -0.273 C  
HETATM   19  C   UNL     1     -11.194  12.925  69.196  1.00  0.00    -0.293 C  
HETATM   20  O   UNL     1     -12.198  14.660  67.744  1.00  0.00    -0.595 OA 
HETATM   21  C   UNL     1     -10.591  11.863  68.171  1.00  0.00    -0.233 C  
HETATM   22  H   UNL     1     -13.059  14.280  67.875  1.00  0.00     0.000 HD 
HETATM   23  C   UNL     1     -12.142  11.709  67.608  1.00  0.00     0.133 C  
HETATM   24  C   UNL     1     -10.153  10.861  66.908  1.00  0.00    -0.212 C  
HETATM   25  O   UNL     1     -10.855  11.009  65.646  1.00  0.00    -0.198 OA 
HETATM   26  C   UNL     1     -10.906  13.445  65.191  1.00  0.00    -0.322 C  
HETATM   27  O   UNL     1      -8.869  12.148  65.371  1.00  0.00     0.274 OA 
HETATM   28  C   UNL     1     -10.229  12.097  64.936  1.00  0.00    -0.280 C  
HETATM   29  C   UNL     1     -10.331  11.962  63.420  1.00  0.00    -0.481 C  
ENDROOT
BRANCH  24  30
HETATM   30  C   UNL     1     -10.167   9.447  67.634  1.00  0.00    -0.227 C  
HETATM   31  O   UNL     1     -10.259   8.401  66.970  1.00  0.00    -0.250 OA 
BRANCH  30  32
HETATM   32  C   UNL     1     -10.070   9.326  69.157  1.00  0.00    -0.199 C  
BRANCH  32  33
HETATM   33  O   UNL     1     -10.901   8.243  69.661  1.00  0.00    -0.226 OA 
BRANCH  33  34
HETATM   34  C   UNL     1     -11.399   8.431  70.921  1.00  0.00    -0.268 C  
HETATM   35  C   UNL     1     -10.358   8.858  71.907  1.00  0.00    -0.407 C  
HETATM   36  O   UNL     1     -12.587   8.274  71.217  1.00  0.00    -0.296 OA 
ENDBRANCH  33  34
ENDBRANCH  32  33
ENDBRANCH  30  32
ENDBRANCH  24  30
TORSDOF 4
ENDMDL
MODEL       16
REMARK 921   NORMALIZED FREE ENERGY PREDICTED BY IDOCK:   -6.19 KCAL/MOL
REMARK 922        TOTAL FREE ENERGY PREDICTED BY IDOCK:   -8.27 KCAL/MOL
REMARK 923 INTER-LIGAND FREE ENERGY PREDICTED BY IDOCK:   -7.75 KCAL/MOL
REMARK 924 INTRA-LIGAND FREE ENERGY PREDICTED BY IDOCK:   -0.52 KCAL/MOL
REMARK 927      BINDING AFFINITY PREDICTED BY RF-SCORE:    0.00 PKD
ROOT
HETATM    1  C   UNL     1      -9.625  16.318  66.417  1.00  0.00    -0.291 C  
HETATM    2  C   UNL     1     -10.806  15.579  65.911  1.00  0.00    -0.317 C  
HETATM    3  C   UNL     1     -10.779  14.294  66.745  1.00  0.00    -0.287 C  
HETATM    4  C   UNL     1     -10.019  13.105  66.080  1.00  0.00    -0.291 C  
HETATM    5  C   UNL     1     -10.330  12.906  64.582  1.00  0.00    -0.366 C  
HETATM    6  C   UNL     1      -9.357  11.882  64.027  1.00  0.00     0.165 C  
HETATM    7  F   UNL     1      -9.507  11.843  62.675  1.00  0.00    -0.333 F  
HETATM    8  C   UNL     1      -9.600  10.525  64.643  1.00  0.00    -0.349 C  
HETATM    9  C   UNL     1      -9.114   9.460  63.961  1.00  0.00    -0.110 C  
HETATM   10  C   UNL     1      -7.630   9.315  64.255  1.00  0.00    -0.112 C  
HETATM   11  C   UNL     1      -7.204   9.719  65.633  1.00  0.00    -0.106 C  
HETATM   12  O   UNL     1      -6.852   8.831  63.449  1.00  0.00    -0.089 OA 
HETATM   13  C   UNL     1      -8.066  10.250  66.528  1.00  0.00    -0.121 C  
HETATM   14  C   UNL     1      -9.552  10.500  66.200  1.00  0.00    -0.237 C  
HETATM   15  C   UNL     1     -10.295  11.779  66.822  1.00  0.00    -0.219 C  
HETATM   16  C   UNL     1     -10.318   9.253  66.717  1.00  0.00    -0.296 C  
HETATM   17  F   UNL     1     -11.652  11.547  66.594  1.00  0.00    -0.374 F  
HETATM   18  C   UNL     1     -10.215  11.982  68.359  1.00  0.00    -0.209 C  
HETATM   19  C   UNL     1     -10.978  13.264  68.801  1.00  0.00    -0.294 C  
HETATM   20  O   UNL     1      -8.898  11.925  68.885  1.00  0.00    -0.372 OA 
HETATM   21  C   UNL     1     -10.494  14.704  68.320  1.00  0.00    -0.236 C  
HETATM   22  H   UNL     1      -8.848  12.049  69.826  1.00  0.00     0.000 HD 
HETATM   23  C   UNL     1      -9.537  14.700  69.674  1.00  0.00     0.247 C  
HETATM   24  C   UNL     1      -9.724  16.132  67.920  1.00  0.00    -0.225 C  
HETATM   25  O   UNL     1      -8.313  16.258  68.235  1.00  0.00    -0.174 OA 
HETATM   26  C   UNL     1      -7.263  14.151  67.458  1.00  0.00    -0.188 C  
HETATM   27  O   UNL     1      -8.385  15.721  65.995  1.00  0.00    -0.143 OA 
HETATM   28  C   UNL     1      -7.580  15.620  67.170  1.00  0.00    -0.223 C  
HETATM   29  C   UNL     1      -6.192  16.217  66.955  1.00  0.00    -0.105 C  
ENDROOT
BRANCH  24  30
HETATM   30  C   UNL     1     -10.743  17.195  68.518  1.00  0.00    -0.326 C  
HETATM   31  O   UNL     1     -11.867  16.838  68.910  1.00  0.00     0.154 OA 
BRANCH  30  32
HETATM   32  C   UNL     1     -10.382  18.678  68.631  1.00  0.00    -0.209 C  
BRANCH  32  33
HETATM   33  O   UNL     1     -11.025  19.466  67.591  1.00  0.00    -0.429 OA 
BRANCH  33  34
HETATM   34  C   UNL     1     -10.215  19.823  66.548  1.00  0.00    -0.492 C  
HETATM   35  C   UNL     1      -9.049  20.660  66.968  1.00  0.00    -0.356 C  
HETATM   36  O   UNL     1     -10.418  19.483  65.379  1.00  0.00    -0.439 OA 
ENDBRANCH  33  34
ENDBRANCH  32  33
ENDBRANCH  30  32
ENDBRANCH  24  30
TORSDOF 4
ENDMDL
MODEL       17
REMARK 921   NORMALIZED FREE ENERGY PREDICTED BY IDOCK:   -6.18 KCAL/MOL
REMARK 922        TOTAL FREE ENERGY PREDICTED BY IDOCK:   -8.25 KCAL/MOL
REMARK 923 INTER-LIGAND FREE ENERGY PREDICTED BY IDOCK:   -7.50 KCAL/MOL
REMARK 924 INTRA-LIGAND FREE ENERGY PREDICTED BY IDOCK:   -0.75 KCAL/MOL
REMARK 927      BINDING AFFINITY PREDICTED BY RF-SCORE:    0.00 PKD
ROOT
HETATM    1  C   UNL     1      -7.287  10.085  67.570  1.00  0.00    -0.090 C  
HETATM    2  C   UNL     1      -7.201  11.214  68.526  1.00  0.00    -0.088 C  
HETATM    3  C   UNL     1      -8.675  11.534  68.797  1.00  0.00    -0.048 C  
HETATM    4  C   UNL     1      -9.278  12.641  67.877  1.00  0.00    -0.201 C  
HETATM    5  C   UNL     1      -8.368  13.870  67.676  1.00  0.00    -0.183 C  
HETATM    6  C   UNL     1      -8.975  14.738  66.589  1.00  0.00    -0.255 C  
HETATM    7  F   UNL     1      -8.085  15.720  66.282  1.00  0.00    -0.291 F  
HETATM    8  C   UNL     1     -10.294  15.318  67.042  1.00  0.00    -0.277 C  
HETATM    9  C   UNL     1     -10.730  16.413  66.373  1.00  0.00    -0.161 C  
HETATM   10  C   UNL     1     -11.384  15.974  65.073  1.00  0.00    -0.156 C  
HETATM   11  C   UNL     1     -12.097  14.656  65.123  1.00  0.00    -0.308 C  
HETATM   12  O   UNL     1     -11.393  16.681  64.079  1.00  0.00    -1.120 OA 
HETATM   13  C   UNL     1     -12.092  13.875  66.226  1.00  0.00    -0.484 C  
HETATM   14  C   UNL     1     -11.340  14.264  67.514  1.00  0.00    -0.346 C  
HETATM   15  C   UNL     1     -10.647  13.122  68.403  1.00  0.00    -0.251 C  
HETATM   16  C   UNL     1     -12.388  14.956  68.427  1.00  0.00     0.096 C  
HETATM   17  F   UNL     1     -10.339  13.749  69.610  1.00  0.00     0.016 F  
HETATM   18  C   UNL     1     -11.525  11.916  68.835  1.00  0.00    -0.301 C  
HETATM   19  C   UNL     1     -10.709  10.897  69.683  1.00  0.00    -0.232 C  
HETATM   20  O   UNL     1     -12.227  11.296  67.769  1.00  0.00    -0.504 OA 
HETATM   21  C   UNL     1      -9.478  10.112  69.045  1.00  0.00    -0.195 C  
HETATM   22  H   UNL     1     -12.764  10.558  68.032  1.00  0.00     0.000 HD 
HETATM   23  C   UNL     1     -10.595   8.974  68.593  1.00  0.00    -0.194 C  
HETATM   24  C   UNL     1      -8.377   9.215  68.165  1.00  0.00    -0.120 C  
HETATM   25  O   UNL     1      -8.833   8.589  66.937  1.00  0.00    -0.131 OA 
HETATM   26  C   UNL     1     -10.091  10.344  65.720  1.00  0.00    -0.329 C  
HETATM   27  O   UNL     1      -7.738  10.504  66.269  1.00  0.00    -0.123 OA 
HETATM   28  C   UNL     1      -8.772   9.590  65.901  1.00  0.00    -0.147 C  
HETATM   29  C   UNL     1      -8.537   9.003  64.513  1.00  0.00    -0.181 C  
ENDROOT
BRANCH  24  30
HETATM   30  C   UNL     1      -7.758   8.301  69.310  1.00  0.00    -0.103 C  
HETATM   31  O   UNL     1      -7.733   8.698  70.487  1.00  0.00    -0.071 OA 
BRANCH  30  32
HETATM   32  C   UNL     1      -7.178   6.917  69.006  1.00  0.00    -0.091 C  
BRANCH  32  33
HETATM   33  O   UNL     1      -7.938   5.863  69.661  1.00  0.00    -0.098 OA 
BRANCH  33  34
HETATM   34  C   UNL     1      -9.153   5.587  69.097  1.00  0.00    -0.108 C  
HETATM   35  C   UNL     1     -10.276   5.600  70.085  1.00  0.00    -0.318 C  
HETATM   36  O   UNL     1      -9.312   5.359  67.895  1.00  0.00    -0.109 OA 
ENDBRANCH  33  34
ENDBRANCH  32  33
ENDBRANCH  30  32
ENDBRANCH  24  30
TORSDOF 4
ENDMDL
MODEL       18
REMARK 921   NORMALIZED FREE ENERGY PREDICTED BY IDOCK:   -6.15 KCAL/MOL
REMARK 922        TOTAL FREE ENERGY PREDICTED BY IDOCK:   -8.22 KCAL/MOL
REMARK 923 INTER-LIGAND FREE ENERGY PREDICTED BY IDOCK:   -8.01 KCAL/MOL
REMARK 924 INTRA-LIGAND FREE ENERGY PREDICTED BY IDOCK:   -0.21 KCAL/MOL
REMARK 927      BINDING AFFINITY PREDICTED BY RF-SCORE:    0.00 PKD
ROOT
HETATM    1  C   UNL     1      -9.560   8.812  66.582  1.00  0.00    -0.220 C  
HETATM    2  C   UNL     1     -10.784   8.078  66.983  1.00  0.00    -0.263 C  
HETATM    3  C   UNL     1     -10.867   8.362  68.486  1.00  0.00     0.030 C  
HETATM    4  C   UNL     1     -10.187   7.287  69.388  1.00  0.00    -0.193 C  
HETATM    5  C   UNL     1     -10.486   5.829  68.980  1.00  0.00    -0.336 C  
HETATM    6  C   UNL     1      -9.582   4.915  69.787  1.00  0.00    -0.172 C  
HETATM    7  F   UNL     1      -9.712   3.651  69.300  1.00  0.00    -0.244 F  
HETATM    8  C   UNL     1      -9.936   4.974  71.254  1.00  0.00    -0.264 C  
HETATM    9  C   UNL     1      -9.519   3.932  72.015  1.00  0.00    -0.198 C  
HETATM   10  C   UNL     1      -8.055   4.131  72.372  1.00  0.00    -0.095 C  
HETATM   11  C   UNL     1      -7.623   5.555  72.553  1.00  0.00    -0.098 C  
HETATM   12  O   UNL     1      -7.302   3.192  72.571  1.00  0.00    -0.045 OA 
HETATM   13  C   UNL     1      -8.459   6.594  72.338  1.00  0.00    -0.117 C  
HETATM   14  C   UNL     1      -9.916   6.404  71.871  1.00  0.00    -0.193 C  
HETATM   15  C   UNL     1     -10.573   7.473  70.871  1.00  0.00    -0.220 C  
HETATM   16  C   UNL     1     -10.782   6.419  73.160  1.00  0.00    -0.294 C  
HETATM   17  F   UNL     1     -11.939   7.192  70.897  1.00  0.00    -0.325 F  
HETATM   18  C   UNL     1     -10.504   8.972  71.273  1.00  0.00    -0.311 C  
HETATM   19  C   UNL     1     -11.177   9.877  70.200  1.00  0.00    -0.347 C  
HETATM   20  O   UNL     1      -9.204   9.420  71.624  1.00  0.00    -0.258 OA 
HETATM   21  C   UNL     1     -10.579   9.972  68.726  1.00  0.00    -0.241 C  
HETATM   22  H   UNL     1      -9.161  10.337  71.870  1.00  0.00     0.000 HD 
HETATM   23  C   UNL     1      -9.648  11.211  69.315  1.00  0.00     0.066 C  
HETATM   24  C   UNL     1      -9.699  10.133  67.316  1.00  0.00    -0.167 C  
HETATM   25  O   UNL     1      -8.287  10.455  67.425  1.00  0.00    -0.120 OA 
HETATM   26  C   UNL     1      -7.384   8.924  69.152  1.00  0.00    -0.072 C  
HETATM   27  O   UNL     1      -8.361   8.179  67.066  1.00  0.00    -0.113 OA 
HETATM   28  C   UNL     1      -7.586   9.218  67.665  1.00  0.00    -0.088 C  
HETATM   29  C   UNL     1      -6.154   9.229  67.137  1.00  0.00    -0.057 C  
ENDROOT
BRANCH  24  30
HETATM   30  C   UNL     1     -10.646  11.102  66.485  1.00  0.00    -0.262 C  
HETATM   31  O   UNL     1     -11.700  11.530  66.984  1.00  0.00    -0.556 OA 
BRANCH  30  32
HETATM   32  C   UNL     1     -10.297  11.537  65.059  1.00  0.00    -0.281 C  
BRANCH  32  33
HETATM   33  O   UNL     1     -10.614  12.939  64.835  1.00  0.00    -0.297 OA 
BRANCH  33  34
HETATM   34  C   UNL     1     -11.866  13.180  64.340  1.00  0.00    -0.388 C  
HETATM   35  C   UNL     1     -12.337  12.122  63.393  1.00  0.00    -0.648 C  
HETATM   36  O   UNL     1     -12.544  14.164  64.646  1.00  0.00    -0.627 OA 
ENDBRANCH  33  34
ENDBRANCH  32  33
ENDBRANCH  30  32
ENDBRANCH  24  30
TORSDOF 4
ENDMDL
MODEL       19
REMARK 921   NORMALIZED FREE ENERGY PREDICTED BY IDOCK:   -6.12 KCAL/MOL
REMARK 922        TOTAL FREE ENERGY PREDICTED BY IDOCK:   -8.17 KCAL/MOL
REMARK 923 INTER-LIGAND FREE ENERGY PREDICTED BY IDOCK:   -7.54 KCAL/MOL
REMARK 924 INTRA-LIGAND FREE ENERGY PREDICTED BY IDOCK:   -0.64 KCAL/MOL
REMARK 927      BINDING AFFINITY PREDICTED BY RF-SCORE:    0.00 PKD
ROOT
HETATM    1  C   UNL     1      -9.963   9.138  69.399  1.00  0.00    -0.191 C  
HETATM    2  C   UNL     1     -11.317   9.663  69.105  1.00  0.00     0.029 C  
HETATM    3  C   UNL     1     -11.108  10.407  67.783  1.00  0.00    -0.365 C  
HETATM    4  C   UNL     1     -10.787  11.926  67.937  1.00  0.00    -0.254 C  
HETATM    5  C   UNL     1     -11.665  12.662  68.970  1.00  0.00    -0.367 C  
HETATM    6  C   UNL     1     -11.089  14.051  69.180  1.00  0.00    -0.259 C  
HETATM    7  F   UNL     1     -11.747  14.632  70.219  1.00  0.00    -0.278 F  
HETATM    8  C   UNL     1     -11.217  14.878  67.922  1.00  0.00    -0.324 C  
HETATM    9  C   UNL     1     -11.142  16.222  68.076  1.00  0.00    -0.299 C  
HETATM   10  C   UNL     1      -9.682  16.630  68.181  1.00  0.00    -0.244 C  
HETATM   11  C   UNL     1      -8.722  15.801  67.382  1.00  0.00    -0.199 C  
HETATM   12  O   UNL     1      -9.325  17.611  68.813  1.00  0.00    -0.276 OA 
HETATM   13  C   UNL     1      -9.118  14.718  66.678  1.00  0.00    -0.300 C  
HETATM   14  C   UNL     1     -10.581  14.234  66.653  1.00  0.00    -0.278 C  
HETATM   15  C   UNL     1     -10.895  12.662  66.585  1.00  0.00    -0.258 C  
HETATM   16  C   UNL     1     -11.217  14.865  65.385  1.00  0.00    -0.359 C  
HETATM   17  F   UNL     1     -12.251  12.584  66.270  1.00  0.00    -0.466 F  
HETATM   18  C   UNL     1     -10.213  11.841  65.456  1.00  0.00    -0.252 C  
HETATM   19  C   UNL     1     -10.613  10.339  65.529  1.00  0.00    -0.025 C  
HETATM   20  O   UNL     1      -8.809  12.027  65.369  1.00  0.00    -0.388 OA 
HETATM   21  C   UNL     1     -10.202   9.450  66.786  1.00  0.00    -0.320 C  
HETATM   22  H   UNL     1      -8.391  11.524  64.679  1.00  0.00     0.000 HD 
HETATM   23  C   UNL     1      -8.807   9.129  65.950  1.00  0.00    -0.209 C  
HETATM   24  C   UNL     1      -9.500   8.615  68.052  1.00  0.00    -0.140 C  
HETATM   25  O   UNL     1      -8.070   8.761  68.255  1.00  0.00    -0.111 OA 
HETATM   26  C   UNL     1      -7.622  11.195  68.120  1.00  0.00    -0.103 C  
HETATM   27  O   UNL     1      -9.048  10.176  69.791  1.00  0.00    -0.203 OA 
HETATM   28  C   UNL     1      -7.870   9.975  69.008  1.00  0.00    -0.101 C  
HETATM   29  C   UNL     1      -6.616   9.942  69.876  1.00  0.00    -0.080 C  
ENDROOT
BRANCH  24  30
HETATM   30  C   UNL     1     -10.098   7.161  67.814  1.00  0.00    -0.172 C  
HETATM   31  O   UNL     1     -11.144   7.010  67.161  1.00  0.00    -0.350 OA 
BRANCH  30  32
HETATM   32  C   UNL     1      -9.415   5.911  68.376  1.00  0.00    -0.120 C  
BRANCH  32  33
HETATM   33  O   UNL     1      -8.520   5.307  67.402  1.00  0.00    -0.107 OA 
BRANCH  33  34
HETATM   34  C   UNL     1      -7.188   5.530  67.621  1.00  0.00    -0.075 C  
HETATM   35  C   UNL     1      -6.459   5.983  66.396  1.00  0.00    -0.046 C  
HETATM   36  O   UNL     1      -6.642   5.381  68.717  1.00  0.00    -0.047 OA 
ENDBRANCH  33  34
ENDBRANCH  32  33
ENDBRANCH  30  32
ENDBRANCH  24  30
TORSDOF 4
ENDMDL
MODEL       20
REMARK 921   NORMALIZED FREE ENERGY PREDICTED BY IDOCK:   -6.04 KCAL/MOL
REMARK 922        TOTAL FREE ENERGY PREDICTED BY IDOCK:   -8.08 KCAL/MOL
REMARK 923 INTER-LIGAND FREE ENERGY PREDICTED BY IDOCK:   -7.39 KCAL/MOL
REMARK 924 INTRA-LIGAND FREE ENERGY PREDICTED BY IDOCK:   -0.69 KCAL/MOL
REMARK 927      BINDING AFFINITY PREDICTED BY RF-SCORE:    0.00 PKD
ROOT
HETATM    1  C   UNL     1      -7.053   9.959  66.401  1.00  0.00    -0.096 C  
HETATM    2  C   UNL     1      -6.927  10.896  67.542  1.00  0.00    -0.084 C  
HETATM    3  C   UNL     1      -8.387  11.155  67.925  1.00  0.00    -0.129 C  
HETATM    4  C   UNL     1      -9.023  12.408  67.245  1.00  0.00    -0.190 C  
HETATM    5  C   UNL     1      -8.118  13.657  67.235  1.00  0.00    -0.152 C  
HETATM    6  C   UNL     1      -8.765  14.705  66.348  1.00  0.00     0.027 C  
HETATM    7  F   UNL     1      -7.884  15.730  66.189  1.00  0.00    -0.211 F  
HETATM    8  C   UNL     1     -10.062  15.188  66.951  1.00  0.00    -0.256 C  
HETATM    9  C   UNL     1     -10.522  16.384  66.509  1.00  0.00    -0.282 C  
HETATM   10  C   UNL     1     -11.228  16.185  65.178  1.00  0.00    -0.147 C  
HETATM   11  C   UNL     1     -11.942  14.878  65.016  1.00  0.00    -0.258 C  
HETATM   12  O   UNL     1     -11.274  17.061  64.329  1.00  0.00    -1.186 OA 
HETATM   13  C   UNL     1     -11.896  13.910  65.958  1.00  0.00    -0.412 C  
HETATM   14  C   UNL     1     -11.093  14.062  67.265  1.00  0.00    -0.314 C  
HETATM   15  C   UNL     1     -10.369  12.780  67.903  1.00  0.00    -0.226 C  
HETATM   16  C   UNL     1     -12.102  14.572  68.329  1.00  0.00    -0.234 C  
HETATM   17  F   UNL     1     -10.011  13.179  69.191  1.00  0.00    -0.050 F  
HETATM   18  C   UNL     1     -11.233  11.512  68.144  1.00  0.00    -0.271 C  
HETATM   19  C   UNL     1     -10.387  10.360  68.760  1.00  0.00    -0.213 C  
HETATM   20  O   UNL     1     -11.978  11.093  67.011  1.00  0.00    -0.272 OA 
HETATM   21  C   UNL     1      -9.184   9.708  67.942  1.00  0.00    -0.134 C  
HETATM   22  H   UNL     1     -12.506  10.317  67.158  1.00  0.00     0.000 HD 
HETATM   23  C   UNL     1     -10.322   8.666  67.335  1.00  0.00    -0.353 C  
HETATM   24  C   UNL     1      -8.122   8.990  66.872  1.00  0.00    -0.112 C  
HETATM   25  O   UNL     1      -8.628   8.596  65.569  1.00  0.00    -0.157 OA 
HETATM   26  C   UNL     1      -9.927  10.537  64.741  1.00  0.00    -0.412 C  
HETATM   27  O   UNL     1      -7.554  10.605  65.217  1.00  0.00    -0.111 OA 
HETATM   28  C   UNL     1      -8.605   9.769  64.731  1.00  0.00    -0.179 C  
HETATM   29  C   UNL     1      -8.427   9.444  63.250  1.00  0.00    -0.202 C  
ENDROOT
BRANCH  24  30
HETATM   30  C   UNL     1      -7.461   7.887  67.806  1.00  0.00    -0.097 C  
HETATM   31  O   UNL     1      -6.468   7.248  67.419  1.00  0.00    -0.054 OA 
BRANCH  30  32
HETATM   32  C   UNL     1      -8.019   7.574  69.197  1.00  0.00    -0.121 C  
BRANCH  32  33
HETATM   33  O   UNL     1      -7.035   7.831  70.237  1.00  0.00    -0.048 OA 
BRANCH  33  34
HETATM   34  C   UNL     1      -7.314   8.895  71.050  1.00  0.00    -0.106 C  
HETATM   35  C   UNL     1      -6.162   9.837  71.201  1.00  0.00    -0.017 C  
HETATM   36  O   UNL     1      -8.405   9.068  71.600  1.00  0.00    -0.334 OA 
ENDBRANCH  33  34
ENDBRANCH  32  33
ENDBRANCH  30  32
ENDBRANCH  24  30
TORSDOF 4
ENDMDL
MODEL       21
REMARK 921   NORMALIZED FREE ENERGY PREDICTED BY IDOCK:   -6.01 KCAL/MOL
REMARK 922        TOTAL FREE ENERGY PREDICTED BY IDOCK:   -8.04 KCAL/MOL
REMARK 923 INTER-LIGAND FREE ENERGY PREDICTED BY IDOCK:   -7.63 KCAL/MOL
REMARK 924 INTRA-LIGAND FREE ENERGY PREDICTED BY IDOCK:   -0.41 KCAL/MOL
REMARK 927      BINDING AFFINITY PREDICTED BY RF-SCORE:    0.00 PKD
ROOT
HETATM    1  C   UNL     1      -9.200  10.417  66.178  1.00  0.00    -0.168 C  
HETATM    2  C   UNL     1     -10.160   9.289  66.165  1.00  0.00    -0.304 C  
HETATM    3  C   UNL     1     -10.709   9.301  67.596  1.00  0.00    -0.276 C  
HETATM    4  C   UNL     1      -9.954   8.365  68.589  1.00  0.00    -0.197 C  
HETATM    5  C   UNL     1      -9.628   6.967  68.026  1.00  0.00    -0.125 C  
HETATM    6  C   UNL     1      -8.700   6.266  69.002  1.00  0.00    -0.125 C  
HETATM    7  F   UNL     1      -8.266   5.113  68.424  1.00  0.00    -0.089 F  
HETATM    8  C   UNL     1      -9.409   5.988  70.307  1.00  0.00    -0.176 C  
HETATM    9  C   UNL     1      -8.868   5.025  71.091  1.00  0.00    -0.149 C  
HETATM   10  C   UNL     1      -7.698   5.610  71.865  1.00  0.00    -0.105 C  
HETATM   11  C   UNL     1      -7.836   7.053  72.247  1.00  0.00    -0.091 C  
HETATM   12  O   UNL     1      -6.746   4.932  72.215  1.00  0.00    -0.044 OA 
HETATM   13  C   UNL     1      -8.893   7.802  71.864  1.00  0.00    -0.155 C  
HETATM   14  C   UNL     1     -10.032   7.244  70.988  1.00  0.00    -0.188 C  
HETATM   15  C   UNL     1     -10.740   8.196  69.907  1.00  0.00    -0.241 C  
HETATM   16  C   UNL     1     -11.145   6.794  71.972  1.00  0.00    -0.283 C  
HETATM   17  F   UNL     1     -11.889   7.504  69.523  1.00  0.00     0.148 F  
HETATM   18  C   UNL     1     -11.287   9.562  70.401  1.00  0.00    -0.264 C  
HETATM   19  C   UNL     1     -11.935  10.366  69.236  1.00  0.00    -0.105 C  
HETATM   20  O   UNL     1     -10.349  10.333  71.137  1.00  0.00     0.001 OA 
HETATM   21  C   UNL     1     -11.055  10.864  68.005  1.00  0.00    -0.351 C  
HETATM   22  H   UNL     1     -10.684  11.169  71.439  1.00  0.00     0.000 HD 
HETATM   23  C   UNL     1     -10.781  12.226  68.909  1.00  0.00    -0.210 C  
HETATM   24  C   UNL     1      -9.958  11.503  66.919  1.00  0.00    -0.205 C  
HETATM   25  O   UNL     1      -8.816  12.226  67.448  1.00  0.00    -0.169 OA 
HETATM   26  C   UNL     1      -7.911  10.805  69.267  1.00  0.00    -0.124 C  
HETATM   27  O   UNL     1      -8.020  10.121  66.946  1.00  0.00    -0.112 OA 
HETATM   28  C   UNL     1      -7.820  11.246  67.804  1.00  0.00    -0.115 C  
HETATM   29  C   UNL     1      -6.394  11.779  67.712  1.00  0.00    -0.067 C  
ENDROOT
BRANCH  24  30
HETATM   30  C   UNL     1     -10.938  12.245  65.911  1.00  0.00    -0.302 C  
HETATM   31  O   UNL     1     -12.157  12.008  65.930  1.00  0.00    -0.546 OA 
BRANCH  30  32
HETATM   32  C   UNL     1     -10.420  13.266  64.893  1.00  0.00    -0.371 C  
BRANCH  32  33
HETATM   33  O   UNL     1     -11.500  14.075  64.351  1.00  0.00    -0.376 OA 
BRANCH  33  34
HETATM   34  C   UNL     1     -11.341  15.426  64.491  1.00  0.00    -0.313 C  
HETATM   35  C   UNL     1     -10.310  15.793  65.510  1.00  0.00    -0.430 C  
HETATM   36  O   UNL     1     -11.975  16.260  63.839  1.00  0.00    -1.003 OA 
ENDBRANCH  33  34
ENDBRANCH  32  33
ENDBRANCH  30  32
ENDBRANCH  24  30
TORSDOF 4
ENDMDL
MODEL       22
REMARK 921   NORMALIZED FREE ENERGY PREDICTED BY IDOCK:   -5.99 KCAL/MOL
REMARK 922        TOTAL FREE ENERGY PREDICTED BY IDOCK:   -8.02 KCAL/MOL
REMARK 923 INTER-LIGAND FREE ENERGY PREDICTED BY IDOCK:   -7.41 KCAL/MOL
REMARK 924 INTRA-LIGAND FREE ENERGY PREDICTED BY IDOCK:   -0.61 KCAL/MOL
REMARK 927      BINDING AFFINITY PREDICTED BY RF-SCORE:    0.00 PKD
ROOT
HETATM    1  C   UNL     1      -9.161  11.021  65.664  1.00  0.00    -0.210 C  
HETATM    2  C   UNL     1      -9.981   9.796  65.513  1.00  0.00    -0.329 C  
HETATM    3  C   UNL     1     -10.422   9.509  66.952  1.00  0.00    -0.279 C  
HETATM    4  C   UNL     1      -9.491   8.531  67.733  1.00  0.00    -0.168 C  
HETATM    5  C   UNL     1      -9.045   7.294  66.927  1.00  0.00    -0.162 C  
HETATM    6  C   UNL     1      -7.973   6.570  67.722  1.00  0.00    -0.115 C  
HETATM    7  F   UNL     1      -7.449   5.590  66.936  1.00  0.00    -0.081 F  
HETATM    8  C   UNL     1      -8.546   6.000  68.997  1.00  0.00    -0.120 C  
HETATM    9  C   UNL     1      -7.840   5.000  69.579  1.00  0.00    -0.068 C  
HETATM   10  C   UNL     1      -6.694   5.600  70.377  1.00  0.00    -0.048 C  
HETATM   11  C   UNL     1      -6.972   6.933  71.003  1.00  0.00    -0.066 C  
HETATM   12  O   UNL     1      -5.646   5.002  70.558  1.00  0.00    -0.014 OA 
HETATM   13  C   UNL     1      -8.135   7.593  70.807  1.00  0.00    -0.103 C  
HETATM   14  C   UNL     1      -9.261   7.040  69.911  1.00  0.00    -0.144 C  
HETATM   15  C   UNL     1     -10.153   8.054  69.043  1.00  0.00    -0.201 C  
HETATM   16  C   UNL     1     -10.239   6.300  70.863  1.00  0.00    -0.236 C  
HETATM   17  F   UNL     1     -11.238   7.291  68.610  1.00  0.00    -0.122 F  
HETATM   18  C   UNL     1     -10.820   9.243  69.788  1.00  0.00    -0.224 C  
HETATM   19  C   UNL     1     -11.642  10.132  68.810  1.00  0.00    -0.037 C  
HETATM   20  O   UNL     1      -9.928   9.999  70.591  1.00  0.00    -0.363 OA 
HETATM   21  C   UNL     1     -10.918  10.929  67.635  1.00  0.00    -0.350 C  
HETATM   22  H   UNL     1     -10.335  10.727  71.047  1.00  0.00     0.000 HD 
HETATM   23  C   UNL     1     -10.741  12.153  68.739  1.00  0.00    -0.252 C  
HETATM   24  C   UNL     1      -9.986  11.868  66.614  1.00  0.00    -0.199 C  
HETATM   25  O   UNL     1      -8.902  12.638  67.197  1.00  0.00    -0.190 OA 
HETATM   26  C   UNL     1      -7.705  11.073  68.701  1.00  0.00    -0.132 C  
HETATM   27  O   UNL     1      -7.902  10.760  66.308  1.00  0.00    -0.147 OA 
HETATM   28  C   UNL     1      -7.774  11.749  67.330  1.00  0.00    -0.151 C  
HETATM   29  C   UNL     1      -6.431  12.468  67.253  1.00  0.00    -0.124 C  
ENDROOT
BRANCH  24  30
HETATM   30  C   UNL     1     -11.117  12.630  65.798  1.00  0.00    -0.297 C  
HETATM   31  O   UNL     1     -12.292  12.228  65.826  1.00  0.00    -0.622 OA 
BRANCH  30  32
HETATM   32  C   UNL     1     -10.803  13.872  64.959  1.00  0.00    -0.382 C  
BRANCH  32  33
HETATM   33  O   UNL     1     -11.337  15.080  65.570  1.00  0.00    -0.347 OA 
BRANCH  33  34
HETATM   34  C   UNL     1     -10.399  15.947  66.058  1.00  0.00    -0.348 C  
HETATM   35  C   UNL     1     -10.337  15.964  67.553  1.00  0.00    -0.283 C  
HETATM   36  O   UNL     1      -9.671  16.640  65.342  1.00  0.00    -0.501 OA 
ENDBRANCH  33  34
ENDBRANCH  32  33
ENDBRANCH  30  32
ENDBRANCH  24  30
TORSDOF 4
ENDMDL
MODEL       23
REMARK 921   NORMALIZED FREE ENERGY PREDICTED BY IDOCK:   -5.95 KCAL/MOL
REMARK 922        TOTAL FREE ENERGY PREDICTED BY IDOCK:   -7.96 KCAL/MOL
REMARK 923 INTER-LIGAND FREE ENERGY PREDICTED BY IDOCK:   -7.51 KCAL/MOL
REMARK 924 INTRA-LIGAND FREE ENERGY PREDICTED BY IDOCK:   -0.45 KCAL/MOL
REMARK 927      BINDING AFFINITY PREDICTED BY RF-SCORE:    0.00 PKD
ROOT
HETATM    1  C   UNL     1      -9.151   8.492  68.922  1.00  0.00    -0.146 C  
HETATM    2  C   UNL     1     -10.561   8.694  68.513  1.00  0.00    -0.162 C  
HETATM    3  C   UNL     1     -10.477   9.942  67.629  1.00  0.00    -0.296 C  
HETATM    4  C   UNL     1     -10.727  11.287  68.380  1.00  0.00    -0.238 C  
HETATM    5  C   UNL     1     -11.917  11.259  69.361  1.00  0.00    -0.410 C  
HETATM    6  C   UNL     1     -11.890  12.539  70.177  1.00  0.00    -0.258 C  
HETATM    7  F   UNL     1     -12.822  12.434  71.162  1.00  0.00    -0.421 F  
HETATM    8  C   UNL     1     -12.157  13.738  69.298  1.00  0.00    -0.374 C  
HETATM    9  C   UNL     1     -12.574  14.864  69.928  1.00  0.00    -0.205 C  
HETATM   10  C   UNL     1     -11.370  15.578  70.519  1.00  0.00    -0.351 C  
HETATM   11  C   UNL     1     -10.097  15.453  69.737  1.00  0.00    -0.266 C  
HETATM   12  O   UNL     1     -11.452  16.270  71.521  1.00  0.00    -0.412 OA 
HETATM   13  C   UNL     1     -10.008  14.691  68.624  1.00  0.00    -0.234 C  
HETATM   14  C   UNL     1     -11.197  13.877  68.078  1.00  0.00    -0.295 C  
HETATM   15  C   UNL     1     -10.932  12.452  67.388  1.00  0.00    -0.254 C  
HETATM   16  C   UNL     1     -11.866  14.769  66.998  1.00  0.00    -0.290 C  
HETATM   17  F   UNL     1     -12.131  12.138  66.748  1.00  0.00    -0.392 F  
HETATM   18  C   UNL     1      -9.884  12.392  66.244  1.00  0.00    -0.247 C  
HETATM   19  C   UNL     1      -9.739  10.946  65.686  1.00  0.00    -0.279 C  
HETATM   20  O   UNL     1      -8.633  12.976  66.569  1.00  0.00    -0.424 OA 
HETATM   21  C   UNL     1      -9.188   9.770  66.610  1.00  0.00    -0.184 C  
HETATM   22  H   UNL     1      -7.991  12.939  65.870  1.00  0.00     0.000 HD 
HETATM   23  C   UNL     1      -7.684  10.221  66.077  1.00  0.00    -0.130 C  
HETATM   24  C   UNL     1      -8.386   8.719  67.631  1.00  0.00    -0.114 C  
HETATM   25  O   UNL     1      -7.130   9.158  68.212  1.00  0.00    -0.075 OA 
HETATM   26  C   UNL     1      -7.548  11.452  69.052  1.00  0.00    -0.084 C  
HETATM   27  O   UNL     1      -8.707   9.486  69.862  1.00  0.00    -0.172 OA 
HETATM   28  C   UNL     1      -7.452   9.958  69.368  1.00  0.00    -0.108 C  
HETATM   29  C   UNL     1      -6.372   9.920  70.444  1.00  0.00    -0.106 C  
ENDROOT
BRANCH  24  30
HETATM   30  C   UNL     1      -8.408   7.389  66.762  1.00  0.00    -0.122 C  
HETATM   31  O   UNL     1      -9.477   6.955  66.302  1.00  0.00    -0.155 OA 
BRANCH  30  32
HETATM   32  C   UNL     1      -7.127   6.603  66.465  1.00  0.00    -0.068 C  
BRANCH  32  33
HETATM   33  O   UNL     1      -7.107   6.112  65.096  1.00  0.00    -0.060 OA 
BRANCH  33  34
HETATM   34  C   UNL     1      -6.863   7.061  64.142  1.00  0.00    -0.050 C  
HETATM   35  C   UNL     1      -7.946   7.153  63.114  1.00  0.00    -0.079 C  
HETATM   36  O   UNL     1      -5.857   7.776  64.131  1.00  0.00    -0.050 OA 
ENDBRANCH  33  34
ENDBRANCH  32  33
ENDBRANCH  30  32
ENDBRANCH  24  30
TORSDOF 4
ENDMDL
MODEL       24
REMARK 921   NORMALIZED FREE ENERGY PREDICTED BY IDOCK:   -5.93 KCAL/MOL
REMARK 922        TOTAL FREE ENERGY PREDICTED BY IDOCK:   -7.95 KCAL/MOL
REMARK 923 INTER-LIGAND FREE ENERGY PREDICTED BY IDOCK:   -7.47 KCAL/MOL
REMARK 924 INTRA-LIGAND FREE ENERGY PREDICTED BY IDOCK:   -0.48 KCAL/MOL
REMARK 927      BINDING AFFINITY PREDICTED BY RF-SCORE:    0.00 PKD
ROOT
HETATM    1  C   UNL     1     -10.508   8.969  67.041  1.00  0.00    -0.246 C  
HETATM    2  C   UNL     1     -11.014   9.687  68.235  1.00  0.00    -0.172 C  
HETATM    3  C   UNL     1      -9.905   9.447  69.264  1.00  0.00    -0.176 C  
HETATM    4  C   UNL     1     -10.130   8.206  70.182  1.00  0.00    -0.194 C  
HETATM    5  C   UNL     1     -11.568   8.064  70.724  1.00  0.00    -0.251 C  
HETATM    6  C   UNL     1     -11.692   6.708  71.394  1.00  0.00    -0.324 C  
HETATM    7  F   UNL     1     -13.001   6.506  71.706  1.00  0.00    -0.380 F  
HETATM    8  C   UNL     1     -10.820   6.638  72.624  1.00  0.00    -0.279 C  
HETATM    9  C   UNL     1     -11.137   5.683  73.533  1.00  0.00    -0.169 C  
HETATM   10  C   UNL     1     -10.572   4.350  73.071  1.00  0.00    -0.195 C  
HETATM   11  C   UNL     1      -9.278   4.424  72.318  1.00  0.00    -0.156 C  
HETATM   12  O   UNL     1     -11.098   3.287  73.359  1.00  0.00    -0.205 OA 
HETATM   13  C   UNL     1      -8.694   5.601  72.003  1.00  0.00    -0.134 C  
HETATM   14  C   UNL     1      -9.316   6.961  72.375  1.00  0.00    -0.149 C  
HETATM   15  C   UNL     1      -9.151   8.207  71.376  1.00  0.00    -0.153 C  
HETATM   16  C   UNL     1      -8.652   7.382  73.714  1.00  0.00    -0.227 C  
HETATM   17  F   UNL     1      -9.540   9.317  72.125  1.00  0.00    -0.303 F  
HETATM   18  C   UNL     1      -7.715   8.570  70.909  1.00  0.00    -0.090 C  
HETATM   19  C   UNL     1      -7.726   9.791  69.944  1.00  0.00    -0.162 C  
HETATM   20  O   UNL     1      -6.978   7.474  70.390  1.00  0.00    -0.050 OA 
HETATM   21  C   UNL     1      -8.448   9.699  68.526  1.00  0.00    -0.118 C  
HETATM   22  H   UNL     1      -6.100   7.695  70.105  1.00  0.00     0.000 HD 
HETATM   23  C   UNL     1      -6.992   9.150  67.956  1.00  0.00    -0.077 C  
HETATM   24  C   UNL     1      -9.043   9.362  67.002  1.00  0.00    -0.134 C  
HETATM   25  O   UNL     1      -8.534   8.188  66.316  1.00  0.00    -0.118 OA 
HETATM   26  C   UNL     1      -8.600   6.357  67.985  1.00  0.00    -0.117 C  
HETATM   27  O   UNL     1     -10.562   7.540  67.200  1.00  0.00    -0.307 OA 
HETATM   28  C   UNL     1      -9.279   7.054  66.804  1.00  0.00    -0.153 C  
HETATM   29  C   UNL     1      -9.394   5.927  65.782  1.00  0.00    -0.018 C  
ENDROOT
BRANCH  24  30
HETATM   30  C   UNL     1      -8.895  10.783  66.306  1.00  0.00    -0.173 C  
HETATM   31  O   UNL     1      -8.257  11.693  66.863  1.00  0.00    -0.160 OA 
BRANCH  30  32
HETATM   32  C   UNL     1      -9.526  11.080  64.943  1.00  0.00    -0.233 C  
BRANCH  32  33
HETATM   33  O   UNL     1     -10.251  12.341  64.952  1.00  0.00    -0.277 OA 
BRANCH  33  34
HETATM   34  C   UNL     1     -11.613  12.228  64.999  1.00  0.00    -0.343 C  
HETATM   35  C   UNL     1     -12.227  11.955  63.662  1.00  0.00    -0.586 C  
HETATM   36  O   UNL     1     -12.272  12.332  66.037  1.00  0.00    -0.646 OA 
ENDBRANCH  33  34
ENDBRANCH  32  33
ENDBRANCH  30  32
ENDBRANCH  24  30
TORSDOF 4
ENDMDL
MODEL       25
REMARK 921   NORMALIZED FREE ENERGY PREDICTED BY IDOCK:   -5.92 KCAL/MOL
REMARK 922        TOTAL FREE ENERGY PREDICTED BY IDOCK:   -7.93 KCAL/MOL
REMARK 923 INTER-LIGAND FREE ENERGY PREDICTED BY IDOCK:   -7.44 KCAL/MOL
REMARK 924 INTRA-LIGAND FREE ENERGY PREDICTED BY IDOCK:   -0.49 KCAL/MOL
REMARK 927      BINDING AFFINITY PREDICTED BY RF-SCORE:    0.00 PKD
ROOT
HETATM    1  C   UNL     1     -11.029  12.003  67.376  1.00  0.00    -0.261 C  
HETATM    2  C   UNL     1     -11.043  11.684  68.824  1.00  0.00    -0.283 C  
HETATM    3  C   UNL     1      -9.664  11.054  69.041  1.00  0.00    -0.151 C  
HETATM    4  C   UNL     1      -9.635   9.499  68.918  1.00  0.00    -0.156 C  
HETATM    5  C   UNL     1     -10.801   8.780  69.627  1.00  0.00    -0.175 C  
HETATM    6  C   UNL     1     -10.770   7.316  69.228  1.00  0.00    -0.198 C  
HETATM    7  F   UNL     1     -11.899   6.722  69.701  1.00  0.00    -0.306 F  
HETATM    8  C   UNL     1      -9.531   6.641  69.766  1.00  0.00    -0.150 C  
HETATM    9  C   UNL     1      -9.573   5.289  69.854  1.00  0.00    -0.241 C  
HETATM   10  C   UNL     1      -9.290   4.692  68.485  1.00  0.00    -0.138 C  
HETATM   11  C   UNL     1      -8.335   5.469  67.629  1.00  0.00    -0.100 C  
HETATM   12  O   UNL     1      -9.748   3.617  68.137  1.00  0.00    -0.137 OA 
HETATM   13  C   UNL     1      -7.823   6.657  68.016  1.00  0.00    -0.113 C  
HETATM   14  C   UNL     1      -8.190   7.322  69.358  1.00  0.00    -0.131 C  
HETATM   15  C   UNL     1      -8.304   8.920  69.446  1.00  0.00    -0.112 C  
HETATM   16  C   UNL     1      -7.078   6.905  70.358  1.00  0.00    -0.067 C  
HETATM   17  F   UNL     1      -8.338   9.199  70.812  1.00  0.00    -0.153 F  
HETATM   18  C   UNL     1      -7.099   9.756  68.935  1.00  0.00    -0.067 C  
HETATM   19  C   UNL     1      -7.367  11.282  69.083  1.00  0.00    -0.104 C  
HETATM   20  O   UNL     1      -6.659   9.405  67.633  1.00  0.00    -0.062 OA 
HETATM   21  C   UNL     1      -8.541  11.984  68.264  1.00  0.00    -0.174 C  
HETATM   22  H   UNL     1      -5.922   9.917  67.320  1.00  0.00     0.000 HD 
HETATM   23  C   UNL     1      -7.410  12.208  67.072  1.00  0.00    -0.072 C  
HETATM   24  C   UNL     1      -9.647  12.594  67.171  1.00  0.00    -0.207 C  
HETATM   25  O   UNL     1      -9.483  12.249  65.770  1.00  0.00    -0.217 OA 
HETATM   26  C   UNL     1      -9.082   9.804  65.726  1.00  0.00    -0.221 C  
HETATM   27  O   UNL     1     -11.115  10.823  66.557  1.00  0.00    -0.148 OA 
HETATM   28  C   UNL     1     -10.082  10.952  65.578  1.00  0.00    -0.267 C  
HETATM   29  C   UNL     1     -10.616  10.740  64.165  1.00  0.00    -0.203 C  
ENDROOT
BRANCH  24  30
HETATM   30  C   UNL     1      -9.660  14.127  67.589  1.00  0.00    -0.216 C  
HETATM   31  O   UNL     1      -9.718  14.453  68.787  1.00  0.00    -0.218 OA 
BRANCH  30  32
HETATM   32  C   UNL     1      -9.603  15.245  66.543  1.00  0.00    -0.271 C  
BRANCH  32  33
HETATM   33  O   UNL     1     -10.926  15.781  66.261  1.00  0.00    -0.277 OA 
BRANCH  33  34
HETATM   34  C   UNL     1     -11.310  15.720  64.950  1.00  0.00    -0.280 C  
HETATM   35  C   UNL     1     -11.901  14.399  64.572  1.00  0.00    -0.463 C  
HETATM   36  O   UNL     1     -11.190  16.659  64.158  1.00  0.00    -1.103 OA 
ENDBRANCH  33  34
ENDBRANCH  32  33
ENDBRANCH  30  32
ENDBRANCH  24  30
TORSDOF 4
ENDMDL
MODEL       26
REMARK 921   NORMALIZED FREE ENERGY PREDICTED BY IDOCK:   -5.88 KCAL/MOL
REMARK 922        TOTAL FREE ENERGY PREDICTED BY IDOCK:   -7.89 KCAL/MOL
REMARK 923 INTER-LIGAND FREE ENERGY PREDICTED BY IDOCK:   -7.13 KCAL/MOL
REMARK 924 INTRA-LIGAND FREE ENERGY PREDICTED BY IDOCK:   -0.76 KCAL/MOL
REMARK 927      BINDING AFFINITY PREDICTED BY RF-SCORE:    0.00 PKD
ROOT
HETATM    1  C   UNL     1     -11.309   6.032  71.879  1.00  0.00    -0.279 C  
HETATM    2  C   UNL     1     -10.409   5.324  70.937  1.00  0.00    -0.303 C  
HETATM    3  C   UNL     1      -9.302   6.354  70.696  1.00  0.00    -0.169 C  
HETATM    4  C   UNL     1      -9.528   7.270  69.453  1.00  0.00    -0.154 C  
HETATM    5  C   UNL     1     -10.016   6.528  68.193  1.00  0.00    -0.145 C  
HETATM    6  C   UNL     1     -10.413   7.562  67.155  1.00  0.00    -0.336 C  
HETATM    7  F   UNL     1     -11.014   6.917  66.119  1.00  0.00     0.106 F  
HETATM    8  C   UNL     1      -9.205   8.339  66.687  1.00  0.00    -0.224 C  
HETATM    9  C   UNL     1      -9.326   8.979  65.498  1.00  0.00    -0.255 C  
HETATM   10  C   UNL     1     -10.071  10.286  65.709  1.00  0.00    -0.255 C  
HETATM   11  C   UNL     1      -9.831  10.960  67.027  1.00  0.00    -0.214 C  
HETATM   12  O   UNL     1     -10.758  10.791  64.837  1.00  0.00    -0.250 OA 
HETATM   13  C   UNL     1      -9.065  10.404  67.991  1.00  0.00    -0.136 C  
HETATM   14  C   UNL     1      -8.393   9.026  67.826  1.00  0.00    -0.117 C  
HETATM   15  C   UNL     1      -8.248   8.057  69.097  1.00  0.00    -0.130 C  
HETATM   16  C   UNL     1      -6.951   9.313  67.326  1.00  0.00    -0.081 C  
HETATM   17  F   UNL     1      -7.352   7.069  68.690  1.00  0.00    -0.084 F  
HETATM   18  C   UNL     1      -7.588   8.642  70.375  1.00  0.00    -0.075 C  
HETATM   19  C   UNL     1      -7.528   7.583  71.515  1.00  0.00    -0.079 C  
HETATM   20  O   UNL     1      -8.146   9.873  70.807  1.00  0.00    -0.396 OA 
HETATM   21  C   UNL     1      -8.866   7.000  72.153  1.00  0.00    -0.138 C  
HETATM   22  H   UNL     1      -7.742  10.231  71.589  1.00  0.00     0.000 HD 
HETATM   23  C   UNL     1      -8.772   8.273  73.211  1.00  0.00    -0.285 C  
HETATM   24  C   UNL     1     -10.343   6.669  72.860  1.00  0.00    -0.213 C  
HETATM   25  O   UNL     1     -11.172   7.790  73.264  1.00  0.00    -0.350 OA 
HETATM   26  C   UNL     1     -11.164   9.354  71.342  1.00  0.00    -0.452 C  
HETATM   27  O   UNL     1     -12.036   7.098  71.242  1.00  0.00    -0.312 OA 
HETATM   28  C   UNL     1     -11.887   8.235  72.093  1.00  0.00    -0.369 C  
HETATM   29  C   UNL     1     -13.232   8.876  72.419  1.00  0.00    -0.482 C  
ENDROOT
BRANCH  24  30
HETATM   30  C   UNL     1      -9.915   5.597  73.952  1.00  0.00    -0.200 C  
HETATM   31  O   UNL     1     -10.776   4.937  74.557  1.00  0.00    -0.360 OA 
BRANCH  30  32
HETATM   32  C   UNL     1      -8.444   5.344  74.295  1.00  0.00    -0.110 C  
BRANCH  32  33
HETATM   33  O   UNL     1      -8.137   3.922  74.316  1.00  0.00    -0.088 OA 
BRANCH  33  34
HETATM   34  C   UNL     1      -8.124   3.313  73.091  1.00  0.00    -0.073 C  
HETATM   35  C   UNL     1      -6.944   3.698  72.256  1.00  0.00    -0.045 C  
HETATM   36  O   UNL     1      -8.990   2.519  72.713  1.00  0.00    -0.076 OA 
ENDBRANCH  33  34
ENDBRANCH  32  33
ENDBRANCH  30  32
ENDBRANCH  24  30
TORSDOF 4
ENDMDL
MODEL       27
REMARK 921   NORMALIZED FREE ENERGY PREDICTED BY IDOCK:   -5.80 KCAL/MOL
REMARK 922        TOTAL FREE ENERGY PREDICTED BY IDOCK:   -7.79 KCAL/MOL
REMARK 923 INTER-LIGAND FREE ENERGY PREDICTED BY IDOCK:   -8.04 KCAL/MOL
REMARK 924 INTRA-LIGAND FREE ENERGY PREDICTED BY IDOCK:    0.26 KCAL/MOL
REMARK 927      BINDING AFFINITY PREDICTED BY RF-SCORE:    0.00 PKD
ROOT
HETATM    1  C   UNL     1      -9.993  12.997  66.971  1.00  0.00    -0.242 C  
HETATM    2  C   UNL     1      -8.912  13.205  67.964  1.00  0.00    -0.195 C  
HETATM    3  C   UNL     1      -9.251  14.582  68.543  1.00  0.00    -0.195 C  
HETATM    4  C   UNL     1      -8.538  15.776  67.837  1.00  0.00    -0.160 C  
HETATM    5  C   UNL     1      -7.042  15.541  67.540  1.00  0.00    -0.220 C  
HETATM    6  C   UNL     1      -6.550  16.672  66.655  1.00  0.00    -0.122 C  
HETATM    7  F   UNL     1      -5.289  16.372  66.242  1.00  0.00     0.153 F  
HETATM    8  C   UNL     1      -6.582  17.986  67.399  1.00  0.00    -0.183 C  
HETATM    9  C   UNL     1      -5.801  18.976  66.904  1.00  0.00    -0.165 C  
HETATM   10  C   UNL     1      -6.514  19.635  65.735  1.00  0.00    -0.226 C  
HETATM   11  C   UNL     1      -8.008  19.690  65.838  1.00  0.00    -0.265 C  
HETATM   12  O   UNL     1      -5.907  20.151  64.811  1.00  0.00    -0.193 OA 
HETATM   13  C   UNL     1      -8.680  19.123  66.864  1.00  0.00    -0.318 C  
HETATM   14  C   UNL     1      -7.971  18.359  68.000  1.00  0.00    -0.289 C  
HETATM   15  C   UNL     1      -8.680  17.077  68.656  1.00  0.00    -0.261 C  
HETATM   16  C   UNL     1      -7.774  19.387  69.147  1.00  0.00    -0.287 C  
HETATM   17  F   UNL     1      -7.949  16.822  69.816  1.00  0.00     0.044 F  
HETATM   18  C   UNL     1     -10.134  17.245  69.174  1.00  0.00    -0.252 C  
HETATM   19  C   UNL     1     -10.678  15.916  69.773  1.00  0.00    -0.324 C  
HETATM   20  O   UNL     1     -11.024  17.820  68.230  1.00  0.00    -0.234 OA 
HETATM   21  C   UNL     1     -10.873  14.630  68.852  1.00  0.00    -0.257 C  
HETATM   22  H   UNL     1     -11.914  17.923  68.546  1.00  0.00     0.000 HD 
HETATM   23  C   UNL     1     -12.394  15.222  68.558  1.00  0.00     0.201 C  
HETATM   24  C   UNL     1     -11.232  13.461  67.713  1.00  0.00    -0.279 C  
HETATM   25  O   UNL     1     -12.026  13.851  66.562  1.00  0.00    -0.392 OA 
HETATM   26  C   UNL     1     -11.017  15.960  65.739  1.00  0.00    -0.179 C  
HETATM   27  O   UNL     1      -9.844  13.844  65.817  1.00  0.00    -0.291 OA 
HETATM   28  C   UNL     1     -11.124  14.440  65.603  1.00  0.00    -0.321 C  
HETATM   29  C   UNL     1     -11.590  14.273  64.160  1.00  0.00    -0.215 C  
ENDROOT
BRANCH  24  30
HETATM   30  C   UNL     1     -11.759  12.289  68.649  1.00  0.00    -0.328 C  
HETATM   31  O   UNL     1     -12.402  11.342  68.167  1.00  0.00    -0.500 OA 
BRANCH  30  32
HETATM   32  C   UNL     1     -11.496  12.286  70.157  1.00  0.00     0.049 C  
BRANCH  32  33
HETATM   33  O   UNL     1     -12.358  13.229  70.852  1.00  0.00    -0.364 OA 
BRANCH  33  34
HETATM   34  C   UNL     1     -13.112  12.693  71.859  1.00  0.00    -0.366 C  
HETATM   35  C   UNL     1     -14.086  13.666  72.445  1.00  0.00    -0.586 C  
HETATM   36  O   UNL     1     -13.009  11.525  72.243  1.00  0.00    -0.283 OA 
ENDBRANCH  33  34
ENDBRANCH  32  33
ENDBRANCH  30  32
ENDBRANCH  24  30
TORSDOF 4
ENDMDL
MODEL       28
REMARK 921   NORMALIZED FREE ENERGY PREDICTED BY IDOCK:   -5.70 KCAL/MOL
REMARK 922        TOTAL FREE ENERGY PREDICTED BY IDOCK:   -7.66 KCAL/MOL
REMARK 923 INTER-LIGAND FREE ENERGY PREDICTED BY IDOCK:   -7.05 KCAL/MOL
REMARK 924 INTRA-LIGAND FREE ENERGY PREDICTED BY IDOCK:   -0.61 KCAL/MOL
REMARK 927      BINDING AFFINITY PREDICTED BY RF-SCORE:    0.00 PKD
ROOT
HETATM    1  C   UNL     1      -9.331   8.542  69.855  1.00  0.00    -0.159 C  
HETATM    2  C   UNL     1     -10.680   8.707  69.262  1.00  0.00    -0.151 C  
HETATM    3  C   UNL     1     -10.383   9.460  67.962  1.00  0.00    -0.267 C  
HETATM    4  C   UNL     1     -10.479  11.013  68.076  1.00  0.00    -0.219 C  
HETATM    5  C   UNL     1     -11.706  11.521  68.862  1.00  0.00    -0.403 C  
HETATM    6  C   UNL     1     -11.540  13.013  69.089  1.00  0.00    -0.316 C  
HETATM    7  F   UNL     1     -12.522  13.426  69.935  1.00  0.00    -0.333 F  
HETATM    8  C   UNL     1     -11.598  13.763  67.779  1.00  0.00    -0.381 C  
HETATM    9  C   UNL     1     -11.884  15.085  67.855  1.00  0.00    -0.243 C  
HETATM   10  C   UNL     1     -10.621  15.847  68.223  1.00  0.00    -0.276 C  
HETATM   11  C   UNL     1      -9.343  15.274  67.688  1.00  0.00    -0.199 C  
HETATM   12  O   UNL     1     -10.653  16.895  68.847  1.00  0.00    -0.326 OA 
HETATM   13  C   UNL     1      -9.309  14.116  66.993  1.00  0.00    -0.253 C  
HETATM   14  C   UNL     1     -10.573  13.280  66.709  1.00  0.00    -0.276 C  
HETATM   15  C   UNL     1     -10.475  11.679  66.683  1.00  0.00    -0.233 C  
HETATM   16  C   UNL     1     -11.061  13.713  65.300  1.00  0.00    -0.307 C  
HETATM   17  F   UNL     1     -11.675  11.259  66.110  1.00  0.00    -0.179 F  
HETATM   18  C   UNL     1      -9.394  11.039  65.771  1.00  0.00    -0.211 C  
HETATM   19  C   UNL     1      -9.425   9.485  65.862  1.00  0.00    -0.307 C  
HETATM   20  O   UNL     1      -8.090  11.568  65.954  1.00  0.00    -0.369 OA 
HETATM   21  C   UNL     1      -9.085   8.746  67.232  1.00  0.00    -0.151 C  
HETATM   22  H   UNL     1      -7.428  11.176  65.397  1.00  0.00     0.000 HD 
HETATM   23  C   UNL     1      -7.510   8.772  66.715  1.00  0.00    -0.086 C  
HETATM   24  C   UNL     1      -8.484   8.132  68.665  1.00  0.00    -0.127 C  
HETATM   25  O   UNL     1      -7.207   8.634  69.140  1.00  0.00    -0.062 OA 
HETATM   26  C   UNL     1      -7.342  11.101  68.936  1.00  0.00    -0.110 C  
HETATM   27  O   UNL     1      -8.798   9.782  70.352  1.00  0.00    -0.210 OA 
HETATM   28  C   UNL     1      -7.469   9.870  69.836  1.00  0.00    -0.154 C  
HETATM   29  C   UNL     1      -6.455  10.166  70.937  1.00  0.00     0.033 C  
ENDROOT
BRANCH  24  30
HETATM   30  C   UNL     1      -8.648   6.572  68.411  1.00  0.00    -0.119 C  
HETATM   31  O   UNL     1      -9.463   6.154  67.571  1.00  0.00    -0.113 OA 
BRANCH  30  32
HETATM   32  C   UNL     1      -7.820   5.540  69.182  1.00  0.00    -0.091 C  
BRANCH  32  33
HETATM   33  O   UNL     1      -8.597   4.915  70.241  1.00  0.00    -0.092 OA 
BRANCH  33  34
HETATM   34  C   UNL     1      -8.345   5.384  71.501  1.00  0.00    -0.122 C  
HETATM   35  C   UNL     1      -9.328   4.895  72.517  1.00  0.00    -0.155 C  
HETATM   36  O   UNL     1      -7.400   6.128  71.777  1.00  0.00    -0.089 OA 
ENDBRANCH  33  34
ENDBRANCH  32  33
ENDBRANCH  30  32
ENDBRANCH  24  30
TORSDOF 4
ENDMDL
MODEL       29
REMARK 921   NORMALIZED FREE ENERGY PREDICTED BY IDOCK:   -5.70 KCAL/MOL
REMARK 922        TOTAL FREE ENERGY PREDICTED BY IDOCK:   -7.66 KCAL/MOL
REMARK 923 INTER-LIGAND FREE ENERGY PREDICTED BY IDOCK:   -7.25 KCAL/MOL
REMARK 924 INTRA-LIGAND FREE ENERGY PREDICTED BY IDOCK:   -0.40 KCAL/MOL
REMARK 927      BINDING AFFINITY PREDICTED BY RF-SCORE:    0.00 PKD
ROOT
HETATM    1  C   UNL     1     -10.111  15.860  66.564  1.00  0.00    -0.282 C  
HETATM    2  C   UNL     1     -11.228  15.024  66.062  1.00  0.00    -0.310 C  
HETATM    3  C   UNL     1     -11.030  13.710  66.823  1.00  0.00    -0.297 C  
HETATM    4  C   UNL     1     -10.178  12.644  66.066  1.00  0.00    -0.287 C  
HETATM    5  C   UNL     1     -10.529  12.489  64.572  1.00  0.00    -0.366 C  
HETATM    6  C   UNL     1      -9.477  11.605  63.926  1.00  0.00    -0.078 C  
HETATM    7  F   UNL     1      -9.679  11.618  62.581  1.00  0.00    -0.366 F  
HETATM    8  C   UNL     1      -9.549  10.200  64.476  1.00  0.00    -0.376 C  
HETATM    9  C   UNL     1      -8.983   9.229  63.719  1.00  0.00    -0.080 C  
HETATM   10  C   UNL     1      -7.480   9.231  63.950  1.00  0.00    -0.110 C  
HETATM   11  C   UNL     1      -7.041   9.609  65.332  1.00  0.00    -0.100 C  
HETATM   12  O   UNL     1      -6.691   8.875  63.090  1.00  0.00    -0.091 OA 
HETATM   13  C   UNL     1      -7.916   9.997  66.285  1.00  0.00    -0.111 C  
HETATM   14  C   UNL     1      -9.432  10.102  66.027  1.00  0.00    -0.248 C  
HETATM   15  C   UNL     1     -10.280  11.261  66.744  1.00  0.00    -0.226 C  
HETATM   16  C   UNL     1     -10.040   8.755  66.502  1.00  0.00    -0.349 C  
HETATM   17  F   UNL     1     -11.613  10.895  66.554  1.00  0.00    -0.138 F  
HETATM   18  C   UNL     1     -10.156  11.393  68.286  1.00  0.00    -0.196 C  
HETATM   19  C   UNL     1     -11.032  12.562  68.825  1.00  0.00    -0.294 C  
HETATM   20  O   UNL     1      -8.820  11.452  68.759  1.00  0.00    -0.269 OA 
HETATM   21  C   UNL     1     -10.723  14.068  68.406  1.00  0.00    -0.261 C  
HETATM   22  H   UNL     1      -8.744  11.533  69.703  1.00  0.00     0.000 HD 
HETATM   23  C   UNL     1      -9.715  14.099  69.722  1.00  0.00     0.829 C  
HETATM   24  C   UNL     1     -10.127  15.588  68.057  1.00  0.00    -0.223 C  
HETATM   25  O   UNL     1      -8.724  15.850  68.327  1.00  0.00    -0.169 OA 
HETATM   26  C   UNL     1      -7.492  13.911  67.397  1.00  0.00    -0.147 C  
HETATM   27  O   UNL     1      -8.834  15.422  66.064  1.00  0.00    -0.281 OA 
HETATM   28  C   UNL     1      -7.974  15.349  67.201  1.00  0.00    -0.217 C  
HETATM   29  C   UNL     1      -6.668  16.103  66.969  1.00  0.00    -0.183 C  
ENDROOT
BRANCH  24  30
HETATM   30  C   UNL     1     -11.226  16.504  68.749  1.00  0.00    -0.277 C  
HETATM   31  O   UNL     1     -11.148  17.742  68.680  1.00  0.00     0.086 OA 
BRANCH  30  32
HETATM   32  C   UNL     1     -12.406  15.900  69.517  1.00  0.00     0.027 C  
BRANCH  32  33
HETATM   33  O   UNL     1     -12.256  16.078  70.953  1.00  0.00    -0.392 OA 
BRANCH  33  34
HETATM   34  C   UNL     1     -13.146  15.378  71.720  1.00  0.00    -0.445 C  
HETATM   35  C   UNL     1     -12.587  14.976  73.049  1.00  0.00    -0.542 C  
HETATM   36  O   UNL     1     -14.295  15.110  71.361  1.00  0.00    -0.489 OA 
ENDBRANCH  33  34
ENDBRANCH  32  33
ENDBRANCH  30  32
ENDBRANCH  24  30
TORSDOF 4
ENDMDL
MODEL       30
REMARK 921   NORMALIZED FREE ENERGY PREDICTED BY IDOCK:   -5.70 KCAL/MOL
REMARK 922        TOTAL FREE ENERGY PREDICTED BY IDOCK:   -7.66 KCAL/MOL
REMARK 923 INTER-LIGAND FREE ENERGY PREDICTED BY IDOCK:   -7.38 KCAL/MOL
REMARK 924 INTRA-LIGAND FREE ENERGY PREDICTED BY IDOCK:   -0.28 KCAL/MOL
REMARK 927      BINDING AFFINITY PREDICTED BY RF-SCORE:    0.00 PKD
ROOT
HETATM    1  C   UNL     1      -8.849  11.121  65.583  1.00  0.00    -0.157 C  
HETATM    2  C   UNL     1      -9.808  10.062  65.188  1.00  0.00    -0.388 C  
HETATM    3  C   UNL     1     -10.216   9.462  66.538  1.00  0.00    -0.308 C  
HETATM    4  C   UNL     1      -9.370   8.229  66.982  1.00  0.00    -0.203 C  
HETATM    5  C   UNL     1      -9.102   7.202  65.863  1.00  0.00    -0.054 C  
HETATM    6  C   UNL     1      -8.086   6.197  66.374  1.00  0.00    -0.111 C  
HETATM    7  F   UNL     1      -7.712   5.403  65.333  1.00  0.00    -0.083 F  
HETATM    8  C   UNL     1      -8.665   5.378  67.503  1.00  0.00    -0.107 C  
HETATM    9  C   UNL     1      -8.053   4.198  67.766  1.00  0.00    -0.094 C  
HETATM   10  C   UNL     1      -6.813   4.456  68.605  1.00  0.00    -0.051 C  
HETATM   11  C   UNL     1      -6.910   5.606  69.562  1.00  0.00    -0.061 C  
HETATM   12  O   UNL     1      -5.833   3.732  68.556  1.00  0.00    -0.021 OA 
HETATM   13  C   UNL     1      -7.998   6.405  69.620  1.00  0.00    -0.116 C  
HETATM   14  C   UNL     1      -9.217   6.215  68.696  1.00  0.00    -0.123 C  
HETATM   15  C   UNL     1     -10.024   7.500  68.175  1.00  0.00    -0.172 C  
HETATM   16  C   UNL     1     -10.231   5.356  69.500  1.00  0.00    -0.336 C  
HETATM   17  F   UNL     1     -11.207   6.986  67.643  1.00  0.00    -0.284 F  
HETATM   18  C   UNL     1     -10.519   8.519  69.238  1.00  0.00    -0.215 C  
HETATM   19  C   UNL     1     -11.276   9.706  68.574  1.00  0.00    -0.005 C  
HETATM   20  O   UNL     1      -9.513   8.952  70.140  1.00  0.00    -0.164 OA 
HETATM   21  C   UNL     1     -10.518  10.702  67.587  1.00  0.00    -0.267 C  
HETATM   22  H   UNL     1      -9.815   9.576  70.790  1.00  0.00     0.000 HD 
HETATM   23  C   UNL     1     -10.155  11.579  68.947  1.00  0.00    -0.144 C  
HETATM   24  C   UNL     1      -9.530  11.774  66.771  1.00  0.00    -0.193 C  
HETATM   25  O   UNL     1      -8.341  12.257  67.449  1.00  0.00    -0.159 OA 
HETATM   26  C   UNL     1      -7.266  10.248  68.426  1.00  0.00    -0.080 C  
HETATM   27  O   UNL     1      -7.601  10.580  66.051  1.00  0.00    -0.131 OA 
HETATM   28  C   UNL     1      -7.317  11.256  67.276  1.00  0.00    -0.122 C  
HETATM   29  C   UNL     1      -5.905  11.835  67.287  1.00  0.00    -0.119 C  
ENDROOT
BRANCH  24  30
HETATM   30  C   UNL     1     -10.601  12.828  66.253  1.00  0.00    -0.257 C  
HETATM   31  O   UNL     1     -11.736  12.871  66.758  1.00  0.00    -0.346 OA 
BRANCH  30  32
HETATM   32  C   UNL     1     -10.278  13.815  65.128  1.00  0.00    -0.345 C  
BRANCH  32  33
HETATM   33  O   UNL     1     -10.719  13.316  63.835  1.00  0.00    -0.318 OA 
BRANCH  33  34
HETATM   34  C   UNL     1     -12.074  13.296  63.652  1.00  0.00    -0.485 C  
HETATM   35  C   UNL     1     -12.632  11.913  63.538  1.00  0.00    -0.579 C  
HETATM   36  O   UNL     1     -12.770  14.314  63.593  1.00  0.00    -0.783 OA 
ENDBRANCH  33  34
ENDBRANCH  32  33
ENDBRANCH  30  32
ENDBRANCH  24  30
TORSDOF 4
ENDMDL
MODEL       31
REMARK 921   NORMALIZED FREE ENERGY PREDICTED BY IDOCK:   -5.67 KCAL/MOL
REMARK 922        TOTAL FREE ENERGY PREDICTED BY IDOCK:   -7.62 KCAL/MOL
REMARK 923 INTER-LIGAND FREE ENERGY PREDICTED BY IDOCK:   -7.94 KCAL/MOL
REMARK 924 INTRA-LIGAND FREE ENERGY PREDICTED BY IDOCK:    0.32 KCAL/MOL
REMARK 927      BINDING AFFINITY PREDICTED BY RF-SCORE:    0.00 PKD
ROOT
HETATM    1  C   UNL     1      -9.783  14.397  67.693  1.00  0.00    -0.219 C  
HETATM    2  C   UNL     1      -8.583  13.737  67.126  1.00  0.00    -0.210 C  
HETATM    3  C   UNL     1      -9.004  12.265  67.078  1.00  0.00    -0.204 C  
HETATM    4  C   UNL     1      -8.602  11.433  68.335  1.00  0.00    -0.156 C  
HETATM    5  C   UNL     1      -7.165  11.687  68.836  1.00  0.00    -0.113 C  
HETATM    6  C   UNL     1      -7.002  10.999  70.179  1.00  0.00     0.173 C  
HETATM    7  F   UNL     1      -5.804  11.374  70.706  1.00  0.00    -0.134 F  
HETATM    8  C   UNL     1      -7.085   9.499  70.025  1.00  0.00    -0.091 C  
HETATM    9  C   UNL     1      -6.551   8.762  71.029  1.00  0.00    -0.060 C  
HETATM   10  C   UNL     1      -7.545   8.688  72.176  1.00  0.00    -0.010 C  
HETATM   11  C   UNL     1      -8.990   8.678  71.777  1.00  0.00    -0.307 C  
HETATM   12  O   UNL     1      -7.190   8.569  73.337  1.00  0.00    -0.278 OA 
HETATM   13  C   UNL     1      -9.384   8.805  70.491  1.00  0.00    -0.219 C  
HETATM   14  C   UNL     1      -8.384   8.988  69.332  1.00  0.00    -0.119 C  
HETATM   15  C   UNL     1      -8.778   9.920  68.086  1.00  0.00    -0.122 C  
HETATM   16  C   UNL     1      -8.133   7.568  68.756  1.00  0.00    -0.128 C  
HETATM   17  F   UNL     1      -7.824   9.630  67.110  1.00  0.00    -0.091 F  
HETATM   18  C   UNL     1     -10.126   9.633  67.371  1.00  0.00    -0.204 C  
HETATM   19  C   UNL     1     -10.363  10.622  66.193  1.00  0.00    -0.291 C  
HETATM   20  O   UNL     1     -11.241   9.551  68.245  1.00  0.00    -0.502 OA 
HETATM   21  C   UNL     1     -10.536  12.183  66.465  1.00  0.00    -0.269 C  
HETATM   22  H   UNL     1     -12.067   9.376  67.808  1.00  0.00     0.000 HD 
HETATM   23  C   UNL     1     -12.152  11.851  66.628  1.00  0.00     0.276 C  
HETATM   24  C   UNL     1     -10.923  13.736  66.942  1.00  0.00    -0.290 C  
HETATM   25  O   UNL     1     -11.956  13.903  67.949  1.00  0.00    -0.363 OA 
HETATM   26  C   UNL     1     -11.416  12.274  69.737  1.00  0.00    -0.237 C  
HETATM   27  O   UNL     1      -9.962  14.099  69.089  1.00  0.00    -0.121 OA 
HETATM   28  C   UNL     1     -11.330  13.716  69.235  1.00  0.00    -0.269 C  
HETATM   29  C   UNL     1     -12.016  14.493  70.354  1.00  0.00    -0.386 C  
ENDROOT
BRANCH  24  30
HETATM   30  C   UNL     1     -11.106  14.442  65.530  1.00  0.00    -0.326 C  
HETATM   31  O   UNL     1     -10.153  15.032  64.993  1.00  0.00    -0.348 OA 
BRANCH  30  32
HETATM   32  C   UNL     1     -12.446  14.422  64.789  1.00  0.00    -0.357 C  
BRANCH  32  33
HETATM   33  O   UNL     1     -12.301  13.915  63.434  1.00  0.00    -0.760 OA 
BRANCH  33  34
HETATM   34  C   UNL     1     -12.299  12.552  63.322  1.00  0.00    -0.371 C  
HETATM   35  C   UNL     1     -10.929  11.978  63.145  1.00  0.00    -0.269 C  
HETATM   36  O   UNL     1     -13.320  11.860  63.369  1.00  0.00    -0.569 OA 
ENDBRANCH  33  34
ENDBRANCH  32  33
ENDBRANCH  30  32
ENDBRANCH  24  30
TORSDOF 4
ENDMDL
MODEL       32
REMARK 921   NORMALIZED FREE ENERGY PREDICTED BY IDOCK:   -5.65 KCAL/MOL
REMARK 922        TOTAL FREE ENERGY PREDICTED BY IDOCK:   -7.60 KCAL/MOL
REMARK 923 INTER-LIGAND FREE ENERGY PREDICTED BY IDOCK:   -7.20 KCAL/MOL
REMARK 924 INTRA-LIGAND FREE ENERGY PREDICTED BY IDOCK:   -0.40 KCAL/MOL
REMARK 927      BINDING AFFINITY PREDICTED BY RF-SCORE:    0.00 PKD
ROOT
HETATM    1  C   UNL     1     -11.552  14.865  68.284  1.00  0.00    -0.334 C  
HETATM    2  C   UNL     1     -10.971  14.279  69.515  1.00  0.00    -0.206 C  
HETATM    3  C   UNL     1      -9.740  13.537  68.983  1.00  0.00     0.214 C  
HETATM    4  C   UNL     1      -9.986  12.035  68.643  1.00  0.00    -0.151 C  
HETATM    5  C   UNL     1     -10.807  11.266  69.699  1.00  0.00    -0.155 C  
HETATM    6  C   UNL     1     -11.161   9.905  69.127  1.00  0.00    -0.159 C  
HETATM    7  F   UNL     1     -12.035   9.302  69.977  1.00  0.00    -0.107 F  
HETATM    8  C   UNL     1      -9.919   9.067  68.936  1.00  0.00    -0.197 C  
HETATM    9  C   UNL     1     -10.106   7.728  68.841  1.00  0.00    -0.201 C  
HETATM   10  C   UNL     1     -10.542   7.385  67.426  1.00  0.00    -0.301 C  
HETATM   11  C   UNL     1      -9.966   8.251  66.347  1.00  0.00    -0.264 C  
HETATM   12  O   UNL     1     -11.252   6.425  67.180  1.00  0.00    -0.370 OA 
HETATM   13  C   UNL     1      -9.175   9.312  66.619  1.00  0.00    -0.190 C  
HETATM   14  C   UNL     1      -8.815   9.731  68.059  1.00  0.00    -0.119 C  
HETATM   15  C   UNL     1      -8.654  11.288  68.414  1.00  0.00    -0.155 C  
HETATM   16  C   UNL     1      -7.446   9.066  68.367  1.00  0.00    -0.082 C  
HETATM   17  F   UNL     1      -8.042  11.304  69.667  1.00  0.00     0.031 F  
HETATM   18  C   UNL     1      -7.695  12.131  67.531  1.00  0.00    -0.159 C  
HETATM   19  C   UNL     1      -7.654  13.615  67.999  1.00  0.00    -0.139 C  
HETATM   20  O   UNL     1      -7.928  12.007  66.136  1.00  0.00    -0.357 OA 
HETATM   21  C   UNL     1      -8.957  14.528  67.918  1.00  0.00    -0.187 C  
HETATM   22  H   UNL     1      -7.341  12.523  65.596  1.00  0.00     0.000 HD 
HETATM   23  C   UNL     1      -8.450  14.905  66.385  1.00  0.00     0.099 C  
HETATM   24  C   UNL     1     -10.335  15.400  67.553  1.00  0.00    -0.264 C  
HETATM   25  O   UNL     1     -10.856  15.317  66.201  1.00  0.00    -0.316 OA 
HETATM   26  C   UNL     1     -10.861  12.905  65.632  1.00  0.00    -0.296 C  
HETATM   27  O   UNL     1     -12.155  13.869  67.438  1.00  0.00    -0.392 OA 
HETATM   28  C   UNL     1     -11.653  14.118  66.124  1.00  0.00    -0.370 C  
HETATM   29  C   UNL     1     -12.779  14.210  65.099  1.00  0.00    -0.387 C  
ENDROOT
BRANCH  24  30
HETATM   30  C   UNL     1      -9.948  16.824  68.142  1.00  0.00    -0.270 C  
HETATM   31  O   UNL     1     -10.776  17.750  68.143  1.00  0.00    -0.366 OA 
BRANCH  30  32
HETATM   32  C   UNL     1      -8.558  17.103  68.721  1.00  0.00    -0.236 C  
BRANCH  32  33
HETATM   33  O   UNL     1      -7.955  18.282  68.119  1.00  0.00    -0.266 OA 
BRANCH  33  34
HETATM   34  C   UNL     1      -6.618  18.179  67.853  1.00  0.00    -0.195 C  
HETATM   35  C   UNL     1      -5.775  18.131  69.088  1.00  0.00    -0.211 C  
HETATM   36  O   UNL     1      -6.150  18.122  66.713  1.00  0.00    -0.148 OA 
ENDBRANCH  33  34
ENDBRANCH  32  33
ENDBRANCH  30  32
ENDBRANCH  24  30
TORSDOF 4
ENDMDL
MODEL       33
REMARK 921   NORMALIZED FREE ENERGY PREDICTED BY IDOCK:   -5.61 KCAL/MOL
REMARK 922        TOTAL FREE ENERGY PREDICTED BY IDOCK:   -7.56 KCAL/MOL
REMARK 923 INTER-LIGAND FREE ENERGY PREDICTED BY IDOCK:   -7.07 KCAL/MOL
REMARK 924 INTRA-LIGAND FREE ENERGY PREDICTED BY IDOCK:   -0.48 KCAL/MOL
REMARK 927      BINDING AFFINITY PREDICTED BY RF-SCORE:    0.00 PKD
ROOT
HETATM    1  C   UNL     1      -9.220   8.126  66.924  1.00  0.00    -0.160 C  
HETATM    2  C   UNL     1     -10.453   7.345  67.182  1.00  0.00    -0.403 C  
HETATM    3  C   UNL     1     -10.691   7.582  68.677  1.00  0.00    -0.111 C  
HETATM    4  C   UNL     1     -10.068   6.500  69.613  1.00  0.00    -0.209 C  
HETATM    5  C   UNL     1     -10.280   5.047  69.139  1.00  0.00    -0.227 C  
HETATM    6  C   UNL     1      -9.431   4.136  70.006  1.00  0.00    -0.190 C  
HETATM    7  F   UNL     1      -9.472   2.884  69.475  1.00  0.00    -0.200 F  
HETATM    8  C   UNL     1      -9.927   4.140  71.432  1.00  0.00    -0.223 C  
HETATM    9  C   UNL     1      -9.553   3.089  72.202  1.00  0.00    -0.210 C  
HETATM   10  C   UNL     1      -8.138   3.319  72.706  1.00  0.00    -0.072 C  
HETATM   11  C   UNL     1      -7.771   4.749  72.967  1.00  0.00    -0.092 C  
HETATM   12  O   UNL     1      -7.378   2.397  72.952  1.00  0.00    -0.037 OA 
HETATM   13  C   UNL     1      -8.615   5.770  72.699  1.00  0.00    -0.120 C  
HETATM   14  C   UNL     1     -10.013   5.552  72.086  1.00  0.00    -0.219 C  
HETATM   15  C   UNL     1     -10.603   6.631  71.055  1.00  0.00    -0.226 C  
HETATM   16  C   UNL     1     -11.000   5.503  73.283  1.00  0.00    -0.339 C  
HETATM   17  F   UNL     1     -11.955   6.309  70.940  1.00  0.00    -0.395 F  
HETATM   18  C   UNL     1     -10.621   8.118  71.502  1.00  0.00    -0.228 C  
HETATM   19  C   UNL     1     -11.215   9.035  70.393  1.00  0.00    -0.275 C  
HETATM   20  O   UNL     1      -9.376   8.594  71.991  1.00  0.00    -0.257 OA 
HETATM   21  C   UNL     1     -10.479   9.191  68.988  1.00  0.00    -0.238 C  
HETATM   22  H   UNL     1      -9.387   9.503  72.264  1.00  0.00     0.000 HD 
HETATM   23  C   UNL     1      -9.650  10.439  69.698  1.00  0.00    -0.142 C  
HETATM   24  C   UNL     1      -9.471   9.419  67.676  1.00  0.00    -0.132 C  
HETATM   25  O   UNL     1      -8.088   9.779  67.932  1.00  0.00    -0.111 OA 
HETATM   26  C   UNL     1      -7.310   8.224  69.698  1.00  0.00    -0.073 C  
HETATM   27  O   UNL     1      -8.055   7.514  67.506  1.00  0.00    -0.111 OA 
HETATM   28  C   UNL     1      -7.374   8.556  68.206  1.00  0.00    -0.094 C  
HETATM   29  C   UNL     1      -5.899   8.624  67.822  1.00  0.00    -0.043 C  
ENDROOT
BRANCH  24  30
HETATM   30  C   UNL     1     -10.363  10.385  66.783  1.00  0.00    -0.235 C  
HETATM   31  O   UNL     1     -11.550  10.601  67.082  1.00  0.00    -0.321 OA 
BRANCH  30  32
HETATM   32  C   UNL     1      -9.800  11.074  65.537  1.00  0.00    -0.243 C  
BRANCH  32  33
HETATM   33  O   UNL     1     -10.168  10.365  64.321  1.00  0.00    -0.323 OA 
BRANCH  33  34
HETATM   34  C   UNL     1      -9.263  10.456  63.300  1.00  0.00    -0.289 C  
HETATM   35  C   UNL     1      -8.343   9.278  63.223  1.00  0.00    -0.193 C  
HETATM   36  O   UNL     1      -9.211  11.406  62.514  1.00  0.00    -0.335 OA 
ENDBRANCH  33  34
ENDBRANCH  32  33
ENDBRANCH  30  32
ENDBRANCH  24  30
TORSDOF 4
ENDMDL
MODEL       34
REMARK 921   NORMALIZED FREE ENERGY PREDICTED BY IDOCK:   -5.55 KCAL/MOL
REMARK 922        TOTAL FREE ENERGY PREDICTED BY IDOCK:   -7.48 KCAL/MOL
REMARK 923 INTER-LIGAND FREE ENERGY PREDICTED BY IDOCK:   -7.07 KCAL/MOL
REMARK 924 INTRA-LIGAND FREE ENERGY PREDICTED BY IDOCK:   -0.41 KCAL/MOL
REMARK 927      BINDING AFFINITY PREDICTED BY RF-SCORE:    0.00 PKD
ROOT
HETATM    1  C   UNL     1      -9.017  15.280  66.744  1.00  0.00    -0.262 C  
HETATM    2  C   UNL     1     -10.023  14.607  65.889  1.00  0.00    -0.352 C  
HETATM    3  C   UNL     1     -10.487  13.444  66.772  1.00  0.00    -0.275 C  
HETATM    4  C   UNL     1      -9.715  12.108  66.544  1.00  0.00    -0.234 C  
HETATM    5  C   UNL     1      -9.481  11.750  65.062  1.00  0.00    -0.080 C  
HETATM    6  C   UNL     1      -8.528  10.570  65.002  1.00  0.00    -0.163 C  
HETATM    7  F   UNL     1      -8.177  10.372  63.703  1.00  0.00    -0.158 F  
HETATM    8  C   UNL     1      -9.170   9.335  65.588  1.00  0.00    -0.291 C  
HETATM    9  C   UNL     1      -8.626   8.147  65.230  1.00  0.00    -0.132 C  
HETATM   10  C   UNL     1      -7.389   7.891  66.076  1.00  0.00    -0.074 C  
HETATM   11  C   UNL     1      -7.444   8.424  67.476  1.00  0.00    -0.094 C  
HETATM   12  O   UNL     1      -6.448   7.231  65.667  1.00  0.00    -0.043 OA 
HETATM   13  C   UNL     1      -8.489   9.150  67.930  1.00  0.00    -0.117 C  
HETATM   14  C   UNL     1      -9.700   9.506  67.044  1.00  0.00    -0.229 C  
HETATM   15  C   UNL     1     -10.429  10.923  67.230  1.00  0.00    -0.232 C  
HETATM   16  C   UNL     1     -10.772   8.420  67.330  1.00  0.00    -0.225 C  
HETATM   17  F   UNL     1     -11.626  10.802  66.525  1.00  0.00    -0.080 F  
HETATM   18  C   UNL     1     -10.889  11.313  68.661  1.00  0.00    -0.204 C  
HETATM   19  C   UNL     1     -11.570  12.712  68.675  1.00  0.00    -0.356 C  
HETATM   20  O   UNL     1      -9.878  11.190  69.650  1.00  0.00    -0.400 OA 
HETATM   21  C   UNL     1     -10.743  14.021  68.299  1.00  0.00    -0.262 C  
HETATM   22  H   UNL     1     -10.159  11.429  70.526  1.00  0.00     0.000 HD 
HETATM   23  C   UNL     1     -10.360  14.095  69.910  1.00  0.00     0.506 C  
HETATM   24  C   UNL     1      -9.685  15.300  68.106  1.00  0.00    -0.212 C  
HETATM   25  O   UNL     1      -8.485  15.321  68.922  1.00  0.00    -0.173 OA 
HETATM   26  C   UNL     1      -7.535  13.037  68.775  1.00  0.00    -0.049 C  
HETATM   27  O   UNL     1      -7.808  14.511  66.873  1.00  0.00    -0.076 OA 
HETATM   28  C   UNL     1      -7.512  14.481  68.270  1.00  0.00    -0.120 C  
HETATM   29  C   UNL     1      -6.072  14.901  68.550  1.00  0.00    -0.093 C  
ENDROOT
BRANCH  24  30
HETATM   30  C   UNL     1     -10.690  16.529  68.184  1.00  0.00    -0.343 C  
HETATM   31  O   UNL     1     -11.918  16.341  68.153  1.00  0.00     0.035 OA 
BRANCH  30  32
HETATM   32  C   UNL     1     -10.187  17.971  68.299  1.00  0.00    -0.395 C  
BRANCH  32  33
HETATM   33  O   UNL     1     -11.028  18.892  67.551  1.00  0.00    -0.422 OA 
BRANCH  33  34
HETATM   34  C   UNL     1     -10.370  19.668  66.637  1.00  0.00    -0.486 C  
HETATM   35  C   UNL     1      -9.136  20.308  67.189  1.00  0.00    -0.499 C  
HETATM   36  O   UNL     1     -10.748  19.821  65.472  1.00  0.00    -0.479 OA 
ENDBRANCH  33  34
ENDBRANCH  32  33
ENDBRANCH  30  32
ENDBRANCH  24  30
TORSDOF 4
ENDMDL
MODEL       35
REMARK 921   NORMALIZED FREE ENERGY PREDICTED BY IDOCK:   -5.53 KCAL/MOL
REMARK 922        TOTAL FREE ENERGY PREDICTED BY IDOCK:   -7.45 KCAL/MOL
REMARK 923 INTER-LIGAND FREE ENERGY PREDICTED BY IDOCK:   -6.74 KCAL/MOL
REMARK 924 INTRA-LIGAND FREE ENERGY PREDICTED BY IDOCK:   -0.71 KCAL/MOL
REMARK 927      BINDING AFFINITY PREDICTED BY RF-SCORE:    0.00 PKD
ROOT
HETATM    1  C   UNL     1      -8.424   6.698  66.839  1.00  0.00    -0.115 C  
HETATM    2  C   UNL     1      -7.660   7.566  65.913  1.00  0.00    -0.088 C  
HETATM    3  C   UNL     1      -7.568   8.884  66.690  1.00  0.00    -0.089 C  
HETATM    4  C   UNL     1      -8.701   9.906  66.370  1.00  0.00    -0.144 C  
HETATM    5  C   UNL     1      -9.023  10.053  64.868  1.00  0.00    -0.241 C  
HETATM    6  C   UNL     1     -10.283  10.888  64.732  1.00  0.00    -0.333 C  
HETATM    7  F   UNL     1     -10.671  10.864  63.428  1.00  0.00    -0.395 F  
HETATM    8  C   UNL     1     -10.041  12.302  65.203  1.00  0.00    -0.284 C  
HETATM    9  C   UNL     1     -10.913  13.241  64.761  1.00  0.00    -0.365 C  
HETATM   10  C   UNL     1     -12.174  13.188  65.607  1.00  0.00    -0.466 C  
HETATM   11  C   UNL     1     -11.970  12.813  67.044  1.00  0.00    -0.364 C  
HETATM   12  O   UNL     1     -13.267  13.502  65.165  1.00  0.00    -0.720 OA 
HETATM   13  C   UNL     1     -10.759  12.471  67.535  1.00  0.00    -0.250 C  
HETATM   14  C   UNL     1      -9.493  12.418  66.657  1.00  0.00    -0.232 C  
HETATM   15  C   UNL     1      -8.376  11.302  66.943  1.00  0.00    -0.155 C  
HETATM   16  C   UNL     1      -8.794  13.793  66.834  1.00  0.00    -0.203 C  
HETATM   17  F   UNL     1      -7.265  11.714  66.207  1.00  0.00    -0.073 F  
HETATM   18  C   UNL     1      -7.829  11.187  68.392  1.00  0.00    -0.133 C  
HETATM   19  C   UNL     1      -6.762  10.059  68.506  1.00  0.00    -0.054 C  
HETATM   20  O   UNL     1      -8.835  11.085  69.388  1.00  0.00    -0.388 OA 
HETATM   21  C   UNL     1      -7.160   8.537  68.253  1.00  0.00    -0.085 C  
HETATM   22  H   UNL     1      -8.500  11.015  70.274  1.00  0.00     0.000 HD 
HETATM   23  C   UNL     1      -7.512   8.487  69.872  1.00  0.00    -0.063 C  
HETATM   24  C   UNL     1      -7.788   6.990  68.185  1.00  0.00    -0.118 C  
HETATM   25  O   UNL     1      -8.932   6.681  69.024  1.00  0.00    -0.131 OA 
HETATM   26  C   UNL     1     -10.517   8.560  68.710  1.00  0.00    -0.208 C  
HETATM   27  O   UNL     1      -9.808   7.081  66.930  1.00  0.00    -0.175 OA 
HETATM   28  C   UNL     1     -10.108   7.138  68.325  1.00  0.00    -0.167 C  
HETATM   29  C   UNL     1     -11.358   6.334  68.666  1.00  0.00    -0.181 C  
ENDROOT
BRANCH  24  30
HETATM   30  C   UNL     1      -6.463   6.126  68.343  1.00  0.00    -0.053 C  
HETATM   31  O   UNL     1      -5.386   6.534  67.876  1.00  0.00    -0.007 OA 
BRANCH  30  32
HETATM   32  C   UNL     1      -6.467   4.776  69.066  1.00  0.00    -0.036 C  
BRANCH  32  33
HETATM   33  O   UNL     1      -7.116   3.746  68.271  1.00  0.00    -0.050 OA 
BRANCH  33  34
HETATM   34  C   UNL     1      -8.342   3.347  68.727  1.00  0.00    -0.072 C  
HETATM   35  C   UNL     1      -9.353   3.193  67.635  1.00  0.00    -0.247 C  
HETATM   36  O   UNL     1      -8.592   3.128  69.915  1.00  0.00    -0.055 OA 
ENDBRANCH  33  34
ENDBRANCH  32  33
ENDBRANCH  30  32
ENDBRANCH  24  30
TORSDOF 4
ENDMDL
MODEL       36
REMARK 921   NORMALIZED FREE ENERGY PREDICTED BY IDOCK:   -5.51 KCAL/MOL
REMARK 922        TOTAL FREE ENERGY PREDICTED BY IDOCK:   -7.43 KCAL/MOL
REMARK 923 INTER-LIGAND FREE ENERGY PREDICTED BY IDOCK:   -6.97 KCAL/MOL
REMARK 924 INTRA-LIGAND FREE ENERGY PREDICTED BY IDOCK:   -0.46 KCAL/MOL
REMARK 927      BINDING AFFINITY PREDICTED BY RF-SCORE:    0.00 PKD
ROOT
HETATM    1  C   UNL     1      -9.133  12.662  65.613  1.00  0.00     0.377 C  
HETATM    2  C   UNL     1      -9.931  11.491  65.178  1.00  0.00    -0.304 C  
HETATM    3  C   UNL     1     -10.454  10.932  66.506  1.00  0.00    -0.308 C  
HETATM    4  C   UNL     1      -9.563   9.819  67.137  1.00  0.00    -0.211 C  
HETATM    5  C   UNL     1      -9.058   8.760  66.136  1.00  0.00    -0.251 C  
HETATM    6  C   UNL     1      -8.029   7.893  66.839  1.00  0.00    -0.108 C  
HETATM    7  F   UNL     1      -7.451   7.082  65.911  1.00  0.00    -0.072 F  
HETATM    8  C   UNL     1      -8.673   7.088  67.942  1.00  0.00    -0.125 C  
HETATM    9  C   UNL     1      -7.994   5.993  68.362  1.00  0.00    -0.107 C  
HETATM   10  C   UNL     1      -6.902   6.423  69.328  1.00  0.00    -0.065 C  
HETATM   11  C   UNL     1      -7.229   7.611  70.182  1.00  0.00    -0.067 C  
HETATM   12  O   UNL     1      -5.862   5.799  69.453  1.00  0.00    -0.015 OA 
HETATM   13  C   UNL     1      -8.384   8.299  70.048  1.00  0.00    -0.121 C  
HETATM   14  C   UNL     1      -9.450   7.934  68.996  1.00  0.00    -0.151 C  
HETATM   15  C   UNL     1     -10.297   9.099  68.289  1.00  0.00    -0.214 C  
HETATM   16  C   UNL     1     -10.476   7.026  69.726  1.00  0.00    -0.235 C  
HETATM   17  F   UNL     1     -11.348   8.438  67.652  1.00  0.00     0.019 F  
HETATM   18  C   UNL     1     -11.018  10.123  69.207  1.00  0.00    -0.240 C  
HETATM   19  C   UNL     1     -11.788  11.187  68.372  1.00  0.00    -0.302 C  
HETATM   20  O   UNL     1     -10.182  10.707  70.194  1.00  0.00    -0.421 OA 
HETATM   21  C   UNL     1     -11.003  12.195  67.419  1.00  0.00    -0.308 C  
HETATM   22  H   UNL     1     -10.623  11.334  70.756  1.00  0.00     0.000 HD 
HETATM   23  C   UNL     1     -10.903  13.181  68.748  1.00  0.00    -0.278 C  
HETATM   24  C   UNL     1     -10.020  13.311  66.658  1.00  0.00    -0.272 C  
HETATM   25  O   UNL     1      -8.979  13.950  67.442  1.00  0.00    -0.189 OA 
HETATM   26  C   UNL     1      -7.860  12.120  68.685  1.00  0.00    -0.078 C  
HETATM   27  O   UNL     1      -7.911  12.277  66.269  1.00  0.00     0.230 OA 
HETATM   28  C   UNL     1      -7.853  13.049  67.469  1.00  0.00    -0.178 C  
HETATM   29  C   UNL     1      -6.514  13.766  67.614  1.00  0.00    -0.163 C  
ENDROOT
BRANCH  24  30
HETATM   30  C   UNL     1     -11.107  14.220  65.938  1.00  0.00    -0.310 C  
HETATM   31  O   UNL     1     -12.318  14.036  66.146  1.00  0.00    -0.448 OA 
BRANCH  30  32
HETATM   32  C   UNL     1     -10.706  15.341  64.975  1.00  0.00    -0.439 C  
BRANCH  32  33
HETATM   33  O   UNL     1      -9.724  16.233  65.572  1.00  0.00    -0.485 OA 
BRANCH  33  34
HETATM   34  C   UNL     1     -10.243  17.340  66.186  1.00  0.00    -0.331 C  
HETATM   35  C   UNL     1     -10.066  17.325  67.671  1.00  0.00    -0.313 C  
HETATM   36  O   UNL     1     -10.794  18.263  65.579  1.00  0.00    -0.490 OA 
ENDBRANCH  33  34
ENDBRANCH  32  33
ENDBRANCH  30  32
ENDBRANCH  24  30
TORSDOF 4
ENDMDL
MODEL       37
REMARK 921   NORMALIZED FREE ENERGY PREDICTED BY IDOCK:   -5.50 KCAL/MOL
REMARK 922        TOTAL FREE ENERGY PREDICTED BY IDOCK:   -7.42 KCAL/MOL
REMARK 923 INTER-LIGAND FREE ENERGY PREDICTED BY IDOCK:   -6.92 KCAL/MOL
REMARK 924 INTRA-LIGAND FREE ENERGY PREDICTED BY IDOCK:   -0.50 KCAL/MOL
REMARK 927      BINDING AFFINITY PREDICTED BY RF-SCORE:    0.00 PKD
ROOT
HETATM    1  C   UNL     1     -10.407   8.606  66.822  1.00  0.00    -0.266 C  
HETATM    2  C   UNL     1     -10.933   9.374  67.975  1.00  0.00    -0.119 C  
HETATM    3  C   UNL     1      -9.823   9.214  69.018  1.00  0.00    -0.176 C  
HETATM    4  C   UNL     1     -10.023   8.018  69.999  1.00  0.00    -0.191 C  
HETATM    5  C   UNL     1     -11.458   7.872  70.545  1.00  0.00    -0.204 C  
HETATM    6  C   UNL     1     -11.554   6.550  71.284  1.00  0.00    -0.327 C  
HETATM    7  F   UNL     1     -12.859   6.335  71.604  1.00  0.00    -0.286 F  
HETATM    8  C   UNL     1     -10.684   6.565  72.519  1.00  0.00    -0.255 C  
HETATM    9  C   UNL     1     -10.982   5.652  73.475  1.00  0.00    -0.250 C  
HETATM   10  C   UNL     1     -10.386   4.309  73.086  1.00  0.00    -0.171 C  
HETATM   11  C   UNL     1      -9.092   4.373  72.332  1.00  0.00    -0.142 C  
HETATM   12  O   UNL     1     -10.888   3.251  73.428  1.00  0.00    -0.184 OA 
HETATM   13  C   UNL     1      -8.533   5.545  71.958  1.00  0.00    -0.127 C  
HETATM   14  C   UNL     1      -9.187   6.909  72.256  1.00  0.00    -0.144 C  
HETATM   15  C   UNL     1      -9.048   8.104  71.194  1.00  0.00    -0.154 C  
HETATM   16  C   UNL     1      -8.538   7.415  73.573  1.00  0.00    -0.202 C  
HETATM   17  F   UNL     1      -9.465   9.242  71.883  1.00  0.00    -0.322 F  
HETATM   18  C   UNL     1      -7.619   8.475  70.712  1.00  0.00    -0.074 C  
HETATM   19  C   UNL     1      -7.655   9.643  69.684  1.00  0.00    -0.114 C  
HETATM   20  O   UNL     1      -6.855   7.370  70.253  1.00  0.00    -0.050 OA 
HETATM   21  C   UNL     1      -8.370   9.460  68.272  1.00  0.00    -0.119 C  
HETATM   22  H   UNL     1      -5.981   7.597  69.958  1.00  0.00     0.000 HD 
HETATM   23  C   UNL     1      -6.899   8.916  67.734  1.00  0.00    -0.070 C  
HETATM   24  C   UNL     1      -8.951   9.031  66.766  1.00  0.00    -0.135 C  
HETATM   25  O   UNL     1      -8.413   7.834  66.143  1.00  0.00    -0.123 OA 
HETATM   26  C   UNL     1      -8.443   6.092  67.906  1.00  0.00    -0.116 C  
HETATM   27  O   UNL     1     -10.429   7.187  67.056  1.00  0.00    -0.268 OA 
HETATM   28  C   UNL     1      -9.133   6.710  66.688  1.00  0.00    -0.145 C  
HETATM   29  C   UNL     1      -9.219   5.529  65.727  1.00  0.00    -0.132 C  
ENDROOT
BRANCH  24  30
HETATM   30  C   UNL     1      -8.834  10.416  65.997  1.00  0.00    -0.160 C  
HETATM   31  O   UNL     1      -8.488  10.446  64.803  1.00  0.00    -0.171 OA 
BRANCH  30  32
HETATM   32  C   UNL     1      -9.137  11.748  66.690  1.00  0.00    -0.194 C  
BRANCH  32  33
HETATM   33  O   UNL     1     -10.112  12.528  65.945  1.00  0.00    -0.247 OA 
BRANCH  33  34
HETATM   34  C   UNL     1     -11.371  12.549  66.480  1.00  0.00    -0.334 C  
HETATM   35  C   UNL     1     -11.394  12.982  67.912  1.00  0.00    -0.327 C  
HETATM   36  O   UNL     1     -12.387  12.249  65.847  1.00  0.00    -0.618 OA 
ENDBRANCH  33  34
ENDBRANCH  32  33
ENDBRANCH  30  32
ENDBRANCH  24  30
TORSDOF 4
ENDMDL
MODEL       38
REMARK 921   NORMALIZED FREE ENERGY PREDICTED BY IDOCK:   -5.43 KCAL/MOL
REMARK 922        TOTAL FREE ENERGY PREDICTED BY IDOCK:   -7.33 KCAL/MOL
REMARK 923 INTER-LIGAND FREE ENERGY PREDICTED BY IDOCK:   -6.69 KCAL/MOL
REMARK 924 INTRA-LIGAND FREE ENERGY PREDICTED BY IDOCK:   -0.64 KCAL/MOL
REMARK 927      BINDING AFFINITY PREDICTED BY RF-SCORE:    0.00 PKD
ROOT
HETATM    1  C   UNL     1      -9.696   8.502  70.425  1.00  0.00    -0.175 C  
HETATM    2  C   UNL     1     -11.126   8.784  70.157  1.00  0.00    -0.214 C  
HETATM    3  C   UNL     1     -11.070   9.575  68.846  1.00  0.00    -0.050 C  
HETATM    4  C   UNL     1     -11.020  11.124  69.025  1.00  0.00    -0.286 C  
HETATM    5  C   UNL     1     -12.000  11.677  70.081  1.00  0.00    -0.441 C  
HETATM    6  C   UNL     1     -11.675  13.142  70.309  1.00  0.00    -0.127 C  
HETATM    7  F   UNL     1     -12.410  13.581  71.367  1.00  0.00    -0.408 F  
HETATM    8  C   UNL     1     -11.966  13.953  69.069  1.00  0.00    -0.402 C  
HETATM    9  C   UNL     1     -12.127  15.287  69.246  1.00  0.00    -0.280 C  
HETATM   10  C   UNL     1     -10.760  15.945  69.343  1.00  0.00    -0.272 C  
HETATM   11  C   UNL     1      -9.680  15.312  68.518  1.00  0.00    -0.211 C  
HETATM   12  O   UNL     1     -10.573  16.963  69.988  1.00  0.00    -0.170 OA 
HETATM   13  C   UNL     1      -9.889  14.187  67.798  1.00  0.00    -0.231 C  
HETATM   14  C   UNL     1     -11.244  13.453  67.781  1.00  0.00    -0.306 C  
HETATM   15  C   UNL     1     -11.276  11.851  67.687  1.00  0.00    -0.276 C  
HETATM   16  C   UNL     1     -12.000  13.981  66.532  1.00  0.00    -0.470 C  
HETATM   17  F   UNL     1     -12.602  11.539  67.386  1.00  0.00     0.439 F  
HETATM   18  C   UNL     1     -10.476  11.182  66.536  1.00  0.00    -0.255 C  
HETATM   19  C   UNL     1     -10.603   9.632  66.586  1.00  0.00    -0.173 C  
HETATM   20  O   UNL     1      -9.128  11.614  66.437  1.00  0.00    -0.198 OA 
HETATM   21  C   UNL     1     -10.024   8.809  67.822  1.00  0.00    -0.243 C  
HETATM   22  H   UNL     1      -8.639  11.205  65.733  1.00  0.00     0.000 HD 
HETATM   23  C   UNL     1      -8.607   8.753  66.964  1.00  0.00    -0.119 C  
HETATM   24  C   UNL     1      -9.168   8.091  69.064  1.00  0.00    -0.148 C  
HETATM   25  O   UNL     1      -7.783   8.485  69.254  1.00  0.00    -0.089 OA 
HETATM   26  C   UNL     1      -7.773  10.962  69.158  1.00  0.00    -0.127 C  
HETATM   27  O   UNL     1      -8.973   9.680  70.826  1.00  0.00    -0.187 OA 
HETATM   28  C   UNL     1      -7.790   9.703  70.027  1.00  0.00    -0.165 C  
HETATM   29  C   UNL     1      -6.537   9.878  70.880  1.00  0.00    -0.018 C  
ENDROOT
BRANCH  24  30
HETATM   30  C   UNL     1      -9.503   6.559  68.807  1.00  0.00    -0.128 C  
HETATM   31  O   UNL     1     -10.375   6.235  67.983  1.00  0.00    -0.151 OA 
BRANCH  30  32
HETATM   32  C   UNL     1      -8.772   5.441  69.556  1.00  0.00    -0.102 C  
BRANCH  32  33
HETATM   33  O   UNL     1      -9.686   4.663  70.378  1.00  0.00    -0.184 OA 
BRANCH  33  34
HETATM   34  C   UNL     1      -9.846   5.116  71.658  1.00  0.00    -0.173 C  
HETATM   35  C   UNL     1      -8.552   5.460  72.326  1.00  0.00    -0.126 C  
HETATM   36  O   UNL     1     -10.944   5.239  72.207  1.00  0.00    -0.228 OA 
ENDBRANCH  33  34
ENDBRANCH  32  33
ENDBRANCH  30  32
ENDBRANCH  24  30
TORSDOF 4
ENDMDL
MODEL       39
REMARK 921   NORMALIZED FREE ENERGY PREDICTED BY IDOCK:   -5.38 KCAL/MOL
REMARK 922        TOTAL FREE ENERGY PREDICTED BY IDOCK:   -7.26 KCAL/MOL
REMARK 923 INTER-LIGAND FREE ENERGY PREDICTED BY IDOCK:   -6.79 KCAL/MOL
REMARK 924 INTRA-LIGAND FREE ENERGY PREDICTED BY IDOCK:   -0.47 KCAL/MOL
REMARK 927      BINDING AFFINITY PREDICTED BY RF-SCORE:    0.00 PKD
ROOT
HETATM    1  C   UNL     1      -8.996  12.203  67.034  1.00  0.00    -0.201 C  
HETATM    2  C   UNL     1      -7.617  11.693  66.853  1.00  0.00    -0.138 C  
HETATM    3  C   UNL     1      -7.757  10.213  67.227  1.00  0.00    -0.095 C  
HETATM    4  C   UNL     1      -7.450   9.890  68.722  1.00  0.00    -0.079 C  
HETATM    5  C   UNL     1      -6.195  10.590  69.282  1.00  0.00    -0.048 C  
HETATM    6  C   UNL     1      -6.159  10.373  70.784  1.00  0.00    -0.062 C  
HETATM    7  F   UNL     1      -5.162  11.140  71.302  1.00  0.00    -0.099 F  
HETATM    8  C   UNL     1      -5.949   8.913  71.108  1.00  0.00    -0.050 C  
HETATM    9  C   UNL     1      -5.485   8.633  72.350  1.00  0.00    -0.054 C  
HETATM   10  C   UNL     1      -6.642   8.673  73.334  1.00  0.00    -0.007 C  
HETATM   11  C   UNL     1      -7.966   8.227  72.791  1.00  0.00    -0.194 C  
HETATM   12  O   UNL     1      -6.488   8.975  74.506  1.00  0.00    -0.290 OA 
HETATM   13  C   UNL     1      -8.136   7.887  71.495  1.00  0.00    -0.117 C  
HETATM   14  C   UNL     1      -6.991   7.948  70.464  1.00  0.00    -0.045 C  
HETATM   15  C   UNL     1      -7.309   8.370  68.949  1.00  0.00    -0.090 C  
HETATM   16  C   UNL     1      -6.394   6.515  70.405  1.00  0.00    -0.043 C  
HETATM   17  F   UNL     1      -6.159   8.031  68.237  1.00  0.00    -0.037 F  
HETATM   18  C   UNL     1      -8.434   7.596  68.209  1.00  0.00    -0.125 C  
HETATM   19  C   UNL     1      -8.624   8.126  66.757  1.00  0.00    -0.136 C  
HETATM   20  O   UNL     1      -9.658   7.523  68.924  1.00  0.00    -0.149 OA 
HETATM   21  C   UNL     1      -9.114   9.620  66.496  1.00  0.00    -0.185 C  
HETATM   22  H   UNL     1     -10.346   7.051  68.472  1.00  0.00     0.000 HD 
HETATM   23  C   UNL     1     -10.649   8.998  66.563  1.00  0.00    -0.076 C  
HETATM   24  C   UNL     1      -9.848  11.118  66.403  1.00  0.00    -0.211 C  
HETATM   25  O   UNL     1     -11.058  11.333  67.175  1.00  0.00    -0.279 OA 
HETATM   26  C   UNL     1     -10.574  10.449  69.439  1.00  0.00    -0.267 C  
HETATM   27  O   UNL     1      -9.370  12.287  68.421  1.00  0.00    -0.203 OA 
HETATM   28  C   UNL     1     -10.653  11.668  68.518  1.00  0.00    -0.215 C  
HETATM   29  C   UNL     1     -11.657  12.560  69.242  1.00  0.00    -0.378 C  
ENDROOT
BRANCH  24  30
HETATM   30  C   UNL     1      -9.892  11.329  64.829  1.00  0.00    -0.266 C  
HETATM   31  O   UNL     1      -9.563  10.409  64.061  1.00  0.00    -0.277 OA 
BRANCH  30  32
HETATM   32  C   UNL     1     -10.336  12.656  64.209  1.00  0.00    -0.374 C  
BRANCH  32  33
HETATM   33  O   UNL     1     -11.786  12.762  64.151  1.00  0.00    -0.345 OA 
BRANCH  33  34
HETATM   34  C   UNL     1     -12.296  13.973  64.531  1.00  0.00    -0.378 C  
HETATM   35  C   UNL     1     -12.517  14.081  66.006  1.00  0.00    -0.489 C  
HETATM   36  O   UNL     1     -12.543  14.888  63.740  1.00  0.00    -0.791 OA 
ENDBRANCH  33  34
ENDBRANCH  32  33
ENDBRANCH  30  32
ENDBRANCH  24  30
TORSDOF 4
ENDMDL
MODEL       40
REMARK 921   NORMALIZED FREE ENERGY PREDICTED BY IDOCK:   -5.37 KCAL/MOL
REMARK 922        TOTAL FREE ENERGY PREDICTED BY IDOCK:   -7.26 KCAL/MOL
REMARK 923 INTER-LIGAND FREE ENERGY PREDICTED BY IDOCK:   -7.28 KCAL/MOL
REMARK 924 INTRA-LIGAND FREE ENERGY PREDICTED BY IDOCK:    0.02 KCAL/MOL
REMARK 927      BINDING AFFINITY PREDICTED BY RF-SCORE:    0.00 PKD
ROOT
HETATM    1  C   UNL     1     -10.053  13.168  68.301  1.00  0.00    -0.247 C  
HETATM    2  C   UNL     1      -8.697  13.350  67.731  1.00  0.00    -0.197 C  
HETATM    3  C   UNL     1      -8.657  12.297  66.619  1.00  0.00    -0.099 C  
HETATM    4  C   UNL     1      -8.058  10.922  67.048  1.00  0.00    -0.131 C  
HETATM    5  C   UNL     1      -6.775  11.023  67.900  1.00  0.00    -0.063 C  
HETATM    6  C   UNL     1      -6.448   9.640  68.432  1.00  0.00    -0.052 C  
HETATM    7  F   UNL     1      -5.431   9.758  69.328  1.00  0.00    -0.036 F  
HETATM    8  C   UNL     1      -6.076   8.707  67.303  1.00  0.00    -0.055 C  
HETATM    9  C   UNL     1      -5.372   7.601  67.645  1.00  0.00    -0.031 C  
HETATM   10  C   UNL     1      -6.328   6.549  68.183  1.00  0.00    -0.040 C  
HETATM   11  C   UNL     1      -7.693   6.542  67.565  1.00  0.00    -0.106 C  
HETATM   12  O   UNL     1      -5.983   5.719  69.009  1.00  0.00    -0.021 OA 
HETATM   13  C   UNL     1      -8.074   7.457  66.647  1.00  0.00    -0.123 C  
HETATM   14  C   UNL     1      -7.145   8.594  66.175  1.00  0.00    -0.084 C  
HETATM   15  C   UNL     1      -7.767  10.030  65.822  1.00  0.00    -0.122 C  
HETATM   16  C   UNL     1      -6.467   8.078  64.877  1.00  0.00    -0.048 C  
HETATM   17  F   UNL     1      -6.746  10.705  65.153  1.00  0.00    -0.123 F  
HETATM   18  C   UNL     1      -8.950  10.075  64.817  1.00  0.00    -0.212 C  
HETATM   19  C   UNL     1      -9.441  11.534  64.587  1.00  0.00    -0.120 C  
HETATM   20  O   UNL     1     -10.012   9.186  65.129  1.00  0.00    -0.348 OA 
HETATM   21  C   UNL     1     -10.079  12.374  65.781  1.00  0.00    -0.273 C  
HETATM   22  H   UNL     1     -10.736   9.214  64.514  1.00  0.00     0.000 HD 
HETATM   23  C   UNL     1     -11.526  11.718  65.308  1.00  0.00    -0.250 C  
HETATM   24  C   UNL     1     -10.924  13.023  67.067  1.00  0.00    -0.265 C  
HETATM   25  O   UNL     1     -11.985  12.227  67.658  1.00  0.00    -0.494 OA 
HETATM   26  C   UNL     1     -11.028   9.961  67.963  1.00  0.00    -0.269 C  
HETATM   27  O   UNL     1     -10.170  11.946  69.052  1.00  0.00    -0.128 OA 
HETATM   28  C   UNL     1     -11.365  11.316  68.588  1.00  0.00    -0.273 C  
HETATM   29  C   UNL     1     -12.280  10.924  69.744  1.00  0.00    -0.381 C  
ENDROOT
BRANCH  24  30
HETATM   30  C   UNL     1     -11.274  14.464  66.494  1.00  0.00    -0.340 C  
HETATM   31  O   UNL     1     -11.762  14.588  65.359  1.00  0.00    -0.350 OA 
BRANCH  30  32
HETATM   32  C   UNL     1     -11.023  15.735  67.311  1.00  0.00    -0.259 C  
BRANCH  32  33
HETATM   33  O   UNL     1     -10.102  16.633  66.632  1.00  0.00    -0.279 OA 
BRANCH  33  34
HETATM   34  C   UNL     1     -10.655  17.799  66.178  1.00  0.00    -0.235 C  
HETATM   35  C   UNL     1     -10.702  18.872  67.219  1.00  0.00    -0.523 C  
HETATM   36  O   UNL     1     -11.069  17.956  65.026  1.00  0.00    -0.705 OA 
ENDBRANCH  33  34
ENDBRANCH  32  33
ENDBRANCH  30  32
ENDBRANCH  24  30
TORSDOF 4
ENDMDL
MODEL       41
REMARK 921   NORMALIZED FREE ENERGY PREDICTED BY IDOCK:   -5.36 KCAL/MOL
REMARK 922        TOTAL FREE ENERGY PREDICTED BY IDOCK:   -7.24 KCAL/MOL
REMARK 923 INTER-LIGAND FREE ENERGY PREDICTED BY IDOCK:   -6.75 KCAL/MOL
REMARK 924 INTRA-LIGAND FREE ENERGY PREDICTED BY IDOCK:   -0.50 KCAL/MOL
REMARK 927      BINDING AFFINITY PREDICTED BY RF-SCORE:    0.00 PKD
ROOT
HETATM    1  C   UNL     1      -9.865  10.526  65.714  1.00  0.00    -0.237 C  
HETATM    2  C   UNL     1     -11.031   9.885  66.368  1.00  0.00     0.226 C  
HETATM    3  C   UNL     1     -10.479   9.521  67.751  1.00  0.00    -0.309 C  
HETATM    4  C   UNL     1      -9.898   8.077  67.857  1.00  0.00    -0.204 C  
HETATM    5  C   UNL     1     -10.766   6.989  67.192  1.00  0.00    -0.433 C  
HETATM    6  C   UNL     1      -9.971   5.696  67.170  1.00  0.00    -0.164 C  
HETATM    7  F   UNL     1     -10.657   4.788  66.423  1.00  0.00    -0.283 F  
HETATM    8  C   UNL     1      -9.742   5.186  68.573  1.00  0.00    -0.205 C  
HETATM    9  C   UNL     1      -9.432   3.872  68.691  1.00  0.00    -0.217 C  
HETATM   10  C   UNL     1      -7.955   3.679  68.392  1.00  0.00    -0.070 C  
HETATM   11  C   UNL     1      -7.061   4.812  68.798  1.00  0.00    -0.053 C  
HETATM   12  O   UNL     1      -7.517   2.642  67.922  1.00  0.00    -0.055 OA 
HETATM   13  C   UNL     1      -7.546   5.959  69.323  1.00  0.00    -0.089 C  
HETATM   14  C   UNL     1      -9.054   6.204  69.530  1.00  0.00    -0.140 C  
HETATM   15  C   UNL     1      -9.651   7.680  69.329  1.00  0.00    -0.159 C  
HETATM   16  C   UNL     1      -9.352   5.807  71.001  1.00  0.00    -0.183 C  
HETATM   17  F   UNL     1     -10.932   7.623  69.878  1.00  0.00    -0.245 F  
HETATM   18  C   UNL     1      -8.975   8.842  70.106  1.00  0.00    -0.172 C  
HETATM   19  C   UNL     1      -9.665  10.204  69.800  1.00  0.00    -0.232 C  
HETATM   20  O   UNL     1      -7.566   8.901  69.955  1.00  0.00    -0.057 OA 
HETATM   21  C   UNL     1      -9.633  10.817  68.329  1.00  0.00    -0.170 C  
HETATM   22  H   UNL     1      -7.152   9.612  70.430  1.00  0.00     0.000 HD 
HETATM   23  C   UNL     1      -8.215  11.539  68.793  1.00  0.00    -0.082 C  
HETATM   24  C   UNL     1      -9.310  11.421  66.806  1.00  0.00    -0.180 C  
HETATM   25  O   UNL     1      -7.928  11.451  66.363  1.00  0.00    -0.156 OA 
HETATM   26  C   UNL     1      -7.001   9.219  66.914  1.00  0.00    -0.081 C  
HETATM   27  O   UNL     1      -8.838   9.576  65.377  1.00  0.00    -0.154 OA 
HETATM   28  C   UNL     1      -7.615  10.137  65.856  1.00  0.00    -0.128 C  
HETATM   29  C   UNL     1      -6.540  10.153  64.773  1.00  0.00    -0.124 C  
ENDROOT
BRANCH  24  30
HETATM   30  C   UNL     1     -10.134  12.780  66.845  1.00  0.00    -0.232 C  
HETATM   31  O   UNL     1     -10.955  12.991  67.754  1.00  0.00    -0.239 OA 
BRANCH  30  32
HETATM   32  C   UNL     1      -9.948  13.863  65.779  1.00  0.00    -0.284 C  
BRANCH  32  33
HETATM   33  O   UNL     1     -10.694  13.556  64.569  1.00  0.00    -0.390 OA 
BRANCH  33  34
HETATM   34  C   UNL     1     -12.050  13.702  64.670  1.00  0.00    -0.412 C  
HETATM   35  C   UNL     1     -12.508  15.108  64.441  1.00  0.00    -0.107 C  
HETATM   36  O   UNL     1     -12.822  12.771  64.918  1.00  0.00    -0.722 OA 
ENDBRANCH  33  34
ENDBRANCH  32  33
ENDBRANCH  30  32
ENDBRANCH  24  30
TORSDOF 4
ENDMDL
MODEL       42
REMARK 921   NORMALIZED FREE ENERGY PREDICTED BY IDOCK:   -5.28 KCAL/MOL
REMARK 922        TOTAL FREE ENERGY PREDICTED BY IDOCK:   -7.14 KCAL/MOL
REMARK 923 INTER-LIGAND FREE ENERGY PREDICTED BY IDOCK:   -6.58 KCAL/MOL
REMARK 924 INTRA-LIGAND FREE ENERGY PREDICTED BY IDOCK:   -0.56 KCAL/MOL
REMARK 927      BINDING AFFINITY PREDICTED BY RF-SCORE:    0.00 PKD
ROOT
HETATM    1  C   UNL     1      -8.706  10.544  69.108  1.00  0.00    -0.147 C  
HETATM    2  C   UNL     1      -7.452   9.763  68.988  1.00  0.00    -0.080 C  
HETATM    3  C   UNL     1      -7.959   8.379  68.572  1.00  0.00    -0.121 C  
HETATM    4  C   UNL     1      -8.205   7.394  69.757  1.00  0.00    -0.129 C  
HETATM    5  C   UNL     1      -7.092   7.389  70.825  1.00  0.00    -0.063 C  
HETATM    6  C   UNL     1      -7.575   6.575  72.011  1.00  0.00    -0.093 C  
HETATM    7  F   UNL     1      -6.677   6.722  73.022  1.00  0.00    -0.065 F  
HETATM    8  C   UNL     1      -7.737   5.122  71.632  1.00  0.00    -0.107 C  
HETATM    9  C   UNL     1      -7.748   4.232  72.653  1.00  0.00    -0.080 C  
HETATM   10  C   UNL     1      -9.133   4.211  73.280  1.00  0.00    -0.106 C  
HETATM   11  C   UNL     1     -10.272   4.449  72.334  1.00  0.00    -0.255 C  
HETATM   12  O   UNL     1      -9.310   3.943  74.457  1.00  0.00    -0.101 OA 
HETATM   13  C   UNL     1     -10.076   4.739  71.029  1.00  0.00    -0.269 C  
HETATM   14  C   UNL     1      -8.670   4.869  70.410  1.00  0.00    -0.123 C  
HETATM   15  C   UNL     1      -8.411   5.950  69.252  1.00  0.00    -0.113 C  
HETATM   16  C   UNL     1      -8.345   3.481  69.795  1.00  0.00    -0.080 C  
HETATM   17  F   UNL     1      -7.171   5.605  68.715  1.00  0.00    -0.071 F  
HETATM   18  C   UNL     1      -9.359   5.927  68.022  1.00  0.00    -0.111 C  
HETATM   19  C   UNL     1      -8.981   7.036  66.997  1.00  0.00    -0.130 C  
HETATM   20  O   UNL     1     -10.739   5.939  68.351  1.00  0.00    -0.242 OA 
HETATM   21  C   UNL     1      -9.095   8.576  67.388  1.00  0.00    -0.148 C  
HETATM   22  H   UNL     1     -11.319   5.925  67.598  1.00  0.00     0.000 HD 
HETATM   23  C   UNL     1     -10.655   8.476  66.837  1.00  0.00    -0.279 C  
HETATM   24  C   UNL     1      -9.488  10.124  67.877  1.00  0.00    -0.141 C  
HETATM   25  O   UNL     1     -10.824  10.358  68.394  1.00  0.00    -0.212 OA 
HETATM   26  C   UNL     1     -11.247   8.522  70.004  1.00  0.00    -0.086 C  
HETATM   27  O   UNL     1      -9.481  10.159  70.257  1.00  0.00    -0.096 OA 
HETATM   28  C   UNL     1     -10.816   9.973  69.784  1.00  0.00    -0.273 C  
HETATM   29  C   UNL     1     -11.826  10.746  70.626  1.00  0.00    -0.460 C  
ENDROOT
BRANCH  24  30
HETATM   30  C   UNL     1      -8.991  10.965  66.623  1.00  0.00    -0.164 C  
HETATM   31  O   UNL     1      -8.127  10.505  65.859  1.00  0.00    -0.144 OA 
BRANCH  30  32
HETATM   32  C   UNL     1      -9.553  12.356  66.316  1.00  0.00    -0.241 C  
BRANCH  32  33
HETATM   33  O   UNL     1     -10.129  12.418  64.981  1.00  0.00    -0.277 OA 
BRANCH  33  34
HETATM   34  C   UNL     1     -11.483  12.239  64.924  1.00  0.00    -0.332 C  
HETATM   35  C   UNL     1     -11.985  11.984  63.538  1.00  0.00    -0.605 C  
HETATM   36  O   UNL     1     -12.220  12.275  65.914  1.00  0.00    -0.634 OA 
ENDBRANCH  33  34
ENDBRANCH  32  33
ENDBRANCH  30  32
ENDBRANCH  24  30
TORSDOF 4
ENDMDL
MODEL       43
REMARK 921   NORMALIZED FREE ENERGY PREDICTED BY IDOCK:   -5.23 KCAL/MOL
REMARK 922        TOTAL FREE ENERGY PREDICTED BY IDOCK:   -7.08 KCAL/MOL
REMARK 923 INTER-LIGAND FREE ENERGY PREDICTED BY IDOCK:   -7.20 KCAL/MOL
REMARK 924 INTRA-LIGAND FREE ENERGY PREDICTED BY IDOCK:    0.13 KCAL/MOL
REMARK 927      BINDING AFFINITY PREDICTED BY RF-SCORE:    0.00 PKD
ROOT
HETATM    1  C   UNL     1     -10.123   9.878  69.407  1.00  0.00    -0.212 C  
HETATM    2  C   UNL     1     -10.988   9.232  68.392  1.00  0.00    -0.038 C  
HETATM    3  C   UNL     1     -10.767   7.741  68.664  1.00  0.00    -0.084 C  
HETATM    4  C   UNL     1      -9.640   7.085  67.808  1.00  0.00    -0.138 C  
HETATM    5  C   UNL     1      -9.657   7.482  66.318  1.00  0.00    -0.134 C  
HETATM    6  C   UNL     1      -8.384   6.964  65.673  1.00  0.00    -0.146 C  
HETATM    7  F   UNL     1      -8.310   7.469  64.411  1.00  0.00    -0.135 F  
HETATM    8  C   UNL     1      -8.369   5.454  65.658  1.00  0.00    -0.130 C  
HETATM    9  C   UNL     1      -7.532   4.870  64.766  1.00  0.00    -0.075 C  
HETATM   10  C   UNL     1      -6.122   4.867  65.335  1.00  0.00    -0.033 C  
HETATM   11  C   UNL     1      -6.028   4.723  66.824  1.00  0.00    -0.027 C  
HETATM   12  O   UNL     1      -5.134   4.904  64.621  1.00  0.00    -0.008 OA 
HETATM   13  C   UNL     1      -7.123   4.678  67.614  1.00  0.00    -0.065 C  
HETATM   14  C   UNL     1      -8.555   4.788  67.055  1.00  0.00    -0.104 C  
HETATM   15  C   UNL     1      -9.683   5.545  67.909  1.00  0.00    -0.131 C  
HETATM   16  C   UNL     1      -9.053   3.330  66.865  1.00  0.00    -0.191 C  
HETATM   17  F   UNL     1     -10.886   5.204  67.290  1.00  0.00    -0.240 F  
HETATM   18  C   UNL     1      -9.893   5.096  69.381  1.00  0.00    -0.199 C  
HETATM   19  C   UNL     1     -11.013   5.928  70.071  1.00  0.00    -0.430 C  
HETATM   20  O   UNL     1      -8.701   5.047  70.149  1.00  0.00    -0.105 OA 
HETATM   21  C   UNL     1     -10.839   7.495  70.297  1.00  0.00    -0.257 C  
HETATM   22  H   UNL     1      -8.829   4.772  71.050  1.00  0.00     0.000 HD 
HETATM   23  C   UNL     1     -10.131   7.086  71.739  1.00  0.00    -0.198 C  
HETATM   24  C   UNL     1     -10.402   9.067  70.658  1.00  0.00    -0.229 C  
HETATM   25  O   UNL     1      -9.133   9.284  71.330  1.00  0.00    -0.299 OA 
HETATM   26  C   UNL     1      -7.481   7.906  70.100  1.00  0.00    -0.078 C  
HETATM   27  O   UNL     1      -8.724   9.731  69.106  1.00  0.00    -0.136 OA 
HETATM   28  C   UNL     1      -8.109   9.284  70.315  1.00  0.00    -0.154 C  
HETATM   29  C   UNL     1      -6.901  10.140  70.682  1.00  0.00    -0.015 C  
ENDROOT
BRANCH  24  30
HETATM   30  C   UNL     1     -11.735   9.594  71.345  1.00  0.00    -0.404 C  
HETATM   31  O   UNL     1     -12.307   8.913  72.213  1.00  0.00    -0.373 OA 
BRANCH  30  32
HETATM   32  C   UNL     1     -12.354  10.942  70.966  1.00  0.00    -0.393 C  
BRANCH  32  33
HETATM   33  O   UNL     1     -13.075  11.533  72.083  1.00  0.00    -0.466 OA 
BRANCH  33  34
HETATM   34  C   UNL     1     -13.350  12.866  71.956  1.00  0.00    -0.482 C  
HETATM   35  C   UNL     1     -12.340  13.600  71.132  1.00  0.00    -0.403 C  
HETATM   36  O   UNL     1     -14.336  13.411  72.461  1.00  0.00    -0.692 OA 
ENDBRANCH  33  34
ENDBRANCH  32  33
ENDBRANCH  30  32
ENDBRANCH  24  30
TORSDOF 4
ENDMDL
MODEL       44
REMARK 921   NORMALIZED FREE ENERGY PREDICTED BY IDOCK:   -5.21 KCAL/MOL
REMARK 922        TOTAL FREE ENERGY PREDICTED BY IDOCK:   -7.06 KCAL/MOL
REMARK 923 INTER-LIGAND FREE ENERGY PREDICTED BY IDOCK:   -7.16 KCAL/MOL
REMARK 924 INTRA-LIGAND FREE ENERGY PREDICTED BY IDOCK:    0.10 KCAL/MOL
REMARK 927      BINDING AFFINITY PREDICTED BY RF-SCORE:    0.00 PKD
ROOT
HETATM    1  C   UNL     1      -9.723  14.499  69.824  1.00  0.00     0.452 C  
HETATM    2  C   UNL     1     -10.542  15.718  70.026  1.00  0.00    -0.333 C  
HETATM    3  C   UNL     1     -10.669  16.275  68.605  1.00  0.00    -0.309 C  
HETATM    4  C   UNL     1      -9.584  17.328  68.221  1.00  0.00    -0.288 C  
HETATM    5  C   UNL     1      -9.302  18.381  69.312  1.00  0.00     0.110 C  
HETATM    6  C   UNL     1      -8.079  19.179  68.897  1.00  0.00    -0.294 C  
HETATM    7  F   UNL     1      -7.720  19.978  69.938  1.00  0.00    -0.167 F  
HETATM    8  C   UNL     1      -8.367  19.993  67.658  1.00  0.00    -0.364 C  
HETATM    9  C   UNL     1      -7.544  21.043  67.424  1.00  0.00    -0.216 C  
HETATM   10  C   UNL     1      -6.263  20.538  66.780  1.00  0.00    -0.212 C  
HETATM   11  C   UNL     1      -6.420  19.350  65.878  1.00  0.00    -0.240 C  
HETATM   12  O   UNL     1      -5.193  21.105  66.928  1.00  0.00    -0.186 OA 
HETATM   13  C   UNL     1      -7.606  18.725  65.710  1.00  0.00    -0.095 C  
HETATM   14  C   UNL     1      -8.888  19.166  66.444  1.00  0.00    -0.349 C  
HETATM   15  C   UNL     1      -9.953  18.060  66.913  1.00  0.00    -0.340 C  
HETATM   16  C   UNL     1      -9.637  20.109  65.465  1.00  0.00     0.141 C  
HETATM   17  F   UNL     1     -11.095  18.787  67.248  1.00  0.00    -0.473 F  
HETATM   18  C   UNL     1     -10.463  17.056  65.844  1.00  0.00    -0.274 C  
HETATM   19  C   UNL     1     -11.481  16.049  66.456  1.00  0.00     0.435 C  
HETATM   20  O   UNL     1      -9.432  16.409  65.114  1.00  0.00    -0.131 OA 
HETATM   21  C   UNL     1     -11.029  15.023  67.588  1.00  0.00    -0.305 C  
HETATM   22  H   UNL     1      -9.744  15.794  64.461  1.00  0.00     0.000 HD 
HETATM   23  C   UNL     1     -10.639  14.005  66.338  1.00  0.00    -0.280 C  
HETATM   24  C   UNL     1     -10.341  13.875  68.587  1.00  0.00    -0.237 C  
HETATM   25  O   UNL     1      -9.168  13.167  68.107  1.00  0.00    -0.206 OA 
HETATM   26  C   UNL     1      -7.665  14.911  67.188  1.00  0.00    -0.177 C  
HETATM   27  O   UNL     1      -8.354  14.808  69.507  1.00  0.00    -0.061 OA 
HETATM   28  C   UNL     1      -8.027  14.009  68.370  1.00  0.00    -0.143 C  
HETATM   29  C   UNL     1      -6.738  13.222  68.585  1.00  0.00    -0.095 C  
ENDROOT
BRANCH  24  30
HETATM   30  C   UNL     1     -11.626  13.037  69.003  1.00  0.00    -0.318 C  
HETATM   31  O   UNL     1     -11.719  11.836  68.701  1.00  0.00    -0.287 OA 
BRANCH  30  32
HETATM   32  C   UNL     1     -12.782  13.673  69.781  1.00  0.00     0.179 C  
BRANCH  32  33
HETATM   33  O   UNL     1     -12.581  13.568  71.218  1.00  0.00    -0.353 OA 
BRANCH  33  34
HETATM   34  C   UNL     1     -13.618  14.025  71.984  1.00  0.00    -0.463 C  
HETATM   35  C   UNL     1     -13.748  15.515  71.968  1.00  0.00    -0.599 C  
HETATM   36  O   UNL     1     -14.376  13.287  72.620  1.00  0.00    -0.679 OA 
ENDBRANCH  33  34
ENDBRANCH  32  33
ENDBRANCH  30  32
ENDBRANCH  24  30
TORSDOF 4
ENDMDL
MODEL       45
REMARK 921   NORMALIZED FREE ENERGY PREDICTED BY IDOCK:   -5.19 KCAL/MOL
REMARK 922        TOTAL FREE ENERGY PREDICTED BY IDOCK:   -7.03 KCAL/MOL
REMARK 923 INTER-LIGAND FREE ENERGY PREDICTED BY IDOCK:   -6.57 KCAL/MOL
REMARK 924 INTRA-LIGAND FREE ENERGY PREDICTED BY IDOCK:   -0.46 KCAL/MOL
REMARK 927      BINDING AFFINITY PREDICTED BY RF-SCORE:    0.00 PKD
ROOT
HETATM    1  C   UNL     1      -9.472   9.689  67.335  1.00  0.00    -0.142 C  
HETATM    2  C   UNL     1     -10.373   8.556  67.016  1.00  0.00    -0.379 C  
HETATM    3  C   UNL     1     -10.509   7.847  68.368  1.00  0.00    -0.207 C  
HETATM    4  C   UNL     1      -9.489   6.690  68.599  1.00  0.00    -0.128 C  
HETATM    5  C   UNL     1      -9.297   5.755  67.387  1.00  0.00    -0.112 C  
HETATM    6  C   UNL     1      -8.122   4.839  67.675  1.00  0.00    -0.097 C  
HETATM    7  F   UNL     1      -7.836   4.145  66.540  1.00  0.00    -0.089 F  
HETATM    8  C   UNL     1      -8.439   3.906  68.820  1.00  0.00    -0.098 C  
HETATM    9  C   UNL     1      -7.682   2.786  68.910  1.00  0.00    -0.048 C  
HETATM   10  C   UNL     1      -6.359   3.131  69.573  1.00  0.00    -0.029 C  
HETATM   11  C   UNL     1      -6.420   4.213  70.609  1.00  0.00    -0.031 C  
HETATM   12  O   UNL     1      -5.332   2.518  69.333  1.00  0.00    -0.011 OA 
HETATM   13  C   UNL     1      -7.559   4.889  70.879  1.00  0.00    -0.073 C  
HETATM   14  C   UNL     1      -8.881   4.618  70.134  1.00  0.00    -0.126 C  
HETATM   15  C   UNL     1      -9.880   5.835  69.824  1.00  0.00    -0.178 C  
HETATM   16  C   UNL     1      -9.672   3.616  71.018  1.00  0.00    -0.243 C  
HETATM   17  F   UNL     1     -11.074   5.226  69.438  1.00  0.00    -0.290 F  
HETATM   18  C   UNL     1     -10.302   6.739  71.014  1.00  0.00    -0.206 C  
HETATM   19  C   UNL     1     -11.264   7.872  70.549  1.00  0.00    -0.259 C  
HETATM   20  O   UNL     1      -9.217   7.230  71.785  1.00  0.00    -0.142 OA 
HETATM   21  C   UNL     1     -10.766   8.992  69.531  1.00  0.00    -0.215 C  
HETATM   22  H   UNL     1      -9.476   7.784  72.513  1.00  0.00     0.000 HD 
HETATM   23  C   UNL     1     -10.287   9.831  70.877  1.00  0.00    -0.245 C  
HETATM   24  C   UNL     1     -10.024  10.203  68.651  1.00  0.00    -0.170 C  
HETATM   25  O   UNL     1      -8.798  10.775  69.178  1.00  0.00    -0.156 OA 
HETATM   26  C   UNL     1      -7.396   8.844  69.850  1.00  0.00    -0.054 C  
HETATM   27  O   UNL     1      -8.120   9.260  67.577  1.00  0.00    -0.106 OA 
HETATM   28  C   UNL     1      -7.719   9.899  68.790  1.00  0.00    -0.086 C  
HETATM   29  C   UNL     1      -6.386  10.623  68.632  1.00  0.00    -0.046 C  
ENDROOT
BRANCH  24  30
HETATM   30  C   UNL     1     -11.259  11.163  68.368  1.00  0.00    -0.262 C  
HETATM   31  O   UNL     1     -12.359  10.947  68.905  1.00  0.00    -0.486 OA 
BRANCH  30  32
HETATM   32  C   UNL     1     -11.140  12.371  67.436  1.00  0.00    -0.272 C  
BRANCH  32  33
HETATM   33  O   UNL     1     -12.061  12.275  66.315  1.00  0.00    -0.626 OA 
BRANCH  33  34
HETATM   34  C   UNL     1     -11.478  12.313  65.078  1.00  0.00    -0.336 C  
HETATM   35  C   UNL     1     -10.006  12.570  65.131  1.00  0.00    -0.212 C  
HETATM   36  O   UNL     1     -12.099  12.145  64.025  1.00  0.00    -0.414 OA 
ENDBRANCH  33  34
ENDBRANCH  32  33
ENDBRANCH  30  32
ENDBRANCH  24  30
TORSDOF 4
ENDMDL
MODEL       46
REMARK 921   NORMALIZED FREE ENERGY PREDICTED BY IDOCK:   -5.12 KCAL/MOL
REMARK 922        TOTAL FREE ENERGY PREDICTED BY IDOCK:   -6.95 KCAL/MOL
REMARK 923 INTER-LIGAND FREE ENERGY PREDICTED BY IDOCK:   -6.45 KCAL/MOL
REMARK 924 INTRA-LIGAND FREE ENERGY PREDICTED BY IDOCK:   -0.50 KCAL/MOL
REMARK 927      BINDING AFFINITY PREDICTED BY RF-SCORE:    0.00 PKD
ROOT
HETATM    1  C   UNL     1      -9.561   9.474  67.044  1.00  0.00    -0.164 C  
HETATM    2  C   UNL     1     -10.728   8.582  67.246  1.00  0.00    -0.219 C  
HETATM    3  C   UNL     1     -10.356   7.832  68.529  1.00  0.00    -0.226 C  
HETATM    4  C   UNL     1      -9.628   6.472  68.298  1.00  0.00    -0.131 C  
HETATM    5  C   UNL     1     -10.244   5.599  67.186  1.00  0.00    -0.255 C  
HETATM    6  C   UNL     1      -9.305   4.437  66.919  1.00  0.00    -0.153 C  
HETATM    7  F   UNL     1      -9.751   3.773  65.818  1.00  0.00    -0.169 F  
HETATM    8  C   UNL     1      -9.235   3.521  68.118  1.00  0.00    -0.228 C  
HETATM    9  C   UNL     1      -8.790   2.261  67.887  1.00  0.00    -0.164 C  
HETATM   10  C   UNL     1      -7.272   2.273  67.822  1.00  0.00    -0.048 C  
HETATM   11  C   UNL     1      -6.596   3.274  68.711  1.00  0.00    -0.040 C  
HETATM   12  O   UNL     1      -6.644   1.473  67.149  1.00  0.00    -0.024 OA 
HETATM   13  C   UNL     1      -7.292   4.157  69.460  1.00  0.00    -0.050 C  
HETATM   14  C   UNL     1      -8.832   4.222  69.450  1.00  0.00    -0.138 C  
HETATM   15  C   UNL     1      -9.566   5.642  69.599  1.00  0.00    -0.151 C  
HETATM   16  C   UNL     1      -9.304   3.356  70.649  1.00  0.00    -0.232 C  
HETATM   17  F   UNL     1     -10.900   5.327  69.857  1.00  0.00    -0.376 F  
HETATM   18  C   UNL     1      -9.164   6.536  70.803  1.00  0.00    -0.155 C  
HETATM   19  C   UNL     1      -9.958   7.875  70.803  1.00  0.00    -0.192 C  
HETATM   20  O   UNL     1      -7.766   6.733  70.940  1.00  0.00    -0.090 OA 
HETATM   21  C   UNL     1      -9.774   8.928  69.620  1.00  0.00    -0.175 C  
HETATM   22  H   UNL     1      -7.520   7.281  71.677  1.00  0.00     0.000 HD 
HETATM   23  C   UNL     1      -8.542   9.556  70.535  1.00  0.00    -0.231 C  
HETATM   24  C   UNL     1      -9.295  10.007  68.439  1.00  0.00    -0.138 C  
HETATM   25  O   UNL     1      -7.874  10.269  68.290  1.00  0.00    -0.097 OA 
HETATM   26  C   UNL     1      -6.780   8.045  68.299  1.00  0.00    -0.067 C  
HETATM   27  O   UNL     1      -8.387   8.753  66.631  1.00  0.00    -0.106 OA 
HETATM   28  C   UNL     1      -7.330   9.211  67.475  1.00  0.00    -0.084 C  
HETATM   29  C   UNL     1      -6.110   9.644  66.667  1.00  0.00    -0.063 C  
ENDROOT
BRANCH  24  30
HETATM   30  C   UNL     1     -10.273  11.224  68.736  1.00  0.00    -0.202 C  
HETATM   31  O   UNL     1     -10.009  12.362  68.313  1.00  0.00    -0.216 OA 
BRANCH  30  32
HETATM   32  C   UNL     1     -11.560  11.040  69.546  1.00  0.00    -0.313 C  
BRANCH  32  33
HETATM   33  O   UNL     1     -12.027  12.301  70.102  1.00  0.00    -0.334 OA 
BRANCH  33  34
HETATM   34  C   UNL     1     -12.714  12.197  71.280  1.00  0.00    -0.261 C  
HETATM   35  C   UNL     1     -12.939  10.781  71.706  1.00  0.00    -0.568 C  
HETATM   36  O   UNL     1     -13.103  13.170  71.932  1.00  0.00    -0.392 OA 
ENDBRANCH  33  34
ENDBRANCH  32  33
ENDBRANCH  30  32
ENDBRANCH  24  30
TORSDOF 4
ENDMDL
MODEL       47
REMARK 921   NORMALIZED FREE ENERGY PREDICTED BY IDOCK:   -5.10 KCAL/MOL
REMARK 922        TOTAL FREE ENERGY PREDICTED BY IDOCK:   -6.92 KCAL/MOL
REMARK 923 INTER-LIGAND FREE ENERGY PREDICTED BY IDOCK:   -6.57 KCAL/MOL
REMARK 924 INTRA-LIGAND FREE ENERGY PREDICTED BY IDOCK:   -0.36 KCAL/MOL
REMARK 927      BINDING AFFINITY PREDICTED BY RF-SCORE:    0.00 PKD
ROOT
HETATM    1  C   UNL     1     -11.500  13.005  67.242  1.00  0.00    -0.332 C  
HETATM    2  C   UNL     1     -10.802  13.404  65.996  1.00  0.00    -0.281 C  
HETATM    3  C   UNL     1      -9.478  13.970  66.522  1.00  0.00    -0.295 C  
HETATM    4  C   UNL     1      -9.481  15.512  66.759  1.00  0.00    -0.257 C  
HETATM    5  C   UNL     1     -10.139  16.330  65.630  1.00  0.00    -0.340 C  
HETATM    6  C   UNL     1     -10.277  17.766  66.102  1.00  0.00    -0.339 C  
HETATM    7  F   UNL     1     -11.021  18.446  65.187  1.00  0.00    -0.427 F  
HETATM    8  C   UNL     1      -8.919  18.402  66.282  1.00  0.00    -0.205 C  
HETATM    9  C   UNL     1      -8.886  19.757  66.286  1.00  0.00    -0.417 C  
HETATM   10  C   UNL     1      -9.291  20.261  67.661  1.00  0.00    -0.353 C  
HETATM   11  C   UNL     1      -8.890  19.388  68.812  1.00  0.00    -0.385 C  
HETATM   12  O   UNL     1      -9.839  21.339  67.823  1.00  0.00    -0.085 OA 
HETATM   13  C   UNL     1      -8.279  18.197  68.633  1.00  0.00    -0.295 C  
HETATM   14  C   UNL     1      -7.960  17.628  67.236  1.00  0.00    -0.222 C  
HETATM   15  C   UNL     1      -8.050  16.046  66.985  1.00  0.00    -0.222 C  
HETATM   16  C   UNL     1      -6.494  18.039  66.932  1.00  0.00    -0.209 C  
HETATM   17  F   UNL     1      -7.421  15.845  65.756  1.00  0.00     0.544 F  
HETATM   18  C   UNL     1      -7.263  15.119  67.951  1.00  0.00    -0.144 C  
HETATM   19  C   UNL     1      -7.456  13.620  67.579  1.00  0.00    -0.181 C  
HETATM   20  O   UNL     1      -7.504  15.373  69.326  1.00  0.00    -0.173 OA 
HETATM   21  C   UNL     1      -8.894  12.939  67.673  1.00  0.00    -0.187 C  
HETATM   22  H   UNL     1      -7.023  14.806  69.917  1.00  0.00     0.000 HD 
HETATM   23  C   UNL     1      -8.490  12.588  69.242  1.00  0.00     0.861 C  
HETATM   24  C   UNL     1     -10.404  12.330  68.045  1.00  0.00    -0.214 C  
HETATM   25  O   UNL     1     -10.935  12.587  69.372  1.00  0.00    -0.133 OA 
HETATM   26  C   UNL     1     -10.556  15.001  69.787  1.00  0.00    -0.232 C  
HETATM   27  O   UNL     1     -11.949  14.141  68.003  1.00  0.00    -0.355 OA 
HETATM   28  C   UNL     1     -11.526  13.903  69.346  1.00  0.00    -0.280 C  
HETATM   29  C   UNL     1     -12.675  14.064  70.336  1.00  0.00    -0.316 C  
ENDROOT
BRANCH  24  30
HETATM   30  C   UNL     1     -10.244  10.825  67.561  1.00  0.00    -0.196 C  
HETATM   31  O   UNL     1     -11.176  10.016  67.702  1.00  0.00    -0.248 OA 
BRANCH  30  32
HETATM   32  C   UNL     1      -8.951  10.324  66.910  1.00  0.00    -0.136 C  
BRANCH  32  33
HETATM   33  O   UNL     1      -8.386   9.200  67.640  1.00  0.00    -0.115 OA 
BRANCH  33  34
HETATM   34  C   UNL     1      -8.617   7.972  67.084  1.00  0.00    -0.124 C  
HETATM   35  C   UNL     1      -8.287   7.915  65.626  1.00  0.00    -0.146 C  
HETATM   36  O   UNL     1      -9.047   7.004  67.719  1.00  0.00    -0.127 OA 
ENDBRANCH  33  34
ENDBRANCH  32  33
ENDBRANCH  30  32
ENDBRANCH  24  30
TORSDOF 4
ENDMDL
MODEL       48
REMARK 921   NORMALIZED FREE ENERGY PREDICTED BY IDOCK:   -5.10 KCAL/MOL
REMARK 922        TOTAL FREE ENERGY PREDICTED BY IDOCK:   -6.92 KCAL/MOL
REMARK 923 INTER-LIGAND FREE ENERGY PREDICTED BY IDOCK:   -6.03 KCAL/MOL
REMARK 924 INTRA-LIGAND FREE ENERGY PREDICTED BY IDOCK:   -0.89 KCAL/MOL
REMARK 927      BINDING AFFINITY PREDICTED BY RF-SCORE:    0.00 PKD
ROOT
HETATM    1  C   UNL     1     -10.925   6.505  69.542  1.00  0.00    -0.340 C  
HETATM    2  C   UNL     1     -10.803   6.573  68.067  1.00  0.00    -0.372 C  
HETATM    3  C   UNL     1      -9.417   7.198  67.875  1.00  0.00    -0.135 C  
HETATM    4  C   UNL     1      -9.420   8.752  67.731  1.00  0.00    -0.164 C  
HETATM    5  C   UNL     1     -10.521   9.305  66.803  1.00  0.00    -0.263 C  
HETATM    6  C   UNL     1     -10.549  10.816  66.946  1.00  0.00    -0.258 C  
HETATM    7  F   UNL     1     -11.634  11.287  66.275  1.00  0.00    -0.272 F  
HETATM    8  C   UNL     1      -9.272  11.426  66.418  1.00  0.00    -0.209 C  
HETATM    9  C   UNL     1      -9.323  12.741  66.096  1.00  0.00    -0.114 C  
HETATM   10  C   UNL     1      -9.181  13.570  67.362  1.00  0.00    -0.223 C  
HETATM   11  C   UNL     1      -8.305  12.979  68.424  1.00  0.00    -0.118 C  
HETATM   12  O   UNL     1      -9.686  14.675  67.476  1.00  0.00    -0.208 OA 
HETATM   13  C   UNL     1      -7.742  11.757  68.297  1.00  0.00    -0.130 C  
HETATM   14  C   UNL     1      -7.968  10.864  67.060  1.00  0.00    -0.132 C  
HETATM   15  C   UNL     1      -8.052   9.271  67.238  1.00  0.00    -0.113 C  
HETATM   16  C   UNL     1      -6.770  11.137  66.111  1.00  0.00    -0.015 C  
HETATM   17  F   UNL     1      -7.950   8.764  65.943  1.00  0.00    -0.095 F  
HETATM   18  C   UNL     1      -6.892   8.570  67.995  1.00  0.00    -0.070 C  
HETATM   19  C   UNL     1      -7.124   7.034  68.087  1.00  0.00    -0.085 C  
HETATM   20  O   UNL     1      -6.584   9.149  69.253  1.00  0.00    -0.048 OA 
HETATM   21  C   UNL     1      -8.362   6.447  68.901  1.00  0.00    -0.121 C  
HETATM   22  H   UNL     1      -5.875   8.720  69.717  1.00  0.00     0.000 HD 
HETATM   23  C   UNL     1      -7.350   6.462  70.214  1.00  0.00    -0.089 C  
HETATM   24  C   UNL     1      -9.561   5.999  69.974  1.00  0.00    -0.163 C  
HETATM   25  O   UNL     1      -9.539   6.580  71.304  1.00  0.00    -0.166 OA 
HETATM   26  C   UNL     1      -9.176   9.009  70.965  1.00  0.00    -0.331 C  
HETATM   27  O   UNL     1     -11.105   7.804  70.136  1.00  0.00    -0.257 OA 
HETATM   28  C   UNL     1     -10.171   7.874  71.213  1.00  0.00    -0.187 C  
HETATM   29  C   UNL     1     -10.841   8.306  72.514  1.00  0.00    -0.421 C  
ENDROOT
BRANCH  24  30
HETATM   30  C   UNL     1      -9.514   4.417  69.827  1.00  0.00    -0.184 C  
HETATM   31  O   UNL     1     -10.072   3.690  70.665  1.00  0.00    -0.025 OA 
BRANCH  30  32
HETATM   32  C   UNL     1      -8.787   3.741  68.661  1.00  0.00    -0.111 C  
BRANCH  32  33
HETATM   33  O   UNL     1      -9.707   3.383  67.593  1.00  0.00    -0.165 OA 
BRANCH  33  34
HETATM   34  C   UNL     1      -9.294   3.721  66.333  1.00  0.00    -0.186 C  
HETATM   35  C   UNL     1      -7.809   3.851  66.217  1.00  0.00    -0.090 C  
HETATM   36  O   UNL     1     -10.065   3.894  65.385  1.00  0.00    -0.168 OA 
ENDBRANCH  33  34
ENDBRANCH  32  33
ENDBRANCH  30  32
ENDBRANCH  24  30
TORSDOF 4
ENDMDL
MODEL       49
REMARK 921   NORMALIZED FREE ENERGY PREDICTED BY IDOCK:   -5.01 KCAL/MOL
REMARK 922        TOTAL FREE ENERGY PREDICTED BY IDOCK:   -6.81 KCAL/MOL
REMARK 923 INTER-LIGAND FREE ENERGY PREDICTED BY IDOCK:   -6.47 KCAL/MOL
REMARK 924 INTRA-LIGAND FREE ENERGY PREDICTED BY IDOCK:   -0.34 KCAL/MOL
REMARK 927      BINDING AFFINITY PREDICTED BY RF-SCORE:    0.00 PKD
ROOT
HETATM    1  C   UNL     1      -9.729  14.663  70.001  1.00  0.00     0.565 C  
HETATM    2  C   UNL     1     -10.487  15.919  70.214  1.00  0.00    -0.186 C  
HETATM    3  C   UNL     1     -10.681  16.439  68.786  1.00  0.00    -0.321 C  
HETATM    4  C   UNL     1      -9.583  17.436  68.304  1.00  0.00    -0.292 C  
HETATM    5  C   UNL     1      -9.194  18.508  69.343  1.00  0.00     0.286 C  
HETATM    6  C   UNL     1      -7.970  19.245  68.829  1.00  0.00    -0.357 C  
HETATM    7  F   UNL     1      -7.516  20.059  69.821  1.00  0.00    -0.284 F  
HETATM    8  C   UNL     1      -8.303  20.033  67.585  1.00  0.00    -0.364 C  
HETATM    9  C   UNL     1      -7.457  21.042  67.268  1.00  0.00    -0.276 C  
HETATM   10  C   UNL     1      -6.239  20.468  66.563  1.00  0.00    -0.210 C  
HETATM   11  C   UNL     1      -6.496  19.263  65.710  1.00  0.00    -0.262 C  
HETATM   12  O   UNL     1      -5.141  20.997  66.628  1.00  0.00    -0.172 OA 
HETATM   13  C   UNL     1      -7.713  18.680  65.635  1.00  0.00     0.146 C  
HETATM   14  C   UNL     1      -8.929  19.193  66.431  1.00  0.00    -0.356 C  
HETATM   15  C   UNL     1     -10.004  18.145  66.999  1.00  0.00    -0.338 C  
HETATM   16  C   UNL     1      -9.701  20.137  65.470  1.00  0.00     0.062 C  
HETATM   17  F   UNL     1     -11.095  18.926  67.380  1.00  0.00    -0.499 F  
HETATM   18  C   UNL     1     -10.618  17.130  65.995  1.00  0.00    -0.204 C  
HETATM   19  C   UNL     1     -11.634  16.183  66.699  1.00  0.00     0.677 C  
HETATM   20  O   UNL     1      -9.659  16.422  65.224  1.00  0.00    -0.375 OA 
HETATM   21  C   UNL     1     -11.151  15.173  67.833  1.00  0.00    -0.322 C  
HETATM   22  H   UNL     1     -10.035  15.802  64.611  1.00  0.00     0.000 HD 
HETATM   23  C   UNL     1     -10.878  14.105  66.595  1.00  0.00    -0.299 C  
HETATM   24  C   UNL     1     -10.446  14.028  68.824  1.00  0.00    -0.233 C  
HETATM   25  O   UNL     1      -9.333  13.261  68.296  1.00  0.00    -0.212 OA 
HETATM   26  C   UNL     1      -7.825  14.916  67.233  1.00  0.00    -0.235 C  
HETATM   27  O   UNL     1      -8.372  14.908  69.592  1.00  0.00    -0.100 OA 
HETATM   28  C   UNL     1      -8.146  14.064  68.462  1.00  0.00    -0.139 C  
HETATM   29  C   UNL     1      -6.877  13.233  68.623  1.00  0.00    -0.099 C  
ENDROOT
BRANCH  24  30
HETATM   30  C   UNL     1     -11.734  13.255  69.344  1.00  0.00    -0.325 C  
HETATM   31  O   UNL     1     -12.820  13.848  69.459  1.00  0.00     0.080 OA 
BRANCH  30  32
HETATM   32  C   UNL     1     -11.683  11.771  69.718  1.00  0.00    -0.335 C  
BRANCH  32  33
HETATM   33  O   UNL     1     -12.285  11.526  71.020  1.00  0.00    -0.344 OA 
BRANCH  33  34
HETATM   34  C   UNL     1     -12.493  10.209  71.325  1.00  0.00    -0.406 C  
HETATM   35  C   UNL     1     -11.541   9.288  70.632  1.00  0.00    -0.305 C  
HETATM   36  O   UNL     1     -13.371   9.818  72.099  1.00  0.00    -0.434 OA 
ENDBRANCH  33  34
ENDBRANCH  32  33
ENDBRANCH  30  32
ENDBRANCH  24  30
TORSDOF 4
ENDMDL
MODEL       50
REMARK 921   NORMALIZED FREE ENERGY PREDICTED BY IDOCK:   -4.95 KCAL/MOL
REMARK 922        TOTAL FREE ENERGY PREDICTED BY IDOCK:   -6.74 KCAL/MOL
REMARK 923 INTER-LIGAND FREE ENERGY PREDICTED BY IDOCK:   -6.02 KCAL/MOL
REMARK 924 INTRA-LIGAND FREE ENERGY PREDICTED BY IDOCK:   -0.72 KCAL/MOL
REMARK 927      BINDING AFFINITY PREDICTED BY RF-SCORE:    0.00 PKD
ROOT
HETATM    1  C   UNL     1     -10.406   5.641  69.438  1.00  0.00    -0.273 C  
HETATM    2  C   UNL     1      -9.421   5.814  68.344  1.00  0.00    -0.137 C  
HETATM    3  C   UNL     1      -8.587   7.003  68.831  1.00  0.00    -0.128 C  
HETATM    4  C   UNL     1      -9.077   8.393  68.320  1.00  0.00    -0.139 C  
HETATM    5  C   UNL     1      -9.453   8.427  66.824  1.00  0.00    -0.255 C  
HETATM    6  C   UNL     1     -10.125   9.757  66.533  1.00  0.00    -0.239 C  
HETATM    7  F   UNL     1     -10.621   9.715  65.267  1.00  0.00    -0.130 F  
HETATM    8  C   UNL     1      -9.148  10.897  66.700  1.00  0.00    -0.175 C  
HETATM    9  C   UNL     1      -9.471  12.060  66.084  1.00  0.00    -0.241 C  
HETATM   10  C   UNL     1     -10.477  12.813  66.938  1.00  0.00    -0.240 C  
HETATM   11  C   UNL     1     -10.325  12.639  68.419  1.00  0.00    -0.241 C  
HETATM   12  O   UNL     1     -11.305  13.567  66.454  1.00  0.00    -0.303 OA 
HETATM   13  C   UNL     1      -9.405  11.807  68.955  1.00  0.00     0.194 C  
HETATM   14  C   UNL     1      -8.451  10.957  68.092  1.00  0.00    -0.131 C  
HETATM   15  C   UNL     1      -8.026   9.492  68.590  1.00  0.00    -0.092 C  
HETATM   16  C   UNL     1      -7.138  11.778  67.973  1.00  0.00    -0.082 C  
HETATM   17  F   UNL     1      -6.954   9.136  67.771  1.00  0.00    -0.073 F  
HETATM   18  C   UNL     1      -7.447   9.359  70.024  1.00  0.00    -0.107 C  
HETATM   19  C   UNL     1      -7.091   7.880  70.355  1.00  0.00    -0.046 C  
HETATM   20  O   UNL     1      -8.243   9.965  71.031  1.00  0.00    -0.322 OA 
HETATM   21  C   UNL     1      -8.230   6.767  70.427  1.00  0.00    -0.125 C  
HETATM   22  H   UNL     1      -7.889   9.883  71.909  1.00  0.00     0.000 HD 
HETATM   23  C   UNL     1      -8.368   7.185  72.025  1.00  0.00    -0.111 C  
HETATM   24  C   UNL     1      -9.556   5.785  70.687  1.00  0.00    -0.174 C  
HETATM   25  O   UNL     1     -10.593   6.262  71.585  1.00  0.00    -0.216 OA 
HETATM   26  C   UNL     1     -11.036   8.606  70.909  1.00  0.00    -0.301 C  
HETATM   27  O   UNL     1     -11.385   6.694  69.464  1.00  0.00    -0.323 OA 
HETATM   28  C   UNL     1     -11.449   7.135  70.821  1.00  0.00    -0.305 C  
HETATM   29  C   UNL     1     -12.885   7.168  71.336  1.00  0.00    -0.431 C  
ENDROOT
BRANCH  24  30
HETATM   30  C   UNL     1      -8.842   4.402  71.004  1.00  0.00    -0.106 C  
HETATM   31  O   UNL     1      -7.645   4.231  70.718  1.00  0.00    -0.050 OA 
BRANCH  30  32
HETATM   32  C   UNL     1      -9.594   3.243  71.665  1.00  0.00    -0.160 C  
BRANCH  32  33
HETATM   33  O   UNL     1      -9.012   2.893  72.951  1.00  0.00    -0.085 OA 
BRANCH  33  34
HETATM   34  C   UNL     1      -9.053   3.881  73.896  1.00  0.00    -0.093 C  
HETATM   35  C   UNL     1     -10.431   4.142  74.415  1.00  0.00    -0.287 C  
HETATM   36  O   UNL     1      -8.055   4.493  74.288  1.00  0.00    -0.094 OA 
ENDBRANCH  33  34
ENDBRANCH  32  33
ENDBRANCH  30  32
ENDBRANCH  24  30
TORSDOF 4
ENDMDL
MODEL       51
REMARK 921   NORMALIZED FREE ENERGY PREDICTED BY IDOCK:   -4.91 KCAL/MOL
REMARK 922        TOTAL FREE ENERGY PREDICTED BY IDOCK:   -6.68 KCAL/MOL
REMARK 923 INTER-LIGAND FREE ENERGY PREDICTED BY IDOCK:   -6.13 KCAL/MOL
REMARK 924 INTRA-LIGAND FREE ENERGY PREDICTED BY IDOCK:   -0.55 KCAL/MOL
REMARK 927      BINDING AFFINITY PREDICTED BY RF-SCORE:    0.00 PKD
ROOT
HETATM    1  C   UNL     1      -9.830   9.254  66.019  1.00  0.00    -0.293 C  
HETATM    2  C   UNL     1      -9.776  10.446  65.140  1.00  0.00    -0.353 C  
HETATM    3  C   UNL     1      -8.948  11.434  65.968  1.00  0.00    -0.203 C  
HETATM    4  C   UNL     1      -9.789  12.397  66.862  1.00  0.00    -0.219 C  
HETATM    5  C   UNL     1     -11.023  13.004  66.162  1.00  0.00    -0.300 C  
HETATM    6  C   UNL     1     -11.860  13.718  67.207  1.00  0.00    -0.401 C  
HETATM    7  F   UNL     1     -13.034  14.092  66.630  1.00  0.00    -0.285 F  
HETATM    8  C   UNL     1     -11.119  14.912  67.761  1.00  0.00    -0.313 C  
HETATM    9  C   UNL     1     -11.874  15.860  68.366  1.00  0.00    -0.129 C  
HETATM   10  C   UNL     1     -12.191  15.414  69.784  1.00  0.00    -0.306 C  
HETATM   11  C   UNL     1     -11.124  14.604  70.459  1.00  0.00    -0.062 C  
HETATM   12  O   UNL     1     -13.210  15.755  70.360  1.00  0.00    -0.365 OA 
HETATM   13  C   UNL     1      -9.993  14.231  69.822  1.00  0.00     0.532 C  
HETATM   14  C   UNL     1      -9.712  14.588  68.349  1.00  0.00    -0.224 C  
HETATM   15  C   UNL     1      -8.922  13.547  67.418  1.00  0.00    -0.219 C  
HETATM   16  C   UNL     1      -8.859  15.885  68.380  1.00  0.00    -0.184 C  
HETATM   17  F   UNL     1      -8.573  14.280  66.283  1.00  0.00    -0.108 F  
HETATM   18  C   UNL     1      -7.561  13.009  67.935  1.00  0.00    -0.144 C  
HETATM   19  C   UNL     1      -6.927  12.010  66.924  1.00  0.00    -0.033 C  
HETATM   20  O   UNL     1      -7.603  12.492  69.256  1.00  0.00    -0.326 OA 
HETATM   21  C   UNL     1      -7.646  10.628  66.589  1.00  0.00    -0.129 C  
HETATM   22  H   UNL     1      -6.771  12.162  69.572  1.00  0.00     0.000 HD 
HETATM   23  C   UNL     1      -6.790  10.012  67.868  1.00  0.00    -0.075 C  
HETATM   24  C   UNL     1      -8.405   9.141  66.528  1.00  0.00    -0.118 C  
HETATM   25  O   UNL     1      -8.688   8.468  67.783  1.00  0.00    -0.135 OA 
HETATM   26  C   UNL     1      -9.695  10.191  69.252  1.00  0.00    -0.238 C  
HETATM   27  O   UNL     1     -10.677   9.457  67.164  1.00  0.00    -0.249 OA 
HETATM   28  C   UNL     1      -9.919   9.021  68.293  1.00  0.00    -0.173 C  
HETATM   29  C   UNL     1     -10.706   8.038  69.155  1.00  0.00    -0.121 C  
ENDROOT
BRANCH  24  30
HETATM   30  C   UNL     1      -7.513   8.398  65.442  1.00  0.00    -0.085 C  
HETATM   31  O   UNL     1      -6.878   9.050  64.597  1.00  0.00    -0.083 OA 
BRANCH  30  32
HETATM   32  C   UNL     1      -7.406   6.871  65.399  1.00  0.00    -0.080 C  
BRANCH  32  33
HETATM   33  O   UNL     1      -8.714   6.246  65.281  1.00  0.00    -0.108 OA 
BRANCH  33  34
HETATM   34  C   UNL     1      -9.111   5.519  66.369  1.00  0.00    -0.144 C  
HETATM   35  C   UNL     1     -10.525   5.041  66.272  1.00  0.00    -0.352 C  
HETATM   36  O   UNL     1      -8.378   5.274  67.331  1.00  0.00    -0.107 OA 
ENDBRANCH  33  34
ENDBRANCH  32  33
ENDBRANCH  30  32
ENDBRANCH  24  30
TORSDOF 4
ENDMDL
MODEL       52
REMARK 921   NORMALIZED FREE ENERGY PREDICTED BY IDOCK:   -4.90 KCAL/MOL
REMARK 922        TOTAL FREE ENERGY PREDICTED BY IDOCK:   -6.67 KCAL/MOL
REMARK 923 INTER-LIGAND FREE ENERGY PREDICTED BY IDOCK:   -6.58 KCAL/MOL
REMARK 924 INTRA-LIGAND FREE ENERGY PREDICTED BY IDOCK:   -0.09 KCAL/MOL
REMARK 927      BINDING AFFINITY PREDICTED BY RF-SCORE:    0.00 PKD
ROOT
HETATM    1  C   UNL     1     -11.898  12.720  68.074  1.00  0.00    -0.336 C  
HETATM    2  C   UNL     1     -11.452  12.143  69.364  1.00  0.00    -0.355 C  
HETATM    3  C   UNL     1     -10.042  11.641  69.037  1.00  0.00    -0.034 C  
HETATM    4  C   UNL     1      -9.973  10.147  68.592  1.00  0.00    -0.181 C  
HETATM    5  C   UNL     1     -10.828   9.187  69.444  1.00  0.00    -0.165 C  
HETATM    6  C   UNL     1     -10.848   7.833  68.758  1.00  0.00     0.030 C  
HETATM    7  F   UNL     1     -11.746   7.041  69.405  1.00  0.00    -0.126 F  
HETATM    8  C   UNL     1      -9.471   7.212  68.763  1.00  0.00    -0.141 C  
HETATM    9  C   UNL     1      -9.416   5.870  68.577  1.00  0.00    -0.134 C  
HETATM   10  C   UNL     1      -9.535   5.568  67.093  1.00  0.00    -0.122 C  
HETATM   11  C   UNL     1      -8.929   6.588  66.176  1.00  0.00    -0.161 C  
HETATM   12  O   UNL     1     -10.023   4.530  66.678  1.00  0.00    -0.209 OA 
HETATM   13  C   UNL     1      -8.384   7.736  66.636  1.00  0.00    -0.126 C  
HETATM   14  C   UNL     1      -8.356   8.100  68.134  1.00  0.00    -0.129 C  
HETATM   15  C   UNL     1      -8.518   9.633  68.580  1.00  0.00    -0.118 C  
HETATM   16  C   UNL     1      -6.971   7.633  68.660  1.00  0.00    -0.075 C  
HETATM   17  F   UNL     1      -8.146   9.653  69.924  1.00  0.00    -0.101 F  
HETATM   18  C   UNL     1      -7.571  10.676  67.926  1.00  0.00    -0.091 C  
HETATM   19  C   UNL     1      -7.858  12.110  68.458  1.00  0.00    -0.122 C  
HETATM   20  O   UNL     1      -7.533  10.619  66.508  1.00  0.00    -0.120 OA 
HETATM   21  C   UNL     1      -9.259  12.815  68.178  1.00  0.00    -0.212 C  
HETATM   22  H   UNL     1      -6.954  11.257  66.108  1.00  0.00     0.000 HD 
HETATM   23  C   UNL     1      -8.561  13.376  66.783  1.00  0.00    -0.043 C  
HETATM   24  C   UNL     1     -10.676  13.488  67.604  1.00  0.00    -0.248 C  
HETATM   25  O   UNL     1     -10.932  13.425  66.176  1.00  0.00    -0.276 OA 
HETATM   26  C   UNL     1     -10.440  11.088  65.512  1.00  0.00    -0.302 C  
HETATM   27  O   UNL     1     -12.171  11.708  67.089  1.00  0.00    -0.365 OA 
HETATM   28  C   UNL     1     -11.495  12.125  65.902  1.00  0.00    -0.363 C  
HETATM   29  C   UNL     1     -12.424  12.117  64.692  1.00  0.00    -0.323 C  
ENDROOT
BRANCH  24  30
HETATM   30  C   UNL     1     -10.639  14.909  68.315  1.00  0.00    -0.240 C  
HETATM   31  O   UNL     1     -10.755  14.998  69.549  1.00  0.00    -0.242 OA 
BRANCH  30  32
HETATM   32  C   UNL     1     -10.460  16.202  67.516  1.00  0.00    -0.302 C  
BRANCH  32  33
HETATM   33  O   UNL     1      -9.075  16.399  67.119  1.00  0.00    -0.200 OA 
BRANCH  33  34
HETATM   34  C   UNL     1      -8.263  16.924  68.086  1.00  0.00    -0.207 C  
HETATM   35  C   UNL     1      -7.161  15.998  68.495  1.00  0.00    -0.138 C  
HETATM   36  O   UNL     1      -8.415  18.050  68.570  1.00  0.00    -0.304 OA 
ENDBRANCH  33  34
ENDBRANCH  32  33
ENDBRANCH  30  32
ENDBRANCH  24  30
TORSDOF 4
ENDMDL
MODEL       53
REMARK 921   NORMALIZED FREE ENERGY PREDICTED BY IDOCK:   -4.90 KCAL/MOL
REMARK 922        TOTAL FREE ENERGY PREDICTED BY IDOCK:   -6.67 KCAL/MOL
REMARK 923 INTER-LIGAND FREE ENERGY PREDICTED BY IDOCK:   -6.17 KCAL/MOL
REMARK 924 INTRA-LIGAND FREE ENERGY PREDICTED BY IDOCK:   -0.50 KCAL/MOL
REMARK 927      BINDING AFFINITY PREDICTED BY RF-SCORE:    0.00 PKD
ROOT
HETATM    1  C   UNL     1      -9.879   7.770  72.314  1.00  0.00    -0.192 C  
HETATM    2  C   UNL     1     -10.811   8.672  71.596  1.00  0.00    -0.374 C  
HETATM    3  C   UNL     1     -10.716   8.170  70.152  1.00  0.00    -0.243 C  
HETATM    4  C   UNL     1      -9.662   8.913  69.275  1.00  0.00    -0.165 C  
HETATM    5  C   UNL     1      -9.666  10.448  69.435  1.00  0.00    -0.222 C  
HETATM    6  C   UNL     1      -8.451  11.003  68.713  1.00  0.00    -0.144 C  
HETATM    7  F   UNL     1      -8.351  12.328  69.007  1.00  0.00    -0.012 F  
HETATM    8  C   UNL     1      -8.567  10.782  67.224  1.00  0.00    -0.130 C  
HETATM    9  C   UNL     1      -7.797  11.572  66.437  1.00  0.00    -0.020 C  
HETATM   10  C   UNL     1      -6.385  11.010  66.399  1.00  0.00    -0.133 C  
HETATM   11  C   UNL     1      -6.283   9.516  66.480  1.00  0.00    -0.065 C  
HETATM   12  O   UNL     1      -5.407  11.721  66.237  1.00  0.00    -0.317 OA 
HETATM   13  C   UNL     1      -7.367   8.729  66.655  1.00  0.00    -0.082 C  
HETATM   14  C   UNL     1      -8.792   9.299  66.802  1.00  0.00    -0.142 C  
HETATM   15  C   UNL     1      -9.838   8.573  67.779  1.00  0.00    -0.175 C  
HETATM   16  C   UNL     1      -9.417   9.258  65.382  1.00  0.00    -0.281 C  
HETATM   17  F   UNL     1     -11.074   9.131  67.453  1.00  0.00    -0.305 F  
HETATM   18  C   UNL     1     -10.066   7.049  67.585  1.00  0.00    -0.172 C  
HETATM   19  C   UNL     1     -11.100   6.497  68.609  1.00  0.00    -0.348 C  
HETATM   20  O   UNL     1      -8.872   6.282  67.551  1.00  0.00    -0.106 OA 
HETATM   21  C   UNL     1     -10.787   6.519  70.171  1.00  0.00    -0.336 C  
HETATM   22  H   UNL     1      -9.011   5.350  67.432  1.00  0.00     0.000 HD 
HETATM   23  C   UNL     1     -10.098   5.031  69.931  1.00  0.00    -0.344 C  
HETATM   24  C   UNL     1     -10.210   6.407  71.735  1.00  0.00    -0.197 C  
HETATM   25  O   UNL     1      -8.919   5.778  71.942  1.00  0.00    -0.138 OA 
HETATM   26  C   UNL     1      -7.409   6.778  70.249  1.00  0.00    -0.085 C  
HETATM   27  O   UNL     1      -8.503   8.045  71.999  1.00  0.00    -0.120 OA 
HETATM   28  C   UNL     1      -7.912   6.781  71.694  1.00  0.00    -0.102 C  
HETATM   29  C   UNL     1      -6.629   6.552  72.487  1.00  0.00    -0.063 C  
ENDROOT
BRANCH  24  30
HETATM   30  C   UNL     1     -11.483   5.812  72.478  1.00  0.00    -0.296 C  
HETATM   31  O   UNL     1     -12.623   6.219  72.197  1.00  0.00    -0.257 OA 
BRANCH  30  32
HETATM   32  C   UNL     1     -11.352   4.729  73.553  1.00  0.00    -0.258 C  
BRANCH  32  33
HETATM   33  O   UNL     1     -11.479   3.396  72.987  1.00  0.00     0.053 OA 
BRANCH  33  34
HETATM   34  C   UNL     1     -10.367   2.608  73.101  1.00  0.00    -0.146 C  
HETATM   35  C   UNL     1     -10.322   1.838  74.383  1.00  0.00    -0.165 C  
HETATM   36  O   UNL     1      -9.492   2.530  72.235  1.00  0.00    -0.088 OA 
ENDBRANCH  33  34
ENDBRANCH  32  33
ENDBRANCH  30  32
ENDBRANCH  24  30
TORSDOF 4
ENDMDL
MODEL       54
REMARK 921   NORMALIZED FREE ENERGY PREDICTED BY IDOCK:   -4.90 KCAL/MOL
REMARK 922        TOTAL FREE ENERGY PREDICTED BY IDOCK:   -6.67 KCAL/MOL
REMARK 923 INTER-LIGAND FREE ENERGY PREDICTED BY IDOCK:   -6.05 KCAL/MOL
REMARK 924 INTRA-LIGAND FREE ENERGY PREDICTED BY IDOCK:   -0.62 KCAL/MOL
REMARK 927      BINDING AFFINITY PREDICTED BY RF-SCORE:    0.00 PKD
ROOT
HETATM    1  C   UNL     1      -8.410  10.536  69.459  1.00  0.00    -0.061 C  
HETATM    2  C   UNL     1      -7.232  10.065  68.692  1.00  0.00    -0.080 C  
HETATM    3  C   UNL     1      -7.854   9.087  67.690  1.00  0.00    -0.101 C  
HETATM    4  C   UNL     1      -7.872   7.600  68.161  1.00  0.00    -0.121 C  
HETATM    5  C   UNL     1      -6.559   7.121  68.813  1.00  0.00    -0.044 C  
HETATM    6  C   UNL     1      -6.803   5.753  69.424  1.00  0.00    -0.062 C  
HETATM    7  F   UNL     1      -5.708   5.411  70.155  1.00  0.00    -0.013 F  
HETATM    8  C   UNL     1      -7.083   4.730  68.348  1.00  0.00    -0.057 C  
HETATM    9  C   UNL     1      -6.903   3.431  68.693  1.00  0.00    -0.045 C  
HETATM   10  C   UNL     1      -8.124   2.945  69.456  1.00  0.00    -0.047 C  
HETATM   11  C   UNL     1      -9.430   3.551  69.036  1.00  0.00    -0.213 C  
HETATM   12  O   UNL     1      -8.056   2.068  70.300  1.00  0.00    -0.042 OA 
HETATM   13  C   UNL     1      -9.506   4.519  68.097  1.00  0.00    -0.201 C  
HETATM   14  C   UNL     1      -8.260   5.094  67.395  1.00  0.00    -0.107 C  
HETATM   15  C   UNL     1      -8.221   6.648  66.997  1.00  0.00    -0.113 C  
HETATM   16  C   UNL     1      -8.112   4.298  66.070  1.00  0.00    -0.102 C  
HETATM   17  F   UNL     1      -7.133   6.766  66.132  1.00  0.00    -0.060 F  
HETATM   18  C   UNL     1      -9.407   7.208  66.165  1.00  0.00    -0.045 C  
HETATM   19  C   UNL     1      -9.223   8.725  65.868  1.00  0.00    -0.282 C  
HETATM   20  O   UNL     1     -10.686   6.911  66.704  1.00  0.00    -0.503 OA 
HETATM   21  C   UNL     1      -9.208   9.789  67.054  1.00  0.00    -0.166 C  
HETATM   22  H   UNL     1     -11.412   7.253  66.196  1.00  0.00     0.000 HD 
HETATM   23  C   UNL     1     -10.852   9.858  66.850  1.00  0.00    -0.137 C  
HETATM   24  C   UNL     1      -9.445  10.780  68.377  1.00  0.00    -0.174 C  
HETATM   25  O   UNL     1     -10.635  10.570  69.182  1.00  0.00    -0.201 OA 
HETATM   26  C   UNL     1     -10.760   8.125  69.565  1.00  0.00    -0.180 C  
HETATM   27  O   UNL     1      -8.935   9.519  70.331  1.00  0.00    -0.237 OA 
HETATM   28  C   UNL     1     -10.344   9.496  70.100  1.00  0.00    -0.255 C  
HETATM   29  C   UNL     1     -11.131   9.591  71.403  1.00  0.00    -0.438 C  
ENDROOT
BRANCH  24  30
HETATM   30  C   UNL     1      -9.201  12.208  67.724  1.00  0.00    -0.189 C  
HETATM   31  O   UNL     1      -8.425  12.336  66.763  1.00  0.00    -0.183 OA 
BRANCH  30  32
HETATM   32  C   UNL     1      -9.905  13.463  68.250  1.00  0.00    -0.235 C  
BRANCH  32  33
HETATM   33  O   UNL     1     -11.273  13.552  67.764  1.00  0.00    -0.262 OA 
BRANCH  33  34
HETATM   34  C   UNL     1     -11.398  13.861  66.437  1.00  0.00    -0.328 C  
HETATM   35  C   UNL     1     -12.370  12.980  65.718  1.00  0.00    -0.477 C  
HETATM   36  O   UNL     1     -10.781  14.778  65.888  1.00  0.00    -0.294 OA 
ENDBRANCH  33  34
ENDBRANCH  32  33
ENDBRANCH  30  32
ENDBRANCH  24  30
TORSDOF 4
ENDMDL
MODEL       55
REMARK 921   NORMALIZED FREE ENERGY PREDICTED BY IDOCK:   -4.83 KCAL/MOL
REMARK 922        TOTAL FREE ENERGY PREDICTED BY IDOCK:   -6.59 KCAL/MOL
REMARK 923 INTER-LIGAND FREE ENERGY PREDICTED BY IDOCK:   -5.92 KCAL/MOL
REMARK 924 INTRA-LIGAND FREE ENERGY PREDICTED BY IDOCK:   -0.66 KCAL/MOL
REMARK 927      BINDING AFFINITY PREDICTED BY RF-SCORE:    0.00 PKD
ROOT
HETATM    1  C   UNL     1     -10.361   8.136  66.743  1.00  0.00    -0.291 C  
HETATM    2  C   UNL     1     -10.597   9.036  67.897  1.00  0.00    -0.256 C  
HETATM    3  C   UNL     1      -9.465   8.655  68.856  1.00  0.00    -0.146 C  
HETATM    4  C   UNL     1      -9.842   7.563  69.904  1.00  0.00    -0.187 C  
HETATM    5  C   UNL     1     -11.220   7.764  70.568  1.00  0.00    -0.267 C  
HETATM    6  C   UNL     1     -11.545   6.520  71.374  1.00  0.00    -0.318 C  
HETATM    7  F   UNL     1     -12.832   6.617  71.806  1.00  0.00    -0.381 F  
HETATM    8  C   UNL     1     -10.590   6.370  72.534  1.00  0.00    -0.240 C  
HETATM    9  C   UNL     1     -11.001   5.576  73.552  1.00  0.00    -0.289 C  
HETATM   10  C   UNL     1     -10.759   4.123  73.180  1.00  0.00    -0.194 C  
HETATM   11  C   UNL     1      -9.555   3.868  72.325  1.00  0.00    -0.202 C  
HETATM   12  O   UNL     1     -11.454   3.217  73.610  1.00  0.00    -0.208 OA 
HETATM   13  C   UNL     1      -8.782   4.871  71.853  1.00  0.00    -0.136 C  
HETATM   14  C   UNL     1      -9.083   6.356  72.137  1.00  0.00    -0.140 C  
HETATM   15  C   UNL     1      -8.772   7.457  71.012  1.00  0.00    -0.139 C  
HETATM   16  C   UNL     1      -8.224   6.736  73.373  1.00  0.00    -0.124 C  
HETATM   17  F   UNL     1      -8.860   8.680  71.678  1.00  0.00    -0.196 F  
HETATM   18  C   UNL     1      -7.344   7.478  70.402  1.00  0.00    -0.072 C  
HETATM   19  C   UNL     1      -7.206   8.595  69.327  1.00  0.00    -0.063 C  
HETATM   20  O   UNL     1      -6.892   6.217  69.936  1.00  0.00    -0.053 OA 
HETATM   21  C   UNL     1      -8.065   8.542  67.985  1.00  0.00    -0.115 C  
HETATM   22  H   UNL     1      -6.019   6.229  69.563  1.00  0.00     0.000 HD 
HETATM   23  C   UNL     1      -6.807   7.661  67.360  1.00  0.00    -0.069 C  
HETATM   24  C   UNL     1      -8.858   8.215  66.552  1.00  0.00    -0.149 C  
HETATM   25  O   UNL     1      -8.660   6.911  65.945  1.00  0.00    -0.143 OA 
HETATM   26  C   UNL     1      -8.927   5.271  67.785  1.00  0.00    -0.110 C  
HETATM   27  O   UNL     1     -10.681   6.766  67.044  1.00  0.00    -0.303 OA 
HETATM   28  C   UNL     1      -9.564   5.996  66.598  1.00  0.00    -0.154 C  
HETATM   29  C   UNL     1      -9.998   4.840  65.703  1.00  0.00    -0.195 C  
ENDROOT
BRANCH  24  30
HETATM   30  C   UNL     1      -8.499   9.515  65.712  1.00  0.00    -0.134 C  
HETATM   31  O   UNL     1      -8.329   9.444  64.483  1.00  0.00    -0.143 OA 
BRANCH  30  32
HETATM   32  C   UNL     1      -8.350  10.886  66.378  1.00  0.00    -0.162 C  
BRANCH  32  33
HETATM   33  O   UNL     1      -6.970  11.345  66.355  1.00  0.00    -0.100 OA 
BRANCH  33  34
HETATM   34  C   UNL     1      -6.452  11.691  67.572  1.00  0.00    -0.087 C  
HETATM   35  C   UNL     1      -7.478  12.235  68.515  1.00  0.00    -0.113 C  
HETATM   36  O   UNL     1      -5.261  11.561  67.870  1.00  0.00    -0.043 OA 
ENDBRANCH  33  34
ENDBRANCH  32  33
ENDBRANCH  30  32
ENDBRANCH  24  30
TORSDOF 4
ENDMDL
MODEL       56
REMARK 921   NORMALIZED FREE ENERGY PREDICTED BY IDOCK:   -4.82 KCAL/MOL
REMARK 922        TOTAL FREE ENERGY PREDICTED BY IDOCK:   -6.58 KCAL/MOL
REMARK 923 INTER-LIGAND FREE ENERGY PREDICTED BY IDOCK:   -5.89 KCAL/MOL
REMARK 924 INTRA-LIGAND FREE ENERGY PREDICTED BY IDOCK:   -0.69 KCAL/MOL
REMARK 927      BINDING AFFINITY PREDICTED BY RF-SCORE:    0.00 PKD
ROOT
HETATM    1  C   UNL     1      -8.872   7.428  71.797  1.00  0.00    -0.115 C  
HETATM    2  C   UNL     1      -9.684   8.605  71.405  1.00  0.00    -0.314 C  
HETATM    3  C   UNL     1     -10.072   8.276  69.960  1.00  0.00    -0.196 C  
HETATM    4  C   UNL     1      -9.105   8.854  68.881  1.00  0.00    -0.140 C  
HETATM    5  C   UNL     1      -8.674  10.314  69.126  1.00  0.00    -0.176 C  
HETATM    6  C   UNL     1      -7.569  10.655  68.144  1.00  0.00    -0.092 C  
HETATM    7  F   UNL     1      -7.062  11.873  68.478  1.00  0.00    -0.067 F  
HETATM    8  C   UNL     1      -8.093  10.652  66.727  1.00  0.00    -0.131 C  
HETATM    9  C   UNL     1      -7.357  11.330  65.813  1.00  0.00     0.292 C  
HETATM   10  C   UNL     1      -6.190  10.462  65.370  1.00  0.00    -0.127 C  
HETATM   11  C   UNL     1      -6.460   8.988  65.334  1.00  0.00    -0.067 C  
HETATM   12  O   UNL     1      -5.131  10.938  64.998  1.00  0.00    -0.147 OA 
HETATM   13  C   UNL     1      -7.636   8.461  65.742  1.00  0.00    -0.085 C  
HETATM   14  C   UNL     1      -8.787   9.326  66.293  1.00  0.00    -0.172 C  
HETATM   15  C   UNL     1      -9.718   8.751  67.467  1.00  0.00    -0.167 C  
HETATM   16  C   UNL     1      -9.724   9.608  65.088  1.00  0.00    -0.287 C  
HETATM   17  F   UNL     1     -10.809   9.619  67.513  1.00  0.00    -0.312 F  
HETATM   18  C   UNL     1     -10.371   7.359  67.251  1.00  0.00    -0.286 C  
HETATM   19  C   UNL     1     -11.234   6.942  68.477  1.00  0.00    -0.068 C  
HETATM   20  O   UNL     1      -9.460   6.344  66.858  1.00  0.00    -0.134 OA 
HETATM   21  C   UNL     1     -10.560   6.698  69.900  1.00  0.00    -0.268 C  
HETATM   22  H   UNL     1      -9.859   5.492  66.726  1.00  0.00     0.000 HD 
HETATM   23  C   UNL     1     -10.357   5.131  69.399  1.00  0.00    -0.265 C  
HETATM   24  C   UNL     1      -9.673   6.263  71.247  1.00  0.00    -0.174 C  
HETATM   25  O   UNL     1      -8.576   5.328  71.068  1.00  0.00    -0.119 OA 
HETATM   26  C   UNL     1      -7.314   6.147  69.099  1.00  0.00    -0.085 C  
HETATM   27  O   UNL     1      -7.589   7.409  71.147  1.00  0.00    -0.080 OA 
HETATM   28  C   UNL     1      -7.436   6.089  70.623  1.00  0.00    -0.087 C  
HETATM   29  C   UNL     1      -6.103   5.470  71.034  1.00  0.00    -0.029 C  
ENDROOT
BRANCH  24  30
HETATM   30  C   UNL     1     -10.838   5.895  72.263  1.00  0.00    -0.245 C  
HETATM   31  O   UNL     1     -10.597   5.225  73.280  1.00  0.00    -0.202 OA 
BRANCH  30  32
HETATM   32  C   UNL     1     -12.282   6.348  72.026  1.00  0.00    -0.269 C  
BRANCH  32  33
HETATM   33  O   UNL     1     -12.542   7.645  72.632  1.00  0.00    -0.002 OA 
BRANCH  33  34
HETATM   34  C   UNL     1     -13.393   8.453  71.931  1.00  0.00    -0.357 C  
HETATM   35  C   UNL     1     -13.043   9.904  72.031  1.00  0.00    -0.545 C  
HETATM   36  O   UNL     1     -14.350   8.032  71.275  1.00  0.00    -0.366 OA 
ENDBRANCH  33  34
ENDBRANCH  32  33
ENDBRANCH  30  32
ENDBRANCH  24  30
TORSDOF 4
ENDMDL
MODEL       57
REMARK 921   NORMALIZED FREE ENERGY PREDICTED BY IDOCK:   -4.73 KCAL/MOL
REMARK 922        TOTAL FREE ENERGY PREDICTED BY IDOCK:   -6.46 KCAL/MOL
REMARK 923 INTER-LIGAND FREE ENERGY PREDICTED BY IDOCK:   -6.07 KCAL/MOL
REMARK 924 INTRA-LIGAND FREE ENERGY PREDICTED BY IDOCK:   -0.39 KCAL/MOL
REMARK 927      BINDING AFFINITY PREDICTED BY RF-SCORE:    0.00 PKD
ROOT
HETATM    1  C   UNL     1      -8.343   7.970  71.352  1.00  0.00    -0.113 C  
HETATM    2  C   UNL     1      -9.732   7.795  70.865  1.00  0.00    -0.174 C  
HETATM    3  C   UNL     1      -9.580   7.976  69.352  1.00  0.00    -0.160 C  
HETATM    4  C   UNL     1      -9.815   9.433  68.846  1.00  0.00    -0.176 C  
HETATM    5  C   UNL     1     -11.039  10.136  69.470  1.00  0.00    -0.295 C  
HETATM    6  C   UNL     1     -11.002  11.599  69.069  1.00  0.00    -0.233 C  
HETATM    7  F   UNL     1     -11.970  12.256  69.764  1.00  0.00    -0.338 F  
HETATM    8  C   UNL     1     -11.203  11.750  67.579  1.00  0.00    -0.354 C  
HETATM    9  C   UNL     1     -11.607  12.970  67.148  1.00  0.00    -0.411 C  
HETATM   10  C   UNL     1     -10.404  13.894  67.068  1.00  0.00    -0.267 C  
HETATM   11  C   UNL     1      -9.109  13.237  66.695  1.00  0.00    -0.181 C  
HETATM   12  O   UNL     1     -10.499  15.100  67.223  1.00  0.00    -0.262 OA 
HETATM   13  C   UNL     1      -9.004  11.901  66.518  1.00  0.00    -0.199 C  
HETATM   14  C   UNL     1     -10.198  10.943  66.703  1.00  0.00    -0.282 C  
HETATM   15  C   UNL     1      -9.952   9.478  67.309  1.00  0.00    -0.189 C  
HETATM   16  C   UNL     1     -10.803  10.737  65.288  1.00  0.00    -0.064 C  
HETATM   17  F   UNL     1     -11.137   8.786  67.059  1.00  0.00    -0.239 F  
HETATM   18  C   UNL     1      -8.867   8.594  66.635  1.00  0.00    -0.133 C  
HETATM   19  C   UNL     1      -8.746   7.211  67.340  1.00  0.00    -0.120 C  
HETATM   20  O   UNL     1      -7.611   9.235  66.476  1.00  0.00    -0.092 OA 
HETATM   21  C   UNL     1      -8.262   7.112  68.855  1.00  0.00    -0.125 C  
HETATM   22  H   UNL     1      -6.947   8.694  66.064  1.00  0.00     0.000 HD 
HETATM   23  C   UNL     1      -6.728   7.027  68.232  1.00  0.00    -0.064 C  
HETATM   24  C   UNL     1      -7.528   7.169  70.354  1.00  0.00    -0.084 C  
HETATM   25  O   UNL     1      -6.280   7.902  70.474  1.00  0.00    -0.036 OA 
HETATM   26  C   UNL     1      -6.658  10.061  69.318  1.00  0.00    -0.051 C  
HETATM   27  O   UNL     1      -7.902   9.337  71.265  1.00  0.00    -0.322 OA 
HETATM   28  C   UNL     1      -6.618   9.294  70.641  1.00  0.00    -0.079 C  
HETATM   29  C   UNL     1      -5.577  10.073  71.439  1.00  0.00    -0.036 C  
ENDROOT
BRANCH  24  30
HETATM   30  C   UNL     1      -7.559   5.632  70.757  1.00  0.00    -0.091 C  
HETATM   31  O   UNL     1      -6.966   5.237  71.775  1.00  0.00    -0.064 OA 
BRANCH  30  32
HETATM   32  C   UNL     1      -8.311   4.597  69.917  1.00  0.00    -0.067 C  
BRANCH  32  33
HETATM   33  O   UNL     1      -9.701   4.480  70.329  1.00  0.00    -0.181 OA 
BRANCH  33  34
HETATM   34  C   UNL     1      -9.891   4.071  71.621  1.00  0.00    -0.183 C  
HETATM   35  C   UNL     1      -9.540   2.633  71.839  1.00  0.00    -0.212 C  
HETATM   36  O   UNL     1     -10.302   4.811  72.519  1.00  0.00    -0.190 OA 
ENDBRANCH  33  34
ENDBRANCH  32  33
ENDBRANCH  30  32
ENDBRANCH  24  30
TORSDOF 4
ENDMDL
MODEL       58
REMARK 921   NORMALIZED FREE ENERGY PREDICTED BY IDOCK:   -4.70 KCAL/MOL
REMARK 922        TOTAL FREE ENERGY PREDICTED BY IDOCK:   -6.43 KCAL/MOL
REMARK 923 INTER-LIGAND FREE ENERGY PREDICTED BY IDOCK:   -5.90 KCAL/MOL
REMARK 924 INTRA-LIGAND FREE ENERGY PREDICTED BY IDOCK:   -0.53 KCAL/MOL
REMARK 927      BINDING AFFINITY PREDICTED BY RF-SCORE:    0.00 PKD
ROOT
HETATM    1  C   UNL     1     -10.534   7.532  68.208  1.00  0.00    -0.180 C  
HETATM    2  C   UNL     1     -10.152   8.050  66.873  1.00  0.00    -0.362 C  
HETATM    3  C   UNL     1      -9.072   9.082  67.212  1.00  0.00    -0.151 C  
HETATM    4  C   UNL     1      -9.600  10.540  67.387  1.00  0.00    -0.181 C  
HETATM    5  C   UNL     1     -10.616  10.984  66.315  1.00  0.00    -0.295 C  
HETATM    6  C   UNL     1     -11.209  12.313  66.744  1.00  0.00    -0.318 C  
HETATM    7  F   UNL     1     -12.233  12.615  65.900  1.00  0.00    -0.456 F  
HETATM    8  C   UNL     1     -10.157  13.396  66.733  1.00  0.00    -0.260 C  
HETATM    9  C   UNL     1     -10.608  14.673  66.680  1.00  0.00    -0.289 C  
HETATM   10  C   UNL     1     -11.028  15.111  68.073  1.00  0.00    -0.295 C  
HETATM   11  C   UNL     1     -10.230  14.528  69.200  1.00  0.00    -0.172 C  
HETATM   12  O   UNL     1     -11.905  15.939  68.258  1.00  0.00    -0.277 OA 
HETATM   13  C   UNL     1      -9.254  13.615  68.996  1.00  0.00     0.300 C  
HETATM   14  C   UNL     1      -8.895  13.085  67.593  1.00  0.00    -0.191 C  
HETATM   15  C   UNL     1      -8.439  11.556  67.417  1.00  0.00    -0.147 C  
HETATM   16  C   UNL     1      -7.709  13.957  67.099  1.00  0.00     0.005 C  
HETATM   17  F   UNL     1      -7.905  11.491  66.130  1.00  0.00    -0.129 F  
HETATM   18  C   UNL     1      -7.281  11.043  68.316  1.00  0.00    -0.085 C  
HETATM   19  C   UNL     1      -6.964   9.547  68.029  1.00  0.00    -0.079 C  
HETATM   20  O   UNL     1      -7.459  11.305  69.700  1.00  0.00    -0.355 OA 
HETATM   21  C   UNL     1      -8.047   8.416  68.323  1.00  0.00    -0.120 C  
HETATM   22  H   UNL     1      -6.751  10.991  70.250  1.00  0.00     0.000 HD 
HETATM   23  C   UNL     1      -7.391   8.354  69.845  1.00  0.00    -0.060 C  
HETATM   24  C   UNL     1      -9.196   7.349  68.899  1.00  0.00    -0.142 C  
HETATM   25  O   UNL     1      -9.650   7.508  70.269  1.00  0.00    -0.165 OA 
HETATM   26  C   UNL     1     -10.116   9.927  70.540  1.00  0.00    -0.207 C  
HETATM   27  O   UNL     1     -11.281   8.495  68.973  1.00  0.00     0.151 OA 
HETATM   28  C   UNL     1     -10.669   8.528  70.263  1.00  0.00    -0.230 C  
HETATM   29  C   UNL     1     -11.696   8.356  71.379  1.00  0.00    -0.332 C  
ENDROOT
BRANCH  24  30
HETATM   30  C   UNL     1      -8.559   5.961  68.457  1.00  0.00    -0.110 C  
HETATM   31  O   UNL     1      -7.671   5.925  67.589  1.00  0.00    -0.095 OA 
BRANCH  30  32
HETATM   32  C   UNL     1      -9.011   4.636  69.078  1.00  0.00    -0.110 C  
BRANCH  32  33
HETATM   33  O   UNL     1      -8.386   4.410  70.371  1.00  0.00    -0.072 OA 
BRANCH  33  34
HETATM   34  C   UNL     1      -9.230   3.979  71.357  1.00  0.00    -0.129 C  
HETATM   35  C   UNL     1      -9.310   2.489  71.453  1.00  0.00    -0.202 C  
HETATM   36  O   UNL     1      -9.858   4.739  72.099  1.00  0.00    -0.159 OA 
ENDBRANCH  33  34
ENDBRANCH  32  33
ENDBRANCH  30  32
ENDBRANCH  24  30
TORSDOF 4
ENDMDL
MODEL       59
REMARK 921   NORMALIZED FREE ENERGY PREDICTED BY IDOCK:   -4.66 KCAL/MOL
REMARK 922        TOTAL FREE ENERGY PREDICTED BY IDOCK:   -6.38 KCAL/MOL
REMARK 923 INTER-LIGAND FREE ENERGY PREDICTED BY IDOCK:   -5.78 KCAL/MOL
REMARK 924 INTRA-LIGAND FREE ENERGY PREDICTED BY IDOCK:   -0.59 KCAL/MOL
REMARK 927      BINDING AFFINITY PREDICTED BY RF-SCORE:    0.00 PKD
ROOT
HETATM    1  C   UNL     1      -7.825  11.120  69.243  1.00  0.00    -0.001 C  
HETATM    2  C   UNL     1      -6.588  10.474  68.743  1.00  0.00    -0.053 C  
HETATM    3  C   UNL     1      -7.038   9.885  67.402  1.00  0.00    -0.085 C  
HETATM    4  C   UNL     1      -7.526   8.405  67.474  1.00  0.00    -0.094 C  
HETATM    5  C   UNL     1      -6.634   7.480  68.327  1.00  0.00    -0.050 C  
HETATM    6  C   UNL     1      -7.351   6.153  68.496  1.00  0.00    -0.086 C  
HETATM    7  F   UNL     1      -6.656   5.405  69.396  1.00  0.00    -0.039 F  
HETATM    8  C   UNL     1      -7.470   5.438  67.170  1.00  0.00    -0.084 C  
HETATM    9  C   UNL     1      -7.694   4.103  67.225  1.00  0.00    -0.088 C  
HETATM   10  C   UNL     1      -9.172   3.856  67.479  1.00  0.00    -0.172 C  
HETATM   11  C   UNL     1     -10.106   4.860  66.873  1.00  0.00    -0.257 C  
HETATM   12  O   UNL     1      -9.574   2.867  68.070  1.00  0.00    -0.195 OA 
HETATM   13  C   UNL     1      -9.662   5.952  66.214  1.00  0.00    -0.132 C  
HETATM   14  C   UNL     1      -8.162   6.266  66.046  1.00  0.00    -0.125 C  
HETATM   15  C   UNL     1      -7.665   7.792  66.064  1.00  0.00    -0.093 C  
HETATM   16  C   UNL     1      -7.758   5.689  64.662  1.00  0.00    -0.099 C  
HETATM   17  F   UNL     1      -6.354   7.744  65.590  1.00  0.00    -0.040 F  
HETATM   18  C   UNL     1      -8.364   8.787  65.097  1.00  0.00    -0.167 C  
HETATM   19  C   UNL     1      -7.774  10.221  65.240  1.00  0.00    -0.144 C  
HETATM   20  O   UNL     1      -9.781   8.772  65.172  1.00  0.00    -0.348 OA 
HETATM   21  C   UNL     1      -7.925  11.029  66.605  1.00  0.00    -0.156 C  
HETATM   22  H   UNL     1     -10.208   9.381  64.581  1.00  0.00     0.000 HD 
HETATM   23  C   UNL     1      -9.356  11.584  65.976  1.00  0.00    -0.239 C  
HETATM   24  C   UNL     1      -8.369  11.816  68.010  1.00  0.00    -0.154 C  
HETATM   25  O   UNL     1      -9.774  11.815  68.378  1.00  0.00    -0.194 OA 
HETATM   26  C   UNL     1     -10.534   9.472  68.106  1.00  0.00    -0.268 C  
HETATM   27  O   UNL     1      -8.811  10.160  69.662  1.00  0.00    -0.195 OA 
HETATM   28  C   UNL     1     -10.036  10.567  69.051  1.00  0.00    -0.217 C  
HETATM   29  C   UNL     1     -11.170  10.661  70.068  1.00  0.00    -0.382 C  
ENDROOT
BRANCH  24  30
HETATM   30  C   UNL     1      -7.626  13.208  67.817  1.00  0.00    -0.155 C  
HETATM   31  O   UNL     1      -6.518  13.257  67.257  1.00  0.00    -0.256 OA 
BRANCH  30  32
HETATM   32  C   UNL     1      -8.242  14.521  68.308  1.00  0.00    -0.149 C  
BRANCH  32  33
HETATM   33  O   UNL     1      -8.488  15.440  67.208  1.00  0.00    -0.164 OA 
BRANCH  33  34
HETATM   34  C   UNL     1      -9.740  15.370  66.661  1.00  0.00    -0.253 C  
HETATM   35  C   UNL     1     -10.831  15.417  67.683  1.00  0.00    -0.304 C  
HETATM   36  O   UNL     1      -9.952  15.283  65.448  1.00  0.00    -0.347 OA 
ENDBRANCH  33  34
ENDBRANCH  32  33
ENDBRANCH  30  32
ENDBRANCH  24  30
TORSDOF 4
ENDMDL
MODEL       60
REMARK 921   NORMALIZED FREE ENERGY PREDICTED BY IDOCK:   -4.65 KCAL/MOL
REMARK 922        TOTAL FREE ENERGY PREDICTED BY IDOCK:   -6.36 KCAL/MOL
REMARK 923 INTER-LIGAND FREE ENERGY PREDICTED BY IDOCK:   -5.61 KCAL/MOL
REMARK 924 INTRA-LIGAND FREE ENERGY PREDICTED BY IDOCK:   -0.75 KCAL/MOL
REMARK 927      BINDING AFFINITY PREDICTED BY RF-SCORE:    0.00 PKD
ROOT
HETATM    1  C   UNL     1      -6.100   8.356  66.959  1.00  0.00    -0.055 C  
HETATM    2  C   UNL     1      -6.186   9.073  68.254  1.00  0.00    -0.054 C  
HETATM    3  C   UNL     1      -7.695   9.100  68.520  1.00  0.00    -0.093 C  
HETATM    4  C   UNL     1      -8.421  10.381  68.008  1.00  0.00    -0.119 C  
HETATM    5  C   UNL     1      -7.680  11.700  68.310  1.00  0.00    -0.128 C  
HETATM    6  C   UNL     1      -8.376  12.820  67.557  1.00  0.00    -0.179 C  
HETATM    7  F   UNL     1      -7.619  13.944  67.673  1.00  0.00    -0.120 F  
HETATM    8  C   UNL     1      -9.769  13.041  68.096  1.00  0.00    -0.228 C  
HETATM    9  C   UNL     1     -10.335  14.242  67.825  1.00  0.00    -0.238 C  
HETATM   10  C   UNL     1     -10.897  14.220  66.413  1.00  0.00    -0.307 C  
HETATM   11  C   UNL     1     -11.427  12.897  65.951  1.00  0.00    -0.387 C  
HETATM   12  O   UNL     1     -10.980  15.228  65.731  1.00  0.00    -0.338 OA 
HETATM   13  C   UNL     1     -11.341  11.781  66.709  1.00  0.00    -0.385 C  
HETATM   14  C   UNL     1     -10.674  11.773  68.099  1.00  0.00    -0.247 C  
HETATM   15  C   UNL     1      -9.853  10.479  68.576  1.00  0.00    -0.168 C  
HETATM   16  C   UNL     1     -11.824  11.966  69.124  1.00  0.00    -0.371 C  
HETATM   17  F   UNL     1      -9.657  10.667  69.944  1.00  0.00    -0.152 F  
HETATM   18  C   UNL     1     -10.571   9.103  68.499  1.00  0.00    -0.169 C  
HETATM   19  C   UNL     1      -9.643   7.954  68.990  1.00  0.00    -0.155 C  
HETATM   20  O   UNL     1     -11.161   8.825  67.239  1.00  0.00    -0.379 OA 
HETATM   21  C   UNL     1      -8.305   7.598  68.201  1.00  0.00    -0.124 C  
HETATM   22  H   UNL     1     -11.599   7.984  67.192  1.00  0.00     0.000 HD 
HETATM   23  C   UNL     1      -9.250   6.571  67.306  1.00  0.00    -0.124 C  
HETATM   24  C   UNL     1      -7.076   7.209  67.139  1.00  0.00    -0.087 C  
HETATM   25  O   UNL     1      -7.419   7.011  65.742  1.00  0.00    -0.076 OA 
HETATM   26  C   UNL     1      -8.875   8.923  65.135  1.00  0.00    -0.209 C  
HETATM   27  O   UNL     1      -6.576   9.154  65.861  1.00  0.00    -0.069 OA 
HETATM   28  C   UNL     1      -7.471   8.315  65.128  1.00  0.00    -0.085 C  
HETATM   29  C   UNL     1      -7.132   8.292  63.641  1.00  0.00    -0.086 C  
ENDROOT
BRANCH  24  30
HETATM   30  C   UNL     1      -6.364   6.028  67.930  1.00  0.00    -0.037 C  
HETATM   31  O   UNL     1      -5.499   5.331  67.374  1.00  0.00    -0.011 OA 
BRANCH  30  32
HETATM   32  C   UNL     1      -6.715   5.711  69.386  1.00  0.00    -0.059 C  
BRANCH  32  33
HETATM   33  O   UNL     1      -6.960   4.290  69.580  1.00  0.00    -0.044 OA 
BRANCH  33  34
HETATM   34  C   UNL     1      -8.253   3.892  69.383  1.00  0.00    -0.057 C  
HETATM   35  C   UNL     1      -9.195   4.416  70.420  1.00  0.00    -0.184 C  
HETATM   36  O   UNL     1      -8.613   3.178  68.442  1.00  0.00    -0.080 OA 
ENDBRANCH  33  34
ENDBRANCH  32  33
ENDBRANCH  30  32
ENDBRANCH  24  30
TORSDOF 4
ENDMDL
MODEL       61
REMARK 921   NORMALIZED FREE ENERGY PREDICTED BY IDOCK:   -4.62 KCAL/MOL
REMARK 922        TOTAL FREE ENERGY PREDICTED BY IDOCK:   -6.33 KCAL/MOL
REMARK 923 INTER-LIGAND FREE ENERGY PREDICTED BY IDOCK:   -5.92 KCAL/MOL
REMARK 924 INTRA-LIGAND FREE ENERGY PREDICTED BY IDOCK:   -0.41 KCAL/MOL
REMARK 927      BINDING AFFINITY PREDICTED BY RF-SCORE:    0.00 PKD
ROOT
HETATM    1  C   UNL     1     -10.616  11.043  66.315  1.00  0.00    -0.237 C  
HETATM    2  C   UNL     1     -10.863  10.347  67.600  1.00  0.00    -0.361 C  
HETATM    3  C   UNL     1      -9.474   9.809  67.960  1.00  0.00    -0.144 C  
HETATM    4  C   UNL     1      -9.196   8.354  67.473  1.00  0.00    -0.158 C  
HETATM    5  C   UNL     1     -10.359   7.369  67.706  1.00  0.00    -0.273 C  
HETATM    6  C   UNL     1     -10.040   6.075  66.979  1.00  0.00    -0.179 C  
HETATM    7  F   UNL     1     -11.140   5.276  67.028  1.00  0.00    -0.224 F  
HETATM    8  C   UNL     1      -8.843   5.395  67.600  1.00  0.00    -0.105 C  
HETATM    9  C   UNL     1      -8.704   4.071  67.345  1.00  0.00    -0.115 C  
HETATM   10  C   UNL     1      -8.077   3.893  65.971  1.00  0.00    -0.101 C  
HETATM   11  C   UNL     1      -7.099   4.954  65.566  1.00  0.00    -0.067 C  
HETATM   12  O   UNL     1      -8.299   2.913  65.278  1.00  0.00    -0.090 OA 
HETATM   13  C   UNL     1      -6.850   6.036  66.336  1.00  0.00    -0.062 C  
HETATM   14  C   UNL     1      -7.562   6.279  67.681  1.00  0.00    -0.097 C  
HETATM   15  C   UNL     1      -7.922   7.778  68.128  1.00  0.00    -0.122 C  
HETATM   16  C   UNL     1      -6.615   5.711  68.773  1.00  0.00    -0.048 C  
HETATM   17  F   UNL     1      -8.260   7.675  69.478  1.00  0.00    -0.119 F  
HETATM   18  C   UNL     1      -6.776   8.826  68.120  1.00  0.00    -0.065 C  
HETATM   19  C   UNL     1      -7.287  10.225  68.571  1.00  0.00    -0.082 C  
HETATM   20  O   UNL     1      -6.047   8.879  66.904  1.00  0.00    -0.056 OA 
HETATM   21  C   UNL     1      -8.370  11.012  67.706  1.00  0.00    -0.118 C  
HETATM   22  H   UNL     1      -5.346   9.521  66.898  1.00  0.00     0.000 HD 
HETATM   23  C   UNL     1      -7.076  11.650  66.889  1.00  0.00    -0.124 C  
HETATM   24  C   UNL     1      -9.322  11.791  66.575  1.00  0.00    -0.210 C  
HETATM   25  O   UNL     1      -8.843  11.852  65.206  1.00  0.00     0.183 OA 
HETATM   26  C   UNL     1      -8.088   9.555  64.659  1.00  0.00    -0.136 C  
HETATM   27  O   UNL     1     -10.370  10.125  65.235  1.00  0.00    -0.266 OA 
HETATM   28  C   UNL     1      -9.198  10.605  64.575  1.00  0.00    -0.231 C  
HETATM   29  C   UNL     1      -9.412  10.734  63.070  1.00  0.00    -0.372 C  
ENDROOT
BRANCH  24  30
HETATM   30  C   UNL     1      -9.639  13.147  67.340  1.00  0.00    -0.219 C  
HETATM   31  O   UNL     1      -9.097  13.397  68.430  1.00  0.00    -0.189 OA 
BRANCH  30  32
HETATM   32  C   UNL     1     -10.611  14.183  66.768  1.00  0.00    -0.277 C  
BRANCH  32  33
HETATM   33  O   UNL     1     -10.364  14.426  65.355  1.00  0.00    -0.332 OA 
BRANCH  33  34
HETATM   34  C   UNL     1     -11.430  14.194  64.531  1.00  0.00    -0.372 C  
HETATM   35  C   UNL     1     -12.395  15.336  64.481  1.00  0.00    -0.144 C  
HETATM   36  O   UNL     1     -11.581  13.152  63.886  1.00  0.00    -0.407 OA 
ENDBRANCH  33  34
ENDBRANCH  32  33
ENDBRANCH  30  32
ENDBRANCH  24  30
TORSDOF 4
ENDMDL
MODEL       62
REMARK 921   NORMALIZED FREE ENERGY PREDICTED BY IDOCK:   -4.61 KCAL/MOL
REMARK 922        TOTAL FREE ENERGY PREDICTED BY IDOCK:   -6.32 KCAL/MOL
REMARK 923 INTER-LIGAND FREE ENERGY PREDICTED BY IDOCK:   -5.63 KCAL/MOL
REMARK 924 INTRA-LIGAND FREE ENERGY PREDICTED BY IDOCK:   -0.69 KCAL/MOL
REMARK 927      BINDING AFFINITY PREDICTED BY RF-SCORE:    0.00 PKD
ROOT
HETATM    1  C   UNL     1      -9.834   7.634  72.494  1.00  0.00    -0.196 C  
HETATM    2  C   UNL     1     -11.055   7.753  71.663  1.00  0.00    -0.275 C  
HETATM    3  C   UNL     1     -10.514   7.560  70.243  1.00  0.00    -0.227 C  
HETATM    4  C   UNL     1     -10.142   8.883  69.505  1.00  0.00    -0.198 C  
HETATM    5  C   UNL     1     -11.180  10.014  69.660  1.00  0.00    -0.285 C  
HETATM    6  C   UNL     1     -10.581  11.289  69.097  1.00  0.00    -0.187 C  
HETATM    7  F   UNL     1     -11.415  12.321  69.399  1.00  0.00    -0.288 F  
HETATM    8  C   UNL     1     -10.377  11.171  67.605  1.00  0.00    -0.223 C  
HETATM    9  C   UNL     1     -10.256  12.334  66.921  1.00  0.00    -0.229 C  
HETATM   10  C   UNL     1      -8.833  12.849  67.062  1.00  0.00    -0.208 C  
HETATM   11  C   UNL     1      -7.772  11.793  67.159  1.00  0.00    -0.162 C  
HETATM   12  O   UNL     1      -8.565  14.038  67.024  1.00  0.00    -0.213 OA 
HETATM   13  C   UNL     1      -8.069  10.476  67.196  1.00  0.00    -0.120 C  
HETATM   14  C   UNL     1      -9.517   9.950  67.161  1.00  0.00    -0.190 C  
HETATM   15  C   UNL     1      -9.904   8.637  67.999  1.00  0.00    -0.169 C  
HETATM   16  C   UNL     1      -9.818   9.625  65.673  1.00  0.00    -0.369 C  
HETATM   17  F   UNL     1     -11.160   8.265  67.519  1.00  0.00    -0.229 F  
HETATM   18  C   UNL     1      -9.041   7.364  67.780  1.00  0.00    -0.129 C  
HETATM   19  C   UNL     1      -9.538   6.185  68.666  1.00  0.00    -0.138 C  
HETATM   20  O   UNL     1      -7.644   7.581  67.899  1.00  0.00    -0.105 OA 
HETATM   21  C   UNL     1      -9.471   6.278  70.255  1.00  0.00    -0.173 C  
HETATM   22  H   UNL     1      -7.116   6.803  67.765  1.00  0.00     0.000 HD 
HETATM   23  C   UNL     1      -7.948   5.640  70.106  1.00  0.00    -0.099 C  
HETATM   24  C   UNL     1      -9.118   6.445  71.879  1.00  0.00    -0.145 C  
HETATM   25  O   UNL     1      -7.762   6.810  72.249  1.00  0.00    -0.093 OA 
HETATM   26  C   UNL     1      -7.146   8.692  70.759  1.00  0.00    -0.061 C  
HETATM   27  O   UNL     1      -8.966   8.773  72.355  1.00  0.00    -0.379 OA 
HETATM   28  C   UNL     1      -7.659   8.243  72.129  1.00  0.00    -0.121 C  
HETATM   29  C   UNL     1      -6.632   8.852  73.078  1.00  0.00     0.117 C  
ENDROOT
BRANCH  24  30
HETATM   30  C   UNL     1      -9.736   5.099  72.456  1.00  0.00    -0.151 C  
HETATM   31  O   UNL     1     -10.555   4.446  71.788  1.00  0.00    -0.063 OA 
BRANCH  30  32
HETATM   32  C   UNL     1      -9.351   4.567  73.839  1.00  0.00    -0.113 C  
BRANCH  32  33
HETATM   33  O   UNL     1      -8.803   3.222  73.761  1.00  0.00    -0.077 OA 
BRANCH  33  34
HETATM   34  C   UNL     1      -7.488   3.151  73.392  1.00  0.00    -0.052 C  
HETATM   35  C   UNL     1      -7.267   2.340  72.155  1.00  0.00    -0.038 C  
HETATM   36  O   UNL     1      -6.574   3.706  74.009  1.00  0.00    -0.039 OA 
ENDBRANCH  33  34
ENDBRANCH  32  33
ENDBRANCH  30  32
ENDBRANCH  24  30
TORSDOF 4
ENDMDL
MODEL       63
REMARK 921   NORMALIZED FREE ENERGY PREDICTED BY IDOCK:   -4.54 KCAL/MOL
REMARK 922        TOTAL FREE ENERGY PREDICTED BY IDOCK:   -6.22 KCAL/MOL
REMARK 923 INTER-LIGAND FREE ENERGY PREDICTED BY IDOCK:   -5.84 KCAL/MOL
REMARK 924 INTRA-LIGAND FREE ENERGY PREDICTED BY IDOCK:   -0.38 KCAL/MOL
REMARK 927      BINDING AFFINITY PREDICTED BY RF-SCORE:    0.00 PKD
ROOT
HETATM    1  C   UNL     1      -9.722  14.198  67.372  1.00  0.00    -0.232 C  
HETATM    2  C   UNL     1      -8.567  14.603  68.208  1.00  0.00    -0.167 C  
HETATM    3  C   UNL     1      -8.882  16.069  68.526  1.00  0.00    -0.199 C  
HETATM    4  C   UNL     1      -8.251  17.097  67.536  1.00  0.00    -0.196 C  
HETATM    5  C   UNL     1      -6.781  16.809  67.167  1.00  0.00    -0.224 C  
HETATM    6  C   UNL     1      -6.385  17.738  66.034  1.00  0.00    -0.234 C  
HETATM    7  F   UNL     1      -5.157  17.362  65.585  1.00  0.00    -0.204 F  
HETATM    8  C   UNL     1      -6.379  19.175  66.499  1.00  0.00    -0.200 C  
HETATM    9  C   UNL     1      -5.660  20.047  65.751  1.00  0.00    -0.192 C  
HETATM   10  C   UNL     1      -6.479  20.455  64.538  1.00  0.00    -0.263 C  
HETATM   11  C   UNL     1      -7.960  20.527  64.755  1.00  0.00     1.226 C  
HETATM   12  O   UNL     1      -5.960  20.775  63.481  1.00  0.00    -0.260 OA 
HETATM   13  C   UNL     1      -8.535  20.178  65.927  1.00  0.00    -0.095 C  
HETATM   14  C   UNL     1      -7.720  19.660  67.128  1.00  0.00    -0.288 C  
HETATM   15  C   UNL     1      -8.349  18.536  68.086  1.00  0.00    -0.296 C  
HETATM   16  C   UNL     1      -7.448  20.898  68.025  1.00  0.00     0.033 C  
HETATM   17  F   UNL     1      -7.519  18.521  69.208  1.00  0.00    -0.278 F  
HETATM   18  C   UNL     1      -9.758  18.804  68.681  1.00  0.00    -0.390 C  
HETATM   19  C   UNL     1     -10.226  17.621  69.579  1.00  0.00     0.085 C  
HETATM   20  O   UNL     1     -10.734  19.175  67.719  1.00  0.00    -0.424 OA 
HETATM   21  C   UNL     1     -10.474  16.176  68.955  1.00  0.00    -0.258 C  
HETATM   22  H   UNL     1     -11.596  19.339  68.083  1.00  0.00     0.000 HD 
HETATM   23  C   UNL     1     -12.023  16.695  68.677  1.00  0.00     0.648 C  
HETATM   24  C   UNL     1     -10.904  14.801  68.109  1.00  0.00    -0.254 C  
HETATM   25  O   UNL     1     -11.797  14.950  66.974  1.00  0.00    -0.327 OA 
HETATM   26  C   UNL     1     -10.899  16.851  65.661  1.00  0.00    -0.082 C  
HETATM   27  O   UNL     1      -9.685  14.795  66.064  1.00  0.00    -0.295 OA 
HETATM   28  C   UNL     1     -10.989  15.335  65.843  1.00  0.00    -0.325 C  
HETATM   29  C   UNL     1     -11.569  14.879  64.508  1.00  0.00    -0.356 C  
ENDROOT
BRANCH  24  30
HETATM   30  C   UNL     1     -11.330  13.841  69.301  1.00  0.00    -0.273 C  
HETATM   31  O   UNL     1     -11.256  14.230  70.479  1.00  0.00    -0.082 OA 
BRANCH  30  32
HETATM   32  C   UNL     1     -11.840  12.420  69.045  1.00  0.00    -0.300 C  
BRANCH  32  33
HETATM   33  O   UNL     1     -11.545  11.537  70.163  1.00  0.00    -0.301 OA 
BRANCH  33  34
HETATM   34  C   UNL     1     -10.930  10.362  69.828  1.00  0.00    -0.293 C  
HETATM   35  C   UNL     1     -10.998  10.059  68.365  1.00  0.00    -0.266 C  
HETATM   36  O   UNL     1     -10.368   9.628  70.646  1.00  0.00    -0.278 OA 
ENDBRANCH  33  34
ENDBRANCH  32  33
ENDBRANCH  30  32
ENDBRANCH  24  30
TORSDOF 4
ENDMDL
MODEL       64
REMARK 921   NORMALIZED FREE ENERGY PREDICTED BY IDOCK:   -4.49 KCAL/MOL
REMARK 922        TOTAL FREE ENERGY PREDICTED BY IDOCK:   -6.16 KCAL/MOL
REMARK 923 INTER-LIGAND FREE ENERGY PREDICTED BY IDOCK:   -5.74 KCAL/MOL
REMARK 924 INTRA-LIGAND FREE ENERGY PREDICTED BY IDOCK:   -0.43 KCAL/MOL
REMARK 927      BINDING AFFINITY PREDICTED BY RF-SCORE:    0.00 PKD
ROOT
HETATM    1  C   UNL     1     -10.523   7.670  67.983  1.00  0.00    -0.189 C  
HETATM    2  C   UNL     1     -10.108   8.231  66.675  1.00  0.00    -0.351 C  
HETATM    3  C   UNL     1      -9.029   9.244  67.073  1.00  0.00    -0.142 C  
HETATM    4  C   UNL     1      -9.552  10.698  67.288  1.00  0.00    -0.186 C  
HETATM    5  C   UNL     1     -10.541  11.186  66.211  1.00  0.00    -0.309 C  
HETATM    6  C   UNL     1     -11.135  12.504  66.673  1.00  0.00    -0.283 C  
HETATM    7  F   UNL     1     -12.138  12.843  65.819  1.00  0.00    -0.410 F  
HETATM    8  C   UNL     1     -10.075  13.579  66.724  1.00  0.00    -0.268 C  
HETATM    9  C   UNL     1     -10.517  14.860  66.706  1.00  0.00    -0.284 C  
HETATM   10  C   UNL     1     -10.965  15.252  68.104  1.00  0.00    -0.292 C  
HETATM   11  C   UNL     1     -10.195  14.624  69.227  1.00  0.00    -0.156 C  
HETATM   12  O   UNL     1     -11.840  16.079  68.299  1.00  0.00    -0.250 OA 
HETATM   13  C   UNL     1      -9.221  13.713  69.012  1.00  0.00     0.300 C  
HETATM   14  C   UNL     1      -8.835  13.229  67.600  1.00  0.00    -0.200 C  
HETATM   15  C   UNL     1      -8.385  11.705  67.380  1.00  0.00    -0.152 C  
HETATM   16  C   UNL     1      -7.633  14.109  67.162  1.00  0.00     0.024 C  
HETATM   17  F   UNL     1      -7.823  11.681  66.103  1.00  0.00    -0.095 F  
HETATM   18  C   UNL     1      -7.251  11.152  68.285  1.00  0.00    -0.083 C  
HETATM   19  C   UNL     1      -6.936   9.664  67.952  1.00  0.00    -0.079 C  
HETATM   20  O   UNL     1      -7.457  11.366  69.673  1.00  0.00    -0.359 OA 
HETATM   21  C   UNL     1      -8.033   8.531  68.183  1.00  0.00    -0.111 C  
HETATM   22  H   UNL     1      -6.764  11.028  70.227  1.00  0.00     0.000 HD 
HETATM   23  C   UNL     1      -7.411   8.412  69.715  1.00  0.00    -0.072 C  
HETATM   24  C   UNL     1      -9.201   7.453  68.696  1.00  0.00    -0.143 C  
HETATM   25  O   UNL     1      -9.684   7.568  70.060  1.00  0.00    -0.171 OA 
HETATM   26  C   UNL     1     -10.141   9.979  70.407  1.00  0.00    -0.170 C  
HETATM   27  O   UNL     1     -11.280   8.611  68.765  1.00  0.00     0.193 OA 
HETATM   28  C   UNL     1     -10.697   8.594  70.068  1.00  0.00    -0.228 C  
HETATM   29  C   UNL     1     -11.749   8.390  71.154  1.00  0.00    -0.315 C  
ENDROOT
BRANCH  24  30
HETATM   30  C   UNL     1      -8.563   6.077  68.220  1.00  0.00    -0.115 C  
HETATM   31  O   UNL     1      -7.442   6.056  67.685  1.00  0.00    -0.076 OA 
BRANCH  30  32
HETATM   32  C   UNL     1      -9.299   4.746  68.399  1.00  0.00    -0.132 C  
BRANCH  32  33
HETATM   33  O   UNL     1     -10.158   4.452  67.264  1.00  0.00    -0.156 OA 
BRANCH  33  34
HETATM   34  C   UNL     1      -9.572   3.726  66.264  1.00  0.00    -0.162 C  
HETATM   35  C   UNL     1     -10.173   3.985  64.919  1.00  0.00    -0.211 C  
HETATM   36  O   UNL     1      -8.637   2.942  66.447  1.00  0.00    -0.104 OA 
ENDBRANCH  33  34
ENDBRANCH  32  33
ENDBRANCH  30  32
ENDBRANCH  24  30
TORSDOF 4
ENDMDL
MODEL       65
REMARK 921   NORMALIZED FREE ENERGY PREDICTED BY IDOCK:   -4.45 KCAL/MOL
REMARK 922        TOTAL FREE ENERGY PREDICTED BY IDOCK:   -6.12 KCAL/MOL
REMARK 923 INTER-LIGAND FREE ENERGY PREDICTED BY IDOCK:   -5.25 KCAL/MOL
REMARK 924 INTRA-LIGAND FREE ENERGY PREDICTED BY IDOCK:   -0.87 KCAL/MOL
REMARK 927      BINDING AFFINITY PREDICTED BY RF-SCORE:    0.00 PKD
ROOT
HETATM    1  C   UNL     1      -9.008  12.102  67.031  1.00  0.00    -0.201 C  
HETATM    2  C   UNL     1      -7.673  11.486  66.844  1.00  0.00    -0.157 C  
HETATM    3  C   UNL     1      -7.923  10.024  67.231  1.00  0.00    -0.106 C  
HETATM    4  C   UNL     1      -7.630   9.690  68.726  1.00  0.00    -0.076 C  
HETATM    5  C   UNL     1      -6.321  10.296  69.272  1.00  0.00    -0.047 C  
HETATM    6  C   UNL     1      -6.292  10.088  70.775  1.00  0.00    -0.074 C  
HETATM    7  F   UNL     1      -5.235  10.780  71.280  1.00  0.00    -0.083 F  
HETATM    8  C   UNL     1      -6.191   8.618  71.109  1.00  0.00    -0.046 C  
HETATM    9  C   UNL     1      -5.740   8.313  72.350  1.00  0.00    -0.049 C  
HETATM   10  C   UNL     1      -6.884   8.449  73.343  1.00  0.00    -0.090 C  
HETATM   11  C   UNL     1      -8.242   8.102  72.812  1.00  0.00    -0.231 C  
HETATM   12  O   UNL     1      -6.698   8.747  74.511  1.00  0.00    -0.242 OA 
HETATM   13  C   UNL     1      -8.447   7.766  71.519  1.00  0.00    -0.129 C  
HETATM   14  C   UNL     1      -7.308   7.731  70.481  1.00  0.00    -0.072 C  
HETATM   15  C   UNL     1      -7.604   8.165  68.965  1.00  0.00    -0.097 C  
HETATM   16  C   UNL     1      -6.823   6.257  70.429  1.00  0.00    -0.055 C  
HETATM   17  F   UNL     1      -6.488   7.734  68.247  1.00  0.00    -0.049 F  
HETATM   18  C   UNL     1      -8.791   7.474  68.238  1.00  0.00    -0.125 C  
HETATM   19  C   UNL     1      -8.950   8.006  66.784  1.00  0.00    -0.169 C  
HETATM   20  O   UNL     1     -10.011   7.500  68.963  1.00  0.00    -0.167 OA 
HETATM   21  C   UNL     1      -9.327   9.530  66.514  1.00  0.00    -0.220 C  
HETATM   22  H   UNL     1     -10.736   7.078  68.518  1.00  0.00     0.000 HD 
HETATM   23  C   UNL     1     -10.904   9.028  66.596  1.00  0.00     0.151 C  
HETATM   24  C   UNL     1      -9.944  11.079  66.414  1.00  0.00    -0.222 C  
HETATM   25  O   UNL     1     -11.130  11.392  67.192  1.00  0.00    -0.276 OA 
HETATM   26  C   UNL     1     -10.697  10.491  69.460  1.00  0.00    -0.291 C  
HETATM   27  O   UNL     1      -9.364  12.224  68.419  1.00  0.00    -0.203 OA 
HETATM   28  C   UNL     1     -10.690  11.705  68.530  1.00  0.00    -0.218 C  
HETATM   29  C   UNL     1     -11.617  12.677  69.254  1.00  0.00    -0.376 C  
ENDROOT
BRANCH  24  30
HETATM   30  C   UNL     1      -9.984  11.281  64.838  1.00  0.00    -0.274 C  
HETATM   31  O   UNL     1     -10.513  12.293  64.347  1.00  0.00    -0.289 OA 
BRANCH  30  32
HETATM   32  C   UNL     1      -9.382  10.249  63.881  1.00  0.00    -0.291 C  
BRANCH  32  33
HETATM   33  O   UNL     1      -8.126  10.715  63.314  1.00  0.00    -0.123 OA 
BRANCH  33  34
HETATM   34  C   UNL     1      -7.055   9.890  63.518  1.00  0.00    -0.120 C  
HETATM   35  C   UNL     1      -7.316   8.475  63.109  1.00  0.00    -0.103 C  
HETATM   36  O   UNL     1      -5.978  10.271  63.985  1.00  0.00    -0.133 OA 
ENDBRANCH  33  34
ENDBRANCH  32  33
ENDBRANCH  30  32
ENDBRANCH  24  30
TORSDOF 4
ENDMDL
MODEL       66
REMARK 921   NORMALIZED FREE ENERGY PREDICTED BY IDOCK:   -4.40 KCAL/MOL
REMARK 922        TOTAL FREE ENERGY PREDICTED BY IDOCK:   -6.06 KCAL/MOL
REMARK 923 INTER-LIGAND FREE ENERGY PREDICTED BY IDOCK:   -5.38 KCAL/MOL
REMARK 924 INTRA-LIGAND FREE ENERGY PREDICTED BY IDOCK:   -0.68 KCAL/MOL
REMARK 927      BINDING AFFINITY PREDICTED BY RF-SCORE:    0.00 PKD
ROOT
HETATM    1  C   UNL     1     -10.043  10.339  66.892  1.00  0.00    -0.221 C  
HETATM    2  C   UNL     1      -9.804   9.279  67.900  1.00  0.00    -0.200 C  
HETATM    3  C   UNL     1      -8.480   8.666  67.433  1.00  0.00    -0.123 C  
HETATM    4  C   UNL     1      -8.632   7.435  66.488  1.00  0.00    -0.134 C  
HETATM    5  C   UNL     1      -9.702   6.417  66.933  1.00  0.00    -0.190 C  
HETATM    6  C   UNL     1      -9.899   5.413  65.811  1.00  0.00     0.022 C  
HETATM    7  F   UNL     1     -10.966   4.629  66.124  1.00  0.00    -0.314 F  
HETATM    8  C   UNL     1      -8.652   4.583  65.613  1.00  0.00    -0.121 C  
HETATM    9  C   UNL     1      -8.812   3.404  64.964  1.00  0.00    -0.122 C  
HETATM   10  C   UNL     1      -8.865   3.662  63.467  1.00  0.00    -0.097 C  
HETATM   11  C   UNL     1      -8.024   4.804  62.980  1.00  0.00    -0.080 C  
HETATM   12  O   UNL     1      -9.489   2.943  62.705  1.00  0.00    -0.093 OA 
HETATM   13  C   UNL     1      -7.328   5.598  63.824  1.00  0.00    -0.058 C  
HETATM   14  C   UNL     1      -7.356   5.408  65.354  1.00  0.00    -0.069 C  
HETATM   15  C   UNL     1      -7.289   6.693  66.313  1.00  0.00    -0.073 C  
HETATM   16  C   UNL     1      -6.117   4.538  65.698  1.00  0.00    -0.027 C  
HETATM   17  F   UNL     1      -7.025   6.177  67.581  1.00  0.00    -0.059 F  
HETATM   18  C   UNL     1      -6.130   7.701  66.084  1.00  0.00    -0.038 C  
HETATM   19  C   UNL     1      -6.208   8.890  67.087  1.00  0.00    -0.059 C  
HETATM   20  O   UNL     1      -5.991   8.133  64.739  1.00  0.00    -0.045 OA 
HETATM   21  C   UNL     1      -7.443   9.897  67.057  1.00  0.00    -0.091 C  
HETATM   22  H   UNL     1      -5.283   8.750  64.599  1.00  0.00     0.000 HD 
HETATM   23  C   UNL     1      -6.552  10.765  65.961  1.00  0.00    -0.113 C  
HETATM   24  C   UNL     1      -8.675  10.979  66.741  1.00  0.00    -0.152 C  
HETATM   25  O   UNL     1      -8.826  11.464  65.380  1.00  0.00    -0.114 OA 
HETATM   26  C   UNL     1      -8.689   9.453  63.937  1.00  0.00    -0.225 C  
HETATM   27  O   UNL     1     -10.406   9.801  65.608  1.00  0.00    -0.199 OA 
HETATM   28  C   UNL     1      -9.579  10.469  64.656  1.00  0.00    -0.292 C  
HETATM   29  C   UNL     1     -10.398  11.055  63.510  1.00  0.00    -0.402 C  
ENDROOT
BRANCH  24  30
HETATM   30  C   UNL     1      -8.452  12.032  67.911  1.00  0.00    -0.160 C  
HETATM   31  O   UNL     1      -8.044  11.658  69.023  1.00  0.00    -0.056 OA 
BRANCH  30  32
HETATM   32  C   UNL     1      -8.727  13.525  67.711  1.00  0.00    -0.189 C  
BRANCH  32  33
HETATM   33  O   UNL     1     -10.147  13.824  67.808  1.00  0.00    -0.236 OA 
BRANCH  33  34
HETATM   34  C   UNL     1     -10.766  14.099  66.620  1.00  0.00    -0.289 C  
HETATM   35  C   UNL     1     -12.015  13.304  66.410  1.00  0.00    -0.465 C  
HETATM   36  O   UNL     1     -10.343  14.923  65.804  1.00  0.00    -0.292 OA 
ENDBRANCH  33  34
ENDBRANCH  32  33
ENDBRANCH  30  32
ENDBRANCH  24  30
TORSDOF 4
ENDMDL
MODEL       67
REMARK 921   NORMALIZED FREE ENERGY PREDICTED BY IDOCK:   -4.34 KCAL/MOL
REMARK 922        TOTAL FREE ENERGY PREDICTED BY IDOCK:   -5.98 KCAL/MOL
REMARK 923 INTER-LIGAND FREE ENERGY PREDICTED BY IDOCK:   -5.73 KCAL/MOL
REMARK 924 INTRA-LIGAND FREE ENERGY PREDICTED BY IDOCK:   -0.25 KCAL/MOL
REMARK 927      BINDING AFFINITY PREDICTED BY RF-SCORE:    0.00 PKD
ROOT
HETATM    1  C   UNL     1      -9.470  12.145  65.592  1.00  0.00    -0.108 C  
HETATM    2  C   UNL     1     -10.695  11.311  65.545  1.00  0.00    -0.283 C  
HETATM    3  C   UNL     1     -11.276  11.493  66.951  1.00  0.00    -0.363 C  
HETATM    4  C   UNL     1     -10.835  10.407  67.980  1.00  0.00    -0.319 C  
HETATM    5  C   UNL     1     -10.871   8.962  67.439  1.00  0.00    -0.096 C  
HETATM    6  C   UNL     1     -10.202   8.057  68.457  1.00  0.00    -0.207 C  
HETATM    7  F   UNL     1     -10.067   6.821  67.904  1.00  0.00    -0.141 F  
HETATM    8  C   UNL     1     -11.009   7.999  69.733  1.00  0.00    -0.138 C  
HETATM    9  C   UNL     1     -10.775   6.939  70.544  1.00  0.00    -0.267 C  
HETATM   10  C   UNL     1      -9.522   7.206  71.363  1.00  0.00    -0.161 C  
HETATM   11  C   UNL     1      -9.286   8.640  71.731  1.00  0.00    -0.343 C  
HETATM   12  O   UNL     1      -8.799   6.306  71.756  1.00  0.00    -0.137 OA 
HETATM   13  C   UNL     1     -10.091   9.636  71.300  1.00  0.00    -0.026 C  
HETATM   14  C   UNL     1     -11.302   9.386  70.380  1.00  0.00    -0.295 C  
HETATM   15  C   UNL     1     -11.689  10.473  69.265  1.00  0.00    -0.209 C  
HETATM   16  C   UNL     1     -12.532   9.263  71.319  1.00  0.00    -0.389 C  
HETATM   17  F   UNL     1     -12.964  10.105  68.838  1.00  0.00     0.864 F  
HETATM   18  C   UNL     1     -11.872  11.944  69.728  1.00  0.00    -0.340 C  
HETATM   19  C   UNL     1     -12.238  12.872  68.533  1.00  0.00    -0.003 C  
HETATM   20  O   UNL     1     -10.793  12.450  70.498  1.00  0.00     0.802 OA 
HETATM   21  C   UNL     1     -11.210  13.098  67.337  1.00  0.00    -0.319 C  
HETATM   22  H   UNL     1     -10.904  13.350  70.781  1.00  0.00     0.000 HD 
HETATM   23  C   UNL     1     -10.619  14.353  68.244  1.00  0.00    -0.243 C  
HETATM   24  C   UNL     1      -9.941  13.405  66.294  1.00  0.00    -0.296 C  
HETATM   25  O   UNL     1      -8.670  13.807  66.867  1.00  0.00    -0.219 OA 
HETATM   26  C   UNL     1      -8.246  12.228  68.729  1.00  0.00     0.081 C  
HETATM   27  O   UNL     1      -8.442  11.559  66.410  1.00  0.00    -0.175 OA 
HETATM   28  C   UNL     1      -7.984  12.604  67.270  1.00  0.00    -0.166 C  
HETATM   29  C   UNL     1      -6.465  12.739  67.234  1.00  0.00    -0.073 C  
ENDROOT
BRANCH  24  30
HETATM   30  C   UNL     1     -10.648  14.363  65.242  1.00  0.00    -0.382 C  
HETATM   31  O   UNL     1     -11.610  13.957  64.567  1.00  0.00    -0.368 OA 
BRANCH  30  32
HETATM   32  C   UNL     1     -10.176  15.804  65.024  1.00  0.00    -0.111 C  
BRANCH  32  33
HETATM   33  O   UNL     1     -11.012  16.755  65.739  1.00  0.00    -0.132 OA 
BRANCH  33  34
HETATM   34  C   UNL     1     -10.384  17.908  66.120  1.00  0.00    -0.352 C  
HETATM   35  C   UNL     1      -9.458  17.718  67.279  1.00  0.00    -0.255 C  
HETATM   36  O   UNL     1     -10.555  18.996  65.563  1.00  0.00    -0.557 OA 
ENDBRANCH  33  34
ENDBRANCH  32  33
ENDBRANCH  30  32
ENDBRANCH  24  30
TORSDOF 4
ENDMDL
MODEL       68
REMARK 921   NORMALIZED FREE ENERGY PREDICTED BY IDOCK:   -4.32 KCAL/MOL
REMARK 922        TOTAL FREE ENERGY PREDICTED BY IDOCK:   -5.96 KCAL/MOL
REMARK 923 INTER-LIGAND FREE ENERGY PREDICTED BY IDOCK:   -5.98 KCAL/MOL
REMARK 924 INTRA-LIGAND FREE ENERGY PREDICTED BY IDOCK:    0.02 KCAL/MOL
REMARK 927      BINDING AFFINITY PREDICTED BY RF-SCORE:    0.00 PKD
ROOT
HETATM    1  C   UNL     1      -8.298   7.582  66.097  1.00  0.00    -0.138 C  
HETATM    2  C   UNL     1      -7.949   8.766  66.917  1.00  0.00    -0.098 C  
HETATM    3  C   UNL     1      -7.841   8.176  68.327  1.00  0.00    -0.122 C  
HETATM    4  C   UNL     1      -9.154   8.252  69.165  1.00  0.00    -0.148 C  
HETATM    5  C   UNL     1      -9.890   9.605  69.077  1.00  0.00    -0.183 C  
HETATM    6  C   UNL     1     -11.247   9.452  69.740  1.00  0.00    -0.114 C  
HETATM    7  F   UNL     1     -11.967  10.582  69.502  1.00  0.00    -0.309 F  
HETATM    8  C   UNL     1     -11.093   9.205  71.222  1.00  0.00    -0.405 C  
HETATM    9  C   UNL     1     -12.178   9.465  71.991  1.00  0.00    -0.396 C  
HETATM   10  C   UNL     1     -13.140   8.291  71.907  1.00  0.00    -0.344 C  
HETATM   11  C   UNL     1     -12.501   6.944  71.749  1.00  0.00    -0.397 C  
HETATM   12  O   UNL     1     -14.346   8.428  72.035  1.00  0.00    -0.433 OA 
HETATM   13  C   UNL     1     -11.166   6.792  71.612  1.00  0.00    -0.293 C  
HETATM   14  C   UNL     1     -10.192   7.987  71.588  1.00  0.00    -0.256 C  
HETATM   15  C   UNL     1      -8.890   7.930  70.651  1.00  0.00    -0.140 C  
HETATM   16  C   UNL     1      -9.679   8.148  73.044  1.00  0.00    -0.327 C  
HETATM   17  F   UNL     1      -8.094   8.989  71.086  1.00  0.00    -0.148 F  
HETATM   18  C   UNL     1      -7.959   6.695  70.790  1.00  0.00    -0.111 C  
HETATM   19  C   UNL     1      -6.750   6.787  69.813  1.00  0.00    -0.050 C  
HETATM   20  O   UNL     1      -8.631   5.447  70.707  1.00  0.00    -0.123 OA 
HETATM   21  C   UNL     1      -6.977   6.770  68.236  1.00  0.00    -0.080 C  
HETATM   22  H   UNL     1      -8.061   4.692  70.791  1.00  0.00     0.000 HD 
HETATM   23  C   UNL     1      -6.865   5.121  68.360  1.00  0.00    -0.056 C  
HETATM   24  C   UNL     1      -7.369   6.509  66.633  1.00  0.00    -0.078 C  
HETATM   25  O   UNL     1      -8.184   5.352  66.310  1.00  0.00    -0.108 OA 
HETATM   26  C   UNL     1     -10.050   5.373  67.942  1.00  0.00    -0.215 C  
HETATM   27  O   UNL     1      -9.646   7.135  66.331  1.00  0.00    -0.168 OA 
HETATM   28  C   UNL     1      -9.559   5.724  66.536  1.00  0.00    -0.156 C  
HETATM   29  C   UNL     1     -10.540   4.964  65.648  1.00  0.00    -0.165 C  
ENDROOT
BRANCH  24  30
HETATM   30  C   UNL     1      -5.941   6.658  65.952  1.00  0.00    -0.030 C  
HETATM   31  O   UNL     1      -5.234   5.656  65.749  1.00  0.00    -0.009 OA 
BRANCH  30  32
HETATM   32  C   UNL     1      -5.392   8.022  65.526  1.00  0.00    -0.029 C  
BRANCH  32  33
HETATM   33  O   UNL     1      -5.308   8.136  64.078  1.00  0.00    -0.040 OA 
BRANCH  33  34
HETATM   34  C   UNL     1      -6.255   8.936  63.502  1.00  0.00    -0.088 C  
HETATM   35  C   UNL     1      -7.066   8.231  62.462  1.00  0.00    -0.091 C  
HETATM   36  O   UNL     1      -6.432  10.118  63.812  1.00  0.00    -0.131 OA 
ENDBRANCH  33  34
ENDBRANCH  32  33
ENDBRANCH  30  32
ENDBRANCH  24  30
TORSDOF 4
ENDMDL
MODEL       69
REMARK 921   NORMALIZED FREE ENERGY PREDICTED BY IDOCK:   -4.29 KCAL/MOL
REMARK 922        TOTAL FREE ENERGY PREDICTED BY IDOCK:   -5.92 KCAL/MOL
REMARK 923 INTER-LIGAND FREE ENERGY PREDICTED BY IDOCK:   -5.33 KCAL/MOL
REMARK 924 INTRA-LIGAND FREE ENERGY PREDICTED BY IDOCK:   -0.59 KCAL/MOL
REMARK 927      BINDING AFFINITY PREDICTED BY RF-SCORE:    0.00 PKD
ROOT
HETATM    1  C   UNL     1      -8.905   6.987  71.675  1.00  0.00    -0.130 C  
HETATM    2  C   UNL     1     -10.214   6.918  70.984  1.00  0.00    -0.213 C  
HETATM    3  C   UNL     1      -9.871   7.396  69.570  1.00  0.00    -0.165 C  
HETATM    4  C   UNL     1     -10.070   8.925  69.335  1.00  0.00    -0.202 C  
HETATM    5  C   UNL     1     -11.380   9.496  69.918  1.00  0.00    -0.161 C  
HETATM    6  C   UNL     1     -11.323  11.009  69.822  1.00  0.00    -0.292 C  
HETATM    7  F   UNL     1     -12.388  11.519  70.500  1.00  0.00    -0.383 F  
HETATM    8  C   UNL     1     -11.331  11.454  68.379  1.00  0.00    -0.346 C  
HETATM    9  C   UNL     1     -11.703  12.736  68.147  1.00  0.00    -0.392 C  
HETATM   10  C   UNL     1     -10.520  13.653  68.411  1.00  0.00    -0.246 C  
HETATM   11  C   UNL     1      -9.174  13.077  68.089  1.00  0.00    -0.212 C  
HETATM   12  O   UNL     1     -10.661  14.805  68.787  1.00  0.00    -0.237 OA 
HETATM   13  C   UNL     1      -9.018  11.803  67.668  1.00  0.00    -0.169 C  
HETATM   14  C   UNL     1     -10.204  10.833  67.501  1.00  0.00    -0.231 C  
HETATM   15  C   UNL     1     -10.006   9.275  67.833  1.00  0.00    -0.187 C  
HETATM   16  C   UNL     1     -10.615  10.914  66.006  1.00  0.00    -0.254 C  
HETATM   17  F   UNL     1     -11.134   8.652  67.297  1.00  0.00    -0.266 F  
HETATM   18  C   UNL     1      -8.824   8.538  67.146  1.00  0.00    -0.129 C  
HETATM   19  C   UNL     1      -8.766   7.042  67.574  1.00  0.00    -0.120 C  
HETATM   20  O   UNL     1      -7.572   9.192  67.284  1.00  0.00    -0.087 OA 
HETATM   21  C   UNL     1      -8.481   6.642  69.090  1.00  0.00    -0.124 C  
HETATM   22  H   UNL     1      -6.849   8.741  66.865  1.00  0.00     0.000 HD 
HETATM   23  C   UNL     1      -6.878   6.676  68.671  1.00  0.00    -0.070 C  
HETATM   24  C   UNL     1      -7.949   6.397  70.655  1.00  0.00    -0.112 C  
HETATM   25  O   UNL     1      -6.744   7.085  71.081  1.00  0.00    -0.054 OA 
HETATM   26  C   UNL     1      -7.015   9.433  70.333  1.00  0.00    -0.100 C  
HETATM   27  O   UNL     1      -8.486   8.342  71.918  1.00  0.00    -0.148 OA 
HETATM   28  C   UNL     1      -7.131   8.418  71.472  1.00  0.00    -0.085 C  
HETATM   29  C   UNL     1      -6.220   9.019  72.538  1.00  0.00     0.049 C  
ENDROOT
BRANCH  24  30
HETATM   30  C   UNL     1      -7.999   4.811  70.739  1.00  0.00    -0.081 C  
HETATM   31  O   UNL     1      -8.915   4.180  70.186  1.00  0.00    -0.077 OA 
BRANCH  30  32
HETATM   32  C   UNL     1      -6.933   4.013  71.496  1.00  0.00    -0.035 C  
BRANCH  32  33
HETATM   33  O   UNL     1      -5.752   3.787  70.677  1.00  0.00    -0.012 OA 
BRANCH  33  34
HETATM   34  C   UNL     1      -5.850   2.750  69.791  1.00  0.00    -0.022 C  
HETATM   35  C   UNL     1      -5.449   3.127  68.400  1.00  0.00    -0.017 C  
HETATM   36  O   UNL     1      -6.222   1.616  70.105  1.00  0.00    -0.022 OA 
ENDBRANCH  33  34
ENDBRANCH  32  33
ENDBRANCH  30  32
ENDBRANCH  24  30
TORSDOF 4
ENDMDL
MODEL       70
REMARK 921   NORMALIZED FREE ENERGY PREDICTED BY IDOCK:   -4.26 KCAL/MOL
REMARK 922        TOTAL FREE ENERGY PREDICTED BY IDOCK:   -5.88 KCAL/MOL
REMARK 923 INTER-LIGAND FREE ENERGY PREDICTED BY IDOCK:   -5.42 KCAL/MOL
REMARK 924 INTRA-LIGAND FREE ENERGY PREDICTED BY IDOCK:   -0.46 KCAL/MOL
REMARK 927      BINDING AFFINITY PREDICTED BY RF-SCORE:    0.00 PKD
ROOT
HETATM    1  C   UNL     1      -7.636   6.305  67.237  1.00  0.00    -0.093 C  
HETATM    2  C   UNL     1      -7.128   7.231  68.277  1.00  0.00    -0.081 C  
HETATM    3  C   UNL     1      -7.640   6.592  69.572  1.00  0.00    -0.095 C  
HETATM    4  C   UNL     1      -9.017   7.136  70.064  1.00  0.00    -0.142 C  
HETATM    5  C   UNL     1      -9.160   8.670  69.991  1.00  0.00    -0.157 C  
HETATM    6  C   UNL     1     -10.608   9.027  70.272  1.00  0.00    -0.217 C  
HETATM    7  F   UNL     1     -10.775  10.355  70.027  1.00  0.00    -0.276 F  
HETATM    8  C   UNL     1     -10.976   8.684  71.696  1.00  0.00    -0.378 C  
HETATM    9  C   UNL     1     -12.064   9.312  72.204  1.00  0.00    -0.353 C  
HETATM   10  C   UNL     1     -13.319   8.603  71.722  1.00  0.00    -0.374 C  
HETATM   11  C   UNL     1     -13.191   7.122  71.536  1.00  0.00    -0.419 C  
HETATM   12  O   UNL     1     -14.378   9.189  71.569  1.00  0.00    -0.209 OA 
HETATM   13  C   UNL     1     -12.019   6.472  71.711  1.00  0.00    -0.394 C  
HETATM   14  C   UNL     1     -10.716   7.200  72.096  1.00  0.00    -0.245 C  
HETATM   15  C   UNL     1      -9.316   6.681  71.508  1.00  0.00    -0.153 C  
HETATM   16  C   UNL     1     -10.610   7.096  73.641  1.00  0.00    -0.375 C  
HETATM   17  F   UNL     1      -8.347   7.334  72.270  1.00  0.00    -0.102 F  
HETATM   18  C   UNL     1      -8.970   5.179  71.694  1.00  0.00    -0.134 C  
HETATM   19  C   UNL     1      -7.588   4.835  71.068  1.00  0.00    -0.076 C  
HETATM   20  O   UNL     1      -9.994   4.290  71.273  1.00  0.00    -0.186 OA 
HETATM   21  C   UNL     1      -7.353   4.966  69.497  1.00  0.00    -0.056 C  
HETATM   22  H   UNL     1      -9.783   3.371  71.387  1.00  0.00     0.000 HD 
HETATM   23  C   UNL     1      -7.881   3.398  69.409  1.00  0.00    -0.054 C  
HETATM   24  C   UNL     1      -7.346   4.937  67.827  1.00  0.00    -0.074 C  
HETATM   25  O   UNL     1      -8.397   4.197  67.153  1.00  0.00    -0.100 OA 
HETATM   26  C   UNL     1     -10.507   4.873  68.263  1.00  0.00     0.060 C  
HETATM   27  O   UNL     1      -9.061   6.403  67.067  1.00  0.00    -0.122 OA 
HETATM   28  C   UNL     1      -9.550   5.061  67.085  1.00  0.00    -0.152 C  
HETATM   29  C   UNL     1     -10.447   4.771  65.885  1.00  0.00    -0.313 C  
ENDROOT
BRANCH  24  30
HETATM   30  C   UNL     1      -5.830   4.550  67.544  1.00  0.00    -0.023 C  
HETATM   31  O   UNL     1      -5.140   4.021  68.432  1.00  0.00    -0.006 OA 
BRANCH  30  32
HETATM   32  C   UNL     1      -5.175   4.811  66.185  1.00  0.00    -0.009 C  
BRANCH  32  33
HETATM   33  O   UNL     1      -5.918   4.185  65.103  1.00  0.00    -0.021 OA 
BRANCH  33  34
HETATM   34  C   UNL     1      -6.086   4.959  63.989  1.00  0.00    -0.022 C  
HETATM   35  C   UNL     1      -7.521   5.261  63.693  1.00  0.00    -0.055 C  
HETATM   36  O   UNL     1      -5.151   5.376  63.299  1.00  0.00    -0.009 OA 
ENDBRANCH  33  34
ENDBRANCH  32  33
ENDBRANCH  30  32
ENDBRANCH  24  30
TORSDOF 4
ENDMDL
MODEL       71
REMARK 921   NORMALIZED FREE ENERGY PREDICTED BY IDOCK:   -4.23 KCAL/MOL
REMARK 922        TOTAL FREE ENERGY PREDICTED BY IDOCK:   -5.85 KCAL/MOL
REMARK 923 INTER-LIGAND FREE ENERGY PREDICTED BY IDOCK:   -5.69 KCAL/MOL
REMARK 924 INTRA-LIGAND FREE ENERGY PREDICTED BY IDOCK:   -0.16 KCAL/MOL
REMARK 927      BINDING AFFINITY PREDICTED BY RF-SCORE:    0.00 PKD
ROOT
HETATM    1  C   UNL     1      -8.333  10.387  66.387  1.00  0.00    -0.139 C  
HETATM    2  C   UNL     1      -7.797  10.966  67.642  1.00  0.00    -0.113 C  
HETATM    3  C   UNL     1      -8.973  11.804  68.152  1.00  0.00    -0.181 C  
HETATM    4  C   UNL     1      -8.948  13.298  67.705  1.00  0.00    -0.196 C  
HETATM    5  C   UNL     1      -7.566  13.975  67.817  1.00  0.00    -0.177 C  
HETATM    6  C   UNL     1      -7.642  15.329  67.136  1.00  0.00    -0.189 C  
HETATM    7  F   UNL     1      -6.385  15.844  67.071  1.00  0.00    -0.201 F  
HETATM    8  C   UNL     1      -8.573  16.252  67.886  1.00  0.00    -0.173 C  
HETATM    9  C   UNL     1      -8.419  17.578  67.654  1.00  0.00    -0.215 C  
HETATM   10  C   UNL     1      -9.124  17.941  66.357  1.00  0.00    -0.235 C  
HETATM   11  C   UNL     1     -10.362  17.153  66.053  1.00  0.00    -0.317 C  
HETATM   12  O   UNL     1      -8.749  18.862  65.649  1.00  0.00    -0.296 OA 
HETATM   13  C   UNL     1     -10.780  16.137  66.839  1.00  0.00    -0.247 C  
HETATM   14  C   UNL     1     -10.011  15.692  68.099  1.00  0.00    -0.217 C  
HETATM   15  C   UNL     1      -9.973  14.138  68.497  1.00  0.00    -0.235 C  
HETATM   16  C   UNL     1     -10.678  16.433  69.290  1.00  0.00    -0.325 C  
HETATM   17  F   UNL     1      -9.484  14.117  69.803  1.00  0.00     0.316 F  
HETATM   18  C   UNL     1     -11.330  13.390  68.606  1.00  0.00    -0.286 C  
HETATM   19  C   UNL     1     -11.122  11.896  68.992  1.00  0.00    -0.300 C  
HETATM   20  O   UNL     1     -12.173  13.547  67.475  1.00  0.00    -0.325 OA 
HETATM   21  C   UNL     1     -10.352  10.904  68.011  1.00  0.00    -0.212 C  
HETATM   22  H   UNL     1     -13.003  13.089  67.542  1.00  0.00     0.000 HD 
HETATM   23  C   UNL     1     -11.838  10.614  67.335  1.00  0.00     0.817 C  
HETATM   24  C   UNL     1      -9.734   9.958  66.781  1.00  0.00    -0.192 C  
HETATM   25  O   UNL     1     -10.353  10.053  65.471  1.00  0.00    -0.241 OA 
HETATM   26  C   UNL     1     -10.593  12.479  65.020  1.00  0.00    -0.329 C  
HETATM   27  O   UNL     1      -8.465  11.370  65.345  1.00  0.00     0.029 OA 
HETATM   28  C   UNL     1      -9.779  11.200  64.812  1.00  0.00    -0.257 C  
HETATM   29  C   UNL     1      -9.758  11.071  63.292  1.00  0.00    -0.396 C  
ENDROOT
BRANCH  24  30
HETATM   30  C   UNL     1      -9.671   8.542  67.499  1.00  0.00    -0.162 C  
HETATM   31  O   UNL     1      -9.782   8.458  68.734  1.00  0.00    -0.158 OA 
BRANCH  30  32
HETATM   32  C   UNL     1      -9.475   7.247  66.706  1.00  0.00    -0.171 C  
BRANCH  32  33
HETATM   33  O   UNL     1      -8.758   6.247  67.483  1.00  0.00    -0.108 OA 
BRANCH  33  34
HETATM   34  C   UNL     1      -7.541   6.647  67.962  1.00  0.00    -0.107 C  
HETATM   35  C   UNL     1      -7.311   6.252  69.386  1.00  0.00    -0.091 C  
HETATM   36  O   UNL     1      -6.710   7.264  67.288  1.00  0.00    -0.063 OA 
ENDBRANCH  33  34
ENDBRANCH  32  33
ENDBRANCH  30  32
ENDBRANCH  24  30
TORSDOF 4
ENDMDL
MODEL       72
REMARK 921   NORMALIZED FREE ENERGY PREDICTED BY IDOCK:   -4.22 KCAL/MOL
REMARK 922        TOTAL FREE ENERGY PREDICTED BY IDOCK:   -5.83 KCAL/MOL
REMARK 923 INTER-LIGAND FREE ENERGY PREDICTED BY IDOCK:   -5.39 KCAL/MOL
REMARK 924 INTRA-LIGAND FREE ENERGY PREDICTED BY IDOCK:   -0.45 KCAL/MOL
REMARK 927      BINDING AFFINITY PREDICTED BY RF-SCORE:    0.00 PKD
ROOT
HETATM    1  C   UNL     1      -9.950  10.131  66.729  1.00  0.00    -0.211 C  
HETATM    2  C   UNL     1     -11.028   9.186  67.109  1.00  0.00     0.074 C  
HETATM    3  C   UNL     1     -10.369   8.356  68.216  1.00  0.00    -0.244 C  
HETATM    4  C   UNL     1      -9.687   7.043  67.723  1.00  0.00    -0.156 C  
HETATM    5  C   UNL     1     -10.517   6.235  66.705  1.00  0.00    -0.311 C  
HETATM    6  C   UNL     1      -9.640   5.128  66.148  1.00  0.00    -0.164 C  
HETATM    7  F   UNL     1     -10.307   4.533  65.122  1.00  0.00    -0.214 F  
HETATM    8  C   UNL     1      -9.292   4.129  67.225  1.00  0.00    -0.200 C  
HETATM    9  C   UNL     1      -8.887   2.906  66.802  1.00  0.00    -0.153 C  
HETATM   10  C   UNL     1      -7.421   2.976  66.408  1.00  0.00    -0.076 C  
HETATM   11  C   UNL     1      -6.584   3.930  67.205  1.00  0.00    -0.046 C  
HETATM   12  O   UNL     1      -6.943   2.249  65.552  1.00  0.00    -0.048 OA 
HETATM   13  C   UNL     1      -7.112   4.730  68.156  1.00  0.00    -0.061 C  
HETATM   14  C   UNL     1      -8.617   4.743  68.488  1.00  0.00    -0.101 C  
HETATM   15  C   UNL     1      -9.324   6.122  68.907  1.00  0.00    -0.124 C  
HETATM   16  C   UNL     1      -8.798   3.775  69.688  1.00  0.00    -0.148 C  
HETATM   17  F   UNL     1     -10.563   5.742  69.425  1.00  0.00    -0.263 F  
HETATM   18  C   UNL     1      -8.682   6.937  70.063  1.00  0.00    -0.142 C  
HETATM   19  C   UNL     1      -9.480   8.244  70.343  1.00  0.00    -0.172 C  
HETATM   20  O   UNL     1      -7.292   7.172  69.906  1.00  0.00    -0.080 OA 
HETATM   21  C   UNL     1      -9.579   9.387  69.237  1.00  0.00    -0.171 C  
HETATM   22  H   UNL     1      -6.899   7.671  70.612  1.00  0.00     0.000 HD 
HETATM   23  C   UNL     1      -8.187   9.988  69.908  1.00  0.00    -0.175 C  
HETATM   24  C   UNL     1      -9.392  10.568  68.070  1.00  0.00    -0.145 C  
HETATM   25  O   UNL     1      -8.044  10.889  67.636  1.00  0.00    -0.113 OA 
HETATM   26  C   UNL     1      -6.936   8.710  67.227  1.00  0.00    -0.075 C  
HETATM   27  O   UNL     1      -8.884   9.483  66.013  1.00  0.00    -0.143 OA 
HETATM   28  C   UNL     1      -7.674   9.914  66.640  1.00  0.00    -0.106 C  
HETATM   29  C   UNL     1      -6.671  10.447  65.622  1.00  0.00    -0.127 C  
ENDROOT
BRANCH  24  30
HETATM   30  C   UNL     1     -10.301  11.724  68.671  1.00  0.00    -0.214 C  
HETATM   31  O   UNL     1     -10.971  11.528  69.699  1.00  0.00    -0.181 OA 
BRANCH  30  32
HETATM   32  C   UNL     1     -10.385  13.104  68.012  1.00  0.00    -0.238 C  
BRANCH  32  33
HETATM   33  O   UNL     1     -10.145  14.171  68.972  1.00  0.00    -0.193 OA 
BRANCH  33  34
HETATM   34  C   UNL     1      -9.069  14.968  68.697  1.00  0.00    -0.191 C  
HETATM   35  C   UNL     1      -8.402  14.630  67.401  1.00  0.00    -0.223 C  
HETATM   36  O   UNL     1      -8.688  15.881  69.435  1.00  0.00    -0.253 OA 
ENDBRANCH  33  34
ENDBRANCH  32  33
ENDBRANCH  30  32
ENDBRANCH  24  30
TORSDOF 4
ENDMDL
MODEL       73
REMARK 921   NORMALIZED FREE ENERGY PREDICTED BY IDOCK:   -4.13 KCAL/MOL
REMARK 922        TOTAL FREE ENERGY PREDICTED BY IDOCK:   -5.73 KCAL/MOL
REMARK 923 INTER-LIGAND FREE ENERGY PREDICTED BY IDOCK:   -5.12 KCAL/MOL
REMARK 924 INTRA-LIGAND FREE ENERGY PREDICTED BY IDOCK:   -0.61 KCAL/MOL
REMARK 927      BINDING AFFINITY PREDICTED BY RF-SCORE:    0.00 PKD
ROOT
HETATM    1  C   UNL     1      -8.694  10.406  69.082  1.00  0.00    -0.166 C  
HETATM    2  C   UNL     1      -7.460   9.599  68.932  1.00  0.00    -0.075 C  
HETATM    3  C   UNL     1      -8.008   8.219  68.554  1.00  0.00    -0.122 C  
HETATM    4  C   UNL     1      -8.233   7.257  69.761  1.00  0.00    -0.130 C  
HETATM    5  C   UNL     1      -7.084   7.245  70.791  1.00  0.00    -0.065 C  
HETATM    6  C   UNL     1      -7.542   6.457  72.005  1.00  0.00    -0.095 C  
HETATM    7  F   UNL     1      -6.607   6.601  72.983  1.00  0.00    -0.064 F  
HETATM    8  C   UNL     1      -7.744   5.003  71.653  1.00  0.00    -0.106 C  
HETATM    9  C   UNL     1      -7.738   4.128  72.688  1.00  0.00    -0.079 C  
HETATM   10  C   UNL     1      -9.101   4.142  73.361  1.00  0.00    -0.102 C  
HETATM   11  C   UNL     1     -10.266   4.390  72.451  1.00  0.00    -0.255 C  
HETATM   12  O   UNL     1      -9.242   3.896  74.547  1.00  0.00    -0.097 OA 
HETATM   13  C   UNL     1     -10.110   4.658  71.136  1.00  0.00    -0.243 C  
HETATM   14  C   UNL     1      -8.724   4.751  70.467  1.00  0.00    -0.130 C  
HETATM   15  C   UNL     1      -8.484   5.810  69.285  1.00  0.00    -0.108 C  
HETATM   16  C   UNL     1      -8.447   3.348  69.863  1.00  0.00    -0.091 C  
HETATM   17  F   UNL     1      -7.270   5.432  68.711  1.00  0.00    -0.059 F  
HETATM   18  C   UNL     1      -9.473   5.788  68.088  1.00  0.00    -0.111 C  
HETATM   19  C   UNL     1      -9.109   6.874  67.035  1.00  0.00    -0.146 C  
HETATM   20  O   UNL     1     -10.841   5.832  68.464  1.00  0.00    -0.247 OA 
HETATM   21  C   UNL     1      -9.179   8.422  67.406  1.00  0.00    -0.163 C  
HETATM   22  H   UNL     1     -11.446   5.819  67.732  1.00  0.00     0.000 HD 
HETATM   23  C   UNL     1     -10.759   8.345  66.910  1.00  0.00    -0.163 C  
HETATM   24  C   UNL     1      -9.525   9.985  67.885  1.00  0.00    -0.144 C  
HETATM   25  O   UNL     1     -10.839  10.252  68.444  1.00  0.00    -0.215 OA 
HETATM   26  C   UNL     1     -11.242   8.448  70.095  1.00  0.00    -0.136 C  
HETATM   27  O   UNL     1      -9.437  10.053  70.263  1.00  0.00    -0.179 OA 
HETATM   28  C   UNL     1     -10.790   9.887  69.838  1.00  0.00    -0.278 C  
HETATM   29  C   UNL     1     -11.756  10.692  70.703  1.00  0.00    -0.454 C  
ENDROOT
BRANCH  24  30
HETATM   30  C   UNL     1      -9.056  10.798  66.603  1.00  0.00    -0.159 C  
HETATM   31  O   UNL     1      -9.049  12.040  66.614  1.00  0.00    -0.198 OA 
BRANCH  30  32
HETATM   32  C   UNL     1      -8.602  10.088  65.324  1.00  0.00    -0.154 C  
BRANCH  32  33
HETATM   33  O   UNL     1      -7.171  10.234  65.111  1.00  0.00    -0.139 OA 
BRANCH  33  34
HETATM   34  C   UNL     1      -6.554   9.149  64.552  1.00  0.00    -0.079 C  
HETATM   35  C   UNL     1      -7.511   8.191  63.916  1.00  0.00    -0.116 C  
HETATM   36  O   UNL     1      -5.332   8.977  64.562  1.00  0.00    -0.052 OA 
ENDBRANCH  33  34
ENDBRANCH  32  33
ENDBRANCH  30  32
ENDBRANCH  24  30
TORSDOF 4
ENDMDL
MODEL       74
REMARK 921   NORMALIZED FREE ENERGY PREDICTED BY IDOCK:   -4.10 KCAL/MOL
REMARK 922        TOTAL FREE ENERGY PREDICTED BY IDOCK:   -5.69 KCAL/MOL
REMARK 923 INTER-LIGAND FREE ENERGY PREDICTED BY IDOCK:   -5.36 KCAL/MOL
REMARK 924 INTRA-LIGAND FREE ENERGY PREDICTED BY IDOCK:   -0.33 KCAL/MOL
REMARK 927      BINDING AFFINITY PREDICTED BY RF-SCORE:    0.00 PKD
ROOT
HETATM    1  C   UNL     1      -6.872   8.214  66.996  1.00  0.00    -0.070 C  
HETATM    2  C   UNL     1      -6.314   7.626  68.237  1.00  0.00    -0.041 C  
HETATM    3  C   UNL     1      -7.318   6.516  68.561  1.00  0.00    -0.087 C  
HETATM    4  C   UNL     1      -8.463   6.939  69.532  1.00  0.00    -0.133 C  
HETATM    5  C   UNL     1      -7.997   7.773  70.743  1.00  0.00    -0.101 C  
HETATM    6  C   UNL     1      -9.228   8.303  71.457  1.00  0.00    -0.177 C  
HETATM    7  F   UNL     1      -8.820   9.185  72.410  1.00  0.00    -0.130 F  
HETATM    8  C   UNL     1     -10.022   7.171  72.065  1.00  0.00    -0.178 C  
HETATM    9  C   UNL     1     -10.880   7.505  73.059  1.00  0.00    -0.445 C  
HETATM   10  C   UNL     1     -12.158   8.057  72.449  1.00  0.00    -0.321 C  
HETATM   11  C   UNL     1     -12.556   7.457  71.134  1.00  0.00    -0.330 C  
HETATM   12  O   UNL     1     -12.851   8.879  73.026  1.00  0.00    -0.271 OA 
HETATM   13  C   UNL     1     -11.792   6.543  70.498  1.00  0.00    -0.393 C  
HETATM   14  C   UNL     1     -10.440   6.057  71.059  1.00  0.00    -0.285 C  
HETATM   15  C   UNL     1      -9.242   5.711  70.049  1.00  0.00    -0.144 C  
HETATM   16  C   UNL     1     -10.748   4.750  71.839  1.00  0.00    -0.079 C  
HETATM   17  F   UNL     1      -8.308   5.027  70.828  1.00  0.00    -0.096 F  
HETATM   18  C   UNL     1      -9.541   4.721  68.891  1.00  0.00    -0.162 C  
HETATM   19  C   UNL     1      -8.283   4.495  68.001  1.00  0.00    -0.094 C  
HETATM   20  O   UNL     1     -10.693   5.048  68.129  1.00  0.00     0.049 OA 
HETATM   21  C   UNL     1      -7.653   5.696  67.166  1.00  0.00    -0.096 C  
HETATM   22  H   UNL     1     -10.876   4.443  67.420  1.00  0.00     0.000 HD 
HETATM   23  C   UNL     1      -8.696   5.243  65.959  1.00  0.00    -0.137 C  
HETATM   24  C   UNL     1      -7.264   6.993  66.187  1.00  0.00    -0.074 C  
HETATM   25  O   UNL     1      -8.326   7.599  65.404  1.00  0.00    -0.135 OA 
HETATM   26  C   UNL     1     -10.225   7.894  66.969  1.00  0.00    -0.382 C  
HETATM   27  O   UNL     1      -8.072   8.969  67.241  1.00  0.00    -0.103 OA 
HETATM   28  C   UNL     1      -9.019   8.522  66.269  1.00  0.00    -0.168 C  
HETATM   29  C   UNL     1      -9.649   9.691  65.518  1.00  0.00    -0.351 C  
ENDROOT
BRANCH  24  30
HETATM   30  C   UNL     1      -5.986   6.423  65.435  1.00  0.00    -0.029 C  
HETATM   31  O   UNL     1      -5.517   5.314  65.743  1.00  0.00    -0.012 OA 
BRANCH  30  32
HETATM   32  C   UNL     1      -5.292   7.210  64.319  1.00  0.00    -0.029 C  
BRANCH  32  33
HETATM   33  O   UNL     1      -5.939   6.998  63.034  1.00  0.00    -0.039 OA 
BRANCH  33  34
HETATM   34  C   UNL     1      -6.900   7.916  62.709  1.00  0.00    -0.084 C  
HETATM   35  C   UNL     1      -6.415   9.329  62.795  1.00  0.00    -0.093 C  
HETATM   36  O   UNL     1      -8.047   7.614  62.370  1.00  0.00    -0.138 OA 
ENDBRANCH  33  34
ENDBRANCH  32  33
ENDBRANCH  30  32
ENDBRANCH  24  30
TORSDOF 4
ENDMDL
MODEL       75
REMARK 921   NORMALIZED FREE ENERGY PREDICTED BY IDOCK:   -4.04 KCAL/MOL
REMARK 922        TOTAL FREE ENERGY PREDICTED BY IDOCK:   -5.61 KCAL/MOL
REMARK 923 INTER-LIGAND FREE ENERGY PREDICTED BY IDOCK:   -6.05 KCAL/MOL
REMARK 924 INTRA-LIGAND FREE ENERGY PREDICTED BY IDOCK:    0.44 KCAL/MOL
REMARK 927      BINDING AFFINITY PREDICTED BY RF-SCORE:    0.00 PKD
ROOT
HETATM    1  C   UNL     1     -10.321  11.087  69.034  1.00  0.00    -0.209 C  
HETATM    2  C   UNL     1     -11.638  11.735  68.832  1.00  0.00    -0.370 C  
HETATM    3  C   UNL     1     -11.489  12.373  67.447  1.00  0.00    -0.418 C  
HETATM    4  C   UNL     1     -11.003  13.856  67.465  1.00  0.00    -0.288 C  
HETATM    5  C   UNL     1     -11.695  14.741  68.522  1.00  0.00    -0.347 C  
HETATM    6  C   UNL     1     -10.965  16.071  68.580  1.00  0.00    -0.326 C  
HETATM    7  F   UNL     1     -11.454  16.780  69.634  1.00  0.00    -0.164 F  
HETATM    8  C   UNL     1     -11.135  16.830  67.285  1.00  0.00     0.076 C  
HETATM    9  C   UNL     1     -10.910  18.166  67.338  1.00  0.00    -0.258 C  
HETATM   10  C   UNL     1      -9.413  18.421  67.278  1.00  0.00    -0.278 C  
HETATM   11  C   UNL     1      -8.626  17.449  66.452  1.00  0.00    -0.282 C  
HETATM   12  O   UNL     1      -8.898  19.394  67.804  1.00  0.00    -0.299 OA 
HETATM   13  C   UNL     1      -9.197  16.375  65.865  1.00  0.00    -0.234 C  
HETATM   14  C   UNL     1     -10.697  16.049  66.010  1.00  0.00    -0.271 C  
HETATM   15  C   UNL     1     -11.172  14.517  66.081  1.00  0.00    -0.339 C  
HETATM   16  C   UNL     1     -11.391  16.667  64.766  1.00  0.00     0.021 C  
HETATM   17  F   UNL     1     -12.554  14.566  65.900  1.00  0.00    -0.380 F  
HETATM   18  C   UNL     1     -10.692  13.563  64.953  1.00  0.00    -0.381 C  
HETATM   19  C   UNL     1     -11.231  12.119  65.168  1.00  0.00    -0.378 C  
HETATM   20  O   UNL     1      -9.292  13.592  64.723  1.00  0.00    -0.023 OA 
HETATM   21  C   UNL     1     -10.788  11.267  66.439  1.00  0.00    -0.306 C  
HETATM   22  H   UNL     1      -8.999  13.008  64.033  1.00  0.00     0.000 HD 
HETATM   23  C   UNL     1      -9.523  10.750  65.501  1.00  0.00    -0.253 C  
HETATM   24  C   UNL     1     -10.050  10.439  67.689  1.00  0.00    -0.188 C  
HETATM   25  O   UNL     1      -8.600  10.444  67.747  1.00  0.00    -0.121 OA 
HETATM   26  C   UNL     1      -7.925  12.804  67.402  1.00  0.00    -0.179 C  
HETATM   27  O   UNL     1      -9.271  12.044  69.265  1.00  0.00     0.397 OA 
HETATM   28  C   UNL     1      -8.204  11.672  68.392  1.00  0.00    -0.155 C  
HETATM   29  C   UNL     1      -6.879  11.557  69.139  1.00  0.00    -0.112 C  
ENDROOT
BRANCH  24  30
HETATM   30  C   UNL     1     -10.811   9.046  67.610  1.00  0.00    -0.063 C  
HETATM   31  O   UNL     1     -11.274   8.642  66.530  1.00  0.00     0.749 OA 
BRANCH  30  32
HETATM   32  C   UNL     1     -11.000   8.163  68.847  1.00  0.00     0.154 C  
BRANCH  32  33
HETATM   33  O   UNL     1     -11.860   8.800  69.832  1.00  0.00     0.226 OA 
BRANCH  33  34
HETATM   34  C   UNL     1     -11.685   8.372  71.119  1.00  0.00    -0.280 C  
HETATM   35  C   UNL     1     -11.957   6.911  71.295  1.00  0.00    -0.402 C  
HETATM   36  O   UNL     1     -11.331   9.110  72.043  1.00  0.00    -0.366 OA 
ENDBRANCH  33  34
ENDBRANCH  32  33
ENDBRANCH  30  32
ENDBRANCH  24  30
TORSDOF 4
ENDMDL
MODEL       76
REMARK 921   NORMALIZED FREE ENERGY PREDICTED BY IDOCK:   -4.00 KCAL/MOL
REMARK 922        TOTAL FREE ENERGY PREDICTED BY IDOCK:   -5.57 KCAL/MOL
REMARK 923 INTER-LIGAND FREE ENERGY PREDICTED BY IDOCK:   -5.12 KCAL/MOL
REMARK 924 INTRA-LIGAND FREE ENERGY PREDICTED BY IDOCK:   -0.45 KCAL/MOL
REMARK 927      BINDING AFFINITY PREDICTED BY RF-SCORE:    0.00 PKD
ROOT
HETATM    1  C   UNL     1      -6.495   7.929  66.689  1.00  0.00    -0.055 C  
HETATM    2  C   UNL     1      -6.498   8.588  68.017  1.00  0.00    -0.057 C  
HETATM    3  C   UNL     1      -7.966   8.990  68.187  1.00  0.00    -0.101 C  
HETATM    4  C   UNL     1      -8.303  10.436  67.708  1.00  0.00    -0.114 C  
HETATM    5  C   UNL     1      -7.278  11.505  68.138  1.00  0.00    -0.080 C  
HETATM    6  C   UNL     1      -7.607  12.797  67.412  1.00  0.00    -0.152 C  
HETATM    7  F   UNL     1      -6.601  13.684  67.645  1.00  0.00    -0.127 F  
HETATM    8  C   UNL     1      -8.936  13.346  67.873  1.00  0.00    -0.201 C  
HETATM    9  C   UNL     1      -9.157  14.663  67.640  1.00  0.00    -0.193 C  
HETATM   10  C   UNL     1      -9.594  14.846  66.196  1.00  0.00    -0.310 C  
HETATM   11  C   UNL     1     -10.405  13.724  65.620  1.00  0.00    -0.321 C  
HETATM   12  O   UNL     1      -9.366  15.870  65.573  1.00  0.00    -0.352 OA 
HETATM   13  C   UNL     1     -10.662  12.593  66.312  1.00  0.00    -0.280 C  
HETATM   14  C   UNL     1     -10.131  12.354  67.739  1.00  0.00    -0.203 C  
HETATM   15  C   UNL     1      -9.703  10.873  68.188  1.00  0.00    -0.166 C  
HETATM   16  C   UNL     1     -11.270  12.791  68.698  1.00  0.00    -0.322 C  
HETATM   17  F   UNL     1      -9.573  10.946  69.575  1.00  0.00    -0.178 F  
HETATM   18  C   UNL     1     -10.737   9.733  67.981  1.00  0.00    -0.247 C  
HETATM   19  C   UNL     1     -10.172   8.363  68.459  1.00  0.00    -0.228 C  
HETATM   20  O   UNL     1     -11.279   9.669  66.671  1.00  0.00     0.195 OA 
HETATM   21  C   UNL     1      -8.910   7.710  67.738  1.00  0.00    -0.125 C  
HETATM   22  H   UNL     1     -11.911   8.972  66.544  1.00  0.00     0.000 HD 
HETATM   23  C   UNL     1     -10.012   7.000  66.722  1.00  0.00    -0.266 C  
HETATM   24  C   UNL     1      -7.740   7.064  66.735  1.00  0.00    -0.098 C  
HETATM   25  O   UNL     1      -8.012   7.021  65.310  1.00  0.00    -0.114 OA 
HETATM   26  C   UNL     1      -8.885   9.267  64.728  1.00  0.00    -0.225 C  
HETATM   27  O   UNL     1      -6.667   8.868  65.613  1.00  0.00    -0.070 OA 
HETATM   28  C   UNL     1      -7.685   8.320  64.775  1.00  0.00    -0.114 C  
HETATM   29  C   UNL     1      -7.247   8.274  63.314  1.00  0.00    -0.093 C  
ENDROOT
BRANCH  24  30
HETATM   30  C   UNL     1      -7.415   5.707  67.496  1.00  0.00    -0.081 C  
HETATM   31  O   UNL     1      -7.491   5.647  68.735  1.00  0.00    -0.080 OA 
BRANCH  30  32
HETATM   32  C   UNL     1      -7.000   4.442  66.740  1.00  0.00    -0.063 C  
BRANCH  32  33
HETATM   33  O   UNL     1      -8.110   3.882  65.985  1.00  0.00    -0.099 OA 
BRANCH  33  34
HETATM   34  C   UNL     1      -7.806   3.486  64.712  1.00  0.00    -0.082 C  
HETATM   35  C   UNL     1      -6.447   2.872  64.596  1.00  0.00    -0.027 C  
HETATM   36  O   UNL     1      -8.574   3.614  63.755  1.00  0.00    -0.090 OA 
ENDBRANCH  33  34
ENDBRANCH  32  33
ENDBRANCH  30  32
ENDBRANCH  24  30
TORSDOF 4
ENDMDL
MODEL       77
REMARK 921   NORMALIZED FREE ENERGY PREDICTED BY IDOCK:   -3.83 KCAL/MOL
REMARK 922        TOTAL FREE ENERGY PREDICTED BY IDOCK:   -5.35 KCAL/MOL
REMARK 923 INTER-LIGAND FREE ENERGY PREDICTED BY IDOCK:   -5.39 KCAL/MOL
REMARK 924 INTRA-LIGAND FREE ENERGY PREDICTED BY IDOCK:    0.04 KCAL/MOL
REMARK 927      BINDING AFFINITY PREDICTED BY RF-SCORE:    0.00 PKD
ROOT
HETATM    1  C   UNL     1     -10.297  12.655  68.993  1.00  0.00     0.065 C  
HETATM    2  C   UNL     1      -8.914  12.960  68.556  1.00  0.00    -0.047 C  
HETATM    3  C   UNL     1      -8.756  12.082  67.311  1.00  0.00    -0.175 C  
HETATM    4  C   UNL     1      -8.132  10.678  67.581  1.00  0.00    -0.107 C  
HETATM    5  C   UNL     1      -6.915  10.691  68.529  1.00  0.00    -0.067 C  
HETATM    6  C   UNL     1      -6.570   9.256  68.880  1.00  0.00    -0.048 C  
HETATM    7  F   UNL     1      -5.621   9.272  69.855  1.00  0.00    -0.031 F  
HETATM    8  C   UNL     1      -6.085   8.510  67.660  1.00  0.00    -0.048 C  
HETATM    9  C   UNL     1      -5.361   7.387  67.890  1.00  0.00    -0.025 C  
HETATM   10  C   UNL     1      -6.308   6.240  68.200  1.00  0.00    -0.040 C  
HETATM   11  C   UNL     1      -7.627   6.281  67.489  1.00  0.00    -0.097 C  
HETATM   12  O   UNL     1      -5.987   5.309  68.921  1.00  0.00    -0.019 OA 
HETATM   13  C   UNL     1      -7.980   7.309  66.687  1.00  0.00    -0.114 C  
HETATM   14  C   UNL     1      -7.069   8.530  66.451  1.00  0.00    -0.079 C  
HETATM   15  C   UNL     1      -7.723   9.984  66.264  1.00  0.00    -0.105 C  
HETATM   16  C   UNL     1      -6.284   8.231  65.146  1.00  0.00    -0.045 C  
HETATM   17  F   UNL     1      -6.686  10.779  65.776  1.00  0.00    -0.120 F  
HETATM   18  C   UNL     1      -8.835  10.139  65.192  1.00  0.00    -0.183 C  
HETATM   19  C   UNL     1      -9.368  11.600  65.138  1.00  0.00    -0.076 C  
HETATM   20  O   UNL     1      -9.879   9.183  65.294  1.00  0.00    -0.444 OA 
HETATM   21  C   UNL     1     -10.120  12.237  66.390  1.00  0.00    -0.245 C  
HETATM   22  H   UNL     1     -10.560   9.278  64.638  1.00  0.00     0.000 HD 
HETATM   23  C   UNL     1     -11.503  11.614  65.723  1.00  0.00    -0.175 C  
HETATM   24  C   UNL     1     -11.076  12.666  67.691  1.00  0.00    -0.263 C  
HETATM   25  O   UNL     1     -12.141  11.761  68.083  1.00  0.00    -0.556 OA 
HETATM   26  C   UNL     1     -11.117   9.504  68.128  1.00  0.00    -0.052 C  
HETATM   27  O   UNL     1     -10.415  11.334  69.550  1.00  0.00    -0.124 OA 
HETATM   28  C   UNL     1     -11.549  10.742  68.915  1.00  0.00    -0.291 C  
HETATM   29  C   UNL     1     -12.525  10.158  69.933  1.00  0.00     0.057 C  
ENDROOT
BRANCH  24  30
HETATM   30  C   UNL     1     -11.443  14.164  67.307  1.00  0.00    -0.350 C  
HETATM   31  O   UNL     1     -11.038  14.657  66.241  1.00  0.00    -0.325 OA 
BRANCH  30  32
HETATM   32  C   UNL     1     -12.298  15.042  68.225  1.00  0.00     0.242 C  
BRANCH  32  33
HETATM   33  O   UNL     1     -11.668  15.232  69.523  1.00  0.00    -0.298 OA 
BRANCH  33  34
HETATM   34  C   UNL     1     -12.487  15.036  70.600  1.00  0.00    -0.365 C  
HETATM   35  C   UNL     1     -12.715  13.590  70.910  1.00  0.00    -0.366 C  
HETATM   36  O   UNL     1     -12.983  15.955  71.258  1.00  0.00    -0.471 OA 
ENDBRANCH  33  34
ENDBRANCH  32  33
ENDBRANCH  30  32
ENDBRANCH  24  30
TORSDOF 4
ENDMDL
MODEL       78
REMARK 921   NORMALIZED FREE ENERGY PREDICTED BY IDOCK:   -3.81 KCAL/MOL
REMARK 922        TOTAL FREE ENERGY PREDICTED BY IDOCK:   -5.33 KCAL/MOL
REMARK 923 INTER-LIGAND FREE ENERGY PREDICTED BY IDOCK:   -5.13 KCAL/MOL
REMARK 924 INTRA-LIGAND FREE ENERGY PREDICTED BY IDOCK:   -0.20 KCAL/MOL
REMARK 927      BINDING AFFINITY PREDICTED BY RF-SCORE:    0.00 PKD
ROOT
HETATM    1  C   UNL     1      -8.682  11.811  66.646  1.00  0.00    -0.186 C  
HETATM    2  C   UNL     1      -9.720  11.065  65.897  1.00  0.00    -0.267 C  
HETATM    3  C   UNL     1      -9.958   9.840  66.786  1.00  0.00    -0.278 C  
HETATM    4  C   UNL     1      -9.098   8.592  66.415  1.00  0.00    -0.218 C  
HETATM    5  C   UNL     1      -9.020   8.297  64.903  1.00  0.00     0.198 C  
HETATM    6  C   UNL     1      -7.977   7.217  64.682  1.00  0.00    -0.115 C  
HETATM    7  F   UNL     1      -7.775   7.088  63.343  1.00  0.00    -0.092 F  
HETATM    8  C   UNL     1      -8.421   5.911  65.296  1.00  0.00    -0.144 C  
HETATM    9  C   UNL     1      -7.817   4.791  64.830  1.00  0.00    -0.092 C  
HETATM   10  C   UNL     1      -6.466   4.636  65.507  1.00  0.00    -0.040 C  
HETATM   11  C   UNL     1      -6.393   5.125  66.922  1.00  0.00    -0.040 C  
HETATM   12  O   UNL     1      -5.525   4.082  64.962  1.00  0.00    -0.012 OA 
HETATM   13  C   UNL     1      -7.437   5.734  67.528  1.00  0.00    -0.078 C  
HETATM   14  C   UNL     1      -8.777   5.992  66.811  1.00  0.00    -0.119 C  
HETATM   15  C   UNL     1      -9.606   7.327  67.139  1.00  0.00    -0.160 C  
HETATM   16  C   UNL     1      -9.698   4.800  67.187  1.00  0.00    -0.207 C  
HETATM   17  F   UNL     1     -10.866   7.107  66.582  1.00  0.00    -0.378 F  
HETATM   18  C   UNL     1      -9.917   7.633  68.629  1.00  0.00    -0.174 C  
HETATM   19  C   UNL     1     -10.719   8.959  68.779  1.00  0.00    -0.123 C  
HETATM   20  O   UNL     1      -8.783   7.585  69.481  1.00  0.00    -0.136 OA 
HETATM   21  C   UNL     1     -10.072  10.351  68.353  1.00  0.00    -0.181 C  
HETATM   22  H   UNL     1      -8.973   7.772  70.393  1.00  0.00     0.000 HD 
HETATM   23  C   UNL     1      -9.498  10.421  69.906  1.00  0.00     0.052 C  
HETATM   24  C   UNL     1      -9.172  11.732  68.079  1.00  0.00    -0.181 C  
HETATM   25  O   UNL     1      -7.886  11.849  68.742  1.00  0.00    -0.122 OA 
HETATM   26  C   UNL     1      -6.752   9.673  68.394  1.00  0.00    -0.057 C  
HETATM   27  O   UNL     1      -7.399  11.161  66.597  1.00  0.00    -0.138 OA 
HETATM   28  C   UNL     1      -6.928  11.125  67.944  1.00  0.00    -0.069 C  
HETATM   29  C   UNL     1      -5.510  11.676  68.061  1.00  0.00    -0.045 C  
ENDROOT
BRANCH  24  30
HETATM   30  C   UNL     1     -10.269  12.854  68.326  1.00  0.00    -0.245 C  
HETATM   31  O   UNL     1     -10.038  14.037  68.024  1.00  0.00    -0.227 OA 
BRANCH  30  32
HETATM   32  C   UNL     1     -11.633  12.523  68.939  1.00  0.00    -0.318 C  
BRANCH  32  33
HETATM   33  O   UNL     1     -11.705  12.928  70.334  1.00  0.00    -0.213 OA 
BRANCH  33  34
HETATM   34  C   UNL     1     -12.229  14.172  70.552  1.00  0.00    -0.361 C  
HETATM   35  C   UNL     1     -11.229  15.146  71.089  1.00  0.00    -0.329 C  
HETATM   36  O   UNL     1     -13.405  14.468  70.322  1.00  0.00    -0.038 OA 
ENDBRANCH  33  34
ENDBRANCH  32  33
ENDBRANCH  30  32
ENDBRANCH  24  30
TORSDOF 4
ENDMDL
MODEL       79
REMARK 921   NORMALIZED FREE ENERGY PREDICTED BY IDOCK:   -3.71 KCAL/MOL
REMARK 922        TOTAL FREE ENERGY PREDICTED BY IDOCK:   -5.20 KCAL/MOL
REMARK 923 INTER-LIGAND FREE ENERGY PREDICTED BY IDOCK:   -5.40 KCAL/MOL
REMARK 924 INTRA-LIGAND FREE ENERGY PREDICTED BY IDOCK:    0.20 KCAL/MOL
REMARK 927      BINDING AFFINITY PREDICTED BY RF-SCORE:    0.00 PKD
ROOT
HETATM    1  C   UNL     1     -10.347   5.369  69.072  1.00  0.00    -0.212 C  
HETATM    2  C   UNL     1      -9.350   5.556  67.990  1.00  0.00    -0.120 C  
HETATM    3  C   UNL     1      -8.477   6.691  68.533  1.00  0.00    -0.122 C  
HETATM    4  C   UNL     1      -8.916   8.119  68.083  1.00  0.00    -0.135 C  
HETATM    5  C   UNL     1      -9.281   8.233  66.589  1.00  0.00    -0.224 C  
HETATM    6  C   UNL     1      -9.905   9.597  66.354  1.00  0.00    -0.244 C  
HETATM    7  F   UNL     1     -10.394   9.629  65.085  1.00  0.00    -0.303 F  
HETATM    8  C   UNL     1      -8.890  10.693  66.575  1.00  0.00    -0.160 C  
HETATM    9  C   UNL     1      -9.168  11.893  66.010  1.00  0.00    -0.176 C  
HETATM   10  C   UNL     1     -10.152  12.642  66.892  1.00  0.00    -0.230 C  
HETATM   11  C   UNL     1     -10.015  12.397  68.365  1.00  0.00    -0.210 C  
HETATM   12  O   UNL     1     -10.950  13.446  66.439  1.00  0.00    -0.287 OA 
HETATM   13  C   UNL     1      -9.127  11.511  68.868  1.00  0.00     0.015 C  
HETATM   14  C   UNL     1      -8.199  10.667  67.972  1.00  0.00    -0.113 C  
HETATM   15  C   UNL     1      -7.829   9.167  68.405  1.00  0.00    -0.102 C  
HETATM   16  C   UNL     1      -6.858  11.445  67.895  1.00  0.00    -0.072 C  
HETATM   17  F   UNL     1      -6.765   8.810  67.577  1.00  0.00    -0.062 F  
HETATM   18  C   UNL     1      -7.263   8.950  69.835  1.00  0.00    -0.052 C  
HETATM   19  C   UNL     1      -6.961   7.447  70.102  1.00  0.00    -0.060 C  
HETATM   20  O   UNL     1      -8.043   9.539  70.865  1.00  0.00    -0.297 OA 
HETATM   21  C   UNL     1      -8.139   6.373  70.119  1.00  0.00    -0.120 C  
HETATM   22  H   UNL     1      -7.697   9.406  71.740  1.00  0.00     0.000 HD 
HETATM   23  C   UNL     1      -8.271   6.723  71.734  1.00  0.00    -0.106 C  
HETATM   24  C   UNL     1      -9.500   5.428  70.329  1.00  0.00    -0.163 C  
HETATM   25  O   UNL     1     -10.524   5.901  71.243  1.00  0.00    -0.215 OA 
HETATM   26  C   UNL     1     -10.881   8.286  70.670  1.00  0.00    -0.254 C  
HETATM   27  O   UNL     1     -11.289   6.454  69.140  1.00  0.00    -0.364 OA 
HETATM   28  C   UNL     1     -11.345   6.836  70.515  1.00  0.00    -0.343 C  
HETATM   29  C   UNL     1     -12.782   6.897  71.024  1.00  0.00    -0.269 C  
ENDROOT
BRANCH  24  30
HETATM   30  C   UNL     1      -8.836   4.007  70.588  1.00  0.00    -0.080 C  
HETATM   31  O   UNL     1      -9.544   3.021  70.855  1.00  0.00    -0.153 OA 
BRANCH  30  32
HETATM   32  C   UNL     1      -7.320   3.804  70.519  1.00  0.00    -0.041 C  
BRANCH  32  33
HETATM   33  O   UNL     1      -6.814   4.009  69.171  1.00  0.00    -0.044 OA 
BRANCH  33  34
HETATM   34  C   UNL     1      -6.376   2.880  68.536  1.00  0.00    -0.029 C  
HETATM   35  C   UNL     1      -7.453   1.859  68.345  1.00  0.00    -0.043 C  
HETATM   36  O   UNL     1      -5.215   2.718  68.152  1.00  0.00    -0.011 OA 
ENDBRANCH  33  34
ENDBRANCH  32  33
ENDBRANCH  30  32
ENDBRANCH  24  30
TORSDOF 4
ENDMDL
MODEL       80
REMARK 921   NORMALIZED FREE ENERGY PREDICTED BY IDOCK:   -3.63 KCAL/MOL
REMARK 922        TOTAL FREE ENERGY PREDICTED BY IDOCK:   -5.10 KCAL/MOL
REMARK 923 INTER-LIGAND FREE ENERGY PREDICTED BY IDOCK:   -5.79 KCAL/MOL
REMARK 924 INTRA-LIGAND FREE ENERGY PREDICTED BY IDOCK:    0.69 KCAL/MOL
REMARK 927      BINDING AFFINITY PREDICTED BY RF-SCORE:    0.00 PKD
ROOT
HETATM    1  C   UNL     1      -7.783   7.172  67.501  1.00  0.00    -0.111 C  
HETATM    2  C   UNL     1      -6.947   8.108  66.711  1.00  0.00    -0.073 C  
HETATM    3  C   UNL     1      -7.381   9.476  67.246  1.00  0.00    -0.087 C  
HETATM    4  C   UNL     1      -8.527  10.156  66.435  1.00  0.00    -0.133 C  
HETATM    5  C   UNL     1      -8.360  10.075  64.904  1.00  0.00    -0.160 C  
HETATM    6  C   UNL     1      -9.646  10.561  64.259  1.00  0.00    -0.307 C  
HETATM    7  F   UNL     1      -9.570  10.318  62.922  1.00  0.00    -0.296 F  
HETATM    8  C   UNL     1      -9.860  12.030  64.535  1.00  0.00    -0.179 C  
HETATM    9  C   UNL     1     -10.708  12.681  63.702  1.00  0.00    -0.410 C  
HETATM   10  C   UNL     1     -12.139  12.403  64.130  1.00  0.00    -0.453 C  
HETATM   11  C   UNL     1     -12.349  12.229  65.604  1.00  0.00    -0.032 C  
HETATM   12  O   UNL     1     -13.066  12.397  63.337  1.00  0.00    -0.689 OA 
HETATM   13  C   UNL     1     -11.323  12.241  66.484  1.00  0.00    -0.403 C  
HETATM   14  C   UNL     1      -9.855  12.415  66.045  1.00  0.00    -0.268 C  
HETATM   15  C   UNL     1      -8.695  11.637  66.835  1.00  0.00    -0.185 C  
HETATM   16  C   UNL     1      -9.544  13.929  66.187  1.00  0.00    -0.249 C  
HETATM   17  F   UNL     1      -7.510  12.235  66.405  1.00  0.00     0.067 F  
HETATM   18  C   UNL     1      -8.643  11.799  68.379  1.00  0.00    -0.156 C  
HETATM   19  C   UNL     1      -7.469  10.982  68.994  1.00  0.00    -0.129 C  
HETATM   20  O   UNL     1      -9.878  11.552  69.032  1.00  0.00    -0.386 OA 
HETATM   21  C   UNL     1      -7.449   9.391  68.895  1.00  0.00    -0.074 C  
HETATM   22  H   UNL     1      -9.847  11.650  69.976  1.00  0.00     0.000 HD 
HETATM   23  C   UNL     1      -8.296   9.413  70.320  1.00  0.00    -0.217 C  
HETATM   24  C   UNL     1      -7.696   7.739  68.905  1.00  0.00    -0.113 C  
HETATM   25  O   UNL     1      -8.966   7.243  69.405  1.00  0.00    -0.140 OA 
HETATM   26  C   UNL     1     -10.703   8.640  68.321  1.00  0.00    -0.107 C  
HETATM   27  O   UNL     1      -9.167   7.213  67.108  1.00  0.00    -0.128 OA 
HETATM   28  C   UNL     1      -9.913   7.330  68.321  1.00  0.00    -0.160 C  
HETATM   29  C   UNL     1     -11.018   6.282  68.405  1.00  0.00    -0.409 C  
ENDROOT
BRANCH  24  30
HETATM   30  C   UNL     1      -6.352   7.243  69.594  1.00  0.00    -0.035 C  
HETATM   31  O   UNL     1      -5.482   6.659  68.927  1.00  0.00    -0.015 OA 
BRANCH  30  32
HETATM   32  C   UNL     1      -6.086   7.464  71.086  1.00  0.00    -0.036 C  
BRANCH  32  33
HETATM   33  O   UNL     1      -5.246   8.630  71.312  1.00  0.00    -0.031 OA 
BRANCH  33  34
HETATM   34  C   UNL     1      -5.691   9.487  72.280  1.00  0.00     0.073 C  
HETATM   35  C   UNL     1      -5.752  10.910  71.823  1.00  0.00     0.514 C  
HETATM   36  O   UNL     1      -6.017   9.126  73.415  1.00  0.00    -0.275 OA 
ENDBRANCH  33  34
ENDBRANCH  32  33
ENDBRANCH  30  32
ENDBRANCH  24  30
TORSDOF 4
ENDMDL
MODEL       81
REMARK 921   NORMALIZED FREE ENERGY PREDICTED BY IDOCK:   -3.58 KCAL/MOL
REMARK 922        TOTAL FREE ENERGY PREDICTED BY IDOCK:   -5.04 KCAL/MOL
REMARK 923 INTER-LIGAND FREE ENERGY PREDICTED BY IDOCK:   -4.77 KCAL/MOL
REMARK 924 INTRA-LIGAND FREE ENERGY PREDICTED BY IDOCK:   -0.27 KCAL/MOL
REMARK 927      BINDING AFFINITY PREDICTED BY RF-SCORE:    0.00 PKD
ROOT
HETATM    1  C   UNL     1      -9.714  13.155  66.374  1.00  0.00    -0.269 C  
HETATM    2  C   UNL     1     -10.754  12.209  65.904  1.00  0.00    -0.302 C  
HETATM    3  C   UNL     1     -10.923  11.275  67.106  1.00  0.00    -0.348 C  
HETATM    4  C   UNL     1     -10.039   9.991  67.059  1.00  0.00    -0.274 C  
HETATM    5  C   UNL     1     -10.004   9.289  65.686  1.00  0.00    -0.130 C  
HETATM    6  C   UNL     1      -8.936   8.212  65.729  1.00  0.00    -0.119 C  
HETATM    7  F   UNL     1      -8.777   7.720  64.471  1.00  0.00    -0.032 F  
HETATM    8  C   UNL     1      -9.319   7.119  66.698  1.00  0.00    -0.207 C  
HETATM    9  C   UNL     1      -8.697   5.926  66.535  1.00  0.00    -0.126 C  
HETATM   10  C   UNL     1      -7.318   5.991  67.172  1.00  0.00    -0.076 C  
HETATM   11  C   UNL     1      -7.212   6.856  68.392  1.00  0.00    -0.088 C  
HETATM   12  O   UNL     1      -6.381   5.327  66.762  1.00  0.00    -0.037 OA 
HETATM   13  C   UNL     1      -8.252   7.588  68.849  1.00  0.00    -0.128 C  
HETATM   14  C   UNL     1      -9.624   7.610  68.145  1.00  0.00    -0.158 C  
HETATM   15  C   UNL     1     -10.482   8.966  68.125  1.00  0.00    -0.202 C  
HETATM   16  C   UNL     1     -10.494   6.550  68.874  1.00  0.00    -0.249 C  
HETATM   17  F   UNL     1     -11.753   8.575  67.704  1.00  0.00     0.776 F  
HETATM   18  C   UNL     1     -10.750   9.667  69.485  1.00  0.00    -0.232 C  
HETATM   19  C   UNL     1     -11.588  10.966  69.295  1.00  0.00    -0.388 C  
HETATM   20  O   UNL     1      -9.587   9.880  70.269  1.00  0.00    -0.331 OA 
HETATM   21  C   UNL     1     -10.999  12.199  68.475  1.00  0.00    -0.276 C  
HETATM   22  H   UNL     1      -9.751  10.310  71.100  1.00  0.00     0.000 HD 
HETATM   23  C   UNL     1     -10.374  12.708  69.923  1.00  0.00     1.476 C  
HETATM   24  C   UNL     1     -10.152  13.467  67.793  1.00  0.00    -0.232 C  
HETATM   25  O   UNL     1      -8.848  13.789  68.343  1.00  0.00    -0.181 OA 
HETATM   26  C   UNL     1      -7.661  11.625  68.563  1.00  0.00    -0.127 C  
HETATM   27  O   UNL     1      -8.414  12.543  66.453  1.00  0.00     0.008 OA 
HETATM   28  C   UNL     1      -7.896  12.891  67.737  1.00  0.00    -0.158 C  
HETATM   29  C   UNL     1      -6.493  13.482  67.638  1.00  0.00    -0.169 C  
ENDROOT
BRANCH  24  30
HETATM   30  C   UNL     1     -11.274  14.591  67.765  1.00  0.00    -0.298 C  
HETATM   31  O   UNL     1     -12.247  14.491  66.998  1.00  0.00    -0.362 OA 
BRANCH  30  32
HETATM   32  C   UNL     1     -11.198  15.824  68.671  1.00  0.00    -0.351 C  
BRANCH  32  33
HETATM   33  O   UNL     1     -12.460  16.065  69.353  1.00  0.00    -0.050 OA 
BRANCH  33  34
HETATM   34  C   UNL     1     -12.513  15.629  70.649  1.00  0.00    -0.417 C  
HETATM   35  C   UNL     1     -13.789  14.923  70.980  1.00  0.00    -0.332 C  
HETATM   36  O   UNL     1     -11.599  15.793  71.462  1.00  0.00    -0.384 OA 
ENDBRANCH  33  34
ENDBRANCH  32  33
ENDBRANCH  30  32
ENDBRANCH  24  30
TORSDOF 4
ENDMDL
MODEL       82
REMARK 921   NORMALIZED FREE ENERGY PREDICTED BY IDOCK:   -3.52 KCAL/MOL
REMARK 922        TOTAL FREE ENERGY PREDICTED BY IDOCK:   -4.98 KCAL/MOL
REMARK 923 INTER-LIGAND FREE ENERGY PREDICTED BY IDOCK:   -4.49 KCAL/MOL
REMARK 924 INTRA-LIGAND FREE ENERGY PREDICTED BY IDOCK:   -0.49 KCAL/MOL
REMARK 927      BINDING AFFINITY PREDICTED BY RF-SCORE:    0.00 PKD
ROOT
HETATM    1  C   UNL     1      -9.912  15.571  66.218  1.00  0.00    -0.293 C  
HETATM    2  C   UNL     1     -10.915  14.729  65.523  1.00  0.00    -0.350 C  
HETATM    3  C   UNL     1     -10.848  13.414  66.307  1.00  0.00    -0.294 C  
HETATM    4  C   UNL     1      -9.866  12.356  65.716  1.00  0.00    -0.253 C  
HETATM    5  C   UNL     1      -9.942  12.199  64.184  1.00  0.00    -0.279 C  
HETATM    6  C   UNL     1      -8.786  11.324  63.737  1.00  0.00     0.260 C  
HETATM    7  F   UNL     1      -8.743  11.337  62.377  1.00  0.00    -0.305 F  
HETATM    8  C   UNL     1      -8.945   9.918  64.265  1.00  0.00    -0.278 C  
HETATM    9  C   UNL     1      -8.246   8.952  63.622  1.00  0.00    -0.172 C  
HETATM   10  C   UNL     1      -6.809   8.963  64.119  1.00  0.00    -0.083 C  
HETATM   11  C   UNL     1      -6.628   9.342  65.557  1.00  0.00    -0.070 C  
HETATM   12  O   UNL     1      -5.876   8.614  63.415  1.00  0.00    -0.075 OA 
HETATM   13  C   UNL     1      -7.663   9.724  66.338  1.00  0.00    -0.102 C  
HETATM   14  C   UNL     1      -9.108   9.819  65.811  1.00  0.00    -0.221 C  
HETATM   15  C   UNL     1     -10.079  10.971  66.364  1.00  0.00    -0.229 C  
HETATM   16  C   UNL     1      -9.783   8.467  66.170  1.00  0.00    -0.223 C  
HETATM   17  F   UNL     1     -11.354  10.596  65.938  1.00  0.00    -0.004 F  
HETATM   18  C   UNL     1     -10.236  11.102  67.904  1.00  0.00    -0.180 C  
HETATM   19  C   UNL     1     -11.202  12.264  68.277  1.00  0.00    -0.315 C  
HETATM   20  O   UNL     1      -9.006  11.169  68.609  1.00  0.00    -0.166 OA 
HETATM   21  C   UNL     1     -10.833  13.772  67.920  1.00  0.00    -0.257 C  
HETATM   22  H   UNL     1      -9.101  11.250  69.551  1.00  0.00     0.000 HD 
HETATM   23  C   UNL     1     -10.078  13.809  69.396  1.00  0.00     0.376 C  
HETATM   24  C   UNL     1     -10.194  15.298  67.683  1.00  0.00    -0.242 C  
HETATM   25  O   UNL     1      -8.865  15.568  68.201  1.00  0.00    -0.167 OA 
HETATM   26  C   UNL     1      -7.472  13.639  67.508  1.00  0.00    -0.181 C  
HETATM   27  O   UNL     1      -8.564  15.143  65.955  1.00  0.00    -0.004 OA 
HETATM   28  C   UNL     1      -7.921  15.074  67.229  1.00  0.00    -0.206 C  
HETATM   29  C   UNL     1      -6.599  15.837  67.235  1.00  0.00    -0.169 C  
ENDROOT
BRANCH  24  30
HETATM   30  C   UNL     1     -11.406  16.205  68.167  1.00  0.00    -0.270 C  
HETATM   31  O   UNL     1     -12.487  15.687  68.496  1.00  0.00     0.173 OA 
BRANCH  30  32
HETATM   32  C   UNL     1     -11.287  17.729  68.244  1.00  0.00     0.699 C  
BRANCH  32  33
HETATM   33  O   UNL     1     -10.351  18.142  69.278  1.00  0.00    -0.235 OA 
BRANCH  33  34
HETATM   34  C   UNL     1      -9.510  19.161  68.927  1.00  0.00    -0.367 C  
HETATM   35  C   UNL     1     -10.026  20.510  69.316  1.00  0.00     0.319 C  
HETATM   36  O   UNL     1      -8.430  18.990  68.354  1.00  0.00    -0.322 OA 
ENDBRANCH  33  34
ENDBRANCH  32  33
ENDBRANCH  30  32
ENDBRANCH  24  30
TORSDOF 4
ENDMDL
MODEL       83
REMARK 921   NORMALIZED FREE ENERGY PREDICTED BY IDOCK:   -3.52 KCAL/MOL
REMARK 922        TOTAL FREE ENERGY PREDICTED BY IDOCK:   -4.97 KCAL/MOL
REMARK 923 INTER-LIGAND FREE ENERGY PREDICTED BY IDOCK:   -5.25 KCAL/MOL
REMARK 924 INTRA-LIGAND FREE ENERGY PREDICTED BY IDOCK:    0.28 KCAL/MOL
REMARK 927      BINDING AFFINITY PREDICTED BY RF-SCORE:    0.00 PKD
ROOT
HETATM    1  C   UNL     1     -10.951  11.636  67.145  1.00  0.00    -0.280 C  
HETATM    2  C   UNL     1     -10.915  10.667  68.266  1.00  0.00    -0.314 C  
HETATM    3  C   UNL     1      -9.497  10.096  68.170  1.00  0.00    -0.151 C  
HETATM    4  C   UNL     1      -9.379   8.791  67.322  1.00  0.00    -0.181 C  
HETATM    5  C   UNL     1     -10.486   7.751  67.594  1.00  0.00    -0.308 C  
HETATM    6  C   UNL     1     -10.378   6.659  66.546  1.00  0.00    -0.050 C  
HETATM    7  F   UNL     1     -11.460   5.842  66.669  1.00  0.00    -0.210 F  
HETATM    8  C   UNL     1      -9.090   5.886  66.710  1.00  0.00    -0.130 C  
HETATM    9  C   UNL     1      -9.051   4.656  66.143  1.00  0.00    -0.128 C  
HETATM   10  C   UNL     1      -8.762   4.800  64.658  1.00  0.00    -0.153 C  
HETATM   11  C   UNL     1      -7.874   5.948  64.283  1.00  0.00    -0.116 C  
HETATM   12  O   UNL     1      -9.165   3.993  63.836  1.00  0.00    -0.131 OA 
HETATM   13  C   UNL     1      -7.424   6.838  65.194  1.00  0.00    -0.087 C  
HETATM   14  C   UNL     1      -7.801   6.761  66.687  1.00  0.00    -0.107 C  
HETATM   15  C   UNL     1      -8.006   8.115  67.523  1.00  0.00    -0.122 C  
HETATM   16  C   UNL     1      -6.645   5.988  67.379  1.00  0.00    -0.056 C  
HETATM   17  F   UNL     1      -8.027   7.708  68.858  1.00  0.00    -0.114 F  
HETATM   18  C   UNL     1      -6.864   9.166  67.483  1.00  0.00    -0.077 C  
HETATM   19  C   UNL     1      -7.217  10.418  68.336  1.00  0.00    -0.080 C  
HETATM   20  O   UNL     1      -6.431   9.504  66.174  1.00  0.00    -0.067 OA 
HETATM   21  C   UNL     1      -8.447  11.351  67.939  1.00  0.00    -0.139 C  
HETATM   22  H   UNL     1      -5.732  10.147  66.149  1.00  0.00     0.000 HD 
HETATM   23  C   UNL     1      -7.357  12.184  67.008  1.00  0.00    -0.072 C  
HETATM   24  C   UNL     1      -9.610  12.337  67.258  1.00  0.00    -0.187 C  
HETATM   25  O   UNL     1      -9.457  12.711  65.864  1.00  0.00    -0.202 OA 
HETATM   26  C   UNL     1      -8.914  10.611  64.665  1.00  0.00    -0.216 C  
HETATM   27  O   UNL     1     -10.985  10.985  65.862  1.00  0.00    -0.173 OA 
HETATM   28  C   UNL     1      -9.983  11.626  65.072  1.00  0.00    -0.259 C  
HETATM   29  C   UNL     1     -10.533  12.080  63.723  1.00  0.00    -0.469 C  
ENDROOT
BRANCH  24  30
HETATM   30  C   UNL     1      -9.705  13.484  68.355  1.00  0.00    -0.207 C  
HETATM   31  O   UNL     1      -8.789  14.315  68.477  1.00  0.00    -0.179 OA 
BRANCH  30  32
HETATM   32  C   UNL     1     -10.912  13.604  69.290  1.00  0.00    -0.144 C  
BRANCH  32  33
HETATM   33  O   UNL     1     -10.657  14.537  70.375  1.00  0.00     0.152 OA 
BRANCH  33  34
HETATM   34  C   UNL     1     -11.318  15.731  70.283  1.00  0.00    -0.361 C  
HETATM   35  C   UNL     1     -12.693  15.597  69.709  1.00  0.00     0.084 C  
HETATM   36  O   UNL     1     -10.837  16.809  70.643  1.00  0.00    -0.015 OA 
ENDBRANCH  33  34
ENDBRANCH  32  33
ENDBRANCH  30  32
ENDBRANCH  24  30
TORSDOF 4
ENDMDL
MODEL       84
REMARK 921   NORMALIZED FREE ENERGY PREDICTED BY IDOCK:   -3.47 KCAL/MOL
REMARK 922        TOTAL FREE ENERGY PREDICTED BY IDOCK:   -4.91 KCAL/MOL
REMARK 923 INTER-LIGAND FREE ENERGY PREDICTED BY IDOCK:   -4.52 KCAL/MOL
REMARK 924 INTRA-LIGAND FREE ENERGY PREDICTED BY IDOCK:   -0.39 KCAL/MOL
REMARK 927      BINDING AFFINITY PREDICTED BY RF-SCORE:    0.00 PKD
ROOT
HETATM    1  C   UNL     1     -10.112   8.460  66.769  1.00  0.00    -0.303 C  
HETATM    2  C   UNL     1      -9.897   9.332  65.590  1.00  0.00    -0.237 C  
HETATM    3  C   UNL     1      -8.892  10.361  66.115  1.00  0.00    -0.172 C  
HETATM    4  C   UNL     1      -9.534  11.661  66.690  1.00  0.00    -0.213 C  
HETATM    5  C   UNL     1     -10.677  12.242  65.832  1.00  0.00    -0.294 C  
HETATM    6  C   UNL     1     -11.350  13.349  66.623  1.00  0.00    -0.323 C  
HETATM    7  F   UNL     1     -12.467  13.735  65.949  1.00  0.00    -0.415 F  
HETATM    8  C   UNL     1     -10.406  14.511  66.825  1.00  0.00    -0.269 C  
HETATM    9  C   UNL     1     -10.976  15.702  67.129  1.00  0.00    -0.270 C  
HETATM   10  C   UNL     1     -11.311  15.731  68.611  1.00  0.00    -0.369 C  
HETATM   11  C   UNL     1     -10.367  14.978  69.500  1.00  0.00    -0.230 C  
HETATM   12  O   UNL     1     -12.241  16.384  69.055  1.00  0.00     0.089 OA 
HETATM   13  C   UNL     1      -9.333  14.260  69.009  1.00  0.00     0.025 C  
HETATM   14  C   UNL     1      -9.051  14.138  67.498  1.00  0.00    -0.195 C  
HETATM   15  C   UNL     1      -8.474  12.761  66.908  1.00  0.00    -0.102 C  
HETATM   16  C   UNL     1      -7.999  15.231  67.171  1.00  0.00    -0.251 C  
HETATM   17  F   UNL     1      -8.051  13.078  65.617  1.00  0.00     1.273 F  
HETATM   18  C   UNL     1      -7.199  12.173  67.573  1.00  0.00    -0.133 C  
HETATM   19  C   UNL     1      -6.772  10.840  66.893  1.00  0.00    -0.099 C  
HETATM   20  O   UNL     1      -7.279  12.062  68.985  1.00  0.00    -0.176 OA 
HETATM   21  C   UNL     1      -7.716   9.558  66.954  1.00  0.00    -0.098 C  
HETATM   22  H   UNL     1      -6.499  11.701  69.392  1.00  0.00     0.000 HD 
HETATM   23  C   UNL     1      -6.927   9.194  68.365  1.00  0.00    -0.068 C  
HETATM   24  C   UNL     1      -8.707   8.260  67.306  1.00  0.00    -0.123 C  
HETATM   25  O   UNL     1      -9.052   8.023  68.697  1.00  0.00    -0.140 OA 
HETATM   26  C   UNL     1      -9.714  10.231  69.607  1.00  0.00    -0.216 C  
HETATM   27  O   UNL     1     -10.874   9.113  67.800  1.00  0.00    -0.217 OA 
HETATM   28  C   UNL     1     -10.158   8.892  69.015  1.00  0.00    -0.197 C  
HETATM   29  C   UNL     1     -11.062   8.335  70.110  1.00  0.00    -0.189 C  
ENDROOT
BRANCH  24  30
HETATM   30  C   UNL     1      -7.986   7.106  66.486  1.00  0.00    -0.112 C  
HETATM   31  O   UNL     1      -7.538   6.105  67.070  1.00  0.00    -0.092 OA 
BRANCH  30  32
HETATM   32  C   UNL     1      -7.820   7.185  64.966  1.00  0.00    -0.125 C  
BRANCH  32  33
HETATM   33  O   UNL     1      -6.435   7.427  64.592  1.00  0.00    -0.040 OA 
BRANCH  33  34
HETATM   34  C   UNL     1      -6.243   8.454  63.710  1.00  0.00    -0.072 C  
HETATM   35  C   UNL     1      -7.475   8.806  62.939  1.00  0.00    -0.101 C  
HETATM   36  O   UNL     1      -5.166   9.040  63.567  1.00  0.00    -0.061 OA 
ENDBRANCH  33  34
ENDBRANCH  32  33
ENDBRANCH  30  32
ENDBRANCH  24  30
TORSDOF 4
ENDMDL
MODEL       85
REMARK 921   NORMALIZED FREE ENERGY PREDICTED BY IDOCK:   -3.29 KCAL/MOL
REMARK 922        TOTAL FREE ENERGY PREDICTED BY IDOCK:   -4.69 KCAL/MOL
REMARK 923 INTER-LIGAND FREE ENERGY PREDICTED BY IDOCK:   -4.38 KCAL/MOL
REMARK 924 INTRA-LIGAND FREE ENERGY PREDICTED BY IDOCK:   -0.31 KCAL/MOL
REMARK 927      BINDING AFFINITY PREDICTED BY RF-SCORE:    0.00 PKD
ROOT
HETATM    1  C   UNL     1      -8.966   7.697  66.088  1.00  0.00    -0.161 C  
HETATM    2  C   UNL     1      -8.607   8.912  66.859  1.00  0.00    -0.121 C  
HETATM    3  C   UNL     1      -7.571   8.381  67.855  1.00  0.00    -0.099 C  
HETATM    4  C   UNL     1      -8.159   7.943  69.231  1.00  0.00    -0.126 C  
HETATM    5  C   UNL     1      -9.194   8.922  69.824  1.00  0.00    -0.167 C  
HETATM    6  C   UNL     1      -9.842   8.259  71.026  1.00  0.00    -0.187 C  
HETATM    7  F   UNL     1     -10.879   9.040  71.435  1.00  0.00    -0.295 F  
HETATM    8  C   UNL     1      -8.836   8.063  72.134  1.00  0.00    -0.215 C  
HETATM    9  C   UNL     1      -9.340   7.882  73.379  1.00  0.00    -0.348 C  
HETATM   10  C   UNL     1      -9.777   6.435  73.535  1.00  0.00    -0.173 C  
HETATM   11  C   UNL     1      -8.954   5.429  72.787  1.00  0.00    -0.121 C  
HETATM   12  O   UNL     1     -10.688   6.107  74.277  1.00  0.00    -0.148 OA 
HETATM   13  C   UNL     1      -7.941   5.792  71.969  1.00  0.00    -0.107 C  
HETATM   14  C   UNL     1      -7.561   7.266  71.722  1.00  0.00    -0.086 C  
HETATM   15  C   UNL     1      -7.042   7.718  70.272  1.00  0.00    -0.050 C  
HETATM   16  C   UNL     1      -6.414   7.583  72.718  1.00  0.00    -0.060 C  
HETATM   17  F   UNL     1      -6.507   8.991  70.468  1.00  0.00    -0.036 F  
HETATM   18  C   UNL     1      -5.863   6.921  69.650  1.00  0.00    -0.019 C  
HETATM   19  C   UNL     1      -5.483   7.477  68.247  1.00  0.00    -0.027 C  
HETATM   20  O   UNL     1      -6.051   5.515  69.645  1.00  0.00    -0.019 OA 
HETATM   21  C   UNL     1      -6.518   7.404  67.037  1.00  0.00    -0.060 C  
HETATM   22  H   UNL     1      -5.330   5.027  69.264  1.00  0.00     0.000 HD 
HETATM   23  C   UNL     1      -5.859   5.916  66.723  1.00  0.00    -0.017 C  
HETATM   24  C   UNL     1      -7.621   7.043  65.836  1.00  0.00    -0.097 C  
HETATM   25  O   UNL     1      -8.079   5.670  65.721  1.00  0.00    -0.105 OA 
HETATM   26  C   UNL     1      -8.647   4.960  68.027  1.00  0.00    -0.103 C  
HETATM   27  O   UNL     1      -9.752   6.773  66.862  1.00  0.00    -0.153 OA 
HETATM   28  C   UNL     1      -9.141   5.495  66.681  1.00  0.00    -0.126 C  
HETATM   29  C   UNL     1     -10.158   4.437  66.264  1.00  0.00    -0.249 C  
ENDROOT
BRANCH  24  30
HETATM   30  C   UNL     1      -6.927   7.729  64.581  1.00  0.00    -0.063 C  
HETATM   31  O   UNL     1      -5.689   7.822  64.520  1.00  0.00    -0.040 OA 
BRANCH  30  32
HETATM   32  C   UNL     1      -7.747   8.293  63.418  1.00  0.00    -0.142 C  
BRANCH  32  33
HETATM   33  O   UNL     1      -7.876   9.739  63.506  1.00  0.00    -0.127 OA 
BRANCH  33  34
HETATM   34  C   UNL     1      -9.136  10.224  63.285  1.00  0.00    -0.265 C  
HETATM   35  C   UNL     1      -9.548  11.263  64.279  1.00  0.00    -0.257 C  
HETATM   36  O   UNL     1      -9.859   9.851  62.357  1.00  0.00    -0.012 OA 
ENDBRANCH  33  34
ENDBRANCH  32  33
ENDBRANCH  30  32
ENDBRANCH  24  30
TORSDOF 4
ENDMDL
MODEL       86
REMARK 921   NORMALIZED FREE ENERGY PREDICTED BY IDOCK:   -3.25 KCAL/MOL
REMARK 922        TOTAL FREE ENERGY PREDICTED BY IDOCK:   -4.63 KCAL/MOL
REMARK 923 INTER-LIGAND FREE ENERGY PREDICTED BY IDOCK:   -4.30 KCAL/MOL
REMARK 924 INTRA-LIGAND FREE ENERGY PREDICTED BY IDOCK:   -0.34 KCAL/MOL
REMARK 927      BINDING AFFINITY PREDICTED BY RF-SCORE:    0.00 PKD
ROOT
HETATM    1  C   UNL     1     -10.561   5.598  67.557  1.00  0.00    -0.221 C  
HETATM    2  C   UNL     1     -10.326   6.179  66.214  1.00  0.00     0.004 C  
HETATM    3  C   UNL     1      -8.877   6.669  66.311  1.00  0.00    -0.156 C  
HETATM    4  C   UNL     1      -8.724   8.159  66.747  1.00  0.00    -0.145 C  
HETATM    5  C   UNL     1      -9.697   9.131  66.049  1.00  0.00    -0.358 C  
HETATM    6  C   UNL     1      -9.594  10.481  66.736  1.00  0.00    -0.170 C  
HETATM    7  F   UNL     1     -10.578  11.284  66.247  1.00  0.00    -0.272 F  
HETATM    8  C   UNL     1      -8.231  11.091  66.511  1.00  0.00    -0.161 C  
HETATM    9  C   UNL     1      -8.134  12.431  66.692  1.00  0.00     0.096 C  
HETATM   10  C   UNL     1      -8.009  12.725  68.178  1.00  0.00    -0.156 C  
HETATM   11  C   UNL     1      -7.271  11.694  68.979  1.00  0.00    -0.094 C  
HETATM   12  O   UNL     1      -8.414  13.764  68.672  1.00  0.00    -0.141 OA 
HETATM   13  C   UNL     1      -6.817  10.545  68.431  1.00  0.00    -0.064 C  
HETATM   14  C   UNL     1      -7.036  10.191  66.947  1.00  0.00    -0.089 C  
HETATM   15  C   UNL     1      -7.282   8.662  66.525  1.00  0.00    -0.080 C  
HETATM   16  C   UNL     1      -5.751  10.649  66.206  1.00  0.00    -0.098 C  
HETATM   17  F   UNL     1      -7.133   8.648  65.138  1.00  0.00    -0.080 F  
HETATM   18  C   UNL     1      -6.250   7.607  67.011  1.00  0.00    -0.053 C  
HETATM   19  C   UNL     1      -6.632   6.178  66.526  1.00  0.00    -0.055 C  
HETATM   20  O   UNL     1      -5.983   7.654  68.404  1.00  0.00    -0.030 OA 
HETATM   21  C   UNL     1      -7.976   5.483  67.026  1.00  0.00    -0.102 C  
HETATM   22  H   UNL     1      -5.352   7.009  68.702  1.00  0.00     0.000 HD 
HETATM   23  C   UNL     1      -7.065   4.907  68.286  1.00  0.00    -0.061 C  
HETATM   24  C   UNL     1      -9.287   4.817  67.818  1.00  0.00    -0.136 C  
HETATM   25  O   UNL     1      -9.307   4.873  69.269  1.00  0.00    -0.109 OA 
HETATM   26  C   UNL     1      -8.694   7.202  69.856  1.00  0.00    -0.142 C  
HETATM   27  O   UNL     1     -10.662   6.606  68.578  1.00  0.00    -0.216 OA 
HETATM   28  C   UNL     1      -9.807   6.175  69.637  1.00  0.00    -0.161 C  
HETATM   29  C   UNL     1     -10.527   6.183  70.982  1.00  0.00    -0.281 C  
ENDROOT
BRANCH  24  30
HETATM   30  C   UNL     1      -9.377   3.401  67.103  1.00  0.00    -0.193 C  
HETATM   31  O   UNL     1      -9.418   2.357  67.776  1.00  0.00    -0.194 OA 
BRANCH  30  32
HETATM   32  C   UNL     1      -9.416   3.273  65.578  1.00  0.00    -0.107 C  
BRANCH  32  33
HETATM   33  O   UNL     1      -8.725   2.076  65.124  1.00  0.00    -0.103 OA 
BRANCH  33  34
HETATM   34  C   UNL     1      -7.763   2.286  64.174  1.00  0.00    -0.068 C  
HETATM   35  C   UNL     1      -7.895   3.607  63.486  1.00  0.00    -0.075 C  
HETATM   36  O   UNL     1      -6.870   1.474  63.914  1.00  0.00    -0.028 OA 
ENDBRANCH  33  34
ENDBRANCH  32  33
ENDBRANCH  30  32
ENDBRANCH  24  30
TORSDOF 4
ENDMDL
MODEL       87
REMARK 921   NORMALIZED FREE ENERGY PREDICTED BY IDOCK:   -3.23 KCAL/MOL
REMARK 922        TOTAL FREE ENERGY PREDICTED BY IDOCK:   -4.62 KCAL/MOL
REMARK 923 INTER-LIGAND FREE ENERGY PREDICTED BY IDOCK:   -4.16 KCAL/MOL
REMARK 924 INTRA-LIGAND FREE ENERGY PREDICTED BY IDOCK:   -0.46 KCAL/MOL
REMARK 927      BINDING AFFINITY PREDICTED BY RF-SCORE:    0.00 PKD
ROOT
HETATM    1  C   UNL     1      -6.672   7.454  67.427  1.00  0.00    -0.069 C  
HETATM    2  C   UNL     1      -6.216   7.016  68.768  1.00  0.00    -0.027 C  
HETATM    3  C   UNL     1      -7.279   5.986  69.162  1.00  0.00    -0.082 C  
HETATM    4  C   UNL     1      -8.467   6.563  69.992  1.00  0.00    -0.135 C  
HETATM    5  C   UNL     1      -8.049   7.533  71.116  1.00  0.00    -0.100 C  
HETATM    6  C   UNL     1      -9.302   8.186  71.671  1.00  0.00    -0.174 C  
HETATM    7  F   UNL     1      -8.923   9.172  72.529  1.00  0.00    -0.113 F  
HETATM    8  C   UNL     1     -10.173   7.165  72.363  1.00  0.00    -0.214 C  
HETATM    9  C   UNL     1     -11.080   7.649  73.246  1.00  0.00    -0.254 C  
HETATM   10  C   UNL     1     -12.295   8.154  72.486  1.00  0.00    -0.242 C  
HETATM   11  C   UNL     1     -12.632   7.400  71.235  1.00  0.00    -0.376 C  
HETATM   12  O   UNL     1     -12.993   9.062  72.906  1.00  0.00    -0.328 OA 
HETATM   13  C   UNL     1     -11.862   6.390  70.773  1.00  0.00    -0.319 C  
HETATM   14  C   UNL     1     -10.568   5.942  71.481  1.00  0.00    -0.300 C  
HETATM   15  C   UNL     1      -9.322   5.435  70.607  1.00  0.00    -0.162 C  
HETATM   16  C   UNL     1     -10.973   4.757  72.399  1.00  0.00    -0.118 C  
HETATM   17  F   UNL     1      -8.464   4.832  71.528  1.00  0.00    -0.106 F  
HETATM   18  C   UNL     1      -9.583   4.312  69.566  1.00  0.00    -0.204 C  
HETATM   19  C   UNL     1      -8.281   3.938  68.800  1.00  0.00    -0.083 C  
HETATM   20  O   UNL     1     -10.672   4.570  68.693  1.00  0.00     0.515 OA 
HETATM   21  C   UNL     1      -7.555   5.003  67.863  1.00  0.00    -0.083 C  
HETATM   22  H   UNL     1     -10.831   3.884  68.056  1.00  0.00     0.000 HD 
HETATM   23  C   UNL     1      -8.535   4.427  66.656  1.00  0.00    -0.105 C  
HETATM   24  C   UNL     1      -7.058   6.150  66.755  1.00  0.00    -0.073 C  
HETATM   25  O   UNL     1      -8.045   6.680  65.832  1.00  0.00    -0.112 OA 
HETATM   26  C   UNL     1     -10.027   7.228  67.215  1.00  0.00    -0.251 C  
HETATM   27  O   UNL     1      -7.858   8.267  67.493  1.00  0.00    -0.103 OA 
HETATM   28  C   UNL     1      -8.756   7.726  66.524  1.00  0.00    -0.148 C  
HETATM   29  C   UNL     1      -9.294   8.805  65.589  1.00  0.00    -0.219 C  
ENDROOT
BRANCH  24  30
HETATM   30  C   UNL     1      -5.756   5.451  66.170  1.00  0.00    -0.018 C  
HETATM   31  O   UNL     1      -5.182   4.554  66.810  1.00  0.00    -0.008 OA 
BRANCH  30  32
HETATM   32  C   UNL     1      -5.168   5.855  64.815  1.00  0.00    -0.013 C  
BRANCH  32  33
HETATM   33  O   UNL     1      -6.203   5.988  63.802  1.00  0.00    -0.025 OA 
BRANCH  33  34
HETATM   34  C   UNL     1      -6.487   4.845  63.107  1.00  0.00    -0.026 C  
HETATM   35  C   UNL     1      -7.952   4.643  62.880  1.00  0.00    -0.073 C  
HETATM   36  O   UNL     1      -5.625   4.060  62.700  1.00  0.00    -0.009 OA 
ENDBRANCH  33  34
ENDBRANCH  32  33
ENDBRANCH  30  32
ENDBRANCH  24  30
TORSDOF 4
ENDMDL
MODEL       88
REMARK 921   NORMALIZED FREE ENERGY PREDICTED BY IDOCK:   -3.08 KCAL/MOL
REMARK 922        TOTAL FREE ENERGY PREDICTED BY IDOCK:   -4.43 KCAL/MOL
REMARK 923 INTER-LIGAND FREE ENERGY PREDICTED BY IDOCK:   -4.07 KCAL/MOL
REMARK 924 INTRA-LIGAND FREE ENERGY PREDICTED BY IDOCK:   -0.36 KCAL/MOL
REMARK 927      BINDING AFFINITY PREDICTED BY RF-SCORE:    0.00 PKD
ROOT
HETATM    1  C   UNL     1      -8.684  14.059  66.568  1.00  0.00     0.079 C  
HETATM    2  C   UNL     1      -9.353  13.270  65.507  1.00  0.00     0.308 C  
HETATM    3  C   UNL     1      -9.998  12.127  66.298  1.00  0.00    -0.249 C  
HETATM    4  C   UNL     1      -9.124  10.839  66.405  1.00  0.00    -0.188 C  
HETATM    5  C   UNL     1      -8.441  10.419  65.087  1.00  0.00    -0.177 C  
HETATM    6  C   UNL     1      -7.454   9.308  65.396  1.00  0.00    -0.098 C  
HETATM    7  F   UNL     1      -6.722   9.065  64.275  1.00  0.00    -0.080 F  
HETATM    8  C   UNL     1      -8.177   8.064  65.856  1.00  0.00    -0.127 C  
HETATM    9  C   UNL     1      -7.489   6.900  65.762  1.00  0.00    -0.084 C  
HETATM   10  C   UNL     1      -6.549   6.779  66.950  1.00  0.00    -0.044 C  
HETATM   11  C   UNL     1      -7.045   7.383  68.229  1.00  0.00    -0.084 C  
HETATM   12  O   UNL     1      -5.495   6.167  66.885  1.00  0.00    -0.008 OA 
HETATM   13  C   UNL     1      -8.214   8.056  68.302  1.00  0.00    -0.123 C  
HETATM   14  C   UNL     1      -9.123   8.276  67.076  1.00  0.00    -0.172 C  
HETATM   15  C   UNL     1      -9.947   9.646  66.936  1.00  0.00    -0.212 C  
HETATM   16  C   UNL     1     -10.174   7.133  67.114  1.00  0.00    -0.327 C  
HETATM   17  F   UNL     1     -10.873   9.401  65.921  1.00  0.00    -0.009 F  
HETATM   18  C   UNL     1     -10.832  10.079  68.137  1.00  0.00    -0.255 C  
HETATM   19  C   UNL     1     -11.558  11.425  67.847  1.00  0.00    -0.337 C  
HETATM   20  O   UNL     1     -10.157  10.083  69.385  1.00  0.00    -0.192 OA 
HETATM   21  C   UNL     1     -10.726  12.767  67.635  1.00  0.00    -0.236 C  
HETATM   22  H   UNL     1     -10.698  10.348  70.119  1.00  0.00     0.000 HD 
HETATM   23  C   UNL     1     -10.844  12.955  69.278  1.00  0.00    -0.040 C  
HETATM   24  C   UNL     1      -9.727  14.106  67.668  1.00  0.00    -0.228 C  
HETATM   25  O   UNL     1      -8.827  14.257  68.797  1.00  0.00    -0.168 OA 
HETATM   26  C   UNL     1      -7.759  12.041  69.103  1.00  0.00     0.200 C  
HETATM   27  O   UNL     1      -7.529  13.387  67.102  1.00  0.00    -0.095 OA 
HETATM   28  C   UNL     1      -7.661  13.454  68.523  1.00  0.00    -0.124 C  
HETATM   29  C   UNL     1      -6.394  13.990  69.182  1.00  0.00    -0.108 C  
ENDROOT
BRANCH  24  30
HETATM   30  C   UNL     1     -10.772  15.262  67.358  1.00  0.00    -0.293 C  
HETATM   31  O   UNL     1     -10.514  16.440  67.659  1.00  0.00    -0.288 OA 
BRANCH  30  32
HETATM   32  C   UNL     1     -12.117  14.971  66.686  1.00  0.00     0.148 C  
BRANCH  32  33
HETATM   33  O   UNL     1     -12.070  15.240  65.258  1.00  0.00    -0.003 OA 
BRANCH  33  34
HETATM   34  C   UNL     1     -12.320  14.162  64.455  1.00  0.00    -0.381 C  
HETATM   35  C   UNL     1     -13.066  13.069  65.153  1.00  0.00     0.073 C  
HETATM   36  O   UNL     1     -11.974  14.096  63.272  1.00  0.00    -0.145 OA 
ENDBRANCH  33  34
ENDBRANCH  32  33
ENDBRANCH  30  32
ENDBRANCH  24  30
TORSDOF 4
ENDMDL
MODEL       89
REMARK 921   NORMALIZED FREE ENERGY PREDICTED BY IDOCK:   -3.05 KCAL/MOL
REMARK 922        TOTAL FREE ENERGY PREDICTED BY IDOCK:   -4.39 KCAL/MOL
REMARK 923 INTER-LIGAND FREE ENERGY PREDICTED BY IDOCK:   -4.07 KCAL/MOL
REMARK 924 INTRA-LIGAND FREE ENERGY PREDICTED BY IDOCK:   -0.32 KCAL/MOL
REMARK 927      BINDING AFFINITY PREDICTED BY RF-SCORE:    0.00 PKD
ROOT
HETATM    1  C   UNL     1      -8.501   5.728  70.457  1.00  0.00    -0.127 C  
HETATM    2  C   UNL     1      -9.577   5.663  69.440  1.00  0.00    -0.187 C  
HETATM    3  C   UNL     1      -8.870   6.160  68.174  1.00  0.00    -0.112 C  
HETATM    4  C   UNL     1      -9.010   7.692  67.912  1.00  0.00    -0.128 C  
HETATM    5  C   UNL     1     -10.431   8.250  68.129  1.00  0.00    -0.226 C  
HETATM    6  C   UNL     1     -10.361   9.765  68.069  1.00  0.00    -0.207 C  
HETATM    7  F   UNL     1     -11.571  10.262  68.442  1.00  0.00    -0.304 F  
HETATM    8  C   UNL     1      -9.985  10.228  66.682  1.00  0.00    -0.270 C  
HETATM    9  C   UNL     1     -10.289  11.512  66.373  1.00  0.00    -0.277 C  
HETATM   10  C   UNL     1      -9.226  12.429  66.955  1.00  0.00    -0.209 C  
HETATM   11  C   UNL     1      -7.839  11.862  67.000  1.00  0.00    -0.152 C  
HETATM   12  O   UNL     1      -9.471  13.576  67.292  1.00  0.00    -0.215 OA 
HETATM   13  C   UNL     1      -7.567  10.593  66.621  1.00  0.00    -0.129 C  
HETATM   14  C   UNL     1      -8.659   9.621  66.131  1.00  0.00    -0.138 C  
HETATM   15  C   UNL     1      -8.547   8.060  66.486  1.00  0.00    -0.140 C  
HETATM   16  C   UNL     1      -8.655   9.721  64.582  1.00  0.00    -0.199 C  
HETATM   17  F   UNL     1      -9.486   7.440  65.661  1.00  0.00    -0.047 F  
HETATM   18  C   UNL     1      -7.220   7.336  66.134  1.00  0.00    -0.074 C  
HETATM   19  C   UNL     1      -7.268   5.835  66.545  1.00  0.00    -0.074 C  
HETATM   20  O   UNL     1      -6.055   7.992  66.609  1.00  0.00    -0.047 OA 
HETATM   21  C   UNL     1      -7.398   5.417  68.077  1.00  0.00    -0.073 C  
HETATM   22  H   UNL     1      -5.243   7.549  66.394  1.00  0.00     0.000 HD 
HETATM   23  C   UNL     1      -5.741   5.461  68.103  1.00  0.00    -0.016 C  
HETATM   24  C   UNL     1      -7.303   5.154  69.724  1.00  0.00    -0.060 C  
HETATM   25  O   UNL     1      -6.261   5.841  70.465  1.00  0.00    -0.028 OA 
HETATM   26  C   UNL     1      -6.337   8.197  69.699  1.00  0.00    -0.033 C  
HETATM   27  O   UNL     1      -8.172   7.081  70.819  1.00  0.00    -0.118 OA 
HETATM   28  C   UNL     1      -6.748   7.167  70.753  1.00  0.00    -0.052 C  
HETATM   29  C   UNL     1      -6.160   7.757  72.032  1.00  0.00    -0.039 C  
ENDROOT
BRANCH  24  30
HETATM   30  C   UNL     1      -7.363   3.567  69.774  1.00  0.00    -0.045 C  
HETATM   31  O   UNL     1      -7.835   2.924  68.820  1.00  0.00    -0.053 OA 
BRANCH  30  32
HETATM   32  C   UNL     1      -6.849   2.782  70.984  1.00  0.00    -0.032 C  
BRANCH  32  33
HETATM   33  O   UNL     1      -6.982   3.547  72.214  1.00  0.00    -0.038 OA 
BRANCH  33  34
HETATM   34  C   UNL     1      -7.992   3.144  73.042  1.00  0.00    -0.064 C  
HETATM   35  C   UNL     1      -8.477   4.230  73.950  1.00  0.00    -0.095 C  
HETATM   36  O   UNL     1      -8.465   2.004  73.040  1.00  0.00    -0.060 OA 
ENDBRANCH  33  34
ENDBRANCH  32  33
ENDBRANCH  30  32
ENDBRANCH  24  30
TORSDOF 4
ENDMDL
MODEL       90
REMARK 921   NORMALIZED FREE ENERGY PREDICTED BY IDOCK:   -3.01 KCAL/MOL
REMARK 922        TOTAL FREE ENERGY PREDICTED BY IDOCK:   -4.35 KCAL/MOL
REMARK 923 INTER-LIGAND FREE ENERGY PREDICTED BY IDOCK:   -4.46 KCAL/MOL
REMARK 924 INTRA-LIGAND FREE ENERGY PREDICTED BY IDOCK:    0.12 KCAL/MOL
REMARK 927      BINDING AFFINITY PREDICTED BY RF-SCORE:    0.00 PKD
ROOT
HETATM    1  C   UNL     1      -8.393  14.680  66.710  1.00  0.00    -0.043 C  
HETATM    2  C   UNL     1      -9.468  13.978  65.969  1.00  0.00    -0.164 C  
HETATM    3  C   UNL     1     -10.500  13.696  67.066  1.00  0.00    -0.270 C  
HETATM    4  C   UNL     1     -10.355  12.302  67.750  1.00  0.00    -0.216 C  
HETATM    5  C   UNL     1     -10.103  11.134  66.773  1.00  0.00    -0.255 C  
HETATM    6  C   UNL     1      -9.753   9.901  67.587  1.00  0.00    -0.155 C  
HETATM    7  F   UNL     1      -9.352   8.925  66.728  1.00  0.00    -0.165 F  
HETATM    8  C   UNL     1     -10.936   9.451  68.411  1.00  0.00    -0.079 C  
HETATM    9  C   UNL     1     -10.914   8.167  68.843  1.00  0.00     0.118 C  
HETATM   10  C   UNL     1     -10.033   8.072  70.078  1.00  0.00    -0.191 C  
HETATM   11  C   UNL     1     -10.038   9.279  70.967  1.00  0.00    -0.373 C  
HETATM   12  O   UNL     1      -9.422   7.056  70.364  1.00  0.00    -0.162 OA 
HETATM   13  C   UNL     1     -10.719  10.403  70.653  1.00  0.00     0.020 C  
HETATM   14  C   UNL     1     -11.529  10.545  69.349  1.00  0.00    -0.329 C  
HETATM   15  C   UNL     1     -11.594  11.968  68.609  1.00  0.00    -0.319 C  
HETATM   16  C   UNL     1     -12.991  10.172  69.712  1.00  0.00     0.618 C  
HETATM   17  F   UNL     1     -12.621  11.835  67.674  1.00  0.00     0.259 F  
HETATM   18  C   UNL     1     -12.027  13.198  69.451  1.00  0.00    -0.291 C  
HETATM   19  C   UNL     1     -12.034  14.497  68.593  1.00  0.00    -0.320 C  
HETATM   20  O   UNL     1     -11.309  13.353  70.665  1.00  0.00    -0.328 OA 
HETATM   21  C   UNL     1     -10.682  15.066  67.971  1.00  0.00    -0.262 C  
HETATM   22  H   UNL     1     -11.574  14.106  71.181  1.00  0.00     0.000 HD 
HETATM   23  C   UNL     1     -10.523  15.902  69.393  1.00  0.00    -0.265 C  
HETATM   24  C   UNL     1      -9.162  15.646  67.592  1.00  0.00    -0.193 C  
HETATM   25  O   UNL     1      -8.190  15.762  68.664  1.00  0.00    -0.154 OA 
HETATM   26  C   UNL     1      -8.306  13.620  69.906  1.00  0.00     1.877 C  
HETATM   27  O   UNL     1      -7.662  13.797  67.579  1.00  0.00    -0.161 OA 
HETATM   28  C   UNL     1      -7.596  14.460  68.843  1.00  0.00    -0.128 C  
HETATM   29  C   UNL     1      -6.167  14.519  69.374  1.00  0.00    -0.115 C  
ENDROOT
BRANCH  24  30
HETATM   30  C   UNL     1      -9.540  16.942  66.754  1.00  0.00    -0.262 C  
HETATM   31  O   UNL     1      -8.820  17.314  65.812  1.00  0.00    -0.530 OA 
BRANCH  30  32
HETATM   32  C   UNL     1     -10.788  17.769  67.074  1.00  0.00    -0.080 C  
BRANCH  32  33
HETATM   33  O   UNL     1     -10.704  19.106  66.506  1.00  0.00    -0.414 OA 
BRANCH  33  34
HETATM   34  C   UNL     1      -9.966  20.000  67.231  1.00  0.00    -0.435 C  
HETATM   35  C   UNL     1      -9.965  19.707  68.698  1.00  0.00    -0.553 C  
HETATM   36  O   UNL     1      -9.356  20.948  66.730  1.00  0.00    -0.143 OA 
ENDBRANCH  33  34
ENDBRANCH  32  33
ENDBRANCH  30  32
ENDBRANCH  24  30
TORSDOF 4
ENDMDL
MODEL       91
REMARK 921   NORMALIZED FREE ENERGY PREDICTED BY IDOCK:   -2.84 KCAL/MOL
REMARK 922        TOTAL FREE ENERGY PREDICTED BY IDOCK:   -4.13 KCAL/MOL
REMARK 923 INTER-LIGAND FREE ENERGY PREDICTED BY IDOCK:   -3.70 KCAL/MOL
REMARK 924 INTRA-LIGAND FREE ENERGY PREDICTED BY IDOCK:   -0.44 KCAL/MOL
REMARK 927      BINDING AFFINITY PREDICTED BY RF-SCORE:    0.00 PKD
ROOT
HETATM    1  C   UNL     1      -9.767  12.288  69.201  1.00  0.00     0.456 C  
HETATM    2  C   UNL     1     -11.048  13.033  69.248  1.00  0.00    -0.194 C  
HETATM    3  C   UNL     1     -11.093  13.706  67.872  1.00  0.00    -0.283 C  
HETATM    4  C   UNL     1     -10.503  15.150  67.837  1.00  0.00    -0.245 C  
HETATM    5  C   UNL     1     -10.933  16.045  69.017  1.00  0.00    -0.296 C  
HETATM    6  C   UNL     1     -10.107  17.318  68.974  1.00  0.00    -0.302 C  
HETATM    7  F   UNL     1     -10.352  18.022  70.113  1.00  0.00     0.182 F  
HETATM    8  C   UNL     1     -10.442  18.131  67.747  1.00  0.00    -0.421 C  
HETATM    9  C   UNL     1     -10.112  19.445  67.788  1.00  0.00    -0.508 C  
HETATM   10  C   UNL     1      -8.634  19.597  67.472  1.00  0.00    -0.311 C  
HETATM   11  C   UNL     1      -8.076  18.602  66.500  1.00  0.00    -0.301 C  
HETATM   12  O   UNL     1      -7.964  20.514  67.920  1.00  0.00    -0.203 OA 
HETATM   13  C   UNL     1      -8.818  17.590  65.999  1.00  0.00    -0.066 C  
HETATM   14  C   UNL     1     -10.290  17.365  66.398  1.00  0.00    -0.317 C  
HETATM   15  C   UNL     1     -10.859  15.868  66.518  1.00  0.00    -0.198 C  
HETATM   16  C   UNL     1     -11.141  18.072  65.308  1.00  0.00     0.728 C  
HETATM   17  F   UNL     1     -12.244  16.019  66.583  1.00  0.00     0.778 F  
HETATM   18  C   UNL     1     -10.654  14.923  65.303  1.00  0.00    -0.401 C  
HETATM   19  C   UNL     1     -11.254  13.513  65.577  1.00  0.00    -0.304 C  
HETATM   20  O   UNL     1      -9.317  14.862  64.832  1.00  0.00    -0.029 OA 
HETATM   21  C   UNL     1     -10.662  12.589  66.733  1.00  0.00    -0.261 C  
HETATM   22  H   UNL     1      -9.191  14.283  64.089  1.00  0.00     0.000 HD 
HETATM   23  C   UNL     1      -9.620  12.018  65.577  1.00  0.00    -0.174 C  
HETATM   24  C   UNL     1      -9.783  11.670  67.816  1.00  0.00    -0.173 C  
HETATM   25  O   UNL     1      -8.347  11.572  67.620  1.00  0.00    -0.127 OA 
HETATM   26  C   UNL     1      -7.569  13.889  67.212  1.00  0.00    -0.079 C  
HETATM   27  O   UNL     1      -8.625  13.161  69.266  1.00  0.00     0.532 OA 
HETATM   28  C   UNL     1      -7.756  12.746  68.212  1.00  0.00    -0.136 C  
HETATM   29  C   UNL     1      -6.334  12.514  68.712  1.00  0.00    -0.079 C  
ENDROOT
BRANCH  24  30
HETATM   30  C   UNL     1     -10.647  10.336  67.842  1.00  0.00    -0.239 C  
HETATM   31  O   UNL     1     -11.608  10.195  67.067  1.00  0.00     0.127 OA 
BRANCH  30  32
HETATM   32  C   UNL     1     -10.331   9.193  68.810  1.00  0.00    -0.214 C  
BRANCH  32  33
HETATM   33  O   UNL     1      -9.234   8.370  68.327  1.00  0.00    -0.135 OA 
BRANCH  33  34
HETATM   34  C   UNL     1      -9.603   7.313  67.541  1.00  0.00    -0.141 C  
HETATM   35  C   UNL     1     -10.195   6.181  68.320  1.00  0.00    -0.207 C  
HETATM   36  O   UNL     1      -9.470   7.294  66.314  1.00  0.00    -0.156 OA 
ENDBRANCH  33  34
ENDBRANCH  32  33
ENDBRANCH  30  32
ENDBRANCH  24  30
TORSDOF 4
ENDMDL
MODEL       92
REMARK 921   NORMALIZED FREE ENERGY PREDICTED BY IDOCK:   -2.62 KCAL/MOL
REMARK 922        TOTAL FREE ENERGY PREDICTED BY IDOCK:   -3.86 KCAL/MOL
REMARK 923 INTER-LIGAND FREE ENERGY PREDICTED BY IDOCK:   -3.41 KCAL/MOL
REMARK 924 INTRA-LIGAND FREE ENERGY PREDICTED BY IDOCK:   -0.46 KCAL/MOL
REMARK 927      BINDING AFFINITY PREDICTED BY RF-SCORE:    0.00 PKD
ROOT
HETATM    1  C   UNL     1      -8.058   5.330  65.257  1.00  0.00    -0.123 C  
HETATM    2  C   UNL     1      -6.992   6.360  65.241  1.00  0.00    -0.056 C  
HETATM    3  C   UNL     1      -7.256   7.134  66.536  1.00  0.00    -0.079 C  
HETATM    4  C   UNL     1      -8.171   8.387  66.368  1.00  0.00    -0.109 C  
HETATM    5  C   UNL     1      -7.839   9.260  65.141  1.00  0.00    -0.110 C  
HETATM    6  C   UNL     1      -8.942  10.290  64.978  1.00  0.00    -0.196 C  
HETATM    7  F   UNL     1      -8.749  10.937  63.796  1.00  0.00    -0.174 F  
HETATM    8  C   UNL     1      -8.943  11.259  66.136  1.00  0.00    -0.210 C  
HETATM    9  C   UNL     1      -9.567  12.444  65.928  1.00  0.00    -0.193 C  
HETATM   10  C   UNL     1     -11.065  12.254  66.100  1.00  0.00    -0.311 C  
HETATM   11  C   UNL     1     -11.474  11.236  67.121  1.00  0.00    -0.217 C  
HETATM   12  O   UNL     1     -11.880  12.938  65.501  1.00  0.00    -0.363 OA 
HETATM   13  C   UNL     1     -10.572  10.482  67.787  1.00  0.00    -0.285 C  
HETATM   14  C   UNL     1      -9.054  10.592  67.541  1.00  0.00    -0.144 C  
HETATM   15  C   UNL     1      -8.139   9.277  67.629  1.00  0.00    -0.104 C  
HETATM   16  C   UNL     1      -8.518  11.574  68.618  1.00  0.00    -0.115 C  
HETATM   17  F   UNL     1      -6.830   9.757  67.666  1.00  0.00    -0.078 F  
HETATM   18  C   UNL     1      -8.245   8.413  68.915  1.00  0.00    -0.115 C  
HETATM   19  C   UNL     1      -7.303   7.176  68.844  1.00  0.00    -0.093 C  
HETATM   20  O   UNL     1      -9.573   8.065  69.275  1.00  0.00    -0.156 OA 
HETATM   21  C   UNL     1      -7.532   6.043  67.746  1.00  0.00    -0.085 C  
HETATM   22  H   UNL     1      -9.637   7.536  70.061  1.00  0.00     0.000 HD 
HETATM   23  C   UNL     1      -8.527   5.331  68.864  1.00  0.00    -0.091 C  
HETATM   24  C   UNL     1      -8.046   4.850  66.696  1.00  0.00    -0.107 C  
HETATM   25  O   UNL     1      -9.430   4.419  66.779  1.00  0.00    -0.152 OA 
HETATM   26  C   UNL     1     -10.774   6.501  66.871  1.00  0.00    -0.403 C  
HETATM   27  O   UNL     1      -9.360   5.888  65.003  1.00  0.00     0.247 OA 
HETATM   28  C   UNL     1     -10.215   5.360  66.018  1.00  0.00    -0.069 C  
HETATM   29  C   UNL     1     -11.480   4.746  65.426  1.00  0.00     0.727 C  
ENDROOT
BRANCH  24  30
HETATM   30  C   UNL     1      -6.894   3.773  66.885  1.00  0.00    -0.051 C  
HETATM   31  O   UNL     1      -5.703   4.092  66.734  1.00  0.00    -0.020 OA 
BRANCH  30  32
HETATM   32  C   UNL     1      -7.206   2.320  67.256  1.00  0.00    -0.056 C  
BRANCH  32  33
HETATM   33  O   UNL     1      -6.291   1.818  68.269  1.00  0.00    -0.024 OA 
BRANCH  33  34
HETATM   34  C   UNL     1      -6.538   2.254  69.542  1.00  0.00    -0.029 C  
HETATM   35  C   UNL     1      -7.821   1.728  70.103  1.00  0.00    -0.047 C  
HETATM   36  O   UNL     1      -5.780   2.998  70.169  1.00  0.00    -0.016 OA 
ENDBRANCH  33  34
ENDBRANCH  32  33
ENDBRANCH  30  32
ENDBRANCH  24  30
TORSDOF 4
ENDMDL
MODEL       93
REMARK 921   NORMALIZED FREE ENERGY PREDICTED BY IDOCK:   -2.44 KCAL/MOL
REMARK 922        TOTAL FREE ENERGY PREDICTED BY IDOCK:   -3.64 KCAL/MOL
REMARK 923 INTER-LIGAND FREE ENERGY PREDICTED BY IDOCK:   -3.22 KCAL/MOL
REMARK 924 INTRA-LIGAND FREE ENERGY PREDICTED BY IDOCK:   -0.42 KCAL/MOL
REMARK 927      BINDING AFFINITY PREDICTED BY RF-SCORE:    0.00 PKD
ROOT
HETATM    1  C   UNL     1      -6.346   6.479  69.264  1.00  0.00    -0.035 C  
HETATM    2  C   UNL     1      -7.003   5.762  70.382  1.00  0.00    -0.065 C  
HETATM    3  C   UNL     1      -8.455   5.657  69.906  1.00  0.00    -0.121 C  
HETATM    4  C   UNL     1      -9.381   6.815  70.388  1.00  0.00    -0.163 C  
HETATM    5  C   UNL     1      -9.207   7.197  71.873  1.00  0.00    -0.149 C  
HETATM    6  C   UNL     1      -9.988   8.472  72.131  1.00  0.00    -0.317 C  
HETATM    7  F   UNL     1      -9.687   8.909  73.384  1.00  0.00     0.095 F  
HETATM    8  C   UNL     1     -11.471   8.230  71.979  1.00  0.00    -0.399 C  
HETATM    9  C   UNL     1     -12.291   9.130  72.574  1.00  0.00    -0.216 C  
HETATM   10  C   UNL     1     -12.412  10.356  71.685  1.00  0.00    -0.370 C  
HETATM   11  C   UNL     1     -12.351  10.093  70.211  1.00  0.00    -0.211 C  
HETATM   12  O   UNL     1     -12.621  11.470  72.139  1.00  0.00    -0.007 OA 
HETATM   13  C   UNL     1     -12.125   8.859  69.708  1.00  0.00     0.915 C  
HETATM   14  C   UNL     1     -11.894   7.627  70.606  1.00  0.00    -0.169 C  
HETATM   15  C   UNL     1     -10.868   6.486  70.136  1.00  0.00    -0.282 C  
HETATM   16  C   UNL     1     -13.279   6.940  70.751  1.00  0.00     0.240 C  
HETATM   17  F   UNL     1     -11.120   5.409  70.986  1.00  0.00    -0.287 F  
HETATM   18  C   UNL     1     -11.065   5.882  68.719  1.00  0.00    -0.146 C  
HETATM   19  C   UNL     1      -9.991   4.797  68.413  1.00  0.00    -0.156 C  
HETATM   20  O   UNL     1     -11.171   6.847  67.684  1.00  0.00    -0.548 OA 
HETATM   21  C   UNL     1      -8.448   5.184  68.322  1.00  0.00    -0.095 C  
HETATM   22  H   UNL     1     -11.291   6.478  66.817  1.00  0.00     0.000 HD 
HETATM   23  C   UNL     1      -8.740   5.474  66.716  1.00  0.00    -0.114 C  
HETATM   24  C   UNL     1      -6.919   5.795  68.037  1.00  0.00    -0.065 C  
HETATM   25  O   UNL     1      -6.790   6.901  67.106  1.00  0.00    -0.067 OA 
HETATM   26  C   UNL     1      -8.553   8.522  67.745  1.00  0.00    -0.134 C  
HETATM   27  O   UNL     1      -6.733   7.863  69.201  1.00  0.00    -0.046 OA 
HETATM   28  C   UNL     1      -7.083   8.109  67.838  1.00  0.00    -0.083 C  
HETATM   29  C   UNL     1      -6.363   9.335  67.284  1.00  0.00    -0.059 C  
ENDROOT
BRANCH  24  30
HETATM   30  C   UNL     1      -6.114   4.454  67.754  1.00  0.00    -0.031 C  
HETATM   31  O   UNL     1      -6.208   3.488  68.529  1.00  0.00    -0.030 OA 
BRANCH  30  32
HETATM   32  C   UNL     1      -5.204   4.307  66.531  1.00  0.00    -0.009 C  
BRANCH  32  33
HETATM   33  O   UNL     1      -5.267   2.965  65.975  1.00  0.00    -0.008 OA 
BRANCH  33  34
HETATM   34  C   UNL     1      -6.050   2.834  64.861  1.00  0.00    -0.019 C  
HETATM   35  C   UNL     1      -7.295   2.042  65.106  1.00  0.00    -0.058 C  
HETATM   36  O   UNL     1      -5.765   3.324  63.765  1.00  0.00    -0.009 OA 
ENDBRANCH  33  34
ENDBRANCH  32  33
ENDBRANCH  30  32
ENDBRANCH  24  30
TORSDOF 4
ENDMDL
MODEL       94
REMARK 921   NORMALIZED FREE ENERGY PREDICTED BY IDOCK:   -1.71 KCAL/MOL
REMARK 922        TOTAL FREE ENERGY PREDICTED BY IDOCK:   -2.73 KCAL/MOL
REMARK 923 INTER-LIGAND FREE ENERGY PREDICTED BY IDOCK:   -2.68 KCAL/MOL
REMARK 924 INTRA-LIGAND FREE ENERGY PREDICTED BY IDOCK:   -0.06 KCAL/MOL
REMARK 927      BINDING AFFINITY PREDICTED BY RF-SCORE:    0.00 PKD
ROOT
HETATM    1  C   UNL     1      -7.789   5.662  66.784  1.00  0.00    -0.101 C  
HETATM    2  C   UNL     1      -6.437   6.266  66.858  1.00  0.00    -0.046 C  
HETATM    3  C   UNL     1      -6.524   7.126  68.123  1.00  0.00    -0.045 C  
HETATM    4  C   UNL     1      -6.938   8.609  67.872  1.00  0.00    -0.078 C  
HETATM    5  C   UNL     1      -6.229   9.276  66.675  1.00  0.00    -0.065 C  
HETATM    6  C   UNL     1      -6.896  10.615  66.414  1.00  0.00    -0.129 C  
HETATM    7  F   UNL     1      -6.398  11.118  65.252  1.00  0.00    -0.001 F  
HETATM    8  C   UNL     1      -6.659  11.563  67.565  1.00  0.00    -0.087 C  
HETATM    9  C   UNL     1      -6.821  12.882  67.300  1.00  0.00    -0.066 C  
HETATM   10  C   UNL     1      -8.302  13.220  67.341  1.00  0.00    -0.192 C  
HETATM   11  C   UNL     1      -9.116  12.436  68.325  1.00  0.00    -0.183 C  
HETATM   12  O   UNL     1      -8.782  14.121  66.672  1.00  0.00    -0.169 OA 
HETATM   13  C   UNL     1      -8.583  11.442  69.070  1.00  0.00     0.067 C  
HETATM   14  C   UNL     1      -7.105  11.021  68.956  1.00  0.00    -0.106 C  
HETATM   15  C   UNL     1      -6.706   9.476  69.128  1.00  0.00    -0.049 C  
HETATM   16  C   UNL     1      -6.354  11.795  70.073  1.00  0.00    -0.092 C  
HETATM   17  F   UNL     1      -5.319   9.482  69.277  1.00  0.00    -0.035 F  
HETATM   18  C   UNL     1      -7.204   8.742  70.403  1.00  0.00    -0.050 C  
HETATM   19  C   UNL     1      -6.740   7.256  70.417  1.00  0.00    -0.052 C  
HETATM   20  O   UNL     1      -8.596   8.879  70.646  1.00  0.00    -0.155 OA 
HETATM   21  C   UNL     1      -7.254   6.234  69.307  1.00  0.00    -0.086 C  
HETATM   22  H   UNL     1      -8.901   8.430  71.426  1.00  0.00     0.000 HD 
HETATM   23  C   UNL     1      -8.520   5.941  70.336  1.00  0.00    -0.131 C  
HETATM   24  C   UNL     1      -8.059   5.254  68.220  1.00  0.00    -0.094 C  
HETATM   25  O   UNL     1      -9.509   5.324  68.183  1.00  0.00    -0.114 OA 
HETATM   26  C   UNL     1     -10.061   7.740  68.152  1.00  0.00    -0.220 C  
HETATM   27  O   UNL     1      -8.796   6.622  66.416  1.00  0.00    -0.134 OA 
HETATM   28  C   UNL     1      -9.860   6.450  67.354  1.00  0.00    -0.131 C  
HETATM   29  C   UNL     1     -11.206   6.285  66.655  1.00  0.00     0.039 C  
ENDROOT
BRANCH  24  30
HETATM   30  C   UNL     1      -7.364   3.855  68.512  1.00  0.00    -0.055 C  
HETATM   31  O   UNL     1      -8.053   2.840  68.712  1.00  0.00    -0.055 OA 
BRANCH  30  32
HETATM   32  C   UNL     1      -5.841   3.709  68.558  1.00  0.00    -0.023 C  
BRANCH  32  33
HETATM   33  O   UNL     1      -5.310   4.042  69.870  1.00  0.00    -0.007 OA 
BRANCH  33  34
HETATM   34  C   UNL     1      -5.583   3.132  70.855  1.00  0.00    -0.013 C  
HETATM   35  C   UNL     1      -5.149   1.743  70.507  1.00  0.00    -0.004 C  
HETATM   36  O   UNL     1      -6.124   3.424  71.925  1.00  0.00    -0.013 OA 
ENDBRANCH  33  34
ENDBRANCH  32  33
ENDBRANCH  30  32
ENDBRANCH  24  30
TORSDOF 4
ENDMDL
MODEL       95
REMARK 921   NORMALIZED FREE ENERGY PREDICTED BY IDOCK:   -1.53 KCAL/MOL
REMARK 922        TOTAL FREE ENERGY PREDICTED BY IDOCK:   -2.51 KCAL/MOL
REMARK 923 INTER-LIGAND FREE ENERGY PREDICTED BY IDOCK:   -2.41 KCAL/MOL
REMARK 924 INTRA-LIGAND FREE ENERGY PREDICTED BY IDOCK:   -0.11 KCAL/MOL
REMARK 927      BINDING AFFINITY PREDICTED BY RF-SCORE:    0.00 PKD
ROOT
HETATM    1  C   UNL     1      -7.950   5.562  65.930  1.00  0.00    -0.106 C  
HETATM    2  C   UNL     1      -6.736   6.405  65.821  1.00  0.00    -0.048 C  
HETATM    3  C   UNL     1      -6.734   7.162  67.153  1.00  0.00    -0.067 C  
HETATM    4  C   UNL     1      -7.441   8.552  67.111  1.00  0.00    -0.085 C  
HETATM    5  C   UNL     1      -7.097   9.406  65.874  1.00  0.00    -0.091 C  
HETATM    6  C   UNL     1      -8.026  10.607  65.853  1.00  0.00    -0.157 C  
HETATM    7  F   UNL     1      -7.851  11.259  64.671  1.00  0.00     0.274 F  
HETATM    8  C   UNL     1      -7.748  11.517  67.025  1.00  0.00    -0.158 C  
HETATM    9  C   UNL     1      -8.186  12.795  66.911  1.00  0.00    -0.031 C  
HETATM   10  C   UNL     1      -9.669  12.845  67.238  1.00  0.00    -0.220 C  
HETATM   11  C   UNL     1     -10.133  11.867  68.275  1.00  0.00    -0.203 C  
HETATM   12  O   UNL     1     -10.416  13.674  66.745  1.00  0.00    -0.266 OA 
HETATM   13  C   UNL     1      -9.305  10.952  68.824  1.00  0.00    -0.190 C  
HETATM   14  C   UNL     1      -7.823  10.824  68.419  1.00  0.00    -0.120 C  
HETATM   15  C   UNL     1      -7.134   9.375  68.380  1.00  0.00    -0.072 C  
HETATM   16  C   UNL     1      -7.024  11.663  69.452  1.00  0.00    -0.051 C  
HETATM   17  F   UNL     1      -5.767   9.635  68.286  1.00  0.00    -0.040 F  
HETATM   18  C   UNL     1      -7.249   8.491  69.652  1.00  0.00    -0.052 C  
HETATM   19  C   UNL     1      -6.537   7.121  69.453  1.00  0.00    -0.044 C  
HETATM   20  O   UNL     1      -8.572   8.349  70.144  1.00  0.00    -0.125 OA 
HETATM   21  C   UNL     1      -7.061   6.084  68.362  1.00  0.00    -0.082 C  
HETATM   22  H   UNL     1      -8.642   7.807  70.922  1.00  0.00     0.000 HD 
HETATM   23  C   UNL     1      -8.040   5.500  69.565  1.00  0.00    -0.101 C  
HETATM   24  C   UNL     1      -7.871   5.031  67.349  1.00  0.00    -0.095 C  
HETATM   25  O   UNL     1      -9.291   4.828  67.571  1.00  0.00    -0.125 OA 
HETATM   26  C   UNL     1     -10.255   7.094  67.851  1.00  0.00    -0.231 C  
HETATM   27  O   UNL     1      -9.161   6.333  65.829  1.00  0.00    -0.123 OA 
HETATM   28  C   UNL     1      -9.983   5.912  66.918  1.00  0.00    -0.171 C  
HETATM   29  C   UNL     1     -11.386   5.534  66.453  1.00  0.00     0.552 C  
ENDROOT
BRANCH  24  30
HETATM   30  C   UNL     1      -6.899   3.775  67.390  1.00  0.00    -0.054 C  
HETATM   31  O   UNL     1      -7.282   2.699  67.880  1.00  0.00    -0.048 OA 
BRANCH  30  32
HETATM   32  C   UNL     1      -5.474   3.843  66.834  1.00  0.00    -0.017 C  
BRANCH  32  33
HETATM   33  O   UNL     1      -5.160   2.678  66.021  1.00  0.00    -0.004 OA 
BRANCH  33  34
HETATM   34  C   UNL     1      -5.904   2.549  64.880  1.00  0.00    -0.018 C  
HETATM   35  C   UNL     1      -5.538   3.545  63.825  1.00  0.00    -0.013 C  
HETATM   36  O   UNL     1      -6.782   1.696  64.729  1.00  0.00    -0.025 OA 
ENDBRANCH  33  34
ENDBRANCH  32  33
ENDBRANCH  30  32
ENDBRANCH  24  30
TORSDOF 4
ENDMDL
MODEL       96
REMARK 921   NORMALIZED FREE ENERGY PREDICTED BY IDOCK:   -0.66 KCAL/MOL
REMARK 922        TOTAL FREE ENERGY PREDICTED BY IDOCK:   -1.44 KCAL/MOL
REMARK 923 INTER-LIGAND FREE ENERGY PREDICTED BY IDOCK:   -0.80 KCAL/MOL
REMARK 924 INTRA-LIGAND FREE ENERGY PREDICTED BY IDOCK:   -0.64 KCAL/MOL
REMARK 927      BINDING AFFINITY PREDICTED BY RF-SCORE:    0.00 PKD
ROOT
HETATM    1  C   UNL     1      -7.474   9.353  67.897  1.00  0.00    -0.084 C  
HETATM    2  C   UNL     1      -6.889  10.273  66.893  1.00  0.00    -0.086 C  
HETATM    3  C   UNL     1      -7.730  11.541  67.071  1.00  0.00    -0.158 C  
HETATM    4  C   UNL     1      -8.965  11.638  66.123  1.00  0.00    -0.180 C  
HETATM    5  C   UNL     1      -8.680  11.242  64.660  1.00  0.00     0.245 C  
HETATM    6  C   UNL     1     -10.005  11.159  63.923  1.00  0.00    -0.329 C  
HETATM    7  F   UNL     1      -9.773  10.634  62.690  1.00  0.00    -0.279 F  
HETATM    8  C   UNL     1     -10.647  12.523  63.824  1.00  0.00    -0.471 C  
HETATM    9  C   UNL     1     -11.587  12.676  62.860  1.00  0.00     0.373 C  
HETATM   10  C   UNL     1     -12.905  12.103  63.354  1.00  0.00    -0.272 C  
HETATM   11  C   UNL     1     -13.155  12.237  64.826  1.00  0.00     0.373 C  
HETATM   12  O   UNL     1     -13.736  11.634  62.593  1.00  0.00     0.541 OA 
HETATM   13  C   UNL     1     -12.237  12.761  65.668  1.00  0.00    -0.503 C  
HETATM   14  C   UNL     1     -10.853  13.245  65.189  1.00  0.00    -0.323 C  
HETATM   15  C   UNL     1      -9.575  13.056  66.141  1.00  0.00    -0.202 C  
HETATM   16  C   UNL     1     -10.997  14.772  64.945  1.00  0.00    -0.425 C  
HETATM   17  F   UNL     1      -8.584  13.852  65.567  1.00  0.00     0.827 F  
HETATM   18  C   UNL     1      -9.675  13.594  67.595  1.00  0.00    -0.228 C  
HETATM   19  C   UNL     1      -8.361  13.329  68.387  1.00  0.00    -0.131 C  
HETATM   20  O   UNL     1     -10.829  13.160  68.297  1.00  0.00    -0.236 OA 
HETATM   21  C   UNL     1      -7.881  11.840  68.689  1.00  0.00    -0.117 C  
HETATM   22  H   UNL     1     -10.890  13.489  69.186  1.00  0.00     0.000 HD 
HETATM   23  C   UNL     1      -8.793  11.956  70.068  1.00  0.00     2.962 C  
HETATM   24  C   UNL     1      -7.647  10.242  69.114  1.00  0.00    -0.111 C  
HETATM   25  O   UNL     1      -8.753   9.532  69.731  1.00  0.00    -0.158 OA 
HETATM   26  C   UNL     1     -10.739  10.053  68.343  1.00  0.00    -0.271 C  
HETATM   27  O   UNL     1      -8.783   8.891  67.517  1.00  0.00    -0.123 OA 
HETATM   28  C   UNL     1      -9.611   9.072  68.666  1.00  0.00    -0.153 C  
HETATM   29  C   UNL     1     -10.374   7.799  69.018  1.00  0.00    -0.219 C  
ENDROOT
BRANCH  24  30
HETATM   30  C   UNL     1      -6.267  10.343  69.896  1.00  0.00    -0.081 C  
HETATM   31  O   UNL     1      -5.763   9.333  70.416  1.00  0.00    -0.033 OA 
BRANCH  30  32
HETATM   32  C   UNL     1      -5.519  11.671  70.036  1.00  0.00    -0.098 C  
BRANCH  32  33
HETATM   33  O   UNL     1      -5.159  11.940  71.420  1.00  0.00    -0.192 OA 
BRANCH  33  34
HETATM   34  C   UNL     1      -5.382  13.222  71.839  1.00  0.00    -0.069 C  
HETATM   35  C   UNL     1      -5.568  14.186  70.710  1.00  0.00    -0.173 C  
HETATM   36  O   UNL     1      -5.433  13.554  73.027  1.00  0.00    -0.416 OA 
ENDBRANCH  33  34
ENDBRANCH  32  33
ENDBRANCH  30  32
ENDBRANCH  24  30
TORSDOF 4
ENDMDL
MODEL       97
REMARK 921   NORMALIZED FREE ENERGY PREDICTED BY IDOCK:    0.18 KCAL/MOL
REMARK 922        TOTAL FREE ENERGY PREDICTED BY IDOCK:   -0.40 KCAL/MOL
REMARK 923 INTER-LIGAND FREE ENERGY PREDICTED BY IDOCK:   -1.71 KCAL/MOL
REMARK 924 INTRA-LIGAND FREE ENERGY PREDICTED BY IDOCK:    1.31 KCAL/MOL
REMARK 927      BINDING AFFINITY PREDICTED BY RF-SCORE:    0.00 PKD
ROOT
HETATM    1  C   UNL     1      -7.892  18.246  67.279  1.00  0.00    -0.226 C  
HETATM    2  C   UNL     1      -9.354  18.243  67.526  1.00  0.00    -0.263 C  
HETATM    3  C   UNL     1      -9.573  16.893  68.217  1.00  0.00    -0.258 C  
HETATM    4  C   UNL     1      -9.952  15.726  67.254  1.00  0.00    -0.238 C  
HETATM    5  C   UNL     1     -11.004  16.093  66.187  1.00  0.00    -0.036 C  
HETATM    6  C   UNL     1     -11.093  14.949  65.194  1.00  0.00    -0.393 C  
HETATM    7  F   UNL     1     -11.879  15.347  64.157  1.00  0.00    -0.400 F  
HETATM    8  C   UNL     1     -11.648  13.710  65.855  1.00  0.00    -0.346 C  
HETATM    9  C   UNL     1     -12.169  12.770  65.029  1.00  0.00    -0.527 C  
HETATM   10  C   UNL     1     -11.038  11.939  64.446  1.00  0.00    -0.336 C  
HETATM   11  C   UNL     1      -9.858  11.733  65.347  1.00  0.00    -0.261 C  
HETATM   12  O   UNL     1     -11.118  11.412  63.348  1.00  0.00    -0.378 OA 
HETATM   13  C   UNL     1      -9.772  12.311  66.565  1.00  0.00    -0.242 C  
HETATM   14  C   UNL     1     -10.867  13.243  67.120  1.00  0.00    -0.268 C  
HETATM   15  C   UNL     1     -10.454  14.494  68.037  1.00  0.00    -0.236 C  
HETATM   16  C   UNL     1     -11.789  12.347  67.990  1.00  0.00    -0.376 C  
HETATM   17  F   UNL     1     -11.650  14.927  68.609  1.00  0.00    -0.274 F  
HETATM   18  C   UNL     1      -9.545  14.216  69.266  1.00  0.00     0.263 C  
HETATM   19  C   UNL     1      -9.231  15.526  70.045  1.00  0.00     0.227 C  
HETATM   20  O   UNL     1      -8.377  13.468  68.967  1.00  0.00    -0.346 OA 
HETATM   21  C   UNL     1      -8.396  16.698  69.360  1.00  0.00     0.137 C  
HETATM   22  H   UNL     1      -7.821  13.298  69.719  1.00  0.00     0.000 HD 
HETATM   23  C   UNL     1      -7.055  15.922  69.949  1.00  0.00     0.085 C  
HETATM   24  C   UNL     1      -7.325  17.717  68.583  1.00  0.00    -0.269 C  
HETATM   25  O   UNL     1      -6.099  17.145  68.056  1.00  0.00    -0.126 OA 
HETATM   26  C   UNL     1      -6.787  15.093  66.847  1.00  0.00     0.586 C  
HETATM   27  O   UNL     1      -7.513  17.322  66.243  1.00  0.00    -0.277 OA 
HETATM   28  C   UNL     1      -6.415  16.575  66.769  1.00  0.00    -0.088 C  
HETATM   29  C   UNL     1      -5.229  16.564  65.810  1.00  0.00     2.074 C  
ENDROOT
BRANCH  24  30
HETATM   30  C   UNL     1      -7.228  18.903  69.637  1.00  0.00     0.126 C  
HETATM   31  O   UNL     1      -6.515  18.789  70.648  1.00  0.00     0.282 OA 
BRANCH  30  32
HETATM   32  C   UNL     1      -8.000  20.211  69.447  1.00  0.00     0.443 C  
BRANCH  32  33
HETATM   33  O   UNL     1      -7.145  21.267  68.929  1.00  0.00     1.021 OA 
BRANCH  33  34
HETATM   34  C   UNL     1      -6.500  20.971  67.759  1.00  0.00    -0.351 C  
HETATM   35  C   UNL     1      -5.158  20.345  67.970  1.00  0.00    -0.213 C  
HETATM   36  O   UNL     1      -6.977  21.189  66.642  1.00  0.00    -0.230 OA 
ENDBRANCH  33  34
ENDBRANCH  32  33
ENDBRANCH  30  32
ENDBRANCH  24  30
TORSDOF 4
ENDMDL
MODEL       98
REMARK 921   NORMALIZED FREE ENERGY PREDICTED BY IDOCK:    0.91 KCAL/MOL
REMARK 922        TOTAL FREE ENERGY PREDICTED BY IDOCK:    0.50 KCAL/MOL
REMARK 923 INTER-LIGAND FREE ENERGY PREDICTED BY IDOCK:   -0.06 KCAL/MOL
REMARK 924 INTRA-LIGAND FREE ENERGY PREDICTED BY IDOCK:    0.56 KCAL/MOL
REMARK 927      BINDING AFFINITY PREDICTED BY RF-SCORE:    0.00 PKD
ROOT
HETATM    1  C   UNL     1      -8.209   9.632  67.244  1.00  0.00    -0.114 C  
HETATM    2  C   UNL     1      -8.135   8.313  66.573  1.00  0.00    -0.105 C  
HETATM    3  C   UNL     1      -9.162   7.484  67.352  1.00  0.00    -0.149 C  
HETATM    4  C   UNL     1      -8.569   6.671  68.545  1.00  0.00    -0.124 C  
HETATM    5  C   UNL     1      -7.247   5.943  68.226  1.00  0.00    -0.079 C  
HETATM    6  C   UNL     1      -6.679   5.400  69.525  1.00  0.00    -0.055 C  
HETATM    7  F   UNL     1      -5.429   4.922  69.276  1.00  0.00    -0.006 F  
HETATM    8  C   UNL     1      -7.573   4.323  70.090  1.00  0.00    -0.046 C  
HETATM    9  C   UNL     1      -7.004   3.477  70.984  1.00  0.00    -0.033 C  
HETATM   10  C   UNL     1      -6.968   4.146  72.348  1.00  0.00    -0.051 C  
HETATM   11  C   UNL     1      -8.111   5.069  72.645  1.00  0.00    -0.108 C  
HETATM   12  O   UNL     1      -6.106   3.892  73.174  1.00  0.00    -0.011 OA 
HETATM   13  C   UNL     1      -9.069   5.346  71.733  1.00  0.00    -0.152 C  
HETATM   14  C   UNL     1      -9.054   4.755  70.309  1.00  0.00    -0.166 C  
HETATM   15  C   UNL     1      -9.585   5.639  69.079  1.00  0.00    -0.135 C  
HETATM   16  C   UNL     1      -9.955   3.492  70.362  1.00  0.00     0.111 C  
HETATM   17  F   UNL     1      -9.725   4.734  68.026  1.00  0.00    -0.161 F  
HETATM   18  C   UNL     1     -10.998   6.271  69.204  1.00  0.00    -0.377 C  
HETATM   19  C   UNL     1     -11.361   7.098  67.936  1.00  0.00     0.246 C  
HETATM   20  O   UNL     1     -11.205   6.998  70.405  1.00  0.00    -0.272 OA 
HETATM   21  C   UNL     1     -10.525   8.397  67.547  1.00  0.00    -0.328 C  
HETATM   22  H   UNL     1     -12.069   7.385  70.482  1.00  0.00     0.000 HD 
HETATM   23  C   UNL     1     -11.597   9.225  68.503  1.00  0.00     0.816 C  
HETATM   24  C   UNL     1      -9.702   9.845  67.414  1.00  0.00    -0.162 C  
HETATM   25  O   UNL     1      -9.653  10.711  68.578  1.00  0.00    -0.161 OA 
HETATM   26  C   UNL     1      -9.053   9.240  70.481  1.00  0.00    -0.307 C  
HETATM   27  O   UNL     1      -7.628   9.610  68.559  1.00  0.00    -0.079 OA 
HETATM   28  C   UNL     1      -8.582  10.235  69.419  1.00  0.00    -0.156 C  
HETATM   29  C   UNL     1      -7.946  11.336  70.261  1.00  0.00     2.105 C  
ENDROOT
BRANCH  24  30
HETATM   30  C   UNL     1     -10.314  10.410  66.061  1.00  0.00    -0.192 C  
HETATM   31  O   UNL     1     -11.256  11.219  66.087  1.00  0.00    -0.210 OA 
BRANCH  30  32
HETATM   32  C   UNL     1      -9.772   9.983  64.694  1.00  0.00    -0.269 C  
BRANCH  32  33
HETATM   33  O   UNL     1      -8.916  11.006  64.115  1.00  0.00    -0.143 OA 
BRANCH  33  34
HETATM   34  C   UNL     1      -7.604  10.650  63.967  1.00  0.00     0.193 C  
HETATM   35  C   UNL     1      -6.720  11.208  65.037  1.00  0.00     0.735 C  
HETATM   36  O   UNL     1      -7.188   9.936  63.050  1.00  0.00    -0.117 OA 
ENDBRANCH  33  34
ENDBRANCH  32  33
ENDBRANCH  30  32
ENDBRANCH  24  30
TORSDOF 4
ENDMDL
MODEL       99
REMARK 921   NORMALIZED FREE ENERGY PREDICTED BY IDOCK:    1.35 KCAL/MOL
REMARK 922        TOTAL FREE ENERGY PREDICTED BY IDOCK:    1.04 KCAL/MOL
REMARK 923 INTER-LIGAND FREE ENERGY PREDICTED BY IDOCK:    0.36 KCAL/MOL
REMARK 924 INTRA-LIGAND FREE ENERGY PREDICTED BY IDOCK:    0.68 KCAL/MOL
REMARK 927      BINDING AFFINITY PREDICTED BY RF-SCORE:    0.00 PKD
ROOT
HETATM    1  C   UNL     1     -10.187  13.297  64.722  1.00  0.00    -0.304 C  
HETATM    2  C   UNL     1      -8.857  13.188  65.367  1.00  0.00     1.375 C  
HETATM    3  C   UNL     1      -9.111  13.779  66.758  1.00  0.00    -0.235 C  
HETATM    4  C   UNL     1      -8.807  15.305  66.880  1.00  0.00    -0.281 C  
HETATM    5  C   UNL     1      -7.490  15.749  66.211  1.00  0.00     0.790 C  
HETATM    6  C   UNL     1      -7.447  17.266  66.206  1.00  0.00    -0.319 C  
HETATM    7  F   UNL     1      -6.382  17.659  65.456  1.00  0.00    -0.219 F  
HETATM    8  C   UNL     1      -7.352  17.803  67.614  1.00  0.00    -0.207 C  
HETATM    9  C   UNL     1      -6.892  19.071  67.744  1.00  0.00    -0.229 C  
HETATM   10  C   UNL     1      -8.025  20.043  67.462  1.00  0.00    -0.307 C  
HETATM   11  C   UNL     1      -9.390  19.579  67.871  1.00  0.00    -0.411 C  
HETATM   12  O   UNL     1      -7.827  21.156  67.003  1.00  0.00    -0.201 OA 
HETATM   13  C   UNL     1      -9.608  18.348  68.384  1.00  0.00    -0.366 C  
HETATM   14  C   UNL     1      -8.479  17.315  68.573  1.00  0.00    -0.267 C  
HETATM   15  C   UNL     1      -8.788  15.756  68.356  1.00  0.00    -0.185 C  
HETATM   16  C   UNL     1      -8.003  17.468  70.043  1.00  0.00     1.909 C  
HETATM   17  F   UNL     1      -7.680  15.097  68.891  1.00  0.00    -0.120 F  
HETATM   18  C   UNL     1      -9.984  15.144  69.134  1.00  0.00    -0.238 C  
HETATM   19  C   UNL     1     -10.154  13.630  68.812  1.00  0.00    -0.129 C  
HETATM   20  O   UNL     1     -11.197  15.868  68.998  1.00  0.00    -0.282 OA 
HETATM   21  C   UNL     1     -10.525  13.151  67.338  1.00  0.00    -0.243 C  
HETATM   22  H   UNL     1     -11.930  15.493  69.474  1.00  0.00     0.000 HD 
HETATM   23  C   UNL     1     -12.104  13.317  67.813  1.00  0.00    -0.281 C  
HETATM   24  C   UNL     1     -11.135  12.839  65.815  1.00  0.00    -0.285 C  
HETATM   25  O   UNL     1     -12.311  13.575  65.387  1.00  0.00    -0.420 OA 
HETATM   26  C   UNL     1     -11.863  15.944  65.962  1.00  0.00     0.882 C  
HETATM   27  O   UNL     1     -10.530  14.658  64.403  1.00  0.00    -0.137 OA 
HETATM   28  C   UNL     1     -11.858  14.851  64.892  1.00  0.00    -0.337 C  
HETATM   29  C   UNL     1     -12.773  15.438  63.821  1.00  0.00     0.933 C  
ENDROOT
BRANCH  24  30
HETATM   30  C   UNL     1     -11.188  11.251  65.837  1.00  0.00    -0.027 C  
HETATM   31  O   UNL     1     -11.791  10.629  64.946  1.00  0.00     1.287 OA 
BRANCH  30  32
HETATM   32  C   UNL     1     -10.509  10.440  66.944  1.00  0.00    -0.240 C  
BRANCH  32  33
HETATM   33  O   UNL     1      -9.130  10.858  67.143  1.00  0.00    -0.144 OA 
BRANCH  33  34
HETATM   34  C   UNL     1      -8.407  10.083  68.008  1.00  0.00    -0.117 C  
HETATM   35  C   UNL     1      -9.025   9.984  69.366  1.00  0.00    -0.205 C  
HETATM   36  O   UNL     1      -7.356   9.514  67.700  1.00  0.00    -0.082 OA 
ENDBRANCH  33  34
ENDBRANCH  32  33
ENDBRANCH  30  32
ENDBRANCH  24  30
TORSDOF 4
ENDMDL
MODEL      100
REMARK 921   NORMALIZED FREE ENERGY PREDICTED BY IDOCK:    1.40 KCAL/MOL
REMARK 922        TOTAL FREE ENERGY PREDICTED BY IDOCK:    1.10 KCAL/MOL
REMARK 923 INTER-LIGAND FREE ENERGY PREDICTED BY IDOCK:    1.34 KCAL/MOL
REMARK 924 INTRA-LIGAND FREE ENERGY PREDICTED BY IDOCK:   -0.24 KCAL/MOL
REMARK 927      BINDING AFFINITY PREDICTED BY RF-SCORE:    0.00 PKD
ROOT
HETATM    1  C   UNL     1      -8.171   6.287  67.602  1.00  0.00    -0.117 C  
HETATM    2  C   UNL     1      -9.139   6.909  68.536  1.00  0.00    -0.127 C  
HETATM    3  C   UNL     1      -9.537   8.192  67.800  1.00  0.00    -0.180 C  
HETATM    4  C   UNL     1      -8.691   9.447  68.180  1.00  0.00    -0.124 C  
HETATM    5  C   UNL     1      -8.440   9.612  69.693  1.00  0.00    -0.181 C  
HETATM    6  C   UNL     1      -7.424  10.723  69.887  1.00  0.00     0.074 C  
HETATM    7  F   UNL     1      -7.064  10.745  71.199  1.00  0.00     0.642 F  
HETATM    8  C   UNL     1      -7.996  12.052  69.455  1.00  0.00     0.862 C  
HETATM    9  C   UNL     1      -7.386  13.157  69.949  1.00  0.00     0.985 C  
HETATM   10  C   UNL     1      -6.136  13.443  69.133  1.00  0.00    -0.093 C  
HETATM   11  C   UNL     1      -6.219  13.084  67.680  1.00  0.00    -0.158 C  
HETATM   12  O   UNL     1      -5.160  13.997  69.612  1.00  0.00    -0.088 OA 
HETATM   13  C   UNL     1      -7.302  12.475  67.149  1.00  0.00    -0.066 C  
HETATM   14  C   UNL     1      -8.532  12.085  67.992  1.00  0.00    -0.168 C  
HETATM   15  C   UNL     1      -9.338  10.742  67.643  1.00  0.00    -0.147 C  
HETATM   16  C   UNL     1      -9.541  13.254  67.842  1.00  0.00    -0.217 C  
HETATM   17  F   UNL     1     -10.528  10.844  68.364  1.00  0.00    -0.166 F  
HETATM   18  C   UNL     1      -9.817  10.551  66.178  1.00  0.00    -0.217 C  
HETATM   19  C   UNL     1     -10.575   9.203  66.002  1.00  0.00     0.534 C  
HETATM   20  O   UNL     1      -8.800  10.734  65.205  1.00  0.00    -0.188 OA 
HETATM   21  C   UNL     1      -9.822   7.814  66.216  1.00  0.00    -0.111 C  
HETATM   22  H   UNL     1      -9.093  10.617  64.309  1.00  0.00     0.000 HD 
HETATM   23  C   UNL     1      -9.441   7.912  64.606  1.00  0.00     1.721 C  
HETATM   24  C   UNL     1      -8.837   6.465  66.251  1.00  0.00    -0.145 C  
HETATM   25  O   UNL     1      -7.639   6.475  65.431  1.00  0.00    -0.080 OA 
HETATM   26  C   UNL     1      -6.564   8.670  65.844  1.00  0.00    -0.057 C  
HETATM   27  O   UNL     1      -6.921   6.997  67.559  1.00  0.00    -0.074 OA 
HETATM   28  C   UNL     1      -6.621   7.177  66.174  1.00  0.00    -0.052 C  
HETATM   29  C   UNL     1      -5.207   6.714  65.838  1.00  0.00    -0.018 C  
ENDROOT
BRANCH  24  30
HETATM   30  C   UNL     1      -9.908   5.312  66.033  1.00  0.00    -0.132 C  
HETATM   31  O   UNL     1     -11.118   5.535  66.208  1.00  0.00    -0.129 OA 
BRANCH  30  32
HETATM   32  C   UNL     1      -9.493   3.901  65.604  1.00  0.00    -0.176 C  
BRANCH  32  33
HETATM   33  O   UNL     1      -8.080   3.839  65.267  1.00  0.00    -0.096 OA 
BRANCH  33  34
HETATM   34  C   UNL     1      -7.329   3.018  66.063  1.00  0.00    -0.071 C  
HETATM   35  C   UNL     1      -8.082   1.821  66.549  1.00  0.00    -0.076 C  
HETATM   36  O   UNL     1      -6.148   3.235  66.346  1.00  0.00    -0.023 OA 
ENDBRANCH  33  34
ENDBRANCH  32  33
ENDBRANCH  30  32
ENDBRANCH  24  30
TORSDOF 4
ENDMDL
MODEL      101
REMARK 921   NORMALIZED FREE ENERGY PREDICTED BY IDOCK:    1.45 KCAL/MOL
REMARK 922        TOTAL FREE ENERGY PREDICTED BY IDOCK:    1.16 KCAL/MOL
REMARK 923 INTER-LIGAND FREE ENERGY PREDICTED BY IDOCK:    1.53 KCAL/MOL
REMARK 924 INTRA-LIGAND FREE ENERGY PREDICTED BY IDOCK:   -0.37 KCAL/MOL
REMARK 927      BINDING AFFINITY PREDICTED BY RF-SCORE:    0.00 PKD
ROOT
HETATM    1  C   UNL     1      -8.844  13.517  69.195  1.00  0.00     0.555 C  
HETATM    2  C   UNL     1      -7.456  13.008  69.099  1.00  0.00     0.196 C  
HETATM    3  C   UNL     1      -7.445  12.320  67.731  1.00  0.00    -0.126 C  
HETATM    4  C   UNL     1      -7.773  10.795  67.768  1.00  0.00    -0.104 C  
HETATM    5  C   UNL     1      -7.064  10.017  68.896  1.00  0.00    -0.068 C  
HETATM    6  C   UNL     1      -7.654   8.620  68.953  1.00  0.00    -0.092 C  
HETATM    7  F   UNL     1      -7.165   7.996  70.059  1.00  0.00    -0.056 F  
HETATM    8  C   UNL     1      -7.319   7.848  67.699  1.00  0.00    -0.096 C  
HETATM    9  C   UNL     1      -7.406   6.498  67.782  1.00  0.00    -0.096 C  
HETATM   10  C   UNL     1      -8.861   6.083  67.636  1.00  0.00    -0.106 C  
HETATM   11  C   UNL     1      -9.688   6.943  66.729  1.00  0.00    -0.232 C  
HETATM   12  O   UNL     1      -9.305   5.075  68.161  1.00  0.00    -0.116 OA 
HETATM   13  C   UNL     1      -9.195   8.056  66.143  1.00  0.00    -0.219 C  
HETATM   14  C   UNL     1      -7.750   8.543  66.372  1.00  0.00    -0.098 C  
HETATM   15  C   UNL     1      -7.444  10.118  66.420  1.00  0.00    -0.108 C  
HETATM   16  C   UNL     1      -6.915   7.969  65.197  1.00  0.00    -0.062 C  
HETATM   17  F   UNL     1      -6.055  10.213  66.330  1.00  0.00    -0.058 F  
HETATM   18  C   UNL     1      -7.944  10.985  65.233  1.00  0.00     0.200 C  
HETATM   19  C   UNL     1      -7.575  12.484  65.432  1.00  0.00     3.612 C  
HETATM   20  O   UNL     1      -9.315  10.800  64.915  1.00  0.00    -0.199 OA 
HETATM   21  C   UNL     1      -8.189  13.317  66.643  1.00  0.00     0.306 C  
HETATM   22  H   UNL     1      -9.622  11.331  64.189  1.00  0.00     0.000 HD 
HETATM   23  C   UNL     1      -9.435  13.671  65.609  1.00  0.00     0.086 C  
HETATM   24  C   UNL     1      -9.091  14.096  67.814  1.00  0.00    -0.190 C  
HETATM   25  O   UNL     1     -10.533  13.938  67.781  1.00  0.00    -0.238 OA 
HETATM   26  C   UNL     1     -10.933  11.511  67.473  1.00  0.00    -0.308 C  
HETATM   27  O   UNL     1      -9.801  12.461  69.392  1.00  0.00     0.483 OA 
HETATM   28  C   UNL     1     -10.841  12.693  68.440  1.00  0.00    -0.245 C  
HETATM   29  C   UNL     1     -12.218  12.686  69.097  1.00  0.00    -0.056 C  
ENDROOT
BRANCH  24  30
HETATM   30  C   UNL     1      -8.476  15.559  67.736  1.00  0.00    -0.152 C  
HETATM   31  O   UNL     1      -7.348  15.743  67.249  1.00  0.00    -0.183 OA 
BRANCH  30  32
HETATM   32  C   UNL     1      -9.242  16.780  68.254  1.00  0.00    -0.227 C  
BRANCH  32  33
HETATM   33  O   UNL     1      -8.600  18.023  67.854  1.00  0.00    -0.247 OA 
BRANCH  33  34
HETATM   34  C   UNL     1      -9.238  19.163  68.259  1.00  0.00    -0.335 C  
HETATM   35  C   UNL     1      -9.344  19.280  69.747  1.00  0.00     0.466 C  
HETATM   36  O   UNL     1      -9.677  20.014  67.481  1.00  0.00    -0.360 OA 
ENDBRANCH  33  34
ENDBRANCH  32  33
ENDBRANCH  30  32
ENDBRANCH  24  30
TORSDOF 4
ENDMDL
MODEL      102
REMARK 921   NORMALIZED FREE ENERGY PREDICTED BY IDOCK:    2.57 KCAL/MOL
REMARK 922        TOTAL FREE ENERGY PREDICTED BY IDOCK:    2.54 KCAL/MOL
REMARK 923 INTER-LIGAND FREE ENERGY PREDICTED BY IDOCK:    0.97 KCAL/MOL
REMARK 924 INTRA-LIGAND FREE ENERGY PREDICTED BY IDOCK:    1.57 KCAL/MOL
REMARK 927      BINDING AFFINITY PREDICTED BY RF-SCORE:    0.00 PKD
ROOT
HETATM    1  C   UNL     1     -12.055  12.883  67.427  1.00  0.00    -0.197 C  
HETATM    2  C   UNL     1     -11.735  13.586  66.162  1.00  0.00    -0.397 C  
HETATM    3  C   UNL     1     -10.248  13.913  66.329  1.00  0.00    -0.299 C  
HETATM    4  C   UNL     1      -9.957  15.321  66.934  1.00  0.00    -0.243 C  
HETATM    5  C   UNL     1     -10.814  16.460  66.343  1.00  0.00    -0.065 C  
HETATM    6  C   UNL     1     -10.592  17.706  67.181  1.00  0.00    -0.276 C  
HETATM    7  F   UNL     1     -11.481  18.654  66.778  1.00  0.00     0.105 F  
HETATM    8  C   UNL     1      -9.170  18.197  67.041  1.00  0.00    -0.270 C  
HETATM    9  C   UNL     1      -8.945  19.491  67.375  1.00  0.00    -0.368 C  
HETATM   10  C   UNL     1      -8.822  19.600  68.886  1.00  0.00    -0.193 C  
HETATM   11  C   UNL     1      -8.208  18.417  69.571  1.00  0.00     0.561 C  
HETATM   12  O   UNL     1      -9.133  20.613  69.492  1.00  0.00     1.084 OA 
HETATM   13  C   UNL     1      -7.859  17.297  68.899  1.00  0.00    -0.206 C  
HETATM   14  C   UNL     1      -8.080  17.137  67.382  1.00  0.00    -0.193 C  
HETATM   15  C   UNL     1      -8.467  15.698  66.785  1.00  0.00    -0.272 C  
HETATM   16  C   UNL     1      -6.741  17.545  66.710  1.00  0.00    -0.237 C  
HETATM   17  F   UNL     1      -8.291  15.826  65.407  1.00  0.00     0.436 F  
HETATM   18  C   UNL     1      -7.556  14.497  67.157  1.00  0.00    -0.012 C  
HETATM   19  C   UNL     1      -8.067  13.178  66.507  1.00  0.00     0.571 C  
HETATM   20  O   UNL     1      -7.314  14.359  68.548  1.00  0.00    -0.107 OA 
HETATM   21  C   UNL     1      -9.483  12.569  66.911  1.00  0.00    -0.219 C  
HETATM   22  H   UNL     1      -6.757  13.624  68.776  1.00  0.00     0.000 HD 
HETATM   23  C   UNL     1      -8.661  11.766  68.106  1.00  0.00    -0.160 C  
HETATM   24  C   UNL     1     -10.870  11.954  67.610  1.00  0.00    -0.227 C  
HETATM   25  O   UNL     1     -10.915  11.847  69.057  1.00  0.00    -0.223 OA 
HETATM   26  C   UNL     1     -10.087  14.021  69.913  1.00  0.00     0.879 C  
HETATM   27  O   UNL     1     -12.077  13.775  68.556  1.00  0.00    -0.363 OA 
HETATM   28  C   UNL     1     -11.291  13.143  69.567  1.00  0.00    -0.160 C  
HETATM   29  C   UNL     1     -12.035  13.071  70.897  1.00  0.00    -0.008 C  
ENDROOT
BRANCH  24  30
HETATM   30  C   UNL     1     -11.085  10.644  66.736  1.00  0.00    -0.030 C  
HETATM   31  O   UNL     1     -11.723   9.680  67.193  1.00  0.00     0.941 OA 
BRANCH  30  32
HETATM   32  C   UNL     1     -10.522  10.524  65.317  1.00  0.00    -0.162 C  
BRANCH  32  33
HETATM   33  O   UNL     1     -10.582  11.792  64.608  1.00  0.00    -0.278 OA 
BRANCH  33  34
HETATM   34  C   UNL     1     -11.031  11.717  63.319  1.00  0.00    -0.279 C  
HETATM   35  C   UNL     1     -12.399  11.121  63.207  1.00  0.00     0.919 C  
HETATM   36  O   UNL     1     -10.381  12.106  62.345  1.00  0.00     0.921 OA 
ENDBRANCH  33  34
ENDBRANCH  32  33
ENDBRANCH  30  32
ENDBRANCH  24  30
TORSDOF 4
ENDMDL
MODEL      103
REMARK 921   NORMALIZED FREE ENERGY PREDICTED BY IDOCK:    2.67 KCAL/MOL
REMARK 922        TOTAL FREE ENERGY PREDICTED BY IDOCK:    2.66 KCAL/MOL
REMARK 923 INTER-LIGAND FREE ENERGY PREDICTED BY IDOCK:    2.99 KCAL/MOL
REMARK 924 INTRA-LIGAND FREE ENERGY PREDICTED BY IDOCK:   -0.33 KCAL/MOL
REMARK 927      BINDING AFFINITY PREDICTED BY RF-SCORE:    0.00 PKD
ROOT
HETATM    1  C   UNL     1      -8.443  13.013  70.173  1.00  0.00     3.788 C  
HETATM    2  C   UNL     1      -9.779  13.649  70.252  1.00  0.00     2.939 C  
HETATM    3  C   UNL     1     -10.088  13.959  68.784  1.00  0.00    -0.161 C  
HETATM    4  C   UNL     1      -9.673  15.389  68.320  1.00  0.00    -0.209 C  
HETATM    5  C   UNL     1     -10.032  16.512  69.315  1.00  0.00    -0.244 C  
HETATM    6  C   UNL     1      -9.366  17.793  68.846  1.00  0.00    -0.155 C  
HETATM    7  F   UNL     1      -9.527  18.735  69.814  1.00  0.00     0.132 F  
HETATM    8  C   UNL     1      -9.955  18.252  67.534  1.00  0.00    -0.345 C  
HETATM    9  C   UNL     1      -9.771  19.557  67.216  1.00  0.00    -0.450 C  
HETATM   10  C   UNL     1      -8.376  19.737  66.639  1.00  0.00    -0.327 C  
HETATM   11  C   UNL     1      -7.852  18.577  65.848  1.00  0.00    -0.085 C  
HETATM   12  O   UNL     1      -7.757  20.782  66.750  1.00  0.00    -0.217 OA 
HETATM   13  C   UNL     1      -8.540  17.421  65.721  1.00  0.00     0.231 C  
HETATM   14  C   UNL     1      -9.908  17.192  66.393  1.00  0.00    -0.312 C  
HETATM   15  C   UNL     1     -10.285  15.733  66.946  1.00  0.00    -0.280 C  
HETATM   16  C   UNL     1     -10.974  17.544  65.321  1.00  0.00     0.232 C  
HETATM   17  F   UNL     1     -11.656  15.792  67.197  1.00  0.00    -0.187 F  
HETATM   18  C   UNL     1     -10.147  14.535  65.966  1.00  0.00    -0.318 C  
HETATM   19  C   UNL     1     -10.543  13.196  66.653  1.00  0.00    -0.284 C  
HETATM   20  O   UNL     1      -8.889  14.460  65.313  1.00  0.00     0.668 OA 
HETATM   21  C   UNL     1      -9.698  12.631  67.880  1.00  0.00    -0.216 C  
HETATM   22  H   UNL     1      -8.805  13.728  64.715  1.00  0.00     0.000 HD 
HETATM   23  C   UNL     1      -8.770  11.872  66.735  1.00  0.00    -0.193 C  
HETATM   24  C   UNL     1      -8.581  12.074  68.990  1.00  0.00     0.339 C  
HETATM   25  O   UNL     1      -7.185  12.037  68.594  1.00  0.00    -0.099 OA 
HETATM   26  C   UNL     1      -6.732  14.235  67.540  1.00  0.00    -0.128 C  
HETATM   27  O   UNL     1      -7.407  13.958  69.850  1.00  0.00     0.267 OA 
HETATM   28  C   UNL     1      -6.651  13.362  68.794  1.00  0.00    -0.102 C  
HETATM   29  C   UNL     1      -5.156  13.366  69.099  1.00  0.00    -0.073 C  
ENDROOT
BRANCH  24  30
HETATM   30  C   UNL     1      -9.281  10.727  69.463  1.00  0.00     0.131 C  
HETATM   31  O   UNL     1      -8.600   9.785  69.902  1.00  0.00    -0.190 OA 
BRANCH  30  32
HETATM   32  C   UNL     1     -10.800  10.545  69.395  1.00  0.00    -0.249 C  
BRANCH  32  33
HETATM   33  O   UNL     1     -11.219   9.310  70.040  1.00  0.00    -0.235 OA 
BRANCH  33  34
HETATM   34  C   UNL     1     -12.238   9.444  70.942  1.00  0.00    -0.227 C  
HETATM   35  C   UNL     1     -13.037   8.191  71.117  1.00  0.00    -0.066 C  
HETATM   36  O   UNL     1     -12.474  10.487  71.558  1.00  0.00    -0.380 OA 
ENDBRANCH  33  34
ENDBRANCH  32  33
ENDBRANCH  30  32
ENDBRANCH  24  30
TORSDOF 4
ENDMDL
MODEL      104
REMARK 921   NORMALIZED FREE ENERGY PREDICTED BY IDOCK:    2.85 KCAL/MOL
REMARK 922        TOTAL FREE ENERGY PREDICTED BY IDOCK:    2.89 KCAL/MOL
REMARK 923 INTER-LIGAND FREE ENERGY PREDICTED BY IDOCK:    2.74 KCAL/MOL
REMARK 924 INTRA-LIGAND FREE ENERGY PREDICTED BY IDOCK:    0.15 KCAL/MOL
REMARK 927      BINDING AFFINITY PREDICTED BY RF-SCORE:    0.00 PKD
ROOT
HETATM    1  C   UNL     1     -10.063   4.561  65.995  1.00  0.00    -0.259 C  
HETATM    2  C   UNL     1      -9.313   4.742  64.729  1.00  0.00    -0.065 C  
HETATM    3  C   UNL     1      -8.181   5.687  65.143  1.00  0.00    -0.136 C  
HETATM    4  C   UNL     1      -8.488   7.201  64.926  1.00  0.00     0.065 C  
HETATM    5  C   UNL     1      -9.154   7.530  63.574  1.00  0.00     1.618 C  
HETATM    6  C   UNL     1      -9.601   8.981  63.605  1.00  0.00     1.527 C  
HETATM    7  F   UNL     1     -10.348   9.219  62.493  1.00  0.00     1.438 F  
HETATM    8  C   UNL     1      -8.409   9.906  63.670  1.00  0.00    -0.164 C  
HETATM    9  C   UNL     1      -8.621  11.188  63.286  1.00  0.00     0.076 C  
HETATM   10  C   UNL     1      -9.263  11.952  64.433  1.00  0.00     0.336 C  
HETATM   11  C   UNL     1      -8.842  11.524  65.807  1.00  0.00    -0.060 C  
HETATM   12  O   UNL     1     -10.011  12.897  64.247  1.00  0.00    -0.271 OA 
HETATM   13  C   UNL     1      -8.009  10.481  66.014  1.00  0.00    -0.149 C  
HETATM   14  C   UNL     1      -7.439   9.633  64.859  1.00  0.00    -0.118 C  
HETATM   15  C   UNL     1      -7.212   8.058  65.069  1.00  0.00    -0.069 C  
HETATM   16  C   UNL     1      -6.046  10.237  64.534  1.00  0.00    -0.126 C  
HETATM   17  F   UNL     1      -6.424   7.665  63.988  1.00  0.00    -0.050 F  
HETATM   18  C   UNL     1      -6.384   7.609  66.304  1.00  0.00    -0.045 C  
HETATM   19  C   UNL     1      -6.260   6.059  66.368  1.00  0.00    -0.037 C  
HETATM   20  O   UNL     1      -6.820   8.171  67.532  1.00  0.00    -0.067 OA 
HETATM   21  C   UNL     1      -7.553   5.149  66.573  1.00  0.00    -0.088 C  
HETATM   22  H   UNL     1      -6.313   7.896  68.287  1.00  0.00     0.000 HD 
HETATM   23  C   UNL     1      -7.271   5.327  68.197  1.00  0.00    -0.071 C  
HETATM   24  C   UNL     1      -8.960   4.368  67.019  1.00  0.00    -0.119 C  
HETATM   25  O   UNL     1      -9.674   4.860  68.183  1.00  0.00    -0.140 OA 
HETATM   26  C   UNL     1      -9.786   7.321  67.907  1.00  0.00    -0.172 C  
HETATM   27  O   UNL     1     -10.792   5.743  66.371  1.00  0.00    -0.233 OA 
HETATM   28  C   UNL     1     -10.486   5.970  67.747  1.00  0.00    -0.239 C  
HETATM   29  C   UNL     1     -11.749   6.154  68.583  1.00  0.00     0.829 C  
ENDROOT
BRANCH  24  30
HETATM   30  C   UNL     1      -8.477   2.854  66.997  1.00  0.00    -0.098 C  
HETATM   31  O   UNL     1      -8.936   2.059  66.159  1.00  0.00    -0.127 OA 
BRANCH  30  32
HETATM   32  C   UNL     1      -7.443   2.326  67.996  1.00  0.00    -0.055 C  
BRANCH  32  33
HETATM   33  O   UNL     1      -8.066   1.525  69.038  1.00  0.00    -0.045 OA 
BRANCH  33  34
HETATM   34  C   UNL     1      -8.151   2.128  70.262  1.00  0.00    -0.041 C  
HETATM   35  C   UNL     1      -6.921   2.899  70.624  1.00  0.00    -0.033 C  
HETATM   36  O   UNL     1      -9.143   2.054  70.993  1.00  0.00    -0.069 OA 
ENDBRANCH  33  34
ENDBRANCH  32  33
ENDBRANCH  30  32
ENDBRANCH  24  30
TORSDOF 4
ENDMDL
MODEL      105
REMARK 921   NORMALIZED FREE ENERGY PREDICTED BY IDOCK:    3.06 KCAL/MOL
REMARK 922        TOTAL FREE ENERGY PREDICTED BY IDOCK:    3.15 KCAL/MOL
REMARK 923 INTER-LIGAND FREE ENERGY PREDICTED BY IDOCK:   -2.30 KCAL/MOL
REMARK 924 INTRA-LIGAND FREE ENERGY PREDICTED BY IDOCK:    5.45 KCAL/MOL
REMARK 927      BINDING AFFINITY PREDICTED BY RF-SCORE:    0.00 PKD
ROOT
HETATM    1  C   UNL     1      -8.610   5.455  70.184  1.00  0.00    -0.119 C  
HETATM    2  C   UNL     1      -9.767   6.328  69.870  1.00  0.00    -0.191 C  
HETATM    3  C   UNL     1      -9.614   6.556  68.363  1.00  0.00    -0.122 C  
HETATM    4  C   UNL     1      -8.816   7.840  67.979  1.00  0.00    -0.124 C  
HETATM    5  C   UNL     1      -9.191   9.094  68.796  1.00  0.00    -0.136 C  
HETATM    6  C   UNL     1      -8.185  10.185  68.481  1.00  0.00    -0.111 C  
HETATM    7  F   UNL     1      -8.402  11.224  69.333  1.00  0.00    -0.060 F  
HETATM    8  C   UNL     1      -8.308  10.626  67.041  1.00  0.00    -0.126 C  
HETATM    9  C   UNL     1      -7.791  11.842  66.738  1.00  0.00    -0.103 C  
HETATM   10  C   UNL     1      -6.288  11.713  66.558  1.00  0.00     0.002 C  
HETATM   11  C   UNL     1      -5.816  10.411  65.983  1.00  0.00    -0.093 C  
HETATM   12  O   UNL     1      -5.524  12.634  66.795  1.00  0.00    -0.278 OA 
HETATM   13  C   UNL     1      -6.663   9.393  65.716  1.00  0.00    -0.077 C  
HETATM   14  C   UNL     1      -8.177   9.477  65.996  1.00  0.00    -0.115 C  
HETATM   15  C   UNL     1      -8.967   8.166  66.478  1.00  0.00    -0.158 C  
HETATM   16  C   UNL     1      -8.834   9.921  64.662  1.00  0.00    -0.234 C  
HETATM   17  F   UNL     1     -10.316   8.495  66.343  1.00  0.00    -0.355 F  
HETATM   18  C   UNL     1      -8.820   6.881  65.618  1.00  0.00    -0.016 C  
HETATM   19  C   UNL     1      -9.640   5.702  66.219  1.00  0.00    -0.166 C  
HETATM   20  O   UNL     1      -7.476   6.521  65.337  1.00  0.00    -0.073 OA 
HETATM   21  C   UNL     1      -9.274   5.105  67.650  1.00  0.00    -0.127 C  
HETATM   22  H   UNL     1      -7.386   5.735  64.811  1.00  0.00     0.000 HD 
HETATM   23  C   UNL     1      -8.250   4.091  66.831  1.00  0.00    -0.100 C  
HETATM   24  C   UNL     1      -8.619   4.455  69.043  1.00  0.00    -0.083 C  
HETATM   25  O   UNL     1      -7.204   4.130  69.044  1.00  0.00    -0.053 OA 
HETATM   26  C   UNL     1      -6.064   6.106  68.075  1.00  0.00    -0.024 C  
HETATM   27  O   UNL     1      -7.359   6.163  70.121  1.00  0.00    -0.077 OA 
HETATM   28  C   UNL     1      -6.488   5.348  69.334  1.00  0.00    -0.038 C  
HETATM   29  C   UNL     1      -5.155   5.108  70.036  1.00  0.00    -0.004 C  
ENDROOT
BRANCH  24  30
HETATM   30  C   UNL     1      -9.671   3.305  69.356  1.00  0.00     0.088 C  
HETATM   31  O   UNL     1      -9.976   2.477  68.481  1.00  0.00     0.200 OA 
BRANCH  30  32
HETATM   32  C   UNL     1     -10.339   3.179  70.728  1.00  0.00     0.971 C  
BRANCH  32  33
HETATM   33  O   UNL     1     -10.715   4.479  71.261  1.00  0.00     0.078 OA 
BRANCH  33  34
HETATM   34  C   UNL     1      -9.994   4.893  72.346  1.00  0.00    -0.177 C  
HETATM   35  C   UNL     1      -9.998   6.378  72.523  1.00  0.00    -0.183 C  
HETATM   36  O   UNL     1      -9.404   4.123  73.109  1.00  0.00    -0.112 OA 
ENDBRANCH  33  34
ENDBRANCH  32  33
ENDBRANCH  30  32
ENDBRANCH  24  30
TORSDOF 4
ENDMDL
MODEL      106
REMARK 921   NORMALIZED FREE ENERGY PREDICTED BY IDOCK:    3.42 KCAL/MOL
REMARK 922        TOTAL FREE ENERGY PREDICTED BY IDOCK:    3.59 KCAL/MOL
REMARK 923 INTER-LIGAND FREE ENERGY PREDICTED BY IDOCK:    3.33 KCAL/MOL
REMARK 924 INTRA-LIGAND FREE ENERGY PREDICTED BY IDOCK:    0.26 KCAL/MOL
REMARK 927      BINDING AFFINITY PREDICTED BY RF-SCORE:    0.00 PKD
ROOT
HETATM    1  C   UNL     1     -10.064   4.561  65.995  1.00  0.00    -0.259 C  
HETATM    2  C   UNL     1      -9.317   4.743  64.727  1.00  0.00    -0.065 C  
HETATM    3  C   UNL     1      -8.187   5.692  65.139  1.00  0.00    -0.136 C  
HETATM    4  C   UNL     1      -8.499   7.204  64.922  1.00  0.00     0.065 C  
HETATM    5  C   UNL     1      -9.167   7.531  63.570  1.00  0.00     2.039 C  
HETATM    6  C   UNL     1      -9.618   8.980  63.601  1.00  0.00     1.527 C  
HETATM    7  F   UNL     1     -10.368   9.216  62.490  1.00  0.00     1.715 F  
HETATM    8  C   UNL     1      -8.429   9.909  63.664  1.00  0.00    -0.181 C  
HETATM    9  C   UNL     1      -8.645  11.190  63.280  1.00  0.00     0.076 C  
HETATM   10  C   UNL     1      -9.287  11.952  64.427  1.00  0.00     0.209 C  
HETATM   11  C   UNL     1      -8.863  11.527  65.801  1.00  0.00    -0.060 C  
HETATM   12  O   UNL     1     -10.038  12.895  64.241  1.00  0.00    -0.339 OA 
HETATM   13  C   UNL     1      -8.027  10.486  66.007  1.00  0.00    -0.149 C  
HETATM   14  C   UNL     1      -7.456   9.639  64.852  1.00  0.00    -0.118 C  
HETATM   15  C   UNL     1      -7.225   8.065  65.062  1.00  0.00    -0.069 C  
HETATM   16  C   UNL     1      -6.066  10.247  64.524  1.00  0.00    -0.126 C  
HETATM   17  F   UNL     1      -6.437   7.674  63.980  1.00  0.00    -0.050 F  
HETATM   18  C   UNL     1      -6.393   7.619  66.296  1.00  0.00    -0.045 C  
HETATM   19  C   UNL     1      -6.265   6.069  66.361  1.00  0.00    -0.037 C  
HETATM   20  O   UNL     1      -6.828   8.181  67.525  1.00  0.00    -0.067 OA 
HETATM   21  C   UNL     1      -7.554   5.156  66.569  1.00  0.00    -0.088 C  
HETATM   22  H   UNL     1      -6.320   7.908  68.279  1.00  0.00     0.000 HD 
HETATM   23  C   UNL     1      -7.271   5.336  68.192  1.00  0.00    -0.071 C  
HETATM   24  C   UNL     1      -8.959   4.371  67.017  1.00  0.00    -0.119 C  
HETATM   25  O   UNL     1      -9.673   4.862  68.182  1.00  0.00    -0.140 OA 
HETATM   26  C   UNL     1      -9.792   7.322  67.905  1.00  0.00    -0.172 C  
HETATM   27  O   UNL     1     -10.796   5.740  66.371  1.00  0.00    -0.233 OA 
HETATM   28  C   UNL     1     -10.488   5.969  67.747  1.00  0.00    -0.239 C  
HETATM   29  C   UNL     1     -11.750   6.151  68.584  1.00  0.00     0.829 C  
ENDROOT
BRANCH  24  30
HETATM   30  C   UNL     1      -8.472   2.858  66.996  1.00  0.00    -0.098 C  
HETATM   31  O   UNL     1      -8.264   2.250  68.059  1.00  0.00    -0.058 OA 
BRANCH  30  32
HETATM   32  C   UNL     1      -8.244   2.107  65.681  1.00  0.00    -0.088 C  
BRANCH  32  33
HETATM   33  O   UNL     1      -6.828   1.978  65.377  1.00  0.00    -0.034 OA 
BRANCH  33  34
HETATM   34  C   UNL     1      -6.374   2.788  64.372  1.00  0.00    -0.023 C  
HETATM   35  C   UNL     1      -7.324   2.882  63.220  1.00  0.00    -0.053 C  
HETATM   36  O   UNL     1      -5.296   3.387  64.411  1.00  0.00    -0.009 OA 
ENDBRANCH  33  34
ENDBRANCH  32  33
ENDBRANCH  30  32
ENDBRANCH  24  30
TORSDOF 4
ENDMDL
MODEL      107
REMARK 921   NORMALIZED FREE ENERGY PREDICTED BY IDOCK:    4.03 KCAL/MOL
REMARK 922        TOTAL FREE ENERGY PREDICTED BY IDOCK:    4.34 KCAL/MOL
REMARK 923 INTER-LIGAND FREE ENERGY PREDICTED BY IDOCK:    1.42 KCAL/MOL
REMARK 924 INTRA-LIGAND FREE ENERGY PREDICTED BY IDOCK:    2.92 KCAL/MOL
REMARK 927      BINDING AFFINITY PREDICTED BY RF-SCORE:    0.00 PKD
ROOT
HETATM    1  C   UNL     1      -8.514  16.088  68.949  1.00  0.00    -0.232 C  
HETATM    2  C   UNL     1      -7.580  15.294  68.116  1.00  0.00    -0.118 C  
HETATM    3  C   UNL     1      -8.477  14.819  66.968  1.00  0.00    -0.250 C  
HETATM    4  C   UNL     1      -9.129  13.420  67.190  1.00  0.00    -0.235 C  
HETATM    5  C   UNL     1      -8.170  12.351  67.755  1.00  0.00    -0.163 C  
HETATM    6  C   UNL     1      -8.989  11.131  68.135  1.00  0.00    -0.159 C  
HETATM    7  F   UNL     1      -8.178  10.265  68.801  1.00  0.00    -0.095 F  
HETATM    8  C   UNL     1      -9.587  10.486  66.907  1.00  0.00    -0.206 C  
HETATM    9  C   UNL     1      -9.973   9.193  67.035  1.00  0.00    -0.294 C  
HETATM   10  C   UNL     1     -11.335   9.145  67.708  1.00  0.00     0.751 C  
HETATM   11  C   UNL     1     -12.251  10.289  67.393  1.00  0.00     3.363 C  
HETATM   12  O   UNL     1     -11.686   8.202  68.399  1.00  0.00     1.313 OA 
HETATM   13  C   UNL     1     -11.864  11.331  66.624  1.00  0.00     0.573 C  
HETATM   14  C   UNL     1     -10.448  11.439  66.025  1.00  0.00    -0.305 C  
HETATM   15  C   UNL     1      -9.755  12.880  65.886  1.00  0.00    -0.184 C  
HETATM   16  C   UNL     1     -10.547  10.859  64.588  1.00  0.00    -0.332 C  
HETATM   17  F   UNL     1      -8.657  12.667  65.052  1.00  0.00     0.943 F  
HETATM   18  C   UNL     1     -10.553  13.995  65.157  1.00  0.00    -0.386 C  
HETATM   19  C   UNL     1      -9.750  15.327  65.110  1.00  0.00    -0.036 C  
HETATM   20  O   UNL     1     -11.875  14.174  65.639  1.00  0.00    -0.351 OA 
HETATM   21  C   UNL     1      -9.384  16.102  66.454  1.00  0.00    -0.329 C  
HETATM   22  H   UNL     1     -12.364  14.856  65.193  1.00  0.00     0.000 HD 
HETATM   23  C   UNL     1     -10.840  16.870  66.264  1.00  0.00     0.026 C  
HETATM   24  C   UNL     1      -9.286  16.894  67.921  1.00  0.00    -0.238 C  
HETATM   25  O   UNL     1     -10.510  17.076  68.681  1.00  0.00    -0.320 OA 
HETATM   26  C   UNL     1     -11.642  14.871  68.660  1.00  0.00    -0.342 C  
HETATM   27  O   UNL     1      -9.464  15.260  69.644  1.00  0.00    -0.237 OA 
HETATM   28  C   UNL     1     -10.742  15.854  69.411  1.00  0.00    -0.272 C  
HETATM   29  C   UNL     1     -11.509  16.069  70.713  1.00  0.00    -0.444 C  
ENDROOT
BRANCH  24  30
HETATM   30  C   UNL     1      -8.440  18.175  67.510  1.00  0.00    -0.248 C  
HETATM   31  O   UNL     1      -9.008  19.256  67.278  1.00  0.00    -0.287 OA 
BRANCH  30  32
HETATM   32  C   UNL     1      -6.915  18.124  67.385  1.00  0.00    -0.197 C  
BRANCH  32  33
HETATM   33  O   UNL     1      -6.407  19.222  66.577  1.00  0.00    -0.184 OA 
BRANCH  33  34
HETATM   34  C   UNL     1      -7.220  19.611  65.549  1.00  0.00    -0.223 C  
HETATM   35  C   UNL     1      -8.044  20.816  65.874  1.00  0.00     0.512 C  
HETATM   36  O   UNL     1      -7.267  19.033  64.459  1.00  0.00     0.604 OA 
ENDBRANCH  33  34
ENDBRANCH  32  33
ENDBRANCH  30  32
ENDBRANCH  24  30
TORSDOF 4
ENDMDL
MODEL      108
REMARK 921   NORMALIZED FREE ENERGY PREDICTED BY IDOCK:    4.26 KCAL/MOL
REMARK 922        TOTAL FREE ENERGY PREDICTED BY IDOCK:    4.63 KCAL/MOL
REMARK 923 INTER-LIGAND FREE ENERGY PREDICTED BY IDOCK:    1.75 KCAL/MOL
REMARK 924 INTRA-LIGAND FREE ENERGY PREDICTED BY IDOCK:    2.88 KCAL/MOL
REMARK 927      BINDING AFFINITY PREDICTED BY RF-SCORE:    0.00 PKD
ROOT
HETATM    1  C   UNL     1      -7.008  15.730  67.788  1.00  0.00    -0.152 C  
HETATM    2  C   UNL     1      -7.174  15.288  66.383  1.00  0.00     1.551 C  
HETATM    3  C   UNL     1      -8.696  15.189  66.241  1.00  0.00    -0.125 C  
HETATM    4  C   UNL     1      -9.284  13.774  66.529  1.00  0.00    -0.210 C  
HETATM    5  C   UNL     1      -8.491  12.612  65.896  1.00  0.00     0.900 C  
HETATM    6  C   UNL     1      -9.035  11.308  66.449  1.00  0.00    -0.188 C  
HETATM    7  F   UNL     1      -8.221  10.298  66.037  1.00  0.00    -0.122 F  
HETATM    8  C   UNL     1     -10.457  11.084  65.992  1.00  0.00    -0.304 C  
HETATM    9  C   UNL     1     -10.914   9.810  66.049  1.00  0.00     0.667 C  
HETATM   10  C   UNL     1     -11.335   9.495  67.475  1.00  0.00     0.629 C  
HETATM   11  C   UNL     1     -11.904  10.647  68.248  1.00  0.00     0.007 C  
HETATM   12  O   UNL     1     -11.285   8.366  67.933  1.00  0.00     0.242 OA 
HETATM   13  C   UNL     1     -11.964  11.897  67.738  1.00  0.00    -0.149 C  
HETATM   14  C   UNL     1     -11.439  12.246  66.331  1.00  0.00    -0.434 C  
HETATM   15  C   UNL     1     -10.755  13.674  66.072  1.00  0.00    -0.280 C  
HETATM   16  C   UNL     1     -12.668  12.170  65.386  1.00  0.00     0.713 C  
HETATM   17  F   UNL     1     -10.681  13.786  64.684  1.00  0.00    -0.339 F  
HETATM   18  C   UNL     1     -11.550  14.939  66.496  1.00  0.00    -0.252 C  
HETATM   19  C   UNL     1     -10.751  16.239  66.185  1.00  0.00    -0.198 C  
HETATM   20  O   UNL     1     -12.031  14.904  67.831  1.00  0.00    -0.502 OA 
HETATM   21  C   UNL     1      -9.369  16.538  66.919  1.00  0.00    -0.248 C  
HETATM   22  H   UNL     1     -12.517  15.678  68.090  1.00  0.00     0.000 HD 
HETATM   23  C   UNL     1     -10.287  17.276  68.085  1.00  0.00    -0.357 C  
HETATM   24  C   UNL     1      -8.070  16.804  67.935  1.00  0.00    -0.185 C  
HETATM   25  O   UNL     1      -8.287  16.682  69.366  1.00  0.00    -0.102 OA 
HETATM   26  C   UNL     1      -9.548  14.571  69.673  1.00  0.00     0.350 C  
HETATM   27  O   UNL     1      -7.322  14.687  68.729  1.00  0.00    -0.116 OA 
HETATM   28  C   UNL     1      -8.193  15.280  69.692  1.00  0.00    -0.115 C  
HETATM   29  C   UNL     1      -7.713  15.027  71.118  1.00  0.00     2.398 C  
ENDROOT
BRANCH  24  30
HETATM   30  C   UNL     1      -7.517  18.177  67.356  1.00  0.00    -0.212 C  
HETATM   31  O   UNL     1      -6.541  18.735  67.885  1.00  0.00    -0.210 OA 
BRANCH  30  32
HETATM   32  C   UNL     1      -8.160  18.853  66.142  1.00  0.00    -0.222 C  
BRANCH  32  33
HETATM   33  O   UNL     1      -9.290  19.684  66.528  1.00  0.00    -0.342 OA 
BRANCH  33  34
HETATM   34  C   UNL     1      -9.221  20.207  67.790  1.00  0.00    -0.316 C  
HETATM   35  C   UNL     1     -10.065  19.469  68.779  1.00  0.00    -0.519 C  
HETATM   36  O   UNL     1      -8.528  21.184  68.088  1.00  0.00     0.493 OA 
ENDBRANCH  33  34
ENDBRANCH  32  33
ENDBRANCH  30  32
ENDBRANCH  24  30
TORSDOF 4
ENDMDL
MODEL      109
REMARK 921   NORMALIZED FREE ENERGY PREDICTED BY IDOCK:    5.06 KCAL/MOL
REMARK 922        TOTAL FREE ENERGY PREDICTED BY IDOCK:    5.62 KCAL/MOL
REMARK 923 INTER-LIGAND FREE ENERGY PREDICTED BY IDOCK:    1.81 KCAL/MOL
REMARK 924 INTRA-LIGAND FREE ENERGY PREDICTED BY IDOCK:    3.81 KCAL/MOL
REMARK 927      BINDING AFFINITY PREDICTED BY RF-SCORE:    0.00 PKD
ROOT
HETATM    1  C   UNL     1      -8.716   5.447  70.202  1.00  0.00    -0.126 C  
HETATM    2  C   UNL     1      -9.819   6.430  70.079  1.00  0.00    -0.193 C  
HETATM    3  C   UNL     1      -9.591   7.015  68.682  1.00  0.00    -0.138 C  
HETATM    4  C   UNL     1      -8.722   8.310  68.655  1.00  0.00    -0.133 C  
HETATM    5  C   UNL     1      -9.079   9.341  69.746  1.00  0.00    -0.186 C  
HETATM    6  C   UNL     1      -8.014  10.423  69.744  1.00  0.00    -0.067 C  
HETATM    7  F   UNL     1      -8.223  11.228  70.820  1.00  0.00     2.310 F  
HETATM    8  C   UNL     1      -8.055  11.211  68.456  1.00  0.00    -0.146 C  
HETATM    9  C   UNL     1      -7.474  12.435  68.482  1.00  0.00    -0.112 C  
HETATM   10  C   UNL     1      -5.970  12.276  68.323  1.00  0.00    -0.054 C  
HETATM   11  C   UNL     1      -5.531  11.134  67.457  1.00  0.00    -0.043 C  
HETATM   12  O   UNL     1      -5.178  13.069  68.806  1.00  0.00    -0.066 OA 
HETATM   13  C   UNL     1      -6.408  10.259  66.918  1.00  0.00    -0.069 C  
HETATM   14  C   UNL     1      -7.928  10.351  67.163  1.00  0.00    -0.115 C  
HETATM   15  C   UNL     1      -8.794   9.005  67.278  1.00  0.00    -0.117 C  
HETATM   16  C   UNL     1      -8.506  11.144  65.960  1.00  0.00    -0.138 C  
HETATM   17  F   UNL     1     -10.120   9.427  67.186  1.00  0.00    -0.222 F  
HETATM   18  C   UNL     1      -8.665   7.966  66.131  1.00  0.00    -0.158 C  
HETATM   19  C   UNL     1      -9.560   6.720  66.393  1.00  0.00    -0.149 C  
HETATM   20  O   UNL     1      -7.327   7.616  65.811  1.00  0.00    -0.067 OA 
HETATM   21  C   UNL     1      -9.283   5.769  67.641  1.00  0.00    -0.105 C  
HETATM   22  H   UNL     1      -7.247   6.981  65.109  1.00  0.00     0.000 HD 
HETATM   23  C   UNL     1      -8.268   4.937  66.628  1.00  0.00    -0.107 C  
HETATM   24  C   UNL     1      -8.718   4.762  68.848  1.00  0.00    -0.089 C  
HETATM   25  O   UNL     1      -7.320   4.373  68.814  1.00  0.00    -0.055 OA 
HETATM   26  C   UNL     1      -6.055   6.465  68.403  1.00  0.00    -0.024 C  
HETATM   27  O   UNL     1      -7.434   6.082  70.357  1.00  0.00    -0.085 OA 
HETATM   28  C   UNL     1      -6.566   5.442  69.420  1.00  0.00    -0.047 C  
HETATM   29  C   UNL     1      -5.276   4.966  70.082  1.00  0.00     0.000 C  
ENDROOT
BRANCH  24  30
HETATM   30  C   UNL     1      -9.831   3.628  68.832  1.00  0.00     0.162 C  
HETATM   31  O   UNL     1     -10.692   3.577  69.727  1.00  0.00     1.925 OA 
BRANCH  30  32
HETATM   32  C   UNL     1      -9.883   2.569  67.727  1.00  0.00     0.526 C  
BRANCH  32  33
HETATM   33  O   UNL     1      -8.558   2.059  67.413  1.00  0.00    -0.081 OA 
BRANCH  33  34
HETATM   34  C   UNL     1      -8.013   2.533  66.251  1.00  0.00    -0.082 C  
HETATM   35  C   UNL     1      -6.517   2.507  66.250  1.00  0.00    -0.028 C  
HETATM   36  O   UNL     1      -8.683   2.935  65.296  1.00  0.00    -0.111 OA 
ENDBRANCH  33  34
ENDBRANCH  32  33
ENDBRANCH  30  32
ENDBRANCH  24  30
TORSDOF 4
ENDMDL
MODEL      110
REMARK 921   NORMALIZED FREE ENERGY PREDICTED BY IDOCK:    5.75 KCAL/MOL
REMARK 922        TOTAL FREE ENERGY PREDICTED BY IDOCK:    6.46 KCAL/MOL
REMARK 923 INTER-LIGAND FREE ENERGY PREDICTED BY IDOCK:    6.61 KCAL/MOL
REMARK 924 INTRA-LIGAND FREE ENERGY PREDICTED BY IDOCK:   -0.15 KCAL/MOL
REMARK 927      BINDING AFFINITY PREDICTED BY RF-SCORE:    0.00 PKD
ROOT
HETATM    1  C   UNL     1     -10.379  15.335  64.713  1.00  0.00    -0.097 C  
HETATM    2  C   UNL     1      -9.256  14.536  65.259  1.00  0.00     0.889 C  
HETATM    3  C   UNL     1      -9.335  14.831  66.760  1.00  0.00    -0.268 C  
HETATM    4  C   UNL     1      -8.441  16.017  67.237  1.00  0.00    -0.206 C  
HETATM    5  C   UNL     1      -7.017  16.020  66.643  1.00  0.00     0.139 C  
HETATM    6  C   UNL     1      -6.355  17.338  67.004  1.00  0.00    -0.174 C  
HETATM    7  F   UNL     1      -5.176  17.420  66.331  1.00  0.00    -0.167 F  
HETATM    8  C   UNL     1      -6.139  17.436  68.496  1.00  0.00    -0.167 C  
HETATM    9  C   UNL     1      -5.208  18.330  68.911  1.00  0.00    -0.176 C  
HETATM   10  C   UNL     1      -5.822  19.720  68.920  1.00  0.00    -0.233 C  
HETATM   11  C   UNL     1      -7.281  19.779  69.258  1.00  0.00    -0.293 C  
HETATM   12  O   UNL     1      -5.155  20.726  68.737  1.00  0.00    -0.238 OA 
HETATM   13  C   UNL     1      -8.018  18.666  69.466  1.00  0.00     0.387 C  
HETATM   14  C   UNL     1      -7.427  17.247  69.353  1.00  0.00     0.082 C  
HETATM   15  C   UNL     1      -8.334  16.055  68.776  1.00  0.00    -0.216 C  
HETATM   16  C   UNL     1      -7.027  16.835  70.796  1.00  0.00     2.561 C  
HETATM   17  F   UNL     1      -7.632  14.891  69.090  1.00  0.00    -0.120 F  
HETATM   18  C   UNL     1      -9.724  15.827  69.430  1.00  0.00    -0.286 C  
HETATM   19  C   UNL     1     -10.478  14.644  68.757  1.00  0.00    -0.246 C  
HETATM   20  O   UNL     1     -10.521  16.998  69.522  1.00  0.00    -0.295 OA 
HETATM   21  C   UNL     1     -10.917  14.725  67.227  1.00  0.00    -0.318 C  
HETATM   22  H   UNL     1     -11.372  16.859  69.922  1.00  0.00     0.000 HD 
HETATM   23  C   UNL     1     -12.316  15.412  67.791  1.00  0.00     0.726 C  
HETATM   24  C   UNL     1     -11.500  15.065  65.699  1.00  0.00    -0.248 C  
HETATM   25  O   UNL     1     -12.240  16.300  65.511  1.00  0.00     1.340 OA 
HETATM   26  C   UNL     1     -10.898  18.060  66.625  1.00  0.00    -0.012 C  
HETATM   27  O   UNL     1     -10.112  16.748  64.748  1.00  0.00     0.073 OA 
HETATM   28  C   UNL     1     -11.272  17.351  65.322  1.00  0.00     0.551 C  
HETATM   29  C   UNL     1     -11.793  18.500  64.464  1.00  0.00     5.910 C  
ENDROOT
BRANCH  24  30
HETATM   30  C   UNL     1     -12.202  13.686  65.338  1.00  0.00    -0.444 C  
HETATM   31  O   UNL     1     -13.434  13.628  65.184  1.00  0.00    -0.484 OA 
BRANCH  30  32
HETATM   32  C   UNL     1     -11.397  12.394  65.169  1.00  0.00    -0.323 C  
BRANCH  32  33
HETATM   33  O   UNL     1     -11.167  11.736  66.446  1.00  0.00    -0.316 OA 
BRANCH  33  34
HETATM   34  C   UNL     1      -9.969  11.087  66.557  1.00  0.00    -0.212 C  
HETATM   35  C   UNL     1      -9.737  10.091  65.465  1.00  0.00    -0.355 C  
HETATM   36  O   UNL     1      -9.156  11.302  67.460  1.00  0.00    -0.149 OA 
ENDBRANCH  33  34
ENDBRANCH  32  33
ENDBRANCH  30  32
ENDBRANCH  24  30
TORSDOF 4
ENDMDL
MODEL      111
REMARK 921   NORMALIZED FREE ENERGY PREDICTED BY IDOCK:    7.87 KCAL/MOL
REMARK 922        TOTAL FREE ENERGY PREDICTED BY IDOCK:    9.08 KCAL/MOL
REMARK 923 INTER-LIGAND FREE ENERGY PREDICTED BY IDOCK:    9.27 KCAL/MOL
REMARK 924 INTRA-LIGAND FREE ENERGY PREDICTED BY IDOCK:   -0.19 KCAL/MOL
REMARK 927      BINDING AFFINITY PREDICTED BY RF-SCORE:    0.00 PKD
ROOT
HETATM    1  C   UNL     1      -9.971  17.363  66.001  1.00  0.00    -0.215 C  
HETATM    2  C   UNL     1     -10.259  18.177  67.207  1.00  0.00    -0.377 C  
HETATM    3  C   UNL     1      -9.604  17.359  68.325  1.00  0.00    -0.292 C  
HETATM    4  C   UNL     1     -10.561  16.354  69.039  1.00  0.00    -0.308 C  
HETATM    5  C   UNL     1     -11.952  16.927  69.376  1.00  0.00     1.428 C  
HETATM    6  C   UNL     1     -12.836  15.785  69.843  1.00  0.00     0.321 C  
HETATM    7  F   UNL     1     -14.108  16.253  69.964  1.00  0.00     1.485 F  
HETATM    8  C   UNL     1     -12.335  15.223  71.153  1.00  0.00    -0.421 C  
HETATM    9  C   UNL     1     -13.229  14.512  71.883  1.00  0.00    -0.440 C  
HETATM   10  C   UNL     1     -13.318  13.102  71.325  1.00  0.00    -0.040 C  
HETATM   11  C   UNL     1     -12.045  12.553  70.753  1.00  0.00    -0.240 C  
HETATM   12  O   UNL     1     -14.336  12.434  71.405  1.00  0.00     1.710 OA 
HETATM   13  C   UNL     1     -10.916  13.291  70.668  1.00  0.00     1.770 C  
HETATM   14  C   UNL     1     -10.848  14.759  71.134  1.00  0.00     0.301 C  
HETATM   15  C   UNL     1      -9.927  15.802  70.334  1.00  0.00     0.335 C  
HETATM   16  C   UNL     1     -10.305  14.720  72.588  1.00  0.00     3.530 C  
HETATM   17  F   UNL     1      -9.847  16.917  71.168  1.00  0.00     2.149 F  
HETATM   18  C   UNL     1      -8.441  15.417  70.099  1.00  0.00     0.614 C  
HETATM   19  C   UNL     1      -7.689  16.525  69.307  1.00  0.00    -0.140 C  
HETATM   20  O   UNL     1      -8.257  14.127  69.537  1.00  0.00    -0.318 OA 
HETATM   21  C   UNL     1      -8.108  16.882  67.811  1.00  0.00    -0.188 C  
HETATM   22  H   UNL     1      -7.348  13.891  69.393  1.00  0.00     0.000 HD 
HETATM   23  C   UNL     1      -7.032  15.705  67.358  1.00  0.00    -0.234 C  
HETATM   24  C   UNL     1      -8.519  16.968  66.195  1.00  0.00    -0.227 C  
HETATM   25  O   UNL     1      -8.540  15.735  65.429  1.00  0.00     0.590 OA 
HETATM   26  C   UNL     1      -9.777  14.102  66.825  1.00  0.00    -0.283 C  
HETATM   27  O   UNL     1     -10.743  16.150  65.965  1.00  0.00    -0.308 OA 
HETATM   28  C   UNL     1      -9.815  15.105  65.670  1.00  0.00    -0.343 C  
HETATM   29  C   UNL     1     -10.288  14.243  64.504  1.00  0.00    -0.071 C  
ENDROOT
BRANCH  24  30
HETATM   30  C   UNL     1      -7.579  18.156  65.713  1.00  0.00    -0.035 C  
HETATM   31  O   UNL     1      -7.031  18.112  64.599  1.00  0.00     0.731 OA 
BRANCH  30  32
HETATM   32  C   UNL     1      -7.319  19.381  66.594  1.00  0.00    -0.228 C  
BRANCH  32  33
HETATM   33  O   UNL     1      -7.111  20.579  65.796  1.00  0.00    -0.225 OA 
BRANCH  33  34
HETATM   34  C   UNL     1      -5.809  20.984  65.684  1.00  0.00    -0.250 C  
HETATM   35  C   UNL     1      -5.163  21.256  67.006  1.00  0.00    -0.305 C  
HETATM   36  O   UNL     1      -5.221  21.106  64.606  1.00  0.00    -0.206 OA 
ENDBRANCH  33  34
ENDBRANCH  32  33
ENDBRANCH  30  32
ENDBRANCH  24  30
TORSDOF 4
ENDMDL
MODEL      112
REMARK 921   NORMALIZED FREE ENERGY PREDICTED BY IDOCK:    8.18 KCAL/MOL
REMARK 922        TOTAL FREE ENERGY PREDICTED BY IDOCK:    9.47 KCAL/MOL
REMARK 923 INTER-LIGAND FREE ENERGY PREDICTED BY IDOCK:    9.26 KCAL/MOL
REMARK 924 INTRA-LIGAND FREE ENERGY PREDICTED BY IDOCK:    0.20 KCAL/MOL
REMARK 927      BINDING AFFINITY PREDICTED BY RF-SCORE:    0.00 PKD
ROOT
HETATM    1  C   UNL     1     -10.523  15.030  64.957  1.00  0.00    -0.386 C  
HETATM    2  C   UNL     1      -9.457  14.013  64.793  1.00  0.00     1.023 C  
HETATM    3  C   UNL     1      -9.564  13.207  66.092  1.00  0.00    -0.209 C  
HETATM    4  C   UNL     1      -8.624  13.695  67.237  1.00  0.00    -0.220 C  
HETATM    5  C   UNL     1      -7.185  14.023  66.787  1.00  0.00     1.161 C  
HETATM    6  C   UNL     1      -6.469  14.699  67.942  1.00  0.00    -0.164 C  
HETATM    7  F   UNL     1      -5.268  15.153  67.490  1.00  0.00    -0.110 F  
HETATM    8  C   UNL     1      -6.291  13.740  69.095  1.00  0.00    -0.105 C  
HETATM    9  C   UNL     1      -5.328  14.055  69.996  1.00  0.00    -0.099 C  
HETATM   10  C   UNL     1      -5.870  15.096  70.961  1.00  0.00     0.090 C  
HETATM   11  C   UNL     1      -7.334  14.989  71.269  1.00  0.00     2.035 C  
HETATM   12  O   UNL     1      -5.149  15.915  71.505  1.00  0.00    -0.166 OA 
HETATM   13  C   UNL     1      -8.131  14.078  70.669  1.00  0.00     3.072 C  
HETATM   14  C   UNL     1      -7.610  13.088  69.609  1.00  0.00     0.900 C  
HETATM   15  C   UNL     1      -8.559  12.665  68.386  1.00  0.00    -0.122 C  
HETATM   16  C   UNL     1      -7.272  11.781  70.375  1.00  0.00     1.858 C  
HETATM   17  F   UNL     1      -7.926  11.564  67.810  1.00  0.00    -0.111 F  
HETATM   18  C   UNL     1      -9.976  12.131  68.727  1.00  0.00    -0.052 C  
HETATM   19  C   UNL     1     -10.770  11.771  67.437  1.00  0.00    -0.277 C  
HETATM   20  O   UNL     1     -10.716  12.965  69.605  1.00  0.00    -0.400 OA 
HETATM   21  C   UNL     1     -11.161  12.899  66.382  1.00  0.00    -0.316 C  
HETATM   22  H   UNL     1     -11.584  12.638  69.814  1.00  0.00     0.000 HD 
HETATM   23  C   UNL     1     -12.539  13.093  67.283  1.00  0.00     0.535 C  
HETATM   24  C   UNL     1     -11.683  14.223  65.507  1.00  0.00    -0.353 C  
HETATM   25  O   UNL     1     -12.355  15.293  66.224  1.00  0.00     0.383 OA 
HETATM   26  C   UNL     1     -10.957  15.738  68.222  1.00  0.00    -0.325 C  
HETATM   27  O   UNL     1     -10.185  16.021  65.944  1.00  0.00    -0.321 OA 
HETATM   28  C   UNL     1     -11.329  16.133  66.791  1.00  0.00     0.300 C  
HETATM   29  C   UNL     1     -11.768  17.585  66.957  1.00  0.00     1.806 C  
ENDROOT
BRANCH  24  30
HETATM   30  C   UNL     1     -12.443  13.505  64.310  1.00  0.00    -0.252 C  
HETATM   31  O   UNL     1     -13.685  13.504  64.265  1.00  0.00     1.437 OA 
BRANCH  30  32
HETATM   32  C   UNL     1     -11.683  12.798  63.185  1.00  0.00    -0.186 C  
BRANCH  32  33
HETATM   33  O   UNL     1     -11.632  11.359  63.396  1.00  0.00    -0.294 OA 
BRANCH  33  34
HETATM   34  C   UNL     1     -10.398  10.861  63.710  1.00  0.00    -0.317 C  
HETATM   35  C   UNL     1      -9.308  11.395  62.835  1.00  0.00    -0.351 C  
HETATM   36  O   UNL     1     -10.197  10.059  64.627  1.00  0.00    -0.201 OA 
ENDBRANCH  33  34
ENDBRANCH  32  33
ENDBRANCH  30  32
ENDBRANCH  24  30
TORSDOF 4
ENDMDL
MODEL      113
REMARK 921   NORMALIZED FREE ENERGY PREDICTED BY IDOCK:   14.11 KCAL/MOL
REMARK 922        TOTAL FREE ENERGY PREDICTED BY IDOCK:   16.78 KCAL/MOL
REMARK 923 INTER-LIGAND FREE ENERGY PREDICTED BY IDOCK:   15.41 KCAL/MOL
REMARK 924 INTRA-LIGAND FREE ENERGY PREDICTED BY IDOCK:    1.37 KCAL/MOL
REMARK 927      BINDING AFFINITY PREDICTED BY RF-SCORE:    0.00 PKD
ROOT
HETATM    1  C   UNL     1     -10.466  14.321  69.537  1.00  0.00     0.050 C  
HETATM    2  C   UNL     1     -11.603  15.255  69.354  1.00  0.00    -0.347 C  
HETATM    3  C   UNL     1     -11.643  15.438  67.834  1.00  0.00    -0.267 C  
HETATM    4  C   UNL     1     -10.832  16.661  67.305  1.00  0.00    -0.158 C  
HETATM    5  C   UNL     1     -11.022  17.954  68.124  1.00  0.00    -0.014 C  
HETATM    6  C   UNL     1     -10.007  18.975  67.643  1.00  0.00    -0.351 C  
HETATM    7  F   UNL     1     -10.047  20.045  68.482  1.00  0.00    -0.487 F  
HETATM    8  C   UNL     1     -10.298  19.388  66.219  1.00  0.00    -0.584 C  
HETATM    9  C   UNL     1      -9.759  20.562  65.811  1.00  0.00     0.086 C  
HETATM   10  C   UNL     1      -8.304  20.338  65.436  1.00  0.00     0.573 C  
HETATM   11  C   UNL     1      -7.989  18.997  64.845  1.00  0.00     2.346 C  
HETATM   12  O   UNL     1      -7.463  21.217  65.539  1.00  0.00     0.509 OA 
HETATM   13  C   UNL     1      -8.921  18.026  64.726  1.00  0.00     4.823 C  
HETATM   14  C   UNL     1     -10.376  18.208  65.203  1.00  0.00     0.956 C  
HETATM   15  C   UNL     1     -11.167  16.960  65.828  1.00  0.00     0.443 C  
HETATM   16  C   UNL     1     -11.181  18.659  63.955  1.00  0.00     8.183 C  
HETATM   17  F   UNL     1     -12.501  17.366  65.864  1.00  0.00     3.561 F  
HETATM   18  C   UNL     1     -11.210  15.648  64.998  1.00  0.00    -0.329 C  
HETATM   19  C   UNL     1     -12.007  14.535  65.740  1.00  0.00    -0.309 C  
HETATM   20  O   UNL     1      -9.940  15.200  64.551  1.00  0.00    -0.332 OA 
HETATM   21  C   UNL     1     -11.485  13.952  67.128  1.00  0.00    -0.370 C  
HETATM   22  H   UNL     1      -9.966  14.397  64.043  1.00  0.00     0.000 HD 
HETATM   23  C   UNL     1     -10.641  12.858  66.212  1.00  0.00    -0.281 C  
HETATM   24  C   UNL     1     -10.686  13.296  68.441  1.00  0.00    -0.257 C  
HETATM   25  O   UNL     1      -9.305  12.887  68.263  1.00  0.00    -0.209 OA 
HETATM   26  C   UNL     1      -8.196  14.766  67.088  1.00  0.00    -0.239 C  
HETATM   27  O   UNL     1      -9.197  14.950  69.285  1.00  0.00    -0.178 OA 
HETATM   28  C   UNL     1      -8.488  14.066  68.416  1.00  0.00    -0.166 C  
HETATM   29  C   UNL     1      -7.088  13.762  68.940  1.00  0.00    -0.107 C  
ENDROOT
BRANCH  24  30
HETATM   30  C   UNL     1     -11.750  12.221  68.928  1.00  0.00    -0.328 C  
HETATM   31  O   UNL     1     -12.756  12.575  69.566  1.00  0.00     0.323 OA 
BRANCH  30  32
HETATM   32  C   UNL     1     -11.576  10.728  68.633  1.00  0.00    -0.272 C  
BRANCH  32  33
HETATM   33  O   UNL     1     -11.184  10.499  67.251  1.00  0.00    -0.307 OA 
BRANCH  33  34
HETATM   34  C   UNL     1      -9.980   9.871  67.086  1.00  0.00    -0.200 C  
HETATM   35  C   UNL     1      -9.799   8.698  67.996  1.00  0.00    -0.201 C  
HETATM   36  O   UNL     1      -9.131  10.227  66.265  1.00  0.00    -0.149 OA 
ENDBRANCH  33  34
ENDBRANCH  32  33
ENDBRANCH  30  32
ENDBRANCH  24  30
TORSDOF 4
ENDMDL
MODEL      114
REMARK 921   NORMALIZED FREE ENERGY PREDICTED BY IDOCK:   14.70 KCAL/MOL
REMARK 922        TOTAL FREE ENERGY PREDICTED BY IDOCK:   17.51 KCAL/MOL
REMARK 923 INTER-LIGAND FREE ENERGY PREDICTED BY IDOCK:   17.57 KCAL/MOL
REMARK 924 INTRA-LIGAND FREE ENERGY PREDICTED BY IDOCK:   -0.06 KCAL/MOL
REMARK 927      BINDING AFFINITY PREDICTED BY RF-SCORE:    0.00 PKD
ROOT
HETATM    1  C   UNL     1      -7.403  13.989  68.937  1.00  0.00    -0.113 C  
HETATM    2  C   UNL     1      -7.572  15.119  69.881  1.00  0.00     0.003 C  
HETATM    3  C   UNL     1      -8.790  15.852  69.308  1.00  0.00    -0.249 C  
HETATM    4  C   UNL     1      -8.447  17.009  68.320  1.00  0.00    -0.233 C  
HETATM    5  C   UNL     1      -7.292  17.922  68.782  1.00  0.00    -0.271 C  
HETATM    6  C   UNL     1      -6.921  18.838  67.631  1.00  0.00    -0.206 C  
HETATM    7  F   UNL     1      -5.789  19.512  67.971  1.00  0.00    -0.203 F  
HETATM    8  C   UNL     1      -8.051  19.791  67.321  1.00  0.00    -0.327 C  
HETATM    9  C   UNL     1      -7.722  20.910  66.631  1.00  0.00    -0.002 C  
HETATM   10  C   UNL     1      -7.618  20.571  65.153  1.00  0.00     0.389 C  
HETATM   11  C   UNL     1      -8.557  19.508  64.668  1.00  0.00     3.647 C  
HETATM   12  O   UNL     1      -6.875  21.176  64.398  1.00  0.00    -0.076 OA 
HETATM   13  C   UNL     1      -9.384  18.841  65.504  1.00  0.00     0.973 C  
HETATM   14  C   UNL     1      -9.418  19.104  67.022  1.00  0.00    -0.367 C  
HETATM   15  C   UNL     1      -9.684  17.885  68.032  1.00  0.00    -0.303 C  
HETATM   16  C   UNL     1     -10.566  20.124  67.253  1.00  0.00    -0.340 C  
HETATM   17  F   UNL     1      -9.955  18.493  69.258  1.00  0.00    -0.351 F  
HETATM   18  C   UNL     1     -10.937  17.003  67.780  1.00  0.00    -0.199 C  
HETATM   19  C   UNL     1     -11.050  15.866  68.837  1.00  0.00    -0.316 C  
HETATM   20  O   UNL     1     -11.051  16.522  66.450  1.00  0.00    -0.000 OA 
HETATM   21  C   UNL     1      -9.939  14.727  68.926  1.00  0.00    -0.233 C  
HETATM   22  H   UNL     1     -11.817  15.982  66.295  1.00  0.00     0.000 HD 
HETATM   23  C   UNL     1     -10.863  13.909  67.819  1.00  0.00    -0.261 C  
HETATM   24  C   UNL     1      -8.824  13.499  68.733  1.00  0.00     0.105 C  
HETATM   25  O   UNL     1      -8.656  12.932  67.407  1.00  0.00    -0.175 OA 
HETATM   26  C   UNL     1      -8.483  14.868  65.870  1.00  0.00     1.117 C  
HETATM   27  O   UNL     1      -6.910  14.417  67.655  1.00  0.00    -0.169 OA 
HETATM   28  C   UNL     1      -7.756  13.797  66.685  1.00  0.00     0.925 C  
HETATM   29  C   UNL     1      -6.948  13.065  65.618  1.00  0.00     5.696 C  
ENDROOT
BRANCH  24  30
HETATM   30  C   UNL     1      -9.230  12.539  69.933  1.00  0.00     2.970 C  
HETATM   31  O   UNL     1     -10.072  12.903  70.772  1.00  0.00     4.496 OA 
BRANCH  30  32
HETATM   32  C   UNL     1      -8.607  11.150  70.097  1.00  0.00     1.978 C  
BRANCH  32  33
HETATM   33  O   UNL     1      -7.847  10.763  68.919  1.00  0.00    -0.118 OA 
BRANCH  33  34
HETATM   34  C   UNL     1      -6.869   9.832  69.139  1.00  0.00    -0.054 C  
HETATM   35  C   UNL     1      -6.674   9.516  70.588  1.00  0.00    -0.110 C  
HETATM   36  O   UNL     1      -6.218   9.299  68.236  1.00  0.00    -0.052 OA 
ENDBRANCH  33  34
ENDBRANCH  32  33
ENDBRANCH  30  32
ENDBRANCH  24  30
TORSDOF 4
ENDMDL
MODEL      115
REMARK 921   NORMALIZED FREE ENERGY PREDICTED BY IDOCK:   24.39 KCAL/MOL
REMARK 922        TOTAL FREE ENERGY PREDICTED BY IDOCK:   29.46 KCAL/MOL
REMARK 923 INTER-LIGAND FREE ENERGY PREDICTED BY IDOCK:   29.45 KCAL/MOL
REMARK 924 INTRA-LIGAND FREE ENERGY PREDICTED BY IDOCK:    0.01 KCAL/MOL
REMARK 927      BINDING AFFINITY PREDICTED BY RF-SCORE:    0.00 PKD
ROOT
HETATM    1  C   UNL     1      -8.967  13.873  67.937  1.00  0.00    -0.191 C  
HETATM    2  C   UNL     1      -7.489  13.784  68.020  1.00  0.00    -0.139 C  
HETATM    3  C   UNL     1      -7.170  12.636  67.056  1.00  0.00     0.064 C  
HETATM    4  C   UNL     1      -7.077  11.231  67.728  1.00  0.00    -0.087 C  
HETATM    5  C   UNL     1      -6.291  11.209  69.055  1.00  0.00    -0.054 C  
HETATM    6  C   UNL     1      -6.485   9.848  69.699  1.00  0.00    -0.052 C  
HETATM    7  F   UNL     1      -5.949   9.889  70.949  1.00  0.00    -0.064 F  
HETATM    8  C   UNL     1      -5.843   8.765  68.865  1.00  0.00    -0.040 C  
HETATM    9  C   UNL     1      -5.571   7.599  69.499  1.00  0.00    -0.023 C  
HETATM   10  C   UNL     1      -6.840   6.768  69.580  1.00  0.00    -0.054 C  
HETATM   11  C   UNL     1      -7.783   6.918  68.424  1.00  0.00    -0.116 C  
HETATM   12  O   UNL     1      -7.043   5.977  70.486  1.00  0.00    -0.066 OA 
HETATM   13  C   UNL     1      -7.556   7.790  67.417  1.00  0.00    -0.105 C  
HETATM   14  C   UNL     1      -6.323   8.715  67.383  1.00  0.00    -0.057 C  
HETATM   15  C   UNL     1      -6.458  10.192  66.769  1.00  0.00    -0.071 C  
HETATM   16  C   UNL     1      -5.261   7.978  66.524  1.00  0.00    -0.025 C  
HETATM   17  F   UNL     1      -5.143  10.630  66.607  1.00  0.00    -0.037 F  
HETATM   18  C   UNL     1      -7.063  10.327  65.345  1.00  0.00    -0.139 C  
HETATM   19  C   UNL     1      -7.130  11.816  64.898  1.00  0.00     2.751 C  
HETATM   20  O   UNL     1      -8.299   9.651  65.173  1.00  0.00    -0.124 OA 
HETATM   21  C   UNL     1      -8.053  12.856  65.676  1.00  0.00     2.461 C  
HETATM   22  H   UNL     1      -8.669   9.734  64.302  1.00  0.00     0.000 HD 
HETATM   23  C   UNL     1      -9.249  12.395  64.625  1.00  0.00     0.623 C  
HETATM   24  C   UNL     1      -9.233  13.751  66.449  1.00  0.00    -0.137 C  
HETATM   25  O   UNL     1     -10.571  13.192  66.526  1.00  0.00    -0.279 OA 
HETATM   26  C   UNL     1     -10.273  10.843  67.257  1.00  0.00    -0.242 C  
HETATM   27  O   UNL     1      -9.617  12.762  68.580  1.00  0.00    -0.198 OA 
HETATM   28  C   UNL     1     -10.591  12.288  67.649  1.00  0.00    -0.215 C  
HETATM   29  C   UNL     1     -11.969  12.157  68.290  1.00  0.00    -0.248 C  
ENDROOT
BRANCH  24  30
HETATM   30  C   UNL     1      -9.031  15.168  65.757  1.00  0.00     0.283 C  
HETATM   31  O   UNL     1      -9.962  15.700  65.130  1.00  0.00    -0.357 OA 
BRANCH  30  32
HETATM   32  C   UNL     1      -7.698  15.917  65.837  1.00  0.00     1.482 C  
BRANCH  32  33
HETATM   33  O   UNL     1      -6.940  15.793  64.602  1.00  0.00     9.103 OA 
BRANCH  33  34
HETATM   34  C   UNL     1      -6.122  16.851  64.314  1.00  0.00     7.162 C  
HETATM   35  C   UNL     1      -5.425  16.713  62.997  1.00  0.00     8.515 C  
HETATM   36  O   UNL     1      -5.978  17.826  65.057  1.00  0.00     0.127 OA 
ENDBRANCH  33  34
ENDBRANCH  32  33
ENDBRANCH  30  32
ENDBRANCH  24  30
TORSDOF 4
ENDMDL
MODEL      116
REMARK 921   NORMALIZED FREE ENERGY PREDICTED BY IDOCK:   26.82 KCAL/MOL
REMARK 922        TOTAL FREE ENERGY PREDICTED BY IDOCK:   32.46 KCAL/MOL
REMARK 923 INTER-LIGAND FREE ENERGY PREDICTED BY IDOCK:   24.49 KCAL/MOL
REMARK 924 INTRA-LIGAND FREE ENERGY PREDICTED BY IDOCK:    7.97 KCAL/MOL
REMARK 927      BINDING AFFINITY PREDICTED BY RF-SCORE:    0.00 PKD
ROOT
HETATM    1  C   UNL     1      -8.539   5.984  67.525  1.00  0.00    -0.106 C  
HETATM    2  C   UNL     1      -9.612   6.389  68.464  1.00  0.00    -0.122 C  
HETATM    3  C   UNL     1      -9.950   7.807  67.994  1.00  0.00    -0.210 C  
HETATM    4  C   UNL     1      -9.172   8.938  68.735  1.00  0.00    -0.140 C  
HETATM    5  C   UNL     1      -9.087   8.759  70.265  1.00  0.00    -0.185 C  
HETATM    6  C   UNL     1      -8.116   9.790  70.811  1.00  0.00     0.269 C  
HETATM    7  F   UNL     1      -7.899   9.515  72.126  1.00  0.00     0.384 F  
HETATM    8  C   UNL     1      -8.661  11.186  70.628  1.00  0.00     3.999 C  
HETATM    9  C   UNL     1      -8.127  12.148  71.419  1.00  0.00    11.300 C  
HETATM   10  C   UNL     1      -6.802  12.600  70.828  1.00  0.00     2.229 C  
HETATM   11  C   UNL     1      -6.722  12.576  69.331  1.00  0.00    -0.022 C  
HETATM   12  O   UNL     1      -5.892  13.025  71.521  1.00  0.00    -0.342 OA 
HETATM   13  C   UNL     1      -7.731  12.110  68.563  1.00  0.00    -0.119 C  
HETATM   14  C   UNL     1      -9.038  11.550  69.160  1.00  0.00     0.250 C  
HETATM   15  C   UNL     1      -9.779  10.325  68.434  1.00  0.00    -0.156 C  
HETATM   16  C   UNL     1     -10.045  12.731  69.167  1.00  0.00     0.309 C  
HETATM   17  F   UNL     1     -11.041  10.273  69.027  1.00  0.00    -0.220 F  
HETATM   18  C   UNL     1     -10.095  10.471  66.921  1.00  0.00    -0.216 C  
HETATM   19  C   UNL     1     -10.807   9.202  66.367  1.00  0.00     0.400 C  
HETATM   20  O   UNL     1      -8.983  10.859  66.129  1.00  0.00    -0.170 OA 
HETATM   21  C   UNL     1     -10.058   7.796  66.345  1.00  0.00    -0.124 C  
HETATM   22  H   UNL     1      -9.176  10.949  65.203  1.00  0.00     0.000 HD 
HETATM   23  C   UNL     1      -9.508   8.249  64.848  1.00  0.00     0.995 C  
HETATM   24  C   UNL     1      -9.060   6.466  66.184  1.00  0.00    -0.131 C  
HETATM   25  O   UNL     1      -7.781   6.650  65.522  1.00  0.00    -0.086 OA 
HETATM   26  C   UNL     1      -6.794   8.688  66.529  1.00  0.00    -0.072 C  
HETATM   27  O   UNL     1      -7.304   6.677  67.777  1.00  0.00    -0.091 OA 
HETATM   28  C   UNL     1      -6.861   7.160  66.508  1.00  0.00    -0.065 C  
HETATM   29  C   UNL     1      -5.411   6.773  66.233  1.00  0.00    -0.018 C  
ENDROOT
BRANCH  24  30
HETATM   30  C   UNL     1     -10.082   5.399  65.599  1.00  0.00     0.173 C  
HETATM   31  O   UNL     1      -9.788   4.733  64.592  1.00  0.00     0.005 OA 
BRANCH  30  32
HETATM   32  C   UNL     1     -11.448   5.156  66.246  1.00  0.00     1.243 C  
BRANCH  32  33
HETATM   33  O   UNL     1     -11.317   4.760  67.639  1.00  0.00     1.755 OA 
BRANCH  33  34
HETATM   34  C   UNL     1     -11.653   5.723  68.551  1.00  0.00     1.315 C  
HETATM   35  C   UNL     1     -11.138   5.436  69.926  1.00  0.00     0.207 C  
HETATM   36  O   UNL     1     -12.306   6.732  68.270  1.00  0.00     2.251 OA 
ENDBRANCH  33  34
ENDBRANCH  32  33
ENDBRANCH  30  32
ENDBRANCH  24  30
TORSDOF 4
ENDMDL
MODEL      117
REMARK 921   NORMALIZED FREE ENERGY PREDICTED BY IDOCK:   28.19 KCAL/MOL
REMARK 922        TOTAL FREE ENERGY PREDICTED BY IDOCK:   34.16 KCAL/MOL
REMARK 923 INTER-LIGAND FREE ENERGY PREDICTED BY IDOCK:   31.99 KCAL/MOL
REMARK 924 INTRA-LIGAND FREE ENERGY PREDICTED BY IDOCK:    2.17 KCAL/MOL
REMARK 927      BINDING AFFINITY PREDICTED BY RF-SCORE:    0.00 PKD
ROOT
HETATM    1  C   UNL     1      -6.000  15.498  67.141  1.00  0.00     0.335 C  
HETATM    2  C   UNL     1      -5.734  14.961  65.785  1.00  0.00     8.234 C  
HETATM    3  C   UNL     1      -7.096  14.387  65.380  1.00  0.00    10.005 C  
HETATM    4  C   UNL     1      -7.284  12.873  65.708  1.00  0.00     4.141 C  
HETATM    5  C   UNL     1      -6.071  11.988  65.357  1.00  0.00     3.018 C  
HETATM    6  C   UNL     1      -6.306  10.606  65.940  1.00  0.00    -0.128 C  
HETATM    7  F   UNL     1      -5.163   9.882  65.793  1.00  0.00    -0.036 F  
HETATM    8  C   UNL     1      -7.472   9.930  65.259  1.00  0.00    -0.131 C  
HETATM    9  C   UNL     1      -7.532   8.581  65.369  1.00  0.00    -0.086 C  
HETATM   10  C   UNL     1      -8.126   8.217  66.720  1.00  0.00    -0.103 C  
HETATM   11  C   UNL     1      -9.156   9.170  67.249  1.00  0.00    -0.143 C  
HETATM   12  O   UNL     1      -7.839   7.183  67.299  1.00  0.00    -0.107 OA 
HETATM   13  C   UNL     1      -9.478  10.313  66.605  1.00  0.00    -0.203 C  
HETATM   14  C   UNL     1      -8.802  10.742  65.287  1.00  0.00    -0.200 C  
HETATM   15  C   UNL     1      -8.533  12.299  65.005  1.00  0.00     1.750 C  
HETATM   16  C   UNL     1      -9.732  10.244  64.149  1.00  0.00    -0.357 C  
HETATM   17  F   UNL     1      -8.212  12.364  63.649  1.00  0.00     1.792 F  
HETATM   18  C   UNL     1      -9.736  13.272  65.139  1.00  0.00     0.065 C  
HETATM   19  C   UNL     1      -9.312  14.740  64.840  1.00  0.00     1.331 C  
HETATM   20  O   UNL     1     -10.449  13.151  66.360  1.00  0.00    -0.275 OA 
HETATM   21  C   UNL     1      -8.262  15.488  65.776  1.00  0.00     1.460 C  
HETATM   22  H   UNL     1     -11.185  13.746  66.443  1.00  0.00     0.000 HD 
HETATM   23  C   UNL     1      -9.577  15.957  66.670  1.00  0.00    -0.265 C  
HETATM   24  C   UNL     1      -7.338  16.193  66.977  1.00  0.00    -0.231 C  
HETATM   25  O   UNL     1      -7.799  16.076  68.349  1.00  0.00    -0.140 OA 
HETATM   26  C   UNL     1      -8.414  13.694  68.647  1.00  0.00    -0.038 C  
HETATM   27  O   UNL     1      -6.177  14.454  68.115  1.00  0.00    -0.112 OA 
HETATM   28  C   UNL     1      -7.364  14.790  68.836  1.00  0.00    -0.130 C  
HETATM   29  C   UNL     1      -7.134  14.766  70.344  1.00  0.00     0.300 C  
ENDROOT
BRANCH  24  30
HETATM   30  C   UNL     1      -7.111  17.641  66.363  1.00  0.00    -0.275 C  
HETATM   31  O   UNL     1      -6.505  18.511  67.011  1.00  0.00    -0.180 OA 
BRANCH  30  32
HETATM   32  C   UNL     1      -7.624  18.012  64.969  1.00  0.00     2.275 C  
BRANCH  32  33
HETATM   33  O   UNL     1      -8.855  18.783  65.040  1.00  0.00     1.449 OA 
BRANCH  33  34
HETATM   34  C   UNL     1      -9.169  19.263  66.282  1.00  0.00    -0.331 C  
HETATM   35  C   UNL     1     -10.153  18.404  67.012  1.00  0.00    -0.382 C  
HETATM   36  O   UNL     1      -8.687  20.294  66.759  1.00  0.00    -0.312 OA 
ENDBRANCH  33  34
ENDBRANCH  32  33
ENDBRANCH  30  32
ENDBRANCH  24  30
TORSDOF 4
ENDMDL
MODEL      118
REMARK 921   NORMALIZED FREE ENERGY PREDICTED BY IDOCK:   28.83 KCAL/MOL
REMARK 922        TOTAL FREE ENERGY PREDICTED BY IDOCK:   34.95 KCAL/MOL
REMARK 923 INTER-LIGAND FREE ENERGY PREDICTED BY IDOCK:   35.25 KCAL/MOL
REMARK 924 INTRA-LIGAND FREE ENERGY PREDICTED BY IDOCK:   -0.30 KCAL/MOL
REMARK 927      BINDING AFFINITY PREDICTED BY RF-SCORE:    0.00 PKD
ROOT
HETATM    1  C   UNL     1      -9.933  13.355  69.626  1.00  0.00     1.146 C  
HETATM    2  C   UNL     1      -9.611  13.022  68.218  1.00  0.00    -0.213 C  
HETATM    3  C   UNL     1      -8.203  13.602  68.051  1.00  0.00    -0.162 C  
HETATM    4  C   UNL     1      -8.164  15.057  67.490  1.00  0.00    -0.199 C  
HETATM    5  C   UNL     1      -9.121  15.312  66.307  1.00  0.00    -0.337 C  
HETATM    6  C   UNL     1      -9.145  16.804  66.028  1.00  0.00    -0.190 C  
HETATM    7  F   UNL     1     -10.122  17.050  65.114  1.00  0.00    -0.059 F  
HETATM    8  C   UNL     1      -7.800  17.276  65.529  1.00  0.00     0.941 C  
HETATM    9  C   UNL     1      -7.787  18.452  64.857  1.00  0.00     2.816 C  
HETATM   10  C   UNL     1      -7.805  19.597  65.856  1.00  0.00    -0.286 C  
HETATM   11  C   UNL     1      -7.089  19.337  67.148  1.00  0.00    -0.218 C  
HETATM   12  O   UNL     1      -8.304  20.680  65.596  1.00  0.00     0.261 OA 
HETATM   13  C   UNL     1      -6.532  18.140  67.434  1.00  0.00    -0.188 C  
HETATM   14  C   UNL     1      -6.603  16.940  66.470  1.00  0.00    -0.213 C  
HETATM   15  C   UNL     1      -6.734  15.454  67.062  1.00  0.00     0.251 C  
HETATM   16  C   UNL     1      -5.284  16.971  65.652  1.00  0.00     0.983 C  
HETATM   17  F   UNL     1      -6.465  14.615  65.980  1.00  0.00     3.124 F  
HETATM   18  C   UNL     1      -5.698  15.011  68.130  1.00  0.00    -0.135 C  
HETATM   19  C   UNL     1      -5.963  13.553  68.606  1.00  0.00    -0.086 C  
HETATM   20  O   UNL     1      -5.554  15.918  69.212  1.00  0.00    -0.110 OA 
HETATM   21  C   UNL     1      -7.309  13.182  69.375  1.00  0.00     0.335 C  
HETATM   22  H   UNL     1      -4.920  15.648  69.866  1.00  0.00     0.000 HD 
HETATM   23  C   UNL     1      -6.483  13.577  70.757  1.00  0.00     0.482 C  
HETATM   24  C   UNL     1      -8.649  13.016  70.359  1.00  0.00     5.320 C  
HETATM   25  O   UNL     1      -8.797  13.938  71.470  1.00  0.00     6.331 OA 
HETATM   26  C   UNL     1      -8.355  16.190  70.534  1.00  0.00     2.456 C  
HETATM   27  O   UNL     1     -10.173  14.762  69.813  1.00  0.00    -0.105 OA 
HETATM   28  C   UNL     1      -9.392  15.143  70.946  1.00  0.00     1.948 C  
HETATM   29  C   UNL     1     -10.226  15.898  71.977  1.00  0.00     2.884 C  
ENDROOT
BRANCH  24  30
HETATM   30  C   UNL     1      -8.605  11.455  70.656  1.00  0.00     4.960 C  
HETATM   31  O   UNL     1      -9.504  10.917  71.325  1.00  0.00     3.629 OA 
BRANCH  30  32
HETATM   32  C   UNL     1      -7.469  10.570  70.136  1.00  0.00     0.130 C  
BRANCH  32  33
HETATM   33  O   UNL     1      -7.752  10.065  68.801  1.00  0.00    -0.079 OA 
BRANCH  33  34
HETATM   34  C   UNL     1      -6.962   9.027  68.393  1.00  0.00    -0.068 C  
HETATM   35  C   UNL     1      -6.595   8.095  69.504  1.00  0.00    -0.038 C  
HETATM   36  O   UNL     1      -6.592   8.867  67.227  1.00  0.00    -0.060 OA 
ENDBRANCH  33  34
ENDBRANCH  32  33
ENDBRANCH  30  32
ENDBRANCH  24  30
TORSDOF 4
ENDMDL
MODEL      119
REMARK 921   NORMALIZED FREE ENERGY PREDICTED BY IDOCK:   31.54 KCAL/MOL
REMARK 922        TOTAL FREE ENERGY PREDICTED BY IDOCK:   38.29 KCAL/MOL
REMARK 923 INTER-LIGAND FREE ENERGY PREDICTED BY IDOCK:   38.17 KCAL/MOL
REMARK 924 INTRA-LIGAND FREE ENERGY PREDICTED BY IDOCK:    0.12 KCAL/MOL
REMARK 927      BINDING AFFINITY PREDICTED BY RF-SCORE:    0.00 PKD
ROOT
HETATM    1  C   UNL     1     -10.066  13.461  69.826  1.00  0.00     1.284 C  
HETATM    2  C   UNL     1     -10.135  13.533  68.347  1.00  0.00    -0.240 C  
HETATM    3  C   UNL     1      -9.226  14.724  68.028  1.00  0.00    -0.194 C  
HETATM    4  C   UNL     1      -9.966  16.093  67.914  1.00  0.00    -0.239 C  
HETATM    5  C   UNL     1     -11.283  16.042  67.113  1.00  0.00    -0.002 C  
HETATM    6  C   UNL     1     -11.997  17.370  67.287  1.00  0.00     2.345 C  
HETATM    7  F   UNL     1     -13.237  17.263  66.738  1.00  0.00     5.852 F  
HETATM    8  C   UNL     1     -11.210  18.488  66.644  1.00  0.00     0.563 C  
HETATM    9  C   UNL     1     -11.899  19.618  66.354  1.00  0.00     1.908 C  
HETATM   10  C   UNL     1     -12.036  20.456  67.615  1.00  0.00     3.287 C  
HETATM   11  C   UNL     1     -10.885  20.372  68.572  1.00  0.00     0.459 C  
HETATM   12  O   UNL     1     -12.982  21.202  67.800  1.00  0.00     6.239 OA 
HETATM   13  C   UNL     1      -9.833  19.549  68.364  1.00  0.00    -0.521 C  
HETATM   14  C   UNL     1      -9.739  18.616  67.141  1.00  0.00    -0.324 C  
HETATM   15  C   UNL     1      -9.054  17.173  67.296  1.00  0.00    -0.222 C  
HETATM   16  C   UNL     1      -8.905  19.386  66.081  1.00  0.00    -0.301 C  
HETATM   17  F   UNL     1      -8.855  16.732  65.987  1.00  0.00    -0.305 F  
HETATM   18  C   UNL     1      -7.632  17.115  67.918  1.00  0.00    -0.175 C  
HETATM   19  C   UNL     1      -7.112  15.651  68.004  1.00  0.00    -0.133 C  
HETATM   20  O   UNL     1      -7.507  17.809  69.149  1.00  0.00    -0.206 OA 
HETATM   21  C   UNL     1      -7.848  14.581  68.928  1.00  0.00    -0.134 C  
HETATM   22  H   UNL     1      -6.638  17.774  69.530  1.00  0.00     0.000 HD 
HETATM   23  C   UNL     1      -6.835  15.104  70.131  1.00  0.00    -0.046 C  
HETATM   24  C   UNL     1      -8.588  13.659  70.108  1.00  0.00     2.922 C  
HETATM   25  O   UNL     1      -8.708  14.225  71.439  1.00  0.00     4.165 OA 
HETATM   26  C   UNL     1      -9.553  16.532  71.112  1.00  0.00     4.012 C  
HETATM   27  O   UNL     1     -10.770  14.544  70.459  1.00  0.00     0.122 OA 
HETATM   28  C   UNL     1      -9.875  15.073  71.438  1.00  0.00     2.281 C  
HETATM   29  C   UNL     1     -10.538  15.183  72.807  1.00  0.00     2.186 C  
ENDROOT
BRANCH  24  30
HETATM   30  C   UNL     1      -7.825  12.277  69.926  1.00  0.00     1.877 C  
HETATM   31  O   UNL     1      -8.133  11.293  70.619  1.00  0.00     2.150 OA 
BRANCH  30  32
HETATM   32  C   UNL     1      -6.696  12.112  68.905  1.00  0.00    -0.094 C  
BRANCH  32  33
HETATM   33  O   UNL     1      -7.212  11.780  67.586  1.00  0.00    -0.095 OA 
BRANCH  33  34
HETATM   34  C   UNL     1      -7.002  10.489  67.188  1.00  0.00    -0.089 C  
HETATM   35  C   UNL     1      -7.094   9.505  68.311  1.00  0.00    -0.075 C  
HETATM   36  O   UNL     1      -6.768  10.163  66.021  1.00  0.00    -0.092 OA 
ENDBRANCH  33  34
ENDBRANCH  32  33
ENDBRANCH  30  32
ENDBRANCH  24  30
TORSDOF 4
ENDMDL
MODEL      120
REMARK 921   NORMALIZED FREE ENERGY PREDICTED BY IDOCK:   31.60 KCAL/MOL
REMARK 922        TOTAL FREE ENERGY PREDICTED BY IDOCK:   38.36 KCAL/MOL
REMARK 923 INTER-LIGAND FREE ENERGY PREDICTED BY IDOCK:   32.46 KCAL/MOL
REMARK 924 INTRA-LIGAND FREE ENERGY PREDICTED BY IDOCK:    5.90 KCAL/MOL
REMARK 927      BINDING AFFINITY PREDICTED BY RF-SCORE:    0.00 PKD
ROOT
HETATM    1  C   UNL     1      -6.985  17.946  67.730  1.00  0.00    -0.199 C  
HETATM    2  C   UNL     1      -8.210  18.697  68.093  1.00  0.00    -0.327 C  
HETATM    3  C   UNL     1      -9.182  17.581  68.485  1.00  0.00    -0.278 C  
HETATM    4  C   UNL     1     -10.095  17.077  67.324  1.00  0.00    -0.295 C  
HETATM    5  C   UNL     1     -10.702  18.199  66.457  1.00  0.00    -0.173 C  
HETATM    6  C   UNL     1     -11.361  17.561  65.247  1.00  0.00     0.958 C  
HETATM    7  F   UNL     1     -11.733  18.552  64.393  1.00  0.00     1.757 F  
HETATM    8  C   UNL     1     -12.548  16.725  65.664  1.00  0.00     4.807 C  
HETATM    9  C   UNL     1     -13.458  16.451  64.698  1.00  0.00     4.806 C  
HETATM   10  C   UNL     1     -12.954  15.293  63.853  1.00  0.00     1.315 C  
HETATM   11  C   UNL     1     -12.141  14.267  64.584  1.00  0.00    -0.478 C  
HETATM   12  O   UNL     1     -13.253  15.167  62.677  1.00  0.00     2.532 OA 
HETATM   13  C   UNL     1     -11.813  14.403  65.888  1.00  0.00    -0.371 C  
HETATM   14  C   UNL     1     -12.230  15.628  66.725  1.00  0.00     1.131 C  
HETATM   15  C   UNL     1     -11.240  16.190  67.856  1.00  0.00    -0.245 C  
HETATM   16  C   UNL     1     -13.541  15.223  67.451  1.00  0.00     6.039 C  
HETATM   17  F   UNL     1     -12.021  17.068  68.608  1.00  0.00     0.162 F  
HETATM   18  C   UNL     1     -10.710  15.182  68.912  1.00  0.00    -0.240 C  
HETATM   19  C   UNL     1      -9.762  15.877  69.932  1.00  0.00    -0.011 C  
HETATM   20  O   UNL     1     -10.143  14.004  68.359  1.00  0.00    -0.226 OA 
HETATM   21  C   UNL     1      -8.379  16.510  69.454  1.00  0.00     0.078 C  
HETATM   22  H   UNL     1      -9.819  13.387  69.005  1.00  0.00     0.000 HD 
HETATM   23  C   UNL     1      -7.734  15.010  69.742  1.00  0.00    -0.038 C  
HETATM   24  C   UNL     1      -6.881  16.910  68.833  1.00  0.00    -0.209 C  
HETATM   25  O   UNL     1      -6.157  15.893  68.091  1.00  0.00    -0.106 OA 
HETATM   26  C   UNL     1      -7.804  14.910  66.522  1.00  0.00     0.598 C  
HETATM   27  O   UNL     1      -7.129  17.235  66.487  1.00  0.00    -0.209 OA 
HETATM   28  C   UNL     1      -6.666  15.908  66.742  1.00  0.00     0.258 C  
HETATM   29  C   UNL     1      -5.637  15.462  65.707  1.00  0.00     6.540 C  
ENDROOT
BRANCH  24  30
HETATM   30  C   UNL     1      -6.196  17.563  70.110  1.00  0.00     0.096 C  
HETATM   31  O   UNL     1      -6.520  18.703  70.483  1.00  0.00     0.220 OA 
BRANCH  30  32
HETATM   32  C   UNL     1      -5.127  16.820  70.916  1.00  0.00    -0.206 C  
BRANCH  32  33
HETATM   33  O   UNL     1      -5.691  16.186  72.097  1.00  0.00     0.734 OA 
BRANCH  33  34
HETATM   34  C   UNL     1      -6.503  15.114  71.849  1.00  0.00     1.431 C  
HETATM   35  C   UNL     1      -5.774  13.808  71.871  1.00  0.00    -0.082 C  
HETATM   36  O   UNL     1      -7.715  15.209  71.635  1.00  0.00     2.687 OA 
ENDBRANCH  33  34
ENDBRANCH  32  33
ENDBRANCH  30  32
ENDBRANCH  24  30
TORSDOF 4
ENDMDL
MODEL      121
REMARK 921   NORMALIZED FREE ENERGY PREDICTED BY IDOCK:   33.02 KCAL/MOL
REMARK 922        TOTAL FREE ENERGY PREDICTED BY IDOCK:   40.11 KCAL/MOL
REMARK 923 INTER-LIGAND FREE ENERGY PREDICTED BY IDOCK:   31.00 KCAL/MOL
REMARK 924 INTRA-LIGAND FREE ENERGY PREDICTED BY IDOCK:    9.11 KCAL/MOL
REMARK 927      BINDING AFFINITY PREDICTED BY RF-SCORE:    0.00 PKD
ROOT
HETATM    1  C   UNL     1      -9.450   8.904  66.381  1.00  0.00    -0.220 C  
HETATM    2  C   UNL     1      -8.383   9.912  66.584  1.00  0.00    -0.125 C  
HETATM    3  C   UNL     1      -9.041  10.905  67.548  1.00  0.00    -0.142 C  
HETATM    4  C   UNL     1      -9.750  12.109  66.855  1.00  0.00    -0.213 C  
HETATM    5  C   UNL     1      -8.944  12.750  65.706  1.00  0.00     0.448 C  
HETATM    6  C   UNL     1      -9.845  13.737  64.986  1.00  0.00    -0.052 C  
HETATM    7  F   UNL     1      -9.200  14.163  63.867  1.00  0.00     2.171 F  
HETATM    8  C   UNL     1     -10.196  14.896  65.889  1.00  0.00    -0.333 C  
HETATM    9  C   UNL     1     -10.625  16.026  65.276  1.00  0.00    -0.424 C  
HETATM   10  C   UNL     1     -12.094  15.873  64.920  1.00  0.00     0.456 C  
HETATM   11  C   UNL     1     -12.907  15.052  65.875  1.00  0.00     0.780 C  
HETATM   12  O   UNL     1     -12.594  16.441  63.963  1.00  0.00    -0.330 OA 
HETATM   13  C   UNL     1     -12.355  14.427  66.938  1.00  0.00    -0.165 C  
HETATM   14  C   UNL     1     -10.846  14.490  67.246  1.00  0.00    -0.297 C  
HETATM   15  C   UNL     1     -10.112  13.209  67.876  1.00  0.00    -0.232 C  
HETATM   16  C   UNL     1     -10.666  15.646  68.267  1.00  0.00    -0.283 C  
HETATM   17  F   UNL     1      -8.874  13.686  68.307  1.00  0.00    -0.162 F  
HETATM   18  C   UNL     1     -10.727  12.587  69.160  1.00  0.00    -0.023 C  
HETATM   19  C   UNL     1      -9.906  11.355  69.640  1.00  0.00     0.661 C  
HETATM   20  O   UNL     1     -12.116  12.311  69.064  1.00  0.00    -0.265 OA 
HETATM   21  C   UNL     1      -9.802  10.047  68.737  1.00  0.00    -0.173 C  
HETATM   22  H   UNL     1     -12.492  11.931  69.849  1.00  0.00     0.000 HD 
HETATM   23  C   UNL     1     -11.176   9.546  69.518  1.00  0.00    -0.105 C  
HETATM   24  C   UNL     1      -9.985   8.687  67.784  1.00  0.00    -0.190 C  
HETATM   25  O   UNL     1     -11.333   8.280  67.428  1.00  0.00     0.480 OA 
HETATM   26  C   UNL     1     -12.479  10.347  66.681  1.00  0.00     6.005 C  
HETATM   27  O   UNL     1     -10.535   9.410  65.584  1.00  0.00     0.089 OA 
HETATM   28  C   UNL     1     -11.730   9.072  66.290  1.00  0.00     5.080 C  
HETATM   29  C   UNL     1     -12.737   8.365  65.389  1.00  0.00    18.425 C  
ENDROOT
BRANCH  24  30
HETATM   30  C   UNL     1      -9.050   7.658  68.554  1.00  0.00    -0.131 C  
HETATM   31  O   UNL     1      -8.687   7.888  69.720  1.00  0.00    -0.135 OA 
BRANCH  30  32
HETATM   32  C   UNL     1      -8.569   6.362  67.895  1.00  0.00    -0.116 C  
BRANCH  32  33
HETATM   33  O   UNL     1      -7.807   6.629  66.685  1.00  0.00    -0.100 OA 
BRANCH  33  34
HETATM   34  C   UNL     1      -8.519   6.549  65.521  1.00  0.00    -0.136 C  
HETATM   35  C   UNL     1      -9.894   7.128  65.632  1.00  0.00     0.891 C  
HETATM   36  O   UNL     1      -8.074   6.058  64.479  1.00  0.00    -0.129 OA 
ENDBRANCH  33  34
ENDBRANCH  32  33
ENDBRANCH  30  32
ENDBRANCH  24  30
TORSDOF 4
ENDMDL
MODEL      122
REMARK 921   NORMALIZED FREE ENERGY PREDICTED BY IDOCK:   47.77 KCAL/MOL
REMARK 922        TOTAL FREE ENERGY PREDICTED BY IDOCK:   58.31 KCAL/MOL
REMARK 923 INTER-LIGAND FREE ENERGY PREDICTED BY IDOCK:   43.03 KCAL/MOL
REMARK 924 INTRA-LIGAND FREE ENERGY PREDICTED BY IDOCK:   15.28 KCAL/MOL
REMARK 927      BINDING AFFINITY PREDICTED BY RF-SCORE:    0.00 PKD
ROOT
HETATM    1  C   UNL     1      -6.729  14.165  68.573  1.00  0.00    -0.101 C  
HETATM    2  C   UNL     1      -6.938  15.407  69.354  1.00  0.00    -0.181 C  
HETATM    3  C   UNL     1      -8.196  15.999  68.710  1.00  0.00    -0.211 C  
HETATM    4  C   UNL     1      -7.920  17.021  67.565  1.00  0.00    -0.189 C  
HETATM    5  C   UNL     1      -6.803  18.039  67.873  1.00  0.00    -0.199 C  
HETATM    6  C   UNL     1      -6.490  18.802  66.599  1.00  0.00    -0.189 C  
HETATM    7  F   UNL     1      -5.385  19.566  66.820  1.00  0.00    -0.163 F  
HETATM    8  C   UNL     1      -7.666  19.652  66.183  1.00  0.00    -0.331 C  
HETATM    9  C   UNL     1      -7.399  20.677  65.338  1.00  0.00     0.096 C  
HETATM   10  C   UNL     1      -7.299  20.141  63.919  1.00  0.00     1.896 C  
HETATM   11  C   UNL     1      -8.194  18.980  63.605  1.00  0.00    10.973 C  
HETATM   12  O   UNL     1      -6.595  20.667  63.074  1.00  0.00     0.034 OA 
HETATM   13  C   UNL     1      -8.978  18.401  64.541  1.00  0.00     6.638 C  
HETATM   14  C   UNL     1      -9.004  18.871  66.009  1.00  0.00    -0.025 C  
HETATM   15  C   UNL     1      -9.200  17.794  67.182  1.00  0.00    -0.253 C  
HETATM   16  C   UNL     1     -10.194  19.862  66.118  1.00  0.00    -0.611 C  
HETATM   17  F   UNL     1      -9.482  18.554  68.318  1.00  0.00    -0.293 F  
HETATM   18  C   UNL     1     -10.414  16.831  67.079  1.00  0.00    -0.285 C  
HETATM   19  C   UNL     1     -10.460  15.849  68.286  1.00  0.00    -0.257 C  
HETATM   20  O   UNL     1     -10.523  16.165  65.831  1.00  0.00    -0.330 OA 
HETATM   21  C   UNL     1      -9.297  14.783  68.510  1.00  0.00    -0.199 C  
HETATM   22  H   UNL     1     -11.266  15.576  65.768  1.00  0.00     0.000 HD 
HETATM   23  C   UNL     1     -10.197  13.779  67.545  1.00  0.00    -0.241 C  
HETATM   24  C   UNL     1      -8.129  13.590  68.467  1.00  0.00    -0.108 C  
HETATM   25  O   UNL     1      -7.953  12.852  67.229  1.00  0.00    -0.174 OA 
HETATM   26  C   UNL     1      -7.890  14.561  65.435  1.00  0.00     6.184 C  
HETATM   27  O   UNL     1      -6.274  14.431  67.235  1.00  0.00    -0.301 OA 
HETATM   28  C   UNL     1      -7.104  13.646  66.377  1.00  0.00     2.713 C  
HETATM   29  C   UNL     1      -6.277  12.809  65.405  1.00  0.00     6.769 C  
ENDROOT
BRANCH  24  30
HETATM   30  C   UNL     1      -8.474  12.790  69.796  1.00  0.00     2.324 C  
HETATM   31  O   UNL     1      -8.918  11.631  69.735  1.00  0.00     1.119 OA 
BRANCH  30  32
HETATM   32  C   UNL     1      -8.276  13.411  71.182  1.00  0.00     8.017 C  
BRANCH  32  33
HETATM   33  O   UNL     1      -7.520  14.651  71.109  1.00  0.00     1.309 OA 
BRANCH  33  34
HETATM   34  C   UNL     1      -6.206  14.511  70.756  1.00  0.00    -0.099 C  
HETATM   35  C   UNL     1      -5.770  13.083  70.671  1.00  0.00    -0.165 C  
HETATM   36  O   UNL     1      -5.456  15.463  70.524  1.00  0.00    -0.135 OA 
ENDBRANCH  33  34
ENDBRANCH  32  33
ENDBRANCH  30  32
ENDBRANCH  24  30
TORSDOF 4
ENDMDL
MODEL      123
REMARK 921   NORMALIZED FREE ENERGY PREDICTED BY IDOCK:   51.22 KCAL/MOL
REMARK 922        TOTAL FREE ENERGY PREDICTED BY IDOCK:   62.57 KCAL/MOL
REMARK 923 INTER-LIGAND FREE ENERGY PREDICTED BY IDOCK:   61.40 KCAL/MOL
REMARK 924 INTRA-LIGAND FREE ENERGY PREDICTED BY IDOCK:    1.17 KCAL/MOL
REMARK 927      BINDING AFFINITY PREDICTED BY RF-SCORE:    0.00 PKD
ROOT
HETATM    1  C   UNL     1      -7.906  16.557  65.996  1.00  0.00     0.115 C  
HETATM    2  C   UNL     1      -7.769  15.085  66.103  1.00  0.00     1.887 C  
HETATM    3  C   UNL     1      -8.855  14.721  67.120  1.00  0.00    -0.234 C  
HETATM    4  C   UNL     1      -8.364  14.659  68.600  1.00  0.00    -0.165 C  
HETATM    5  C   UNL     1      -7.017  13.934  68.795  1.00  0.00    -0.108 C  
HETATM    6  C   UNL     1      -6.560  14.157  70.225  1.00  0.00    -0.001 C  
HETATM    7  F   UNL     1      -5.292  13.678  70.347  1.00  0.00    -0.094 F  
HETATM    8  C   UNL     1      -7.495  13.477  71.197  1.00  0.00     4.394 C  
HETATM    9  C   UNL     1      -7.002  13.233  72.435  1.00  0.00     5.701 C  
HETATM   10  C   UNL     1      -7.086  14.505  73.263  1.00  0.00     4.107 C  
HETATM   11  C   UNL     1      -8.255  15.394  72.963  1.00  0.00    10.413 C  
HETATM   12  O   UNL     1      -6.298  14.748  74.162  1.00  0.00     0.860 OA 
HETATM   13  C   UNL     1      -9.131  15.122  71.971  1.00  0.00     5.540 C  
HETATM   14  C   UNL     1      -8.992  13.889  71.056  1.00  0.00     6.137 C  
HETATM   15  C   UNL     1      -9.418  13.996  69.512  1.00  0.00     0.712 C  
HETATM   16  C   UNL     1      -9.888  12.788  71.684  1.00  0.00    13.471 C  
HETATM   17  F   UNL     1      -9.463  12.675  69.064  1.00  0.00    -0.005 F  
HETATM   18  C   UNL     1     -10.839  14.535  69.195  1.00  0.00    -0.263 C  
HETATM   19  C   UNL     1     -11.096  14.582  67.660  1.00  0.00    -0.314 C  
HETATM   20  O   UNL     1     -11.152  15.762  69.836  1.00  0.00    -0.272 OA 
HETATM   21  C   UNL     1     -10.234  15.540  66.722  1.00  0.00    -0.282 C  
HETATM   22  H   UNL     1     -12.021  16.092  69.641  1.00  0.00     0.000 HD 
HETATM   23  C   UNL     1     -11.388  16.687  67.039  1.00  0.00     0.464 C  
HETATM   24  C   UNL     1      -9.409  16.755  65.926  1.00  0.00    -0.127 C  
HETATM   25  O   UNL     1      -9.464  18.095  66.483  1.00  0.00    -0.292 OA 
HETATM   26  C   UNL     1      -9.024  17.830  68.908  1.00  0.00    -0.124 C  
HETATM   27  O   UNL     1      -7.440  17.235  67.176  1.00  0.00    -0.164 OA 
HETATM   28  C   UNL     1      -8.467  18.165  67.523  1.00  0.00    -0.248 C  
HETATM   29  C   UNL     1      -7.910  19.571  67.726  1.00  0.00    -0.323 C  
ENDROOT
BRANCH  24  30
HETATM   30  C   UNL     1      -9.904  16.522  64.434  1.00  0.00     3.341 C  
HETATM   31  O   UNL     1     -10.227  17.486  63.720  1.00  0.00     5.053 OA 
BRANCH  30  32
HETATM   32  C   UNL     1     -10.002  15.118  63.831  1.00  0.00     4.272 C  
BRANCH  32  33
HETATM   33  O   UNL     1     -10.723  14.208  64.708  1.00  0.00    -0.398 OA 
BRANCH  33  34
HETATM   34  C   UNL     1     -11.856  13.660  64.171  1.00  0.00    -0.422 C  
HETATM   35  C   UNL     1     -12.060  12.231  64.565  1.00  0.00    -0.462 C  
HETATM   36  O   UNL     1     -12.636  14.279  63.443  1.00  0.00    -0.777 OA 
ENDBRANCH  33  34
ENDBRANCH  32  33
ENDBRANCH  30  32
ENDBRANCH  24  30
TORSDOF 4
ENDMDL
MODEL      124
REMARK 921   NORMALIZED FREE ENERGY PREDICTED BY IDOCK:   68.84 KCAL/MOL
REMARK 922        TOTAL FREE ENERGY PREDICTED BY IDOCK:   84.31 KCAL/MOL
REMARK 923 INTER-LIGAND FREE ENERGY PREDICTED BY IDOCK:   79.64 KCAL/MOL
REMARK 924 INTRA-LIGAND FREE ENERGY PREDICTED BY IDOCK:    4.67 KCAL/MOL
REMARK 927      BINDING AFFINITY PREDICTED BY RF-SCORE:    0.00 PKD
ROOT
HETATM    1  C   UNL     1     -10.056  12.071  70.796  1.00  0.00     5.544 C  
HETATM    2  C   UNL     1     -10.943  12.937  69.982  1.00  0.00     0.595 C  
HETATM    3  C   UNL     1     -10.901  12.260  68.608  1.00  0.00    -0.268 C  
HETATM    4  C   UNL     1      -9.817  12.826  67.639  1.00  0.00    -0.214 C  
HETATM    5  C   UNL     1      -9.725  14.366  67.613  1.00  0.00    -0.219 C  
HETATM    6  C   UNL     1      -8.490  14.754  66.820  1.00  0.00    -0.144 C  
HETATM    7  F   UNL     1      -8.305  16.096  66.951  1.00  0.00    -0.184 F  
HETATM    8  C   UNL     1      -8.643  14.364  65.369  1.00  0.00     2.657 C  
HETATM    9  C   UNL     1      -7.838  15.004  64.487  1.00  0.00    12.386 C  
HETATM   10  C   UNL     1      -6.463  14.355  64.505  1.00  0.00    21.610 C  
HETATM   11  C   UNL     1      -6.451  12.879  64.765  1.00  0.00    10.881 C  
HETATM   12  O   UNL     1      -5.446  14.979  64.251  1.00  0.00    15.658 OA 
HETATM   13  C   UNL     1      -7.578  12.186  65.042  1.00  0.00     3.291 C  
HETATM   14  C   UNL     1      -8.963  12.857  65.131  1.00  0.00     1.213 C  
HETATM   15  C   UNL     1     -10.036  12.321  66.197  1.00  0.00    -0.245 C  
HETATM   16  C   UNL     1      -9.611  12.686  63.731  1.00  0.00     0.523 C  
HETATM   17  F   UNL     1     -11.241  12.911  65.816  1.00  0.00    -0.296 F  
HETATM   18  C   UNL     1     -10.359  10.802  66.189  1.00  0.00    -0.239 C  
HETATM   19  C   UNL     1     -11.409  10.441  67.281  1.00  0.00     0.021 C  
HETATM   20  O   UNL     1      -9.215   9.964  66.239  1.00  0.00    -0.156 OA 
HETATM   21  C   UNL     1     -11.071  10.631  68.827  1.00  0.00    -0.316 C  
HETATM   22  H   UNL     1      -9.412   9.034  66.235  1.00  0.00     0.000 HD 
HETATM   23  C   UNL     1     -10.478   9.085  68.762  1.00  0.00    -0.230 C  
HETATM   24  C   UNL     1     -10.478  10.672  70.388  1.00  0.00     0.372 C  
HETATM   25  O   UNL     1      -9.224   9.993  70.659  1.00  0.00     0.053 OA 
HETATM   26  C   UNL     1      -7.683  10.687  68.846  1.00  0.00    -0.121 C  
HETATM   27  O   UNL     1      -8.670  12.220  70.439  1.00  0.00     3.971 OA 
HETATM   28  C   UNL     1      -8.163  10.894  70.284  1.00  0.00     1.599 C  
HETATM   29  C   UNL     1      -6.884  10.682  71.088  1.00  0.00     1.295 C  
ENDROOT
BRANCH  24  30
HETATM   30  C   UNL     1     -11.773  10.250  71.207  1.00  0.00    -0.291 C  
HETATM   31  O   UNL     1     -12.867  10.794  70.978  1.00  0.00    -0.359 OA 
BRANCH  30  32
HETATM   32  C   UNL     1     -11.720   9.173  72.294  1.00  0.00    -0.123 C  
BRANCH  32  33
HETATM   33  O   UNL     1     -12.780   8.191  72.127  1.00  0.00    -0.323 OA 
BRANCH  33  34
HETATM   34  C   UNL     1     -13.597   8.396  71.049  1.00  0.00     0.141 C  
HETATM   35  C   UNL     1     -14.253   7.143  70.562  1.00  0.00     1.462 C  
HETATM   36  O   UNL     1     -13.782   9.502  70.532  1.00  0.00     0.099 OA 
ENDBRANCH  33  34
ENDBRANCH  32  33
ENDBRANCH  30  32
ENDBRANCH  24  30
TORSDOF 4
ENDMDL
MODEL      125
REMARK 921   NORMALIZED FREE ENERGY PREDICTED BY IDOCK:   76.91 KCAL/MOL
REMARK 922        TOTAL FREE ENERGY PREDICTED BY IDOCK:   94.27 KCAL/MOL
REMARK 923 INTER-LIGAND FREE ENERGY PREDICTED BY IDOCK:   91.82 KCAL/MOL
REMARK 924 INTRA-LIGAND FREE ENERGY PREDICTED BY IDOCK:    2.45 KCAL/MOL
REMARK 927      BINDING AFFINITY PREDICTED BY RF-SCORE:    0.00 PKD
ROOT
HETATM    1  C   UNL     1      -8.932  13.731  71.907  1.00  0.00    11.270 C  
HETATM    2  C   UNL     1      -8.777  13.429  70.464  1.00  0.00     5.297 C  
HETATM    3  C   UNL     1      -7.705  14.432  70.026  1.00  0.00     0.552 C  
HETATM    4  C   UNL     1      -8.264  15.775  69.464  1.00  0.00    -0.136 C  
HETATM    5  C   UNL     1      -9.448  15.616  68.488  1.00  0.00    -0.200 C  
HETATM    6  C   UNL     1     -10.028  16.991  68.215  1.00  0.00    -0.285 C  
HETATM    7  F   UNL     1     -11.180  16.835  67.507  1.00  0.00    -0.245 F  
HETATM    8  C   UNL     1      -9.038  17.849  67.464  1.00  0.00    -0.245 C  
HETATM    9  C   UNL     1      -9.548  18.914  66.799  1.00  0.00    -0.354 C  
HETATM   10  C   UNL     1      -9.773  20.053  67.780  1.00  0.00    -0.398 C  
HETATM   11  C   UNL     1      -8.790  20.135  68.909  1.00  0.00     0.247 C  
HETATM   12  O   UNL     1     -10.648  20.887  67.618  1.00  0.00     0.358 OA 
HETATM   13  C   UNL     1      -7.817  19.214  69.086  1.00  0.00    -0.219 C  
HETATM   14  C   UNL     1      -7.649  17.996  68.156  1.00  0.00    -0.260 C  
HETATM   15  C   UNL     1      -7.158  16.595  68.767  1.00  0.00    -0.194 C  
HETATM   16  C   UNL     1      -6.590  18.409  67.099  1.00  0.00    -0.198 C  
HETATM   17  F   UNL     1      -6.820  15.822  67.655  1.00  0.00    -0.127 F  
HETATM   18  C   UNL     1      -5.857  16.597  69.615  1.00  0.00    -0.199 C  
HETATM   19  C   UNL     1      -5.520  15.170  70.137  1.00  0.00    -0.123 C  
HETATM   20  O   UNL     1      -5.837  17.572  70.646  1.00  0.00    -0.088 OA 
HETATM   21  C   UNL     1      -6.497  14.426  71.153  1.00  0.00     0.314 C  
HETATM   22  H   UNL     1      -5.041  17.573  71.166  1.00  0.00     0.000 HD 
HETATM   23  C   UNL     1      -5.618  15.165  72.348  1.00  0.00     0.410 C  
HETATM   24  C   UNL     1      -7.498  13.890  72.378  1.00  0.00     6.310 C  
HETATM   25  O   UNL     1      -7.748  14.784  73.495  1.00  0.00     4.826 OA 
HETATM   26  C   UNL     1      -8.275  16.985  72.485  1.00  0.00    16.305 C  
HETATM   27  O   UNL     1      -9.597  14.987  72.133  1.00  0.00     3.041 OA 
HETATM   28  C   UNL     1      -8.801  15.683  73.093  1.00  0.00    12.090 C  
HETATM   29  C   UNL     1      -9.640  16.186  74.264  1.00  0.00    14.830 C  
ENDROOT
BRANCH  24  30
HETATM   30  C   UNL     1      -6.874  12.457  72.665  1.00  0.00     7.706 C  
HETATM   31  O   UNL     1      -7.373  11.715  73.528  1.00  0.00     9.765 OA 
BRANCH  30  32
HETATM   32  C   UNL     1      -5.650  11.946  71.899  1.00  0.00     0.693 C  
BRANCH  32  33
HETATM   33  O   UNL     1      -6.030  11.304  70.651  1.00  0.00    -0.266 OA 
BRANCH  33  34
HETATM   34  C   UNL     1      -7.249  10.684  70.664  1.00  0.00     0.903 C  
HETATM   35  C   UNL     1      -8.206  11.249  69.662  1.00  0.00     0.645 C  
HETATM   36  O   UNL     1      -7.532   9.749  71.417  1.00  0.00    -0.207 OA 
ENDBRANCH  33  34
ENDBRANCH  32  33
ENDBRANCH  30  32
ENDBRANCH  24  30
TORSDOF 4
ENDMDL
