MODEL        1
REMARK 921   NORMALIZED FREE ENERGY PREDICTED BY IDOCK:   -7.74 KCAL/MOL
REMARK 922        TOTAL FREE ENERGY PREDICTED BY IDOCK:   -7.61 KCAL/MOL
REMARK 923 INTER-LIGAND FREE ENERGY PREDICTED BY IDOCK:   -8.19 KCAL/MOL
REMARK 924 INTRA-LIGAND FREE ENERGY PREDICTED BY IDOCK:    0.58 KCAL/MOL
REMARK 927      BINDING AFFINITY PREDICTED BY RF-SCORE:    0.00 PKD
ROOT
HETATM    1  C   UNL     1     -11.255  15.124  66.131  1.00  0.00    -0.271 C  
HETATM    2  C   UNL     1     -10.567  14.792  64.936  1.00  0.00    -0.431 C  
HETATM    3  C   UNL     1     -10.007  14.149  66.149  1.00  0.00    -0.328 C  
HETATM    4  C   UNL     1     -11.080  14.402  67.876  1.00  0.00    -0.274 C  
HETATM    5  C   UNL     1     -11.001  13.387  67.010  1.00  0.00    -0.298 C  
HETATM    6  C   UNL     1      -6.352  16.859  67.148  1.00  0.00    -0.221 C  
HETATM    7  O   UNL     1     -12.534  14.760  67.898  1.00  0.00    -0.556 OA 
HETATM    8  C   UNL     1      -7.792  17.407  67.523  1.00  0.00    -0.209 C  
HETATM    9  C   UNL     1      -9.306  13.206  67.893  1.00  0.00    -0.215 C  
HETATM   10  C   UNL     1     -11.989  12.350  66.492  1.00  0.00    -0.325 C  
HETATM   11  C   UNL     1      -7.574  18.099  68.866  1.00  0.00    -0.227 C  
HETATM   12  H   UNL     1     -13.032  14.877  68.698  1.00  0.00     0.000 HD 
HETATM   13  C   UNL     1      -8.588  14.825  68.261  1.00  0.00    -0.164 C  
HETATM   14  O   UNL     1      -8.879  15.197  69.613  1.00  0.00    -0.411 OA 
HETATM   15  C   UNL     1      -8.778  16.179  67.241  1.00  0.00    -0.183 C  
HETATM   16  H   UNL     1      -8.501  16.047  69.807  1.00  0.00     0.000 HD 
HETATM   17  C   UNL     1     -10.341  16.494  66.912  1.00  0.00    -0.300 C  
HETATM   18  F   UNL     1      -8.251  15.864  65.977  1.00  0.00    -0.311 F  
HETATM   19  C   UNL     1     -10.490  17.738  66.016  1.00  0.00    -0.286 C  
HETATM   20  C   UNL     1      -9.655  18.931  66.500  1.00  0.00    -0.373 C  
HETATM   21  C   UNL     1      -8.171  18.560  66.549  1.00  0.00    -0.299 C  
HETATM   22  C   UNL     1      -9.936  20.141  65.590  1.00  0.00    -0.223 C  
HETATM   23  C   UNL     1      -7.242  19.522  66.344  1.00  0.00    -0.253 C  
HETATM   24  C   UNL     1      -6.992  20.215  67.661  1.00  0.00    -0.267 C  
HETATM   25  C   UNL     1      -7.168  19.391  68.914  1.00  0.00    -0.397 C  
HETATM   26  O   UNL     1      -6.602  21.376  67.700  1.00  0.00    -0.496 OA 
ENDROOT
BRANCH   4  27
HETATM   27  C   UNL     1     -11.288  13.640  69.301  1.00  0.00    -0.269 C  
HETATM   28  O   UNL     1     -11.322  14.378  70.304  1.00  0.00    -0.227 OA 
HETATM   29  C   UNL     1     -11.625  12.155  69.484  1.00  0.00    -0.382 C  
ENDBRANCH   4  27
TORSDOF 1
ENDMDL
MODEL        2
REMARK 921   NORMALIZED FREE ENERGY PREDICTED BY IDOCK:   -7.50 KCAL/MOL
REMARK 922        TOTAL FREE ENERGY PREDICTED BY IDOCK:   -7.35 KCAL/MOL
REMARK 923 INTER-LIGAND FREE ENERGY PREDICTED BY IDOCK:   -7.91 KCAL/MOL
REMARK 924 INTRA-LIGAND FREE ENERGY PREDICTED BY IDOCK:    0.55 KCAL/MOL
REMARK 927      BINDING AFFINITY PREDICTED BY RF-SCORE:    0.00 PKD
ROOT
HETATM    1  C   UNL     1      -9.293  18.667  66.082  1.00  0.00    -0.166 C  
HETATM    2  C   UNL     1     -10.443  19.260  66.664  1.00  0.00    -0.541 C  
HETATM    3  C   UNL     1      -9.362  18.967  67.635  1.00  0.00    -0.342 C  
HETATM    4  C   UNL     1      -7.589  18.319  66.838  1.00  0.00    -0.217 C  
HETATM    5  C   UNL     1      -7.989  19.516  67.280  1.00  0.00    -0.304 C  
HETATM    6  C   UNL     1     -10.792  14.986  69.586  1.00  0.00    -0.283 C  
HETATM    7  O   UNL     1      -7.186  18.564  65.417  1.00  0.00    -0.530 OA 
HETATM    8  C   UNL     1     -10.160  14.902  68.134  1.00  0.00    -0.222 C  
HETATM    9  C   UNL     1      -7.764  18.599  68.952  1.00  0.00    -0.270 C  
HETATM   10  C   UNL     1      -7.705  20.953  66.867  1.00  0.00    -0.142 C  
HETATM   11  C   UNL     1      -9.335  13.618  68.175  1.00  0.00    -0.212 C  
HETATM   12  H   UNL     1      -6.365  18.264  65.047  1.00  0.00     0.000 HD 
HETATM   13  C   UNL     1      -8.296  16.875  68.826  1.00  0.00    -0.240 C  
HETATM   14  O   UNL     1      -7.166  16.027  68.589  1.00  0.00    -0.132 OA 
HETATM   15  C   UNL     1      -9.603  16.375  67.851  1.00  0.00    -0.228 C  
HETATM   16  H   UNL     1      -7.445  15.122  68.523  1.00  0.00     0.000 HD 
HETATM   17  C   UNL     1      -9.447  16.865  66.306  1.00  0.00    -0.298 C  
HETATM   18  F   UNL     1     -10.761  17.047  68.276  1.00  0.00    -0.320 F  
HETATM   19  C   UNL     1     -10.621  16.376  65.437  1.00  0.00    -0.338 C  
HETATM   20  C   UNL     1     -10.938  14.888  65.638  1.00  0.00    -0.347 C  
HETATM   21  C   UNL     1     -11.287  14.608  67.102  1.00  0.00    -0.365 C  
HETATM   22  C   UNL     1     -12.066  14.482  64.670  1.00  0.00    -0.486 C  
HETATM   23  C   UNL     1     -12.145  13.605  67.397  1.00  0.00    -0.375 C  
HETATM   24  C   UNL     1     -11.354  12.321  67.461  1.00  0.00    -0.325 C  
HETATM   25  C   UNL     1      -9.912  12.423  67.896  1.00  0.00    -0.204 C  
HETATM   26  O   UNL     1     -11.885  11.240  67.230  1.00  0.00    -0.562 OA 
ENDROOT
BRANCH   4  27
HETATM   27  C   UNL     1      -6.010  18.301  67.240  1.00  0.00    -0.148 C  
HETATM   28  O   UNL     1      -5.387  17.272  66.917  1.00  0.00    -0.137 OA 
HETATM   29  C   UNL     1      -5.211  19.487  67.793  1.00  0.00    -0.172 C  
ENDBRANCH   4  27
TORSDOF 1
ENDMDL
MODEL        3
REMARK 921   NORMALIZED FREE ENERGY PREDICTED BY IDOCK:   -7.07 KCAL/MOL
REMARK 922        TOTAL FREE ENERGY PREDICTED BY IDOCK:   -6.90 KCAL/MOL
REMARK 923 INTER-LIGAND FREE ENERGY PREDICTED BY IDOCK:   -7.48 KCAL/MOL
REMARK 924 INTRA-LIGAND FREE ENERGY PREDICTED BY IDOCK:    0.58 KCAL/MOL
REMARK 927      BINDING AFFINITY PREDICTED BY RF-SCORE:    0.00 PKD
ROOT
HETATM    1  C   UNL     1     -11.401  15.289  66.374  1.00  0.00    -0.161 C  
HETATM    2  C   UNL     1     -11.013  15.662  65.061  1.00  0.00    -0.445 C  
HETATM    3  C   UNL     1     -10.298  14.472  65.584  1.00  0.00    -0.367 C  
HETATM    4  C   UNL     1     -10.962  13.742  67.379  1.00  0.00    -0.284 C  
HETATM    5  C   UNL     1     -11.179  13.355  66.118  1.00  0.00    -0.311 C  
HETATM    6  C   UNL     1      -6.226  16.257  66.976  1.00  0.00    -0.105 C  
HETATM    7  O   UNL     1     -12.330  14.015  67.924  1.00  0.00    -0.515 OA 
HETATM    8  C   UNL     1      -7.486  16.500  67.907  1.00  0.00    -0.161 C  
HETATM    9  C   UNL     1      -9.373  12.745  66.349  1.00  0.00    -0.196 C  
HETATM   10  C   UNL     1     -12.365  12.751  65.378  1.00  0.00    -0.528 C  
HETATM   11  C   UNL     1      -6.922  16.359  69.319  1.00  0.00    -0.223 C  
HETATM   12  H   UNL     1     -12.639  13.677  68.756  1.00  0.00     0.000 HD 
HETATM   13  C   UNL     1      -8.412  13.918  67.335  1.00  0.00    -0.199 C  
HETATM   14  O   UNL     1      -8.378  13.499  68.704  1.00  0.00    -0.278 OA 
HETATM   15  C   UNL     1      -8.645  15.606  67.259  1.00  0.00    -0.192 C  
HETATM   16  H   UNL     1      -7.873  14.114  69.222  1.00  0.00     0.000 HD 
HETATM   17  C   UNL     1     -10.195  16.031  67.521  1.00  0.00    -0.275 C  
HETATM   18  F   UNL     1      -8.425  16.029  65.937  1.00  0.00    -0.355 F  
HETATM   19  C   UNL     1     -10.376  17.560  67.479  1.00  0.00    -0.356 C  
HETATM   20  C   UNL     1      -9.327  18.313  68.308  1.00  0.00    -0.320 C  
HETATM   21  C   UNL     1      -7.917  17.991  67.806  1.00  0.00    -0.235 C  
HETATM   22  C   UNL     1      -9.644  19.820  68.267  1.00  0.00    -0.467 C  
HETATM   23  C   UNL     1      -6.944  18.922  67.929  1.00  0.00    -0.247 C  
HETATM   24  C   UNL     1      -6.353  18.798  69.313  1.00  0.00    -0.272 C  
HETATM   25  C   UNL     1      -6.366  17.427  69.944  1.00  0.00    -0.039 C  
HETATM   26  O   UNL     1      -5.831  19.759  69.865  1.00  0.00    -0.244 OA 
ENDROOT
BRANCH   4  27
HETATM   27  C   UNL     1     -10.965  12.329  68.191  1.00  0.00    -0.231 C  
HETATM   28  O   UNL     1     -10.907  12.424  69.431  1.00  0.00    -0.093 OA 
HETATM   29  C   UNL     1     -11.218  10.945  67.581  1.00  0.00    -0.379 C  
ENDBRANCH   4  27
TORSDOF 1
ENDMDL
MODEL        4
REMARK 921   NORMALIZED FREE ENERGY PREDICTED BY IDOCK:   -6.94 KCAL/MOL
REMARK 922        TOTAL FREE ENERGY PREDICTED BY IDOCK:   -6.76 KCAL/MOL
REMARK 923 INTER-LIGAND FREE ENERGY PREDICTED BY IDOCK:   -7.40 KCAL/MOL
REMARK 924 INTRA-LIGAND FREE ENERGY PREDICTED BY IDOCK:    0.64 KCAL/MOL
REMARK 927      BINDING AFFINITY PREDICTED BY RF-SCORE:    0.00 PKD
ROOT
HETATM    1  C   UNL     1      -9.984  13.690  68.284  1.00  0.00    -0.236 C  
HETATM    2  C   UNL     1     -10.792  14.040  69.397  1.00  0.00    -0.141 C  
HETATM    3  C   UNL     1     -11.444  14.270  68.086  1.00  0.00    -0.336 C  
HETATM    4  C   UNL     1     -10.429  13.582  66.444  1.00  0.00    -0.287 C  
HETATM    5  C   UNL     1     -11.457  13.082  67.137  1.00  0.00    -0.379 C  
HETATM    6  C   UNL     1     -10.866  18.848  67.445  1.00  0.00    -0.449 C  
HETATM    7  O   UNL     1      -9.381  12.514  66.511  1.00  0.00    -0.234 OA 
HETATM    8  C   UNL     1      -9.612  17.910  67.193  1.00  0.00    -0.280 C  
HETATM    9  C   UNL     1     -12.346  14.502  66.200  1.00  0.00    -0.229 C  
HETATM   10  C   UNL     1     -11.908  11.675  67.508  1.00  0.00    -0.196 C  
HETATM   11  C   UNL     1      -8.940  18.531  65.970  1.00  0.00     0.025 C  
HETATM   12  H   UNL     1      -8.910  12.195  65.751  1.00  0.00     0.000 HD 
HETATM   13  C   UNL     1     -11.286  15.963  66.075  1.00  0.00     0.090 C  
HETATM   14  O   UNL     1     -10.624  15.984  64.805  1.00  0.00    -0.670 OA 
HETATM   15  C   UNL     1     -10.191  16.423  67.300  1.00  0.00    -0.278 C  
HETATM   16  H   UNL     1     -10.068  16.751  64.739  1.00  0.00     0.000 HD 
HETATM   17  C   UNL     1      -9.175  15.218  67.708  1.00  0.00    -0.187 C  
HETATM   18  F   UNL     1     -10.912  16.638  68.487  1.00  0.00    -0.306 F  
HETATM   19  C   UNL     1      -8.175  15.666  68.792  1.00  0.00    -0.183 C  
HETATM   20  C   UNL     1      -7.520  17.018  68.483  1.00  0.00    -0.221 C  
HETATM   21  C   UNL     1      -8.584  18.109  68.344  1.00  0.00    -0.310 C  
HETATM   22  C   UNL     1      -6.484  17.333  69.578  1.00  0.00    -0.207 C  
HETATM   23  C   UNL     1      -8.272  19.383  68.677  1.00  0.00    -0.399 C  
HETATM   24  C   UNL     1      -7.619  20.030  67.480  1.00  0.00    -0.292 C  
HETATM   25  C   UNL     1      -8.045  19.539  66.117  1.00  0.00    -0.342 C  
HETATM   26  O   UNL     1      -6.829  20.956  67.615  1.00  0.00    -0.329 OA 
ENDROOT
BRANCH   4  27
HETATM   27  C   UNL     1     -10.760  13.104  64.922  1.00  0.00    -0.346 C  
HETATM   28  O   UNL     1      -9.828  13.229  64.106  1.00  0.00    -0.202 OA 
HETATM   29  C   UNL     1     -12.023  12.360  64.470  1.00  0.00    -0.474 C  
ENDBRANCH   4  27
TORSDOF 1
ENDMDL
MODEL        5
REMARK 921   NORMALIZED FREE ENERGY PREDICTED BY IDOCK:   -6.86 KCAL/MOL
REMARK 922        TOTAL FREE ENERGY PREDICTED BY IDOCK:   -6.67 KCAL/MOL
REMARK 923 INTER-LIGAND FREE ENERGY PREDICTED BY IDOCK:   -7.24 KCAL/MOL
REMARK 924 INTRA-LIGAND FREE ENERGY PREDICTED BY IDOCK:    0.57 KCAL/MOL
REMARK 927      BINDING AFFINITY PREDICTED BY RF-SCORE:    0.00 PKD
ROOT
HETATM    1  C   UNL     1     -11.117  12.787  64.829  1.00  0.00    -0.333 C  
HETATM    2  C   UNL     1     -12.435  12.262  64.825  1.00  0.00    -0.385 C  
HETATM    3  C   UNL     1     -12.181  13.237  65.913  1.00  0.00    -0.497 C  
HETATM    4  C   UNL     1     -10.376  14.204  65.849  1.00  0.00    -0.316 C  
HETATM    5  C   UNL     1     -11.605  14.575  65.478  1.00  0.00    -0.350 C  
HETATM    6  C   UNL     1     -11.413  10.486  69.594  1.00  0.00    -0.349 C  
HETATM    7  O   UNL     1      -9.556  14.337  64.603  1.00  0.00    -0.402 OA 
HETATM    8  C   UNL     1     -10.240  10.637  68.537  1.00  0.00    -0.191 C  
HETATM    9  C   UNL     1     -11.784  14.684  67.387  1.00  0.00    -0.413 C  
HETATM   10  C   UNL     1     -12.164  15.442  64.358  1.00  0.00    -0.161 C  
HETATM   11  C   UNL     1      -8.983  10.686  69.402  1.00  0.00    -0.049 C  
HETATM   12  H   UNL     1      -8.719  14.785  64.572  1.00  0.00     0.000 HD 
HETATM   13  C   UNL     1     -10.884  13.342  68.202  1.00  0.00    -0.255 C  
HETATM   14  O   UNL     1      -9.596  13.801  68.629  1.00  0.00    -0.313 OA 
HETATM   15  C   UNL     1     -10.744  11.779  67.535  1.00  0.00    -0.221 C  
HETATM   16  H   UNL     1      -9.124  13.097  69.057  1.00  0.00     0.000 HD 
HETATM   17  C   UNL     1     -10.151  11.802  66.019  1.00  0.00    -0.263 C  
HETATM   18  F   UNL     1     -12.034  11.250  67.358  1.00  0.00    -0.274 F  
HETATM   19  C   UNL     1     -10.003  10.378  65.449  1.00  0.00    -0.362 C  
HETATM   20  C   UNL     1      -9.315   9.410  66.422  1.00  0.00    -0.241 C  
HETATM   21  C   UNL     1     -10.106   9.314  67.729  1.00  0.00    -0.253 C  
HETATM   22  C   UNL     1      -9.143   8.045  65.729  1.00  0.00    -0.109 C  
HETATM   23  C   UNL     1     -10.076   8.162  68.436  1.00  0.00    -0.226 C  
HETATM   24  C   UNL     1      -8.849   8.187  69.315  1.00  0.00    -0.144 C  
HETATM   25  C   UNL     1      -8.370   9.539  69.785  1.00  0.00    -0.170 C  
HETATM   26  O   UNL     1      -8.311   7.148  69.679  1.00  0.00    -0.129 OA 
ENDROOT
BRANCH   4  27
HETATM   27  C   UNL     1      -9.725  15.601  66.377  1.00  0.00    -0.279 C  
HETATM   28  O   UNL     1      -8.521  15.548  66.690  1.00  0.00    -0.254 OA 
HETATM   29  C   UNL     1     -10.403  16.977  66.340  1.00  0.00    -0.304 C  
ENDBRANCH   4  27
TORSDOF 1
ENDMDL
MODEL        6
REMARK 921   NORMALIZED FREE ENERGY PREDICTED BY IDOCK:   -6.79 KCAL/MOL
REMARK 922        TOTAL FREE ENERGY PREDICTED BY IDOCK:   -6.60 KCAL/MOL
REMARK 923 INTER-LIGAND FREE ENERGY PREDICTED BY IDOCK:   -7.16 KCAL/MOL
REMARK 924 INTRA-LIGAND FREE ENERGY PREDICTED BY IDOCK:    0.56 KCAL/MOL
REMARK 927      BINDING AFFINITY PREDICTED BY RF-SCORE:    0.00 PKD
ROOT
HETATM    1  C   UNL     1     -11.179  14.331  68.561  1.00  0.00    -0.289 C  
HETATM    2  C   UNL     1     -10.010  14.616  69.314  1.00  0.00    -0.100 C  
HETATM    3  C   UNL     1      -9.755  14.395  67.870  1.00  0.00    -0.223 C  
HETATM    4  C   UNL     1     -11.414  14.200  66.684  1.00  0.00    -0.366 C  
HETATM    5  C   UNL     1     -10.594  15.229  66.916  1.00  0.00    -0.304 C  
HETATM    6  C   UNL     1      -8.250   9.987  67.763  1.00  0.00    -0.113 C  
HETATM    7  O   UNL     1     -12.768  14.709  67.071  1.00  0.00    -0.333 OA 
HETATM    8  C   UNL     1      -9.809  10.223  67.938  1.00  0.00    -0.181 C  
HETATM    9  C   UNL     1      -9.465  14.147  65.802  1.00  0.00    -0.070 C  
HETATM   10  C   UNL     1     -10.778  16.738  67.009  1.00  0.00    -0.161 C  
HETATM   11  C   UNL     1     -10.437   9.119  67.091  1.00  0.00    -0.325 C  
HETATM   12  H   UNL     1     -13.538  14.620  66.522  1.00  0.00     0.000 HD 
HETATM   13  C   UNL     1      -9.685  12.389  66.166  1.00  0.00    -0.246 C  
HETATM   14  O   UNL     1     -10.603  11.804  65.235  1.00  0.00    -0.260 OA 
HETATM   15  C   UNL     1     -10.004  11.798  67.734  1.00  0.00    -0.190 C  
HETATM   16  H   UNL     1     -10.719  10.881  65.426  1.00  0.00     0.000 HD 
HETATM   17  C   UNL     1     -11.295  12.517  68.418  1.00  0.00    -0.333 C  
HETATM   18  F   UNL     1      -8.949  12.180  68.580  1.00  0.00    -0.176 F  
HETATM   19  C   UNL     1     -11.583  11.946  69.819  1.00  0.00    -0.359 C  
HETATM   20  C   UNL     1     -11.576  10.412  69.856  1.00  0.00    -0.358 C  
HETATM   21  C   UNL     1     -10.219   9.873  69.398  1.00  0.00    -0.231 C  
HETATM   22  C   UNL     1     -11.954   9.945  71.274  1.00  0.00    -0.489 C  
HETATM   23  C   UNL     1      -9.772   8.698  69.898  1.00  0.00    -0.175 C  
HETATM   24  C   UNL     1     -10.363   7.585  69.068  1.00  0.00    -0.212 C  
HETATM   25  C   UNL     1     -10.654   7.889  67.619  1.00  0.00    -0.276 C  
HETATM   26  O   UNL     1     -10.536   6.468  69.542  1.00  0.00    -0.206 OA 
ENDROOT
BRANCH   4  27
HETATM   27  C   UNL     1     -11.824  14.416  65.122  1.00  0.00    -0.386 C  
HETATM   28  O   UNL     1     -12.640  13.595  64.663  1.00  0.00    -0.597 OA 
HETATM   29  C   UNL     1     -11.446  15.623  64.254  1.00  0.00    -0.199 C  
ENDBRANCH   4  27
TORSDOF 1
ENDMDL
MODEL        7
REMARK 921   NORMALIZED FREE ENERGY PREDICTED BY IDOCK:   -6.77 KCAL/MOL
REMARK 922        TOTAL FREE ENERGY PREDICTED BY IDOCK:   -6.58 KCAL/MOL
REMARK 923 INTER-LIGAND FREE ENERGY PREDICTED BY IDOCK:   -7.65 KCAL/MOL
REMARK 924 INTRA-LIGAND FREE ENERGY PREDICTED BY IDOCK:    1.07 KCAL/MOL
REMARK 927      BINDING AFFINITY PREDICTED BY RF-SCORE:    0.00 PKD
ROOT
HETATM    1  C   UNL     1     -11.340  13.393  67.522  1.00  0.00    -0.327 C  
HETATM    2  C   UNL     1     -10.367  14.070  68.302  1.00  0.00    -0.247 C  
HETATM    3  C   UNL     1      -9.792  13.226  67.227  1.00  0.00    -0.233 C  
HETATM    4  C   UNL     1     -11.136  12.397  65.922  1.00  0.00    -0.313 C  
HETATM    5  C   UNL     1     -10.343  13.469  65.831  1.00  0.00    -0.301 C  
HETATM    6  C   UNL     1      -8.522   9.375  69.521  1.00  0.00    -0.152 C  
HETATM    7  O   UNL     1     -12.516  12.937  65.706  1.00  0.00    -0.531 OA 
HETATM    8  C   UNL     1     -10.065   9.561  69.205  1.00  0.00    -0.200 C  
HETATM    9  C   UNL     1      -9.040  12.072  65.637  1.00  0.00     0.072 C  
HETATM   10  C   UNL     1     -10.470  14.835  65.170  1.00  0.00    -0.443 C  
HETATM   11  C   UNL     1     -10.531   8.152  68.846  1.00  0.00    -0.202 C  
HETATM   12  H   UNL     1     -13.140  12.553  65.101  1.00  0.00     0.000 HD 
HETATM   13  C   UNL     1      -9.425  10.670  66.713  1.00  0.00    -0.162 C  
HETATM   14  O   UNL     1     -10.128   9.662  65.976  1.00  0.00    -0.283 OA 
HETATM   15  C   UNL     1     -10.130  10.848  68.256  1.00  0.00    -0.174 C  
HETATM   16  H   UNL     1     -10.330   8.926  66.541  1.00  0.00     0.000 HD 
HETATM   17  C   UNL     1     -11.507  11.715  68.212  1.00  0.00    -0.369 C  
HETATM   18  F   UNL     1      -9.284  11.647  69.045  1.00  0.00    -0.122 F  
HETATM   19  C   UNL     1     -12.143  11.836  69.610  1.00  0.00    -0.323 C  
HETATM   20  C   UNL     1     -12.219  10.496  70.354  1.00  0.00    -0.415 C  
HETATM   21  C   UNL     1     -10.821   9.898  70.522  1.00  0.00    -0.391 C  
HETATM   22  C   UNL     1     -12.941  10.711  71.698  1.00  0.00    -0.582 C  
HETATM   23  C   UNL     1     -10.561   9.118  71.597  1.00  0.00    -0.427 C  
HETATM   24  C   UNL     1     -10.997   7.711  71.267  1.00  0.00    -0.238 C  
HETATM   25  C   UNL     1     -10.925   7.293  69.818  1.00  0.00    -0.235 C  
HETATM   26  O   UNL     1     -11.330   6.930  72.149  1.00  0.00    -0.248 OA 
ENDROOT
BRANCH   4  27
HETATM   27  C   UNL     1     -11.159  11.841  64.390  1.00  0.00    -0.334 C  
HETATM   28  O   UNL     1     -12.242  11.358  64.011  1.00  0.00    -0.033 OA 
HETATM   29  C   UNL     1     -10.048  12.033  63.349  1.00  0.00    -0.437 C  
ENDBRANCH   4  27
TORSDOF 1
ENDMDL
MODEL        8
REMARK 921   NORMALIZED FREE ENERGY PREDICTED BY IDOCK:   -6.66 KCAL/MOL
REMARK 922        TOTAL FREE ENERGY PREDICTED BY IDOCK:   -6.46 KCAL/MOL
REMARK 923 INTER-LIGAND FREE ENERGY PREDICTED BY IDOCK:   -7.05 KCAL/MOL
REMARK 924 INTRA-LIGAND FREE ENERGY PREDICTED BY IDOCK:    0.59 KCAL/MOL
REMARK 927      BINDING AFFINITY PREDICTED BY RF-SCORE:    0.00 PKD
ROOT
HETATM    1  C   UNL     1      -9.545  17.662  66.388  1.00  0.00    -0.285 C  
HETATM    2  C   UNL     1     -10.650  17.764  67.272  1.00  0.00    -0.322 C  
HETATM    3  C   UNL     1      -9.370  17.442  67.947  1.00  0.00    -0.267 C  
HETATM    4  C   UNL     1      -7.695  17.499  66.769  1.00  0.00    -0.230 C  
HETATM    5  C   UNL     1      -8.209  18.374  67.639  1.00  0.00    -0.262 C  
HETATM    6  C   UNL     1      -9.675  12.835  68.571  1.00  0.00    -0.129 C  
HETATM    7  O   UNL     1      -7.618  18.258  65.480  1.00  0.00    -0.518 OA 
HETATM    8  C   UNL     1      -9.326  13.353  67.113  1.00  0.00    -0.240 C  
HETATM    9  C   UNL     1      -7.512  17.062  68.856  1.00  0.00    -0.237 C  
HETATM   10  C   UNL     1      -8.268  19.893  67.713  1.00  0.00    -0.337 C  
HETATM   11  C   UNL     1      -8.294  12.346  66.612  1.00  0.00     0.012 C  
HETATM   12  H   UNL     1      -6.842  18.285  64.934  1.00  0.00     0.000 HD 
HETATM   13  C   UNL     1      -7.744  15.388  68.211  1.00  0.00    -0.115 C  
HETATM   14  O   UNL     1      -6.548  14.940  67.563  1.00  0.00    -0.198 OA 
HETATM   15  C   UNL     1      -9.102  14.928  67.287  1.00  0.00    -0.201 C  
HETATM   16  H   UNL     1      -6.669  14.060  67.225  1.00  0.00     0.000 HD 
HETATM   17  C   UNL     1      -9.332  15.895  65.998  1.00  0.00    -0.385 C  
HETATM   18  F   UNL     1     -10.260  15.150  68.053  1.00  0.00    -0.223 F  
HETATM   19  C   UNL     1     -10.544  15.443  65.161  1.00  0.00    -0.458 C  
HETATM   20  C   UNL     1     -10.548  13.935  64.876  1.00  0.00    -0.436 C  
HETATM   21  C   UNL     1     -10.557  13.143  66.186  1.00  0.00    -0.288 C  
HETATM   22  C   UNL     1     -11.748  13.601  63.970  1.00  0.00    -0.405 C  
HETATM   23  C   UNL     1     -11.152  11.929  66.219  1.00  0.00    -0.364 C  
HETATM   24  C   UNL     1     -10.149  10.906  65.744  1.00  0.00    -0.252 C  
HETATM   25  C   UNL     1      -8.692  11.198  66.011  1.00  0.00    -0.185 C  
HETATM   26  O   UNL     1     -10.514   9.859  65.222  1.00  0.00    -0.066 OA 
ENDROOT
BRANCH   4  27
HETATM   27  C   UNL     1      -6.090  17.721  66.947  1.00  0.00    -0.152 C  
HETATM   28  O   UNL     1      -5.371  17.125  66.123  1.00  0.00    -0.334 OA 
HETATM   29  C   UNL     1      -5.423  18.724  67.897  1.00  0.00    -0.177 C  
ENDBRANCH   4  27
TORSDOF 1
ENDMDL
MODEL        9
REMARK 921   NORMALIZED FREE ENERGY PREDICTED BY IDOCK:   -6.59 KCAL/MOL
REMARK 922        TOTAL FREE ENERGY PREDICTED BY IDOCK:   -6.39 KCAL/MOL
REMARK 923 INTER-LIGAND FREE ENERGY PREDICTED BY IDOCK:   -6.94 KCAL/MOL
REMARK 924 INTRA-LIGAND FREE ENERGY PREDICTED BY IDOCK:    0.55 KCAL/MOL
REMARK 927      BINDING AFFINITY PREDICTED BY RF-SCORE:    0.00 PKD
ROOT
HETATM    1  C   UNL     1     -10.488  11.000  68.226  1.00  0.00    -0.212 C  
HETATM    2  C   UNL     1     -11.533  11.133  67.276  1.00  0.00    -0.218 C  
HETATM    3  C   UNL     1     -10.434  12.114  67.101  1.00  0.00    -0.241 C  
HETATM    4  C   UNL     1      -8.790  11.842  68.293  1.00  0.00    -0.172 C  
HETATM    5  C   UNL     1      -9.034  11.528  67.017  1.00  0.00    -0.174 C  
HETATM    6  C   UNL     1     -12.164  15.951  69.098  1.00  0.00    -0.013 C  
HETATM    7  O   UNL     1      -8.447  10.534  68.937  1.00  0.00    -0.134 OA 
HETATM    8  C   UNL     1     -11.630  14.806  70.057  1.00  0.00    -0.332 C  
HETATM    9  C   UNL     1      -8.811  13.429  66.858  1.00  0.00    -0.185 C  
HETATM   10  C   UNL     1      -8.623  10.381  66.104  1.00  0.00    -0.151 C  
HETATM   11  C   UNL     1     -10.946  15.573  71.186  1.00  0.00    -0.275 C  
HETATM   12  H   UNL     1      -7.685  10.407  69.490  1.00  0.00     0.000 HD 
HETATM   13  C   UNL     1      -9.530  14.289  68.277  1.00  0.00    -0.209 C  
HETATM   14  O   UNL     1      -8.513  14.584  69.241  1.00  0.00    -0.351 OA 
HETATM   15  C   UNL     1     -10.937  13.749  69.076  1.00  0.00    -0.243 C  
HETATM   16  H   UNL     1      -8.890  15.036  69.987  1.00  0.00     0.000 HD 
HETATM   17  C   UNL     1     -10.820  12.199  69.559  1.00  0.00     0.068 C  
HETATM   18  F   UNL     1     -11.991  13.708  68.147  1.00  0.00    -0.356 F  
HETATM   19  C   UNL     1     -12.088  11.742  70.305  1.00  0.00    -0.426 C  
HETATM   20  C   UNL     1     -12.549  12.742  71.373  1.00  0.00    -0.308 C  
HETATM   21  C   UNL     1     -12.840  14.105  70.740  1.00  0.00    -0.378 C  
HETATM   22  C   UNL     1     -13.768  12.158  72.113  1.00  0.00    -0.145 C  
HETATM   23  C   UNL     1     -13.781  14.903  71.293  1.00  0.00    -0.505 C  
HETATM   24  C   UNL     1     -13.130  15.689  72.405  1.00  0.00    -0.460 C  
HETATM   25  C   UNL     1     -11.662  16.008  72.251  1.00  0.00    -0.581 C  
HETATM   26  O   UNL     1     -13.784  16.101  73.356  1.00  0.00    -0.601 OA 
ENDROOT
BRANCH   4  27
HETATM   27  C   UNL     1      -7.201  12.203  68.273  1.00  0.00    -0.095 C  
HETATM   28  O   UNL     1      -6.714  12.537  69.370  1.00  0.00    -0.094 OA 
HETATM   29  C   UNL     1      -6.247  11.987  67.093  1.00  0.00    -0.151 C  
ENDBRANCH   4  27
TORSDOF 1
ENDMDL
MODEL       10
REMARK 921   NORMALIZED FREE ENERGY PREDICTED BY IDOCK:   -6.58 KCAL/MOL
REMARK 922        TOTAL FREE ENERGY PREDICTED BY IDOCK:   -6.38 KCAL/MOL
REMARK 923 INTER-LIGAND FREE ENERGY PREDICTED BY IDOCK:   -7.06 KCAL/MOL
REMARK 924 INTRA-LIGAND FREE ENERGY PREDICTED BY IDOCK:    0.67 KCAL/MOL
REMARK 927      BINDING AFFINITY PREDICTED BY RF-SCORE:    0.00 PKD
ROOT
HETATM    1  C   UNL     1      -9.088  14.803  67.834  1.00  0.00    -0.183 C  
HETATM    2  C   UNL     1      -8.923  15.423  66.568  1.00  0.00    -0.344 C  
HETATM    3  C   UNL     1     -10.315  14.997  66.850  1.00  0.00    -0.266 C  
HETATM    4  C   UNL     1     -10.674  14.299  68.743  1.00  0.00    -0.254 C  
HETATM    5  C   UNL     1     -10.900  15.484  68.166  1.00  0.00    -0.296 C  
HETATM    6  C   UNL     1     -10.650  10.982  64.510  1.00  0.00    -0.383 C  
HETATM    7  O   UNL     1      -9.802  14.619  69.918  1.00  0.00    -0.412 OA 
HETATM    8  C   UNL     1      -9.859  10.963  65.885  1.00  0.00    -0.285 C  
HETATM    9  C   UNL     1     -12.283  14.440  67.340  1.00  0.00    -0.230 C  
HETATM   10  C   UNL     1     -10.873  16.927  68.651  1.00  0.00    -0.314 C  
HETATM   11  C   UNL     1     -10.264   9.631  66.513  1.00  0.00    -0.294 C  
HETATM   12  H   UNL     1      -9.968  14.296  70.796  1.00  0.00     0.000 HD 
HETATM   13  C   UNL     1     -11.705  12.764  66.977  1.00  0.00    -0.374 C  
HETATM   14  O   UNL     1     -12.109  11.868  68.019  1.00  0.00    -0.541 OA 
HETATM   15  C   UNL     1     -10.102  12.415  66.511  1.00  0.00    -0.232 C  
HETATM   16  H   UNL     1     -11.807  10.988  67.829  1.00  0.00     0.000 HD 
HETATM   17  C   UNL     1      -9.008  13.003  67.564  1.00  0.00    -0.193 C  
HETATM   18  F   UNL     1      -9.814  13.125  65.333  1.00  0.00    -0.273 F  
HETATM   19  C   UNL     1      -7.570  12.649  67.140  1.00  0.00    -0.067 C  
HETATM   20  C   UNL     1      -7.403  11.172  66.755  1.00  0.00    -0.146 C  
HETATM   21  C   UNL     1      -8.338  10.812  65.598  1.00  0.00    -0.144 C  
HETATM   22  C   UNL     1      -5.921  10.905  66.429  1.00  0.00    -0.131 C  
HETATM   23  C   UNL     1      -7.969   9.845  64.728  1.00  0.00    -0.143 C  
HETATM   24  C   UNL     1      -8.371   8.513  65.314  1.00  0.00    -0.159 C  
HETATM   25  C   UNL     1      -9.586   8.497  66.209  1.00  0.00    -0.306 C  
HETATM   26  O   UNL     1      -7.771   7.486  65.019  1.00  0.00    -0.101 OA 
ENDROOT
BRANCH   4  27
HETATM   27  C   UNL     1     -11.933  14.156  69.768  1.00  0.00    -0.339 C  
HETATM   28  O   UNL     1     -12.050  13.047  70.322  1.00  0.00    -0.348 OA 
HETATM   29  C   UNL     1     -12.843  15.299  70.236  1.00  0.00    -0.298 C  
ENDBRANCH   4  27
TORSDOF 1
ENDMDL
MODEL       11
REMARK 921   NORMALIZED FREE ENERGY PREDICTED BY IDOCK:   -6.47 KCAL/MOL
REMARK 922        TOTAL FREE ENERGY PREDICTED BY IDOCK:   -6.27 KCAL/MOL
REMARK 923 INTER-LIGAND FREE ENERGY PREDICTED BY IDOCK:   -6.89 KCAL/MOL
REMARK 924 INTRA-LIGAND FREE ENERGY PREDICTED BY IDOCK:    0.63 KCAL/MOL
REMARK 927      BINDING AFFINITY PREDICTED BY RF-SCORE:    0.00 PKD
ROOT
HETATM    1  C   UNL     1      -8.861  13.418  66.845  1.00  0.00    -0.185 C  
HETATM    2  C   UNL     1      -8.730  13.217  68.243  1.00  0.00    -0.168 C  
HETATM    3  C   UNL     1     -10.098  13.597  67.818  1.00  0.00    -0.242 C  
HETATM    4  C   UNL     1     -10.418  13.685  65.796  1.00  0.00    -0.293 C  
HETATM    5  C   UNL     1     -10.703  12.751  66.709  1.00  0.00    -0.278 C  
HETATM    6  C   UNL     1     -10.244  18.151  68.786  1.00  0.00    -0.353 C  
HETATM    7  O   UNL     1      -9.560  12.976  64.794  1.00  0.00    -0.515 OA 
HETATM    8  C   UNL     1      -9.450  17.705  67.488  1.00  0.00    -0.256 C  
HETATM    9  C   UNL     1     -12.036  14.062  67.145  1.00  0.00    -0.465 C  
HETATM   10  C   UNL     1     -10.745  11.229  66.698  1.00  0.00    -0.321 C  
HETATM   11  C   UNL     1      -9.787  18.792  66.470  1.00  0.00    -0.398 C  
HETATM   12  H   UNL     1      -9.708  13.016  63.857  1.00  0.00     0.000 HD 
HETATM   13  C   UNL     1     -11.378  15.739  66.978  1.00  0.00     0.016 C  
HETATM   14  O   UNL     1     -11.735  16.283  65.703  1.00  0.00     0.555 OA 
HETATM   15  C   UNL     1      -9.761  16.143  67.341  1.00  0.00    -0.233 C  
HETATM   16  H   UNL     1     -11.391  17.164  65.615  1.00  0.00     0.000 HD 
HETATM   17  C   UNL     1      -8.694  15.208  66.543  1.00  0.00    -0.280 C  
HETATM   18  F   UNL     1      -9.511  15.823  68.686  1.00  0.00    -0.185 F  
HETATM   19  C   UNL     1      -7.241  15.611  66.861  1.00  0.00    -0.068 C  
HETATM   20  C   UNL     1      -7.004  17.124  66.769  1.00  0.00    -0.260 C  
HETATM   21  C   UNL     1      -7.923  17.869  67.740  1.00  0.00    -0.230 C  
HETATM   22  C   UNL     1      -5.512  17.412  67.022  1.00  0.00    -0.182 C  
HETATM   23  C   UNL     1      -7.510  19.042  68.273  1.00  0.00    -0.325 C  
HETATM   24  C   UNL     1      -7.845  20.141  67.295  1.00  0.00    -0.313 C  
HETATM   25  C   UNL     1      -9.056  19.933  66.417  1.00  0.00    -0.450 C  
HETATM   26  O   UNL     1      -7.197  21.180  67.265  1.00  0.00    -0.441 OA 
ENDROOT
BRANCH   4  27
HETATM   27  C   UNL     1     -11.666  13.558  64.756  1.00  0.00    -0.370 C  
HETATM   28  O   UNL     1     -11.701  14.417  63.854  1.00  0.00    -0.192 OA 
HETATM   29  C   UNL     1     -12.660  12.393  64.685  1.00  0.00    -0.459 C  
ENDBRANCH   4  27
TORSDOF 1
ENDMDL
MODEL       12
REMARK 921   NORMALIZED FREE ENERGY PREDICTED BY IDOCK:   -6.42 KCAL/MOL
REMARK 922        TOTAL FREE ENERGY PREDICTED BY IDOCK:   -6.21 KCAL/MOL
REMARK 923 INTER-LIGAND FREE ENERGY PREDICTED BY IDOCK:   -6.77 KCAL/MOL
REMARK 924 INTRA-LIGAND FREE ENERGY PREDICTED BY IDOCK:    0.56 KCAL/MOL
REMARK 927      BINDING AFFINITY PREDICTED BY RF-SCORE:    0.00 PKD
ROOT
HETATM    1  C   UNL     1     -10.250  14.693  65.303  1.00  0.00    -0.421 C  
HETATM    2  C   UNL     1     -11.598  14.494  64.906  1.00  0.00    -0.401 C  
HETATM    3  C   UNL     1     -11.449  14.994  66.294  1.00  0.00    -0.214 C  
HETATM    4  C   UNL     1      -9.551  15.516  66.861  1.00  0.00    -0.228 C  
HETATM    5  C   UNL     1     -10.598  16.243  66.458  1.00  0.00    -0.256 C  
HETATM    6  C   UNL     1     -11.936  11.118  68.833  1.00  0.00    -0.367 C  
HETATM    7  O   UNL     1      -8.465  15.859  65.889  1.00  0.00    -0.265 OA 
HETATM    8  C   UNL     1     -10.549  11.340  68.098  1.00  0.00    -0.225 C  
HETATM    9  C   UNL     1     -11.177  15.775  68.228  1.00  0.00    -0.356 C  
HETATM   10  C   UNL     1     -10.758  17.520  65.644  1.00  0.00    -0.089 C  
HETATM   11  C   UNL     1      -9.522  10.839  69.110  1.00  0.00    -0.151 C  
HETATM   12  H   UNL     1      -7.585  16.101  66.151  1.00  0.00     0.000 HD 
HETATM   13  C   UNL     1     -10.691  14.083  68.646  1.00  0.00    -0.259 C  
HETATM   14  O   UNL     1      -9.476  14.093  69.404  1.00  0.00    -0.380 OA 
HETATM   15  C   UNL     1     -10.641  12.822  67.499  1.00  0.00    -0.229 C  
HETATM   16  H   UNL     1      -9.221  13.205  69.624  1.00  0.00     0.000 HD 
HETATM   17  C   UNL     1      -9.730  13.196  66.203  1.00  0.00    -0.254 C  
HETATM   18  F   UNL     1     -11.924  12.669  66.945  1.00  0.00    -0.414 F  
HETATM   19  C   UNL     1      -9.674  12.031  65.197  1.00  0.00    -0.163 C  
HETATM   20  C   UNL     1      -9.372  10.680  65.858  1.00  0.00    -0.224 C  
HETATM   21  C   UNL     1     -10.437  10.347  66.905  1.00  0.00    -0.300 C  
HETATM   22  C   UNL     1      -9.255   9.602  64.764  1.00  0.00    -0.298 C  
HETATM   23  C   UNL     1     -10.738   9.052  67.153  1.00  0.00    -0.206 C  
HETATM   24  C   UNL     1      -9.747   8.530  68.166  1.00  0.00    -0.155 C  
HETATM   25  C   UNL     1      -9.187   9.526  69.153  1.00  0.00    -0.163 C  
HETATM   26  O   UNL     1      -9.465   7.339  68.218  1.00  0.00    -0.141 OA 
ENDROOT
BRANCH   4  27
HETATM   27  C   UNL     1      -8.833  16.498  67.946  1.00  0.00    -0.193 C  
HETATM   28  O   UNL     1      -7.775  16.067  68.442  1.00  0.00    -0.138 OA 
HETATM   29  C   UNL     1      -9.238  17.945  68.252  1.00  0.00    -0.283 C  
ENDBRANCH   4  27
TORSDOF 1
ENDMDL
MODEL       13
REMARK 921   NORMALIZED FREE ENERGY PREDICTED BY IDOCK:   -6.37 KCAL/MOL
REMARK 922        TOTAL FREE ENERGY PREDICTED BY IDOCK:   -6.15 KCAL/MOL
REMARK 923 INTER-LIGAND FREE ENERGY PREDICTED BY IDOCK:   -6.71 KCAL/MOL
REMARK 924 INTRA-LIGAND FREE ENERGY PREDICTED BY IDOCK:    0.55 KCAL/MOL
REMARK 927      BINDING AFFINITY PREDICTED BY RF-SCORE:    0.00 PKD
ROOT
HETATM    1  C   UNL     1     -11.720   7.508  72.432  1.00  0.00    -0.335 C  
HETATM    2  C   UNL     1     -12.786   6.965  71.669  1.00  0.00    -0.396 C  
HETATM    3  C   UNL     1     -11.450   6.453  71.282  1.00  0.00    -0.371 C  
HETATM    4  C   UNL     1      -9.889   7.019  72.482  1.00  0.00    -0.154 C  
HETATM    5  C   UNL     1     -10.605   5.892  72.414  1.00  0.00    -0.257 C  
HETATM    6  C   UNL     1     -10.435   8.990  67.509  1.00  0.00    -0.338 C  
HETATM    7  O   UNL     1     -10.062   7.484  73.895  1.00  0.00    -0.374 OA 
HETATM    8  C   UNL     1     -10.283   9.691  68.923  1.00  0.00    -0.214 C  
HETATM    9  C   UNL     1      -9.536   5.705  70.830  1.00  0.00    -0.213 C  
HETATM   10  C   UNL     1     -11.085   4.872  73.438  1.00  0.00    -0.415 C  
HETATM   11  C   UNL     1      -9.024  10.540  68.769  1.00  0.00    -0.166 C  
HETATM   12  H   UNL     1      -9.339   7.747  74.452  1.00  0.00     0.000 HD 
HETATM   13  C   UNL     1      -9.307   7.301  70.008  1.00  0.00    -0.154 C  
HETATM   14  O   UNL     1      -8.050   7.874  70.388  1.00  0.00    -0.109 OA 
HETATM   15  C   UNL     1     -10.506   8.514  69.983  1.00  0.00    -0.223 C  
HETATM   16  H   UNL     1      -7.929   8.711  69.956  1.00  0.00     0.000 HD 
HETATM   17  C   UNL     1     -11.030   8.898  71.476  1.00  0.00    -0.398 C  
HETATM   18  F   UNL     1     -11.658   7.991  69.373  1.00  0.00     0.123 F  
HETATM   19  C   UNL     1     -12.089  10.017  71.432  1.00  0.00    -0.498 C  
HETATM   20  C   UNL     1     -11.678  11.198  70.542  1.00  0.00    -0.392 C  
HETATM   21  C   UNL     1     -11.430  10.726  69.107  1.00  0.00    -0.368 C  
HETATM   22  C   UNL     1     -12.759  12.291  70.631  1.00  0.00    -0.139 C  
HETATM   23  C   UNL     1     -11.660  11.579  68.083  1.00  0.00    -0.378 C  
HETATM   24  C   UNL     1     -10.424  12.424  67.894  1.00  0.00    -0.215 C  
HETATM   25  C   UNL     1      -9.100  11.793  68.256  1.00  0.00    -0.187 C  
HETATM   26  O   UNL     1     -10.493  13.546  67.409  1.00  0.00    -0.245 OA 
ENDROOT
BRANCH   4  27
HETATM   27  C   UNL     1      -8.407   6.475  72.887  1.00  0.00    -0.115 C  
HETATM   28  O   UNL     1      -7.526   7.349  72.997  1.00  0.00    -0.071 OA 
HETATM   29  C   UNL     1      -8.062   5.043  73.316  1.00  0.00    -0.104 C  
ENDBRANCH   4  27
TORSDOF 1
ENDMDL
MODEL       14
REMARK 921   NORMALIZED FREE ENERGY PREDICTED BY IDOCK:   -6.35 KCAL/MOL
REMARK 922        TOTAL FREE ENERGY PREDICTED BY IDOCK:   -6.14 KCAL/MOL
REMARK 923 INTER-LIGAND FREE ENERGY PREDICTED BY IDOCK:   -7.61 KCAL/MOL
REMARK 924 INTRA-LIGAND FREE ENERGY PREDICTED BY IDOCK:    1.47 KCAL/MOL
REMARK 927      BINDING AFFINITY PREDICTED BY RF-SCORE:    0.00 PKD
ROOT
HETATM    1  C   UNL     1      -8.521  12.788  67.112  1.00  0.00    -0.181 C  
HETATM    2  C   UNL     1      -8.303  12.676  68.509  1.00  0.00    -0.060 C  
HETATM    3  C   UNL     1      -9.732  12.794  68.133  1.00  0.00    -0.223 C  
HETATM    4  C   UNL     1     -10.140  12.735  66.126  1.00  0.00    -0.266 C  
HETATM    5  C   UNL     1     -10.222  11.808  67.085  1.00  0.00    -0.236 C  
HETATM    6  C   UNL     1     -10.631  17.294  68.936  1.00  0.00    -0.276 C  
HETATM    7  O   UNL     1      -9.211  12.141  65.113  1.00  0.00    -0.425 OA 
HETATM    8  C   UNL     1      -9.822  16.934  67.621  1.00  0.00    -0.259 C  
HETATM    9  C   UNL     1     -11.745  12.888  67.533  1.00  0.00    -0.422 C  
HETATM   10  C   UNL     1      -9.999  10.303  67.133  1.00  0.00    -0.243 C  
HETATM   11  C   UNL     1     -10.383  17.900  66.579  1.00  0.00    -0.362 C  
HETATM   12  H   UNL     1      -9.400  12.113  64.183  1.00  0.00     0.000 HD 
HETATM   13  C   UNL     1     -11.397  14.644  67.273  1.00  0.00    -0.353 C  
HETATM   14  O   UNL     1     -11.892  15.061  65.996  1.00  0.00    -0.190 OA 
HETATM   15  C   UNL     1      -9.862  15.336  67.546  1.00  0.00    -0.213 C  
HETATM   16  H   UNL     1     -11.710  15.983  65.860  1.00  0.00     0.000 HD 
HETATM   17  C   UNL     1      -8.680  14.565  66.735  1.00  0.00    -0.214 C  
HETATM   18  F   UNL     1      -9.508  15.125  68.890  1.00  0.00    -0.179 F  
HETATM   19  C   UNL     1      -7.309  15.226  66.971  1.00  0.00    -0.072 C  
HETATM   20  C   UNL     1      -7.342  16.752  66.813  1.00  0.00    -0.275 C  
HETATM   21  C   UNL     1      -8.339  17.370  67.796  1.00  0.00    -0.218 C  
HETATM   22  C   UNL     1      -5.914  17.304  66.986  1.00  0.00    -0.199 C  
HETATM   23  C   UNL     1      -8.116  18.619  68.265  1.00  0.00    -0.339 C  
HETATM   24  C   UNL     1      -8.675  19.599  67.263  1.00  0.00    -0.312 C  
HETATM   25  C   UNL     1      -9.864  19.146  66.450  1.00  0.00    -0.437 C  
HETATM   26  O   UNL     1      -8.219  20.732  67.165  1.00  0.00    -0.292 OA 
ENDROOT
BRANCH   4  27
HETATM   27  C   UNL     1     -11.386  12.349  65.150  1.00  0.00    -0.323 C  
HETATM   28  O   UNL     1     -12.463  12.103  65.726  1.00  0.00    -0.482 OA 
HETATM   29  C   UNL     1     -11.390  12.448  63.619  1.00  0.00    -0.556 C  
ENDBRANCH   4  27
TORSDOF 1
ENDMDL
MODEL       15
REMARK 921   NORMALIZED FREE ENERGY PREDICTED BY IDOCK:   -6.34 KCAL/MOL
REMARK 922        TOTAL FREE ENERGY PREDICTED BY IDOCK:   -6.13 KCAL/MOL
REMARK 923 INTER-LIGAND FREE ENERGY PREDICTED BY IDOCK:   -6.70 KCAL/MOL
REMARK 924 INTRA-LIGAND FREE ENERGY PREDICTED BY IDOCK:    0.57 KCAL/MOL
REMARK 927      BINDING AFFINITY PREDICTED BY RF-SCORE:    0.00 PKD
ROOT
HETATM    1  C   UNL     1      -8.577   8.725  66.883  1.00  0.00    -0.120 C  
HETATM    2  C   UNL     1      -7.320   9.216  66.447  1.00  0.00    -0.092 C  
HETATM    3  C   UNL     1      -7.688   9.644  67.818  1.00  0.00    -0.094 C  
HETATM    4  C   UNL     1      -9.381   8.794  68.598  1.00  0.00    -0.141 C  
HETATM    5  C   UNL     1      -8.083   8.529  68.773  1.00  0.00    -0.120 C  
HETATM    6  C   UNL     1      -9.279  13.971  67.146  1.00  0.00    -0.240 C  
HETATM    7  O   UNL     1      -9.960   7.504  68.103  1.00  0.00    -0.161 OA 
HETATM    8  C   UNL     1     -10.237  12.770  66.749  1.00  0.00    -0.245 C  
HETATM    9  C   UNL     1      -8.232  10.154  69.785  1.00  0.00    -0.161 C  
HETATM   10  C   UNL     1      -7.278   7.258  69.010  1.00  0.00    -0.089 C  
HETATM   11  C   UNL     1     -11.619  13.257  67.179  1.00  0.00    -0.402 C  
HETATM   12  H   UNL     1     -10.745   7.110  68.464  1.00  0.00     0.000 HD 
HETATM   13  C   UNL     1      -9.353  11.322  68.978  1.00  0.00     0.000 C  
HETATM   14  O   UNL     1     -10.659  11.232  69.558  1.00  0.00    -0.410 OA 
HETATM   15  C   UNL     1      -9.486  11.462  67.284  1.00  0.00    -0.167 C  
HETATM   16  H   UNL     1     -11.248  11.845  69.135  1.00  0.00     0.000 HD 
HETATM   17  C   UNL     1      -9.804  10.035  66.566  1.00  0.00    -0.267 C  
HETATM   18  F   UNL     1      -8.226  11.800  66.761  1.00  0.00    -0.155 F  
HETATM   19  C   UNL     1      -9.952  10.190  65.041  1.00  0.00    -0.375 C  
HETATM   20  C   UNL     1     -10.865  11.357  64.641  1.00  0.00    -0.359 C  
HETATM   21  C   UNL     1     -10.323  12.675  65.199  1.00  0.00    -0.312 C  
HETATM   22  C   UNL     1     -11.012  11.375  63.108  1.00  0.00    -0.129 C  
HETATM   23  C   UNL     1     -10.557  13.824  64.524  1.00  0.00    -0.405 C  
HETATM   24  C   UNL     1     -11.913  14.340  64.941  1.00  0.00    -0.425 C  
HETATM   25  C   UNL     1     -12.369  14.015  66.343  1.00  0.00    -0.468 C  
HETATM   26  O   UNL     1     -12.579  15.044  64.191  1.00  0.00    -0.770 OA 
ENDROOT
BRANCH   4  27
HETATM   27  C   UNL     1     -10.012   8.466  70.065  1.00  0.00    -0.188 C  
HETATM   28  O   UNL     1     -11.253   8.545  70.145  1.00  0.00    -0.232 OA 
HETATM   29  C   UNL     1      -9.244   7.899  71.265  1.00  0.00    -0.170 C  
ENDBRANCH   4  27
TORSDOF 1
ENDMDL
MODEL       16
REMARK 921   NORMALIZED FREE ENERGY PREDICTED BY IDOCK:   -6.29 KCAL/MOL
REMARK 922        TOTAL FREE ENERGY PREDICTED BY IDOCK:   -6.07 KCAL/MOL
REMARK 923 INTER-LIGAND FREE ENERGY PREDICTED BY IDOCK:   -6.78 KCAL/MOL
REMARK 924 INTRA-LIGAND FREE ENERGY PREDICTED BY IDOCK:    0.71 KCAL/MOL
REMARK 927      BINDING AFFINITY PREDICTED BY RF-SCORE:    0.00 PKD
ROOT
HETATM    1  C   UNL     1      -7.082  17.446  67.459  1.00  0.00    -0.180 C  
HETATM    2  C   UNL     1      -6.517  17.148  66.192  1.00  0.00    -0.061 C  
HETATM    3  C   UNL     1      -7.761  17.950  66.120  1.00  0.00    -0.272 C  
HETATM    4  C   UNL     1      -8.510  18.609  67.909  1.00  0.00    -0.276 C  
HETATM    5  C   UNL     1      -7.782  19.213  66.966  1.00  0.00    -0.259 C  
HETATM    6  C   UNL     1     -10.987  14.746  65.104  1.00  0.00    -0.403 C  
HETATM    7  O   UNL     1      -7.685  18.733  69.153  1.00  0.00    -0.236 OA 
HETATM    8  C   UNL     1     -10.467  14.810  66.601  1.00  0.00    -0.286 C  
HETATM    9  C   UNL     1      -9.487  19.152  66.085  1.00  0.00    -0.289 C  
HETATM   10  C   UNL     1      -6.687  20.271  66.980  1.00  0.00    -0.279 C  
HETATM   11  C   UNL     1     -11.725  14.563  67.429  1.00  0.00    -0.425 C  
HETATM   12  H   UNL     1      -8.031  19.038  69.983  1.00  0.00     0.000 HD 
HETATM   13  C   UNL     1     -10.351  17.605  66.446  1.00  0.00    -0.345 C  
HETATM   14  O   UNL     1     -11.283  17.799  67.516  1.00  0.00    -0.059 OA 
HETATM   15  C   UNL     1      -9.544  16.117  66.652  1.00  0.00    -0.244 C  
HETATM   16  H   UNL     1     -11.737  16.987  67.705  1.00  0.00     0.000 HD 
HETATM   17  C   UNL     1      -8.371  16.198  67.778  1.00  0.00    -0.162 C  
HETATM   18  F   UNL     1      -8.829  15.828  65.477  1.00  0.00    -0.251 F  
HETATM   19  C   UNL     1      -7.677  14.836  67.970  1.00  0.00    -0.130 C  
HETATM   20  C   UNL     1      -8.667  13.673  68.119  1.00  0.00    -0.177 C  
HETATM   21  C   UNL     1      -9.565  13.574  66.884  1.00  0.00    -0.258 C  
HETATM   22  C   UNL     1      -7.880  12.377  68.387  1.00  0.00    -0.142 C  
HETATM   23  C   UNL     1     -10.044  12.366  66.510  1.00  0.00    -0.246 C  
HETATM   24  C   UNL     1     -11.301  12.098  67.301  1.00  0.00    -0.334 C  
HETATM   25  C   UNL     1     -12.120  13.297  67.715  1.00  0.00    -0.281 C  
HETATM   26  O   UNL     1     -11.667  10.953  67.538  1.00  0.00    -0.543 OA 
ENDROOT
BRANCH   4  27
HETATM   27  C   UNL     1      -9.452  19.819  68.463  1.00  0.00    -0.312 C  
HETATM   28  O   UNL     1      -9.972  19.626  69.578  1.00  0.00    -0.342 OA 
HETATM   29  C   UNL     1      -9.591  21.208  67.829  1.00  0.00     0.010 C  
ENDBRANCH   4  27
TORSDOF 1
ENDMDL
MODEL       17
REMARK 921   NORMALIZED FREE ENERGY PREDICTED BY IDOCK:   -6.27 KCAL/MOL
REMARK 922        TOTAL FREE ENERGY PREDICTED BY IDOCK:   -6.05 KCAL/MOL
REMARK 923 INTER-LIGAND FREE ENERGY PREDICTED BY IDOCK:   -6.60 KCAL/MOL
REMARK 924 INTRA-LIGAND FREE ENERGY PREDICTED BY IDOCK:    0.55 KCAL/MOL
REMARK 927      BINDING AFFINITY PREDICTED BY RF-SCORE:    0.00 PKD
ROOT
HETATM    1  C   UNL     1     -10.575  15.766  66.705  1.00  0.00    -0.307 C  
HETATM    2  C   UNL     1     -11.574  15.320  67.609  1.00  0.00    -0.249 C  
HETATM    3  C   UNL     1     -10.221  15.415  68.208  1.00  0.00    -0.229 C  
HETATM    4  C   UNL     1      -8.775  16.263  67.030  1.00  0.00    -0.195 C  
HETATM    5  C   UNL     1      -9.514  16.749  68.032  1.00  0.00    -0.233 C  
HETATM    6  C   UNL     1      -8.750  10.996  68.117  1.00  0.00    -0.141 C  
HETATM    7  O   UNL     1      -9.078  17.164  65.873  1.00  0.00    -0.513 OA 
HETATM    8  C   UNL     1      -8.722  11.803  66.752  1.00  0.00    -0.192 C  
HETATM    9  C   UNL     1      -8.295  15.644  69.022  1.00  0.00    -0.235 C  
HETATM   10  C   UNL     1     -10.127  18.108  68.341  1.00  0.00    -0.401 C  
HETATM   11  C   UNL     1      -7.428  11.340  66.087  1.00  0.00     0.045 C  
HETATM   12  H   UNL     1      -8.408  17.557  65.327  1.00  0.00     0.000 HD 
HETATM   13  C   UNL     1      -7.934  14.112  68.129  1.00  0.00    -0.143 C  
HETATM   14  O   UNL     1      -6.707  14.243  67.403  1.00  0.00    -0.262 OA 
HETATM   15  C   UNL     1      -9.087  13.306  67.165  1.00  0.00    -0.231 C  
HETATM   16  H   UNL     1      -6.517  13.438  66.935  1.00  0.00     0.000 HD 
HETATM   17  C   UNL     1      -9.750  14.282  66.043  1.00  0.00    -0.312 C  
HETATM   18  F   UNL     1     -10.187  12.966  67.971  1.00  0.00    -0.204 F  
HETATM   19  C   UNL     1     -10.764  13.525  65.164  1.00  0.00    -0.349 C  
HETATM   20  C   UNL     1     -10.229  12.182  64.649  1.00  0.00    -0.312 C  
HETATM   21  C   UNL     1      -9.850  11.273  65.821  1.00  0.00    -0.273 C  
HETATM   22  C   UNL     1     -11.280  11.548  63.720  1.00  0.00    -0.456 C  
HETATM   23  C   UNL     1      -9.948   9.932  65.675  1.00  0.00    -0.353 C  
HETATM   24  C   UNL     1      -8.674   9.440  65.033  1.00  0.00    -0.186 C  
HETATM   25  C   UNL     1      -7.414  10.220  65.322  1.00  0.00    -0.141 C  
HETATM   26  O   UNL     1      -8.659   8.415  64.361  1.00  0.00    -0.095 OA 
ENDROOT
BRANCH   4  27
HETATM   27  C   UNL     1      -7.359  17.047  67.218  1.00  0.00    -0.161 C  
HETATM   28  O   UNL     1      -6.479  16.773  66.381  1.00  0.00    -0.241 OA 
HETATM   29  C   UNL     1      -7.095  18.200  68.195  1.00  0.00    -0.235 C  
ENDBRANCH   4  27
TORSDOF 1
ENDMDL
MODEL       18
REMARK 921   NORMALIZED FREE ENERGY PREDICTED BY IDOCK:   -6.20 KCAL/MOL
REMARK 922        TOTAL FREE ENERGY PREDICTED BY IDOCK:   -5.98 KCAL/MOL
REMARK 923 INTER-LIGAND FREE ENERGY PREDICTED BY IDOCK:   -6.54 KCAL/MOL
REMARK 924 INTRA-LIGAND FREE ENERGY PREDICTED BY IDOCK:    0.55 KCAL/MOL
REMARK 927      BINDING AFFINITY PREDICTED BY RF-SCORE:    0.00 PKD
ROOT
HETATM    1  C   UNL     1     -11.417   7.449  72.446  1.00  0.00    -0.343 C  
HETATM    2  C   UNL     1     -12.542   6.883  71.792  1.00  0.00    -0.386 C  
HETATM    3  C   UNL     1     -11.258   6.218  71.462  1.00  0.00    -0.344 C  
HETATM    4  C   UNL     1      -9.626   6.834  72.536  1.00  0.00    -0.153 C  
HETATM    5  C   UNL     1     -10.424   5.768  72.650  1.00  0.00    -0.243 C  
HETATM    6  C   UNL     1     -10.172   8.087  67.335  1.00  0.00    -0.330 C  
HETATM    7  O   UNL     1      -9.724   7.514  73.867  1.00  0.00    -0.329 OA 
HETATM    8  C   UNL     1      -9.928   8.975  68.626  1.00  0.00    -0.187 C  
HETATM    9  C   UNL     1      -9.418   5.269  71.092  1.00  0.00    -0.206 C  
HETATM   10  C   UNL     1     -10.947   4.949  73.822  1.00  0.00    -0.361 C  
HETATM   11  C   UNL     1      -8.615   9.694  68.325  1.00  0.00    -0.119 C  
HETATM   12  H   UNL     1      -8.968   7.800  74.365  1.00  0.00     0.000 HD 
HETATM   13  C   UNL     1      -9.097   6.703  70.038  1.00  0.00    -0.151 C  
HETATM   14  O   UNL     1      -7.792   7.228  70.305  1.00  0.00    -0.093 OA 
HETATM   15  C   UNL     1     -10.205   7.987  69.854  1.00  0.00    -0.204 C  
HETATM   16  H   UNL     1      -7.623   7.981  69.752  1.00  0.00     0.000 HD 
HETATM   17  C   UNL     1     -10.656   8.627  71.281  1.00  0.00    -0.308 C  
HETATM   18  F   UNL     1     -11.410   7.470  69.349  1.00  0.00    -0.129 F  
HETATM   19  C   UNL     1     -11.631   9.804  71.090  1.00  0.00    -0.469 C  
HETATM   20  C   UNL     1     -11.161  10.806  70.027  1.00  0.00    -0.366 C  
HETATM   21  C   UNL     1     -10.991  10.111  68.675  1.00  0.00    -0.273 C  
HETATM   22  C   UNL     1     -12.157  11.980  69.972  1.00  0.00    -0.355 C  
HETATM   23  C   UNL     1     -11.187  10.818  67.539  1.00  0.00    -0.346 C  
HETATM   24  C   UNL     1      -9.899  11.529  67.204  1.00  0.00    -0.191 C  
HETATM   25  C   UNL     1      -8.615  10.860  67.632  1.00  0.00    -0.124 C  
HETATM   26  O   UNL     1      -9.900  12.570  66.558  1.00  0.00    -0.234 OA 
ENDROOT
BRANCH   4  27
HETATM   27  C   UNL     1      -8.176   6.244  72.990  1.00  0.00    -0.114 C  
HETATM   28  O   UNL     1      -7.230   7.053  72.944  1.00  0.00    -0.073 OA 
HETATM   29  C   UNL     1      -7.926   4.873  73.631  1.00  0.00    -0.106 C  
ENDBRANCH   4  27
TORSDOF 1
ENDMDL
MODEL       19
REMARK 921   NORMALIZED FREE ENERGY PREDICTED BY IDOCK:   -6.17 KCAL/MOL
REMARK 922        TOTAL FREE ENERGY PREDICTED BY IDOCK:   -5.95 KCAL/MOL
REMARK 923 INTER-LIGAND FREE ENERGY PREDICTED BY IDOCK:   -6.51 KCAL/MOL
REMARK 924 INTRA-LIGAND FREE ENERGY PREDICTED BY IDOCK:    0.56 KCAL/MOL
REMARK 927      BINDING AFFINITY PREDICTED BY RF-SCORE:    0.00 PKD
ROOT
HETATM    1  C   UNL     1     -11.054  12.759  64.293  1.00  0.00    -0.410 C  
HETATM    2  C   UNL     1     -12.305  12.093  64.229  1.00  0.00    -0.466 C  
HETATM    3  C   UNL     1     -12.088  12.842  65.490  1.00  0.00    -0.517 C  
HETATM    4  C   UNL     1     -10.405  14.008  65.564  1.00  0.00    -0.339 C  
HETATM    5  C   UNL     1     -11.688  14.300  65.332  1.00  0.00    -0.354 C  
HETATM    6  C   UNL     1     -10.793   9.491  68.457  1.00  0.00    -0.175 C  
HETATM    7  O   UNL     1      -9.686  14.496  64.343  1.00  0.00    -0.373 OA 
HETATM    8  C   UNL     1      -9.714   9.999  67.412  1.00  0.00    -0.196 C  
HETATM    9  C   UNL     1     -11.754  13.984  67.224  1.00  0.00    -0.420 C  
HETATM   10  C   UNL     1     -12.408  15.310  64.448  1.00  0.00    -0.172 C  
HETATM   11  C   UNL     1      -8.415  10.015  68.216  1.00  0.00    -0.111 C  
HETATM   12  H   UNL     1      -8.906  15.036  64.377  1.00  0.00     0.000 HD 
HETATM   13  C   UNL     1     -10.665  12.618  67.694  1.00  0.00    -0.218 C  
HETATM   14  O   UNL     1      -9.409  13.127  68.158  1.00  0.00    -0.208 OA 
HETATM   15  C   UNL     1     -10.400  11.257  66.701  1.00  0.00    -0.237 C  
HETATM   16  H   UNL     1      -8.837  12.410  68.405  1.00  0.00     0.000 HD 
HETATM   17  C   UNL     1      -9.912  11.667  65.203  1.00  0.00    -0.297 C  
HETATM   18  F   UNL     1     -11.635  10.628  66.465  1.00  0.00    -0.017 F  
HETATM   19  C   UNL     1      -9.649  10.423  64.334  1.00  0.00    -0.375 C  
HETATM   20  C   UNL     1      -8.801   9.361  65.046  1.00  0.00    -0.234 C  
HETATM   21  C   UNL     1      -9.490   8.901  66.333  1.00  0.00    -0.283 C  
HETATM   22  C   UNL     1      -8.527   8.202  64.070  1.00  0.00     0.082 C  
HETATM   23  C   UNL     1      -9.291   7.637  66.773  1.00  0.00    -0.218 C  
HETATM   24  C   UNL     1      -8.020   7.623  67.587  1.00  0.00    -0.121 C  
HETATM   25  C   UNL     1      -7.659   8.894  68.318  1.00  0.00    -0.092 C  
HETATM   26  O   UNL     1      -7.351   6.602  67.697  1.00  0.00    -0.090 OA 
ENDROOT
BRANCH   4  27
HETATM   27  C   UNL     1      -9.875  15.331  66.354  1.00  0.00    -0.275 C  
HETATM   28  O   UNL     1      -8.668  15.326  66.659  1.00  0.00    -0.263 OA 
HETATM   29  C   UNL     1     -10.673  16.622  66.577  1.00  0.00    -0.127 C  
ENDBRANCH   4  27
TORSDOF 1
ENDMDL
MODEL       20
REMARK 921   NORMALIZED FREE ENERGY PREDICTED BY IDOCK:   -6.17 KCAL/MOL
REMARK 922        TOTAL FREE ENERGY PREDICTED BY IDOCK:   -5.94 KCAL/MOL
REMARK 923 INTER-LIGAND FREE ENERGY PREDICTED BY IDOCK:   -6.52 KCAL/MOL
REMARK 924 INTRA-LIGAND FREE ENERGY PREDICTED BY IDOCK:    0.58 KCAL/MOL
REMARK 927      BINDING AFFINITY PREDICTED BY RF-SCORE:    0.00 PKD
ROOT
HETATM    1  C   UNL     1      -9.986   9.280  65.836  1.00  0.00    -0.289 C  
HETATM    2  C   UNL     1      -8.975   9.458  64.857  1.00  0.00    -0.256 C  
HETATM    3  C   UNL     1      -8.457   9.357  66.242  1.00  0.00    -0.133 C  
HETATM    4  C   UNL     1      -9.833   8.876  67.682  1.00  0.00    -0.182 C  
HETATM    5  C   UNL     1      -8.921   8.145  67.033  1.00  0.00    -0.160 C  
HETATM    6  C   UNL     1      -7.721  13.813  67.386  1.00  0.00    -0.158 C  
HETATM    7  O   UNL     1     -11.134   8.197  67.385  1.00  0.00    -0.470 OA 
HETATM    8  C   UNL     1      -9.219  13.293  67.400  1.00  0.00    -0.216 C  
HETATM    9  C   UNL     1      -7.777   9.130  68.220  1.00  0.00    -0.091 C  
HETATM   10  C   UNL     1      -8.867   6.707  66.536  1.00  0.00    -0.144 C  
HETATM   11  C   UNL     1      -9.826  13.981  68.621  1.00  0.00    -0.191 C  
HETATM   12  H   UNL     1     -11.772   7.974  68.052  1.00  0.00     0.000 HD 
HETATM   13  C   UNL     1      -8.360  10.831  68.422  1.00  0.00    -0.132 C  
HETATM   14  O   UNL     1      -9.142  10.944  69.617  1.00  0.00    -0.379 OA 
HETATM   15  C   UNL     1      -9.101  11.715  67.166  1.00  0.00    -0.171 C  
HETATM   16  H   UNL     1      -9.447  11.837  69.724  1.00  0.00     0.000 HD 
HETATM   17  C   UNL     1     -10.369  10.927  66.517  1.00  0.00    -0.299 C  
HETATM   18  F   UNL     1      -8.203  11.800  66.088  1.00  0.00    -0.123 F  
HETATM   19  C   UNL     1     -11.042  11.756  65.407  1.00  0.00    -0.336 C  
HETATM   20  C   UNL     1     -11.298  13.213  65.817  1.00  0.00    -0.331 C  
HETATM   21  C   UNL     1      -9.984  13.902  66.190  1.00  0.00    -0.322 C  
HETATM   22  C   UNL     1     -12.043  13.930  64.675  1.00  0.00    -0.458 C  
HETATM   23  C   UNL     1      -9.856  15.234  65.989  1.00  0.00    -0.357 C  
HETATM   24  C   UNL     1     -10.434  15.943  67.189  1.00  0.00    -0.313 C  
HETATM   25  C   UNL     1     -10.353  15.225  68.515  1.00  0.00    -0.231 C  
HETATM   26  O   UNL     1     -10.888  17.077  67.095  1.00  0.00    -0.224 OA 
ENDROOT
BRANCH   4  27
HETATM   27  C   UNL     1      -9.857   8.187  69.159  1.00  0.00    -0.182 C  
HETATM   28  O   UNL     1     -10.733   8.613  69.935  1.00  0.00    -0.227 OA 
HETATM   29  C   UNL     1      -9.041   6.962  69.591  1.00  0.00    -0.143 C  
ENDBRANCH   4  27
TORSDOF 1
ENDMDL
MODEL       21
REMARK 921   NORMALIZED FREE ENERGY PREDICTED BY IDOCK:   -6.04 KCAL/MOL
REMARK 922        TOTAL FREE ENERGY PREDICTED BY IDOCK:   -5.81 KCAL/MOL
REMARK 923 INTER-LIGAND FREE ENERGY PREDICTED BY IDOCK:   -6.37 KCAL/MOL
REMARK 924 INTRA-LIGAND FREE ENERGY PREDICTED BY IDOCK:    0.56 KCAL/MOL
REMARK 927      BINDING AFFINITY PREDICTED BY RF-SCORE:    0.00 PKD
ROOT
HETATM    1  C   UNL     1      -8.522   7.774  65.976  1.00  0.00    -0.146 C  
HETATM    2  C   UNL     1      -7.209   8.312  65.958  1.00  0.00    -0.072 C  
HETATM    3  C   UNL     1      -7.777   8.160  67.319  1.00  0.00    -0.098 C  
HETATM    4  C   UNL     1      -9.575   7.184  67.438  1.00  0.00    -0.137 C  
HETATM    5  C   UNL     1      -8.320   6.781  67.658  1.00  0.00    -0.123 C  
HETATM    6  C   UNL     1      -9.215  12.478  68.315  1.00  0.00    -0.186 C  
HETATM    7  O   UNL     1     -10.082   6.259  66.376  1.00  0.00    -0.344 OA 
HETATM    8  C   UNL     1     -10.111  11.619  67.328  1.00  0.00    -0.221 C  
HETATM    9  C   UNL     1      -8.607   7.849  69.227  1.00  0.00    -0.138 C  
HETATM   10  C   UNL     1      -7.569   5.473  67.447  1.00  0.00    -0.089 C  
HETATM   11  C   UNL     1     -11.538  11.980  67.733  1.00  0.00    -0.400 C  
HETATM   12  H   UNL     1     -10.915   5.806  66.430  1.00  0.00     0.000 HD 
HETATM   13  C   UNL     1      -9.584   9.322  68.842  1.00  0.00    -0.155 C  
HETATM   14  O   UNL     1     -10.964   9.092  69.150  1.00  0.00    -0.404 OA 
HETATM   15  C   UNL     1      -9.460  10.158  67.360  1.00  0.00    -0.153 C  
HETATM   16  H   UNL     1     -11.477   9.865  68.948  1.00  0.00     0.000 HD 
HETATM   17  C   UNL     1      -9.676   9.180  66.076  1.00  0.00    -0.358 C  
HETATM   18  F   UNL     1      -8.133  10.592  67.201  1.00  0.00    -0.115 F  
HETATM   19  C   UNL     1      -9.591   9.961  64.751  1.00  0.00    -0.339 C  
HETATM   20  C   UNL     1     -10.425  11.250  64.758  1.00  0.00    -0.384 C  
HETATM   21  C   UNL     1      -9.963  12.179  65.883  1.00  0.00    -0.267 C  
HETATM   22  C   UNL     1     -10.339  11.909  63.369  1.00  0.00    -0.481 C  
HETATM   23  C   UNL     1     -10.084  13.517  65.727  1.00  0.00    -0.298 C  
HETATM   24  C   UNL     1     -11.483  13.908  66.136  1.00  0.00    -0.345 C  
HETATM   25  C   UNL     1     -12.148  13.066  67.198  1.00  0.00    -0.325 C  
HETATM   26  O   UNL     1     -12.023  14.904  65.669  1.00  0.00    -0.221 OA 
ENDROOT
BRANCH   4  27
HETATM   27  C   UNL     1     -10.422   6.325  68.534  1.00  0.00    -0.229 C  
HETATM   28  O   UNL     1     -11.658   6.472  68.490  1.00  0.00    -0.074 OA 
HETATM   29  C   UNL     1      -9.854   5.241  69.457  1.00  0.00    -0.270 C  
ENDBRANCH   4  27
TORSDOF 1
ENDMDL
MODEL       22
REMARK 921   NORMALIZED FREE ENERGY PREDICTED BY IDOCK:   -6.01 KCAL/MOL
REMARK 922        TOTAL FREE ENERGY PREDICTED BY IDOCK:   -5.78 KCAL/MOL
REMARK 923 INTER-LIGAND FREE ENERGY PREDICTED BY IDOCK:   -6.34 KCAL/MOL
REMARK 924 INTRA-LIGAND FREE ENERGY PREDICTED BY IDOCK:    0.56 KCAL/MOL
REMARK 927      BINDING AFFINITY PREDICTED BY RF-SCORE:    0.00 PKD
ROOT
HETATM    1  C   UNL     1      -9.308   7.995  68.052  1.00  0.00    -0.146 C  
HETATM    2  C   UNL     1      -7.942   8.370  67.971  1.00  0.00    -0.119 C  
HETATM    3  C   UNL     1      -8.605   8.787  69.230  1.00  0.00    -0.130 C  
HETATM    4  C   UNL     1     -10.509   8.090  69.516  1.00  0.00    -0.226 C  
HETATM    5  C   UNL     1      -9.327   7.687  69.992  1.00  0.00    -0.154 C  
HETATM    6  C   UNL     1      -9.574  13.274  68.436  1.00  0.00    -0.185 C  
HETATM    7  O   UNL     1     -11.059   6.884  68.819  1.00  0.00    -0.437 OA 
HETATM    8  C   UNL     1     -10.506  12.192  67.746  1.00  0.00    -0.222 C  
HETATM    9  C   UNL     1      -9.578   9.285  71.027  1.00  0.00    -0.329 C  
HETATM   10  C   UNL     1      -8.726   6.334  70.347  1.00  0.00    -0.146 C  
HETATM   11  C   UNL     1     -11.901  12.803  67.847  1.00  0.00    -0.392 C  
HETATM   12  H   UNL     1     -11.942   6.560  68.951  1.00  0.00     0.000 HD 
HETATM   13  C   UNL     1     -10.348  10.588  70.036  1.00  0.00    -0.034 C  
HETATM   14  O   UNL     1     -11.761  10.613  70.268  1.00  0.00    -0.287 OA 
HETATM   15  C   UNL     1     -10.037  10.797  68.373  1.00  0.00    -0.169 C  
HETATM   16  H   UNL     1     -12.166  11.297  69.749  1.00  0.00     0.000 HD 
HETATM   17  C   UNL     1     -10.291   9.434  67.518  1.00  0.00    -0.314 C  
HETATM   18  F   UNL     1      -8.660  11.021  68.199  1.00  0.00    -0.120 F  
HETATM   19  C   UNL     1     -10.035   9.654  66.015  1.00  0.00    -0.344 C  
HETATM   20  C   UNL     1     -10.708  10.921  65.470  1.00  0.00    -0.182 C  
HETATM   21  C   UNL     1     -10.206  12.158  66.219  1.00  0.00    -0.249 C  
HETATM   22  C   UNL     1     -10.461  11.004  63.952  1.00  0.00    -0.422 C  
HETATM   23  C   UNL     1     -10.158  13.346  65.575  1.00  0.00    -0.279 C  
HETATM   24  C   UNL     1     -11.522  13.984  65.672  1.00  0.00    -0.319 C  
HETATM   25  C   UNL     1     -12.345  13.661  66.896  1.00  0.00    -0.309 C  
HETATM   26  O   UNL     1     -11.911  14.777  64.823  1.00  0.00    -0.407 OA 
ENDROOT
BRANCH   4  27
HETATM   27  C   UNL     1     -11.517   7.780  70.759  1.00  0.00    -0.272 C  
HETATM   28  O   UNL     1     -12.706   8.105  70.580  1.00  0.00     0.142 OA 
HETATM   29  C   UNL     1     -11.169   6.971  72.015  1.00  0.00    -0.288 C  
ENDBRANCH   4  27
TORSDOF 1
ENDMDL
MODEL       23
REMARK 921   NORMALIZED FREE ENERGY PREDICTED BY IDOCK:   -5.97 KCAL/MOL
REMARK 922        TOTAL FREE ENERGY PREDICTED BY IDOCK:   -5.74 KCAL/MOL
REMARK 923 INTER-LIGAND FREE ENERGY PREDICTED BY IDOCK:   -6.29 KCAL/MOL
REMARK 924 INTRA-LIGAND FREE ENERGY PREDICTED BY IDOCK:    0.55 KCAL/MOL
REMARK 927      BINDING AFFINITY PREDICTED BY RF-SCORE:    0.00 PKD
ROOT
HETATM    1  C   UNL     1      -8.363  10.729  66.771  1.00  0.00    -0.136 C  
HETATM    2  C   UNL     1      -9.254  10.241  67.761  1.00  0.00    -0.149 C  
HETATM    3  C   UNL     1      -9.856  10.344  66.410  1.00  0.00    -0.266 C  
HETATM    4  C   UNL     1      -8.572  10.826  64.889  1.00  0.00    -0.092 C  
HETATM    5  C   UNL     1      -9.087   9.660  65.291  1.00  0.00    -0.269 C  
HETATM    6  C   UNL     1     -12.239  14.340  66.655  1.00  0.00    -0.411 C  
HETATM    7  O   UNL     1      -7.090  10.622  64.966  1.00  0.00    -0.332 OA 
HETATM    8  C   UNL     1     -10.666  14.437  66.482  1.00  0.00    -0.306 C  
HETATM    9  C   UNL     1     -10.632  10.439  64.457  1.00  0.00     0.201 C  
HETATM   10  C   UNL     1      -8.575   8.227  65.335  1.00  0.00    -0.176 C  
HETATM   11  C   UNL     1     -10.482  15.610  65.521  1.00  0.00    -0.426 C  
HETATM   12  H   UNL     1      -6.494  10.845  64.260  1.00  0.00     0.000 HD 
HETATM   13  C   UNL     1     -10.712  12.219  64.772  1.00  0.00    -0.300 C  
HETATM   14  O   UNL     1     -10.161  12.940  63.664  1.00  0.00    -0.676 OA 
HETATM   15  C   UNL     1     -10.193  12.929  66.233  1.00  0.00    -0.278 C  
HETATM   16  H   UNL     1     -10.204  13.875  63.828  1.00  0.00     0.000 HD 
HETATM   17  C   UNL     1      -8.664  12.519  66.613  1.00  0.00    -0.101 C  
HETATM   18  F   UNL     1     -10.936  12.373  67.289  1.00  0.00    -0.244 F  
HETATM   19  C   UNL     1      -8.205  13.196  67.919  1.00  0.00    -0.162 C  
HETATM   20  C   UNL     1      -8.527  14.696  67.963  1.00  0.00    -0.154 C  
HETATM   21  C   UNL     1     -10.033  14.925  67.817  1.00  0.00    -0.222 C  
HETATM   22  C   UNL     1      -7.958  15.291  69.265  1.00  0.00    -0.223 C  
HETATM   23  C   UNL     1     -10.598  16.002  68.408  1.00  0.00    -0.270 C  
HETATM   24  C   UNL     1     -10.447  17.178  67.473  1.00  0.00    -0.348 C  
HETATM   25  C   UNL     1     -10.419  16.879  65.994  1.00  0.00    -0.297 C  
HETATM   26  O   UNL     1     -10.413  18.325  67.902  1.00  0.00    -0.381 OA 
ENDROOT
BRANCH   4  27
HETATM   27  C   UNL     1      -8.473  10.633  63.273  1.00  0.00    -0.119 C  
HETATM   28  O   UNL     1      -8.038  11.614  62.642  1.00  0.00     0.078 OA 
HETATM   29  C   UNL     1      -8.684   9.318  62.513  1.00  0.00    -0.233 C  
ENDBRANCH   4  27
TORSDOF 1
ENDMDL
MODEL       24
REMARK 921   NORMALIZED FREE ENERGY PREDICTED BY IDOCK:   -5.94 KCAL/MOL
REMARK 922        TOTAL FREE ENERGY PREDICTED BY IDOCK:   -5.70 KCAL/MOL
REMARK 923 INTER-LIGAND FREE ENERGY PREDICTED BY IDOCK:   -6.26 KCAL/MOL
REMARK 924 INTRA-LIGAND FREE ENERGY PREDICTED BY IDOCK:    0.55 KCAL/MOL
REMARK 927      BINDING AFFINITY PREDICTED BY RF-SCORE:    0.00 PKD
ROOT
HETATM    1  C   UNL     1      -8.404  12.168  68.005  1.00  0.00    -0.167 C  
HETATM    2  C   UNL     1      -7.723  11.561  66.918  1.00  0.00    -0.157 C  
HETATM    3  C   UNL     1      -9.192  11.642  66.736  1.00  0.00    -0.190 C  
HETATM    4  C   UNL     1     -10.216  12.704  68.158  1.00  0.00    -0.240 C  
HETATM    5  C   UNL     1      -9.805  13.020  66.926  1.00  0.00    -0.240 C  
HETATM    6  C   UNL     1     -10.602   7.348  67.867  1.00  0.00    -0.255 C  
HETATM    7  O   UNL     1      -9.575  13.733  69.038  1.00  0.00    -0.407 OA 
HETATM    8  C   UNL     1     -10.216   8.327  69.053  1.00  0.00    -0.226 C  
HETATM    9  C   UNL     1     -11.272  11.855  66.501  1.00  0.00    -0.383 C  
HETATM   10  C   UNL     1      -9.302  14.297  66.265  1.00  0.00    -0.236 C  
HETATM   11  C   UNL     1     -11.256   8.016  70.127  1.00  0.00    -0.145 C  
HETATM   12  H   UNL     1     -10.049  14.226  69.697  1.00  0.00     0.000 HD 
HETATM   13  C   UNL     1     -11.361  10.472  67.663  1.00  0.00    -0.154 C  
HETATM   14  O   UNL     1     -12.316  10.755  68.693  1.00  0.00    -0.825 OA 
HETATM   15  C   UNL     1      -9.979   9.743  68.348  1.00  0.00    -0.156 C  
HETATM   16  H   UNL     1     -12.363  10.028  69.303  1.00  0.00     0.000 HD 
HETATM   17  C   UNL     1      -9.005  10.824  69.079  1.00  0.00    -0.141 C  
HETATM   18  F   UNL     1      -9.172   9.249  67.309  1.00  0.00    -0.131 F  
HETATM   19  C   UNL     1      -7.781  10.141  69.717  1.00  0.00    -0.176 C  
HETATM   20  C   UNL     1      -8.148   8.903  70.547  1.00  0.00    -0.145 C  
HETATM   21  C   UNL     1      -8.865   7.869  69.676  1.00  0.00    -0.138 C  
HETATM   22  C   UNL     1      -6.872   8.345  71.205  1.00  0.00    -0.058 C  
HETATM   23  C   UNL     1      -8.738   6.555  69.971  1.00  0.00    -0.140 C  
HETATM   24  C   UNL     1      -9.767   6.212  71.021  1.00  0.00    -0.177 C  
HETATM   25  C   UNL     1     -11.050   7.008  71.010  1.00  0.00    -0.295 C  
HETATM   26  O   UNL     1      -9.588   5.286  71.802  1.00  0.00    -0.145 OA 
ENDROOT
BRANCH   4  27
HETATM   27  C   UNL     1     -11.618  13.525  68.288  1.00  0.00    -0.346 C  
HETATM   28  O   UNL     1     -12.219  13.392  69.370  1.00  0.00    -0.288 OA 
HETATM   29  C   UNL     1     -12.144  14.566  67.291  1.00  0.00    -0.298 C  
ENDBRANCH   4  27
TORSDOF 1
ENDMDL
MODEL       25
REMARK 921   NORMALIZED FREE ENERGY PREDICTED BY IDOCK:   -5.89 KCAL/MOL
REMARK 922        TOTAL FREE ENERGY PREDICTED BY IDOCK:   -5.65 KCAL/MOL
REMARK 923 INTER-LIGAND FREE ENERGY PREDICTED BY IDOCK:   -6.27 KCAL/MOL
REMARK 924 INTRA-LIGAND FREE ENERGY PREDICTED BY IDOCK:    0.61 KCAL/MOL
REMARK 927      BINDING AFFINITY PREDICTED BY RF-SCORE:    0.00 PKD
ROOT
HETATM    1  C   UNL     1      -9.021   7.953  67.140  1.00  0.00    -0.142 C  
HETATM    2  C   UNL     1     -10.045   7.135  66.596  1.00  0.00    -0.229 C  
HETATM    3  C   UNL     1     -10.521   8.458  67.067  1.00  0.00    -0.375 C  
HETATM    4  C   UNL     1      -9.068   9.777  67.656  1.00  0.00    -0.131 C  
HETATM    5  C   UNL     1      -9.768   9.662  66.523  1.00  0.00    -0.272 C  
HETATM    6  C   UNL     1     -12.350   7.464  71.235  1.00  0.00    -0.380 C  
HETATM    7  O   UNL     1      -7.638   9.677  67.222  1.00  0.00    -0.091 OA 
HETATM    8  C   UNL     1     -10.769   7.538  71.129  1.00  0.00    -0.242 C  
HETATM    9  C   UNL     1     -11.122  10.378  67.681  1.00  0.00    -0.361 C  
HETATM   10  C   UNL     1      -9.460   9.906  65.052  1.00  0.00    -0.343 C  
HETATM   11  C   UNL     1     -10.353   8.211  72.435  1.00  0.00    -0.382 C  
HETATM   12  H   UNL     1      -6.965  10.288  67.495  1.00  0.00     0.000 HD 
HETATM   13  C   UNL     1     -10.984   9.689  69.348  1.00  0.00    -0.190 C  
HETATM   14  O   UNL     1     -10.255  10.587  70.193  1.00  0.00    -0.433 OA 
HETATM   15  C   UNL     1     -10.488   8.086  69.652  1.00  0.00    -0.224 C  
HETATM   16  H   UNL     1     -10.183  10.226  71.068  1.00  0.00     0.000 HD 
HETATM   17  C   UNL     1      -9.063   7.733  68.949  1.00  0.00    -0.141 C  
HETATM   18  F   UNL     1     -11.379   7.211  69.007  1.00  0.00    -0.135 F  
HETATM   19  C   UNL     1      -8.620   6.291  69.263  1.00  0.00    -0.124 C  
HETATM   20  C   UNL     1      -8.736   5.938  70.752  1.00  0.00    -0.134 C  
HETATM   21  C   UNL     1     -10.181   6.101  71.228  1.00  0.00    -0.252 C  
HETATM   22  C   UNL     1      -8.194   4.513  70.971  1.00  0.00    -0.090 C  
HETATM   23  C   UNL     1     -10.638   5.317  72.232  1.00  0.00    -0.280 C  
HETATM   24  C   UNL     1     -10.257   5.966  73.540  1.00  0.00    -0.217 C  
HETATM   25  C   UNL     1     -10.155   7.472  73.554  1.00  0.00    -0.378 C  
HETATM   26  O   UNL     1     -10.101   5.298  74.555  1.00  0.00    -0.214 OA 
ENDROOT
BRANCH   4  27
HETATM   27  C   UNL     1      -8.872  11.389  67.791  1.00  0.00    -0.143 C  
HETATM   28  O   UNL     1      -8.066  11.760  68.666  1.00  0.00    -0.148 OA 
HETATM   29  C   UNL     1      -9.434  12.445  66.831  1.00  0.00    -0.219 C  
ENDBRANCH   4  27
TORSDOF 1
ENDMDL
MODEL       26
REMARK 921   NORMALIZED FREE ENERGY PREDICTED BY IDOCK:   -5.89 KCAL/MOL
REMARK 922        TOTAL FREE ENERGY PREDICTED BY IDOCK:   -5.65 KCAL/MOL
REMARK 923 INTER-LIGAND FREE ENERGY PREDICTED BY IDOCK:   -6.22 KCAL/MOL
REMARK 924 INTRA-LIGAND FREE ENERGY PREDICTED BY IDOCK:    0.57 KCAL/MOL
REMARK 927      BINDING AFFINITY PREDICTED BY RF-SCORE:    0.00 PKD
ROOT
HETATM    1  C   UNL     1     -10.840  11.185  69.291  1.00  0.00    -0.277 C  
HETATM    2  C   UNL     1     -12.225  11.158  68.986  1.00  0.00    -0.194 C  
HETATM    3  C   UNL     1     -11.355  10.745  67.859  1.00  0.00    -0.372 C  
HETATM    4  C   UNL     1      -9.362  10.544  68.290  1.00  0.00    -0.156 C  
HETATM    5  C   UNL     1     -10.348   9.649  68.170  1.00  0.00    -0.250 C  
HETATM    6  C   UNL     1     -11.158  14.603  65.254  1.00  0.00    -0.363 C  
HETATM    7  O   UNL     1      -8.837  10.332  69.677  1.00  0.00    -0.289 OA 
HETATM    8  C   UNL     1     -10.278  14.566  66.572  1.00  0.00    -0.282 C  
HETATM    9  C   UNL     1     -10.074  10.096  66.322  1.00  0.00    -0.303 C  
HETATM   10  C   UNL     1     -10.679   8.330  68.854  1.00  0.00    -0.089 C  
HETATM   11  C   UNL     1      -8.982  15.260  66.158  1.00  0.00    -0.251 C  
HETATM   12  H   UNL     1      -7.913  10.239  69.877  1.00  0.00     0.000 HD 
HETATM   13  C   UNL     1      -9.715  11.858  66.126  1.00  0.00    -0.232 C  
HETATM   14  O   UNL     1      -8.300  12.066  66.043  1.00  0.00    -0.383 OA 
HETATM   15  C   UNL     1     -10.415  13.064  67.108  1.00  0.00    -0.243 C  
HETATM   16  H   UNL     1      -8.111  12.991  65.939  1.00  0.00     0.000 HD 
HETATM   17  C   UNL     1     -10.191  12.780  68.695  1.00  0.00    -0.162 C  
HETATM   18  F   UNL     1     -11.812  12.995  66.973  1.00  0.00    -0.362 F  
HETATM   19  C   UNL     1     -10.803  13.897  69.561  1.00  0.00    -0.045 C  
HETATM   20  C   UNL     1     -10.434  15.305  69.075  1.00  0.00    -0.248 C  
HETATM   21  C   UNL     1     -10.905  15.514  67.634  1.00  0.00    -0.306 C  
HETATM   22  C   UNL     1     -11.024  16.341  70.050  1.00  0.00    -0.356 C  
HETATM   23  C   UNL     1     -11.246  16.757  67.224  1.00  0.00     0.204 C  
HETATM   24  C   UNL     1      -9.985  17.466  66.791  1.00  0.00    -0.307 C  
HETATM   25  C   UNL     1      -8.875  16.610  66.231  1.00  0.00    -0.348 C  
HETATM   26  O   UNL     1      -9.900  18.687  66.837  1.00  0.00    -0.304 OA 
ENDROOT
BRANCH   4  27
HETATM   27  C   UNL     1      -8.071   9.729  67.720  1.00  0.00    -0.113 C  
HETATM   28  O   UNL     1      -6.980  10.322  67.813  1.00  0.00    -0.081 OA 
HETATM   29  C   UNL     1      -8.062   8.264  67.269  1.00  0.00    -0.109 C  
ENDBRANCH   4  27
TORSDOF 1
ENDMDL
MODEL       27
REMARK 921   NORMALIZED FREE ENERGY PREDICTED BY IDOCK:   -5.88 KCAL/MOL
REMARK 922        TOTAL FREE ENERGY PREDICTED BY IDOCK:   -5.64 KCAL/MOL
REMARK 923 INTER-LIGAND FREE ENERGY PREDICTED BY IDOCK:   -6.20 KCAL/MOL
REMARK 924 INTRA-LIGAND FREE ENERGY PREDICTED BY IDOCK:    0.55 KCAL/MOL
REMARK 927      BINDING AFFINITY PREDICTED BY RF-SCORE:    0.00 PKD
ROOT
HETATM    1  C   UNL     1     -11.515  11.498  67.903  1.00  0.00    -0.372 C  
HETATM    2  C   UNL     1     -11.082  11.655  69.245  1.00  0.00    -0.291 C  
HETATM    3  C   UNL     1     -10.212  12.329  68.252  1.00  0.00    -0.221 C  
HETATM    4  C   UNL     1     -10.893  12.336  66.320  1.00  0.00    -0.278 C  
HETATM    5  C   UNL     1     -10.918  13.263  67.282  1.00  0.00    -0.284 C  
HETATM    6  C   UNL     1      -6.684   9.323  67.778  1.00  0.00    -0.068 C  
HETATM    7  O   UNL     1     -12.333  12.143  65.953  1.00  0.00    -0.561 OA 
HETATM    8  C   UNL     1      -8.048   8.969  67.051  1.00  0.00    -0.106 C  
HETATM    9  C   UNL     1      -9.060  13.327  66.803  1.00  0.00    -0.216 C  
HETATM   10  C   UNL     1     -11.899  14.356  67.683  1.00  0.00    -0.412 C  
HETATM   11  C   UNL     1      -7.601   8.369  65.720  1.00  0.00    -0.085 C  
HETATM   12  H   UNL     1     -12.649  12.147  65.057  1.00  0.00     0.000 HD 
HETATM   13  C   UNL     1      -8.426  11.674  66.431  1.00  0.00    -0.114 C  
HETATM   14  O   UNL     1      -8.442  11.448  65.017  1.00  0.00    -0.366 OA 
HETATM   15  C   UNL     1      -8.958  10.272  67.242  1.00  0.00    -0.132 C  
HETATM   16  H   UNL     1      -8.109  10.580  64.821  1.00  0.00     0.000 HD 
HETATM   17  C   UNL     1     -10.577  10.104  67.197  1.00  0.00    -0.308 C  
HETATM   18  F   UNL     1      -8.699  10.423  68.615  1.00  0.00    -0.113 F  
HETATM   19  C   UNL     1     -11.032   8.815  67.908  1.00  0.00     0.056 C  
HETATM   20  C   UNL     1     -10.220   7.581  67.491  1.00  0.00    -0.288 C  
HETATM   21  C   UNL     1      -8.735   7.789  67.798  1.00  0.00    -0.123 C  
HETATM   22  C   UNL     1     -10.804   6.339  68.191  1.00  0.00    -0.401 C  
HETATM   23  C   UNL     1      -7.965   6.718  68.095  1.00  0.00    -0.114 C  
HETATM   24  C   UNL     1      -7.492   6.111  66.796  1.00  0.00    -0.087 C  
HETATM   25  C   UNL     1      -7.311   7.048  65.627  1.00  0.00    -0.079 C  
HETATM   26  O   UNL     1      -7.209   4.921  66.721  1.00  0.00    -0.077 OA 
ENDROOT
BRANCH   4  27
HETATM   27  C   UNL     1     -10.711  13.229  64.969  1.00  0.00    -0.333 C  
HETATM   28  O   UNL     1     -10.630  12.585  63.907  1.00  0.00    -0.389 OA 
HETATM   29  C   UNL     1     -10.820  14.757  64.883  1.00  0.00    -0.433 C  
ENDBRANCH   4  27
TORSDOF 1
ENDMDL
MODEL       28
REMARK 921   NORMALIZED FREE ENERGY PREDICTED BY IDOCK:   -5.85 KCAL/MOL
REMARK 922        TOTAL FREE ENERGY PREDICTED BY IDOCK:   -5.61 KCAL/MOL
REMARK 923 INTER-LIGAND FREE ENERGY PREDICTED BY IDOCK:   -6.33 KCAL/MOL
REMARK 924 INTRA-LIGAND FREE ENERGY PREDICTED BY IDOCK:    0.72 KCAL/MOL
REMARK 927      BINDING AFFINITY PREDICTED BY RF-SCORE:    0.00 PKD
ROOT
HETATM    1  C   UNL     1      -8.994   7.399  68.798  1.00  0.00    -0.129 C  
HETATM    2  C   UNL     1      -7.664   7.868  68.948  1.00  0.00    -0.105 C  
HETATM    3  C   UNL     1      -8.605   8.394  69.967  1.00  0.00    -0.131 C  
HETATM    4  C   UNL     1     -10.488   7.588  69.949  1.00  0.00    -0.229 C  
HETATM    5  C   UNL     1      -9.419   7.350  70.714  1.00  0.00    -0.167 C  
HETATM    6  C   UNL     1      -9.605  12.643  68.339  1.00  0.00    -0.173 C  
HETATM    7  O   UNL     1     -10.811   6.260  69.338  1.00  0.00    -0.266 OA 
HETATM    8  C   UNL     1     -10.308  11.407  67.636  1.00  0.00    -0.209 C  
HETATM    9  C   UNL     1      -9.969   9.045  71.429  1.00  0.00    -0.388 C  
HETATM   10  C   UNL     1      -8.842   6.108  71.382  1.00  0.00    -0.139 C  
HETATM   11  C   UNL     1     -11.721  11.911  67.354  1.00  0.00    -0.326 C  
HETATM   12  H   UNL     1     -11.685   5.886  69.329  1.00  0.00     0.000 HD 
HETATM   13  C   UNL     1     -10.571  10.138  70.119  1.00  0.00    -0.281 C  
HETATM   14  O   UNL     1     -12.000  10.079  70.046  1.00  0.00    -0.422 OA 
HETATM   15  C   UNL     1      -9.916  10.149  68.545  1.00  0.00    -0.163 C  
HETATM   16  H   UNL     1     -12.316  10.653  69.359  1.00  0.00     0.000 HD 
HETATM   17  C   UNL     1      -9.909   8.670  67.865  1.00  0.00    -0.211 C  
HETATM   18  F   UNL     1      -8.548  10.459  68.631  1.00  0.00    -0.109 F  
HETATM   19  C   UNL     1      -9.343   8.709  66.433  1.00  0.00    -0.271 C  
HETATM   20  C   UNL     1      -9.945   9.833  65.580  1.00  0.00    -0.329 C  
HETATM   21  C   UNL     1      -9.682  11.195  66.227  1.00  0.00    -0.244 C  
HETATM   22  C   UNL     1      -9.378   9.735  64.151  1.00  0.00    -0.237 C  
HETATM   23  C   UNL     1      -9.555  12.287  65.440  1.00  0.00    -0.079 C  
HETATM   24  C   UNL     1     -10.938  12.820  65.156  1.00  0.00    -0.293 C  
HETATM   25  C   UNL     1     -11.990  12.597  66.216  1.00  0.00    -0.439 C  
HETATM   26  O   UNL     1     -11.172  13.460  64.138  1.00  0.00    -0.380 OA 
ENDROOT
BRANCH   4  27
HETATM   27  C   UNL     1     -11.725   7.365  70.987  1.00  0.00    -0.297 C  
HETATM   28  O   UNL     1     -12.835   7.156  70.462  1.00  0.00    -0.052 OA 
HETATM   29  C   UNL     1     -11.603   7.206  72.507  1.00  0.00    -0.265 C  
ENDBRANCH   4  27
TORSDOF 1
ENDMDL
MODEL       29
REMARK 921   NORMALIZED FREE ENERGY PREDICTED BY IDOCK:   -5.83 KCAL/MOL
REMARK 922        TOTAL FREE ENERGY PREDICTED BY IDOCK:   -5.59 KCAL/MOL
REMARK 923 INTER-LIGAND FREE ENERGY PREDICTED BY IDOCK:   -6.16 KCAL/MOL
REMARK 924 INTRA-LIGAND FREE ENERGY PREDICTED BY IDOCK:    0.57 KCAL/MOL
REMARK 927      BINDING AFFINITY PREDICTED BY RF-SCORE:    0.00 PKD
ROOT
HETATM    1  C   UNL     1     -10.567  16.853  67.673  1.00  0.00    -0.325 C  
HETATM    2  C   UNL     1     -11.030  16.709  69.007  1.00  0.00    -0.279 C  
HETATM    3  C   UNL     1      -9.634  17.199  68.906  1.00  0.00    -0.237 C  
HETATM    4  C   UNL     1      -8.973  17.645  67.019  1.00  0.00    -0.250 C  
HETATM    5  C   UNL     1      -9.424  18.413  68.015  1.00  0.00    -0.305 C  
HETATM    6  C   UNL     1      -7.138  13.341  69.670  1.00  0.00     0.337 C  
HETATM    7  O   UNL     1      -9.891  17.946  65.874  1.00  0.00    -0.529 OA 
HETATM    8  C   UNL     1      -7.804  13.509  68.241  1.00  0.00    -0.145 C  
HETATM    9  C   UNL     1      -7.687  17.965  68.698  1.00  0.00    -0.293 C  
HETATM   10  C   UNL     1     -10.239  19.697  68.085  1.00  0.00    -0.580 C  
HETATM   11  C   UNL     1      -6.746  12.965  67.285  1.00  0.00    -0.056 C  
HETATM   12  H   UNL     1      -9.585  18.152  64.999  1.00  0.00     0.000 HD 
HETATM   13  C   UNL     1      -7.253  16.254  68.301  1.00  0.00    -0.141 C  
HETATM   14  O   UNL     1      -6.436  16.214  67.125  1.00  0.00    -0.178 OA 
HETATM   15  C   UNL     1      -8.400  14.994  68.245  1.00  0.00    -0.145 C  
HETATM   16  H   UNL     1      -6.207  15.316  66.916  1.00  0.00     0.000 HD 
HETATM   17  C   UNL     1      -9.649  15.335  67.258  1.00  0.00    -0.214 C  
HETATM   18  F   UNL     1      -9.017  14.894  69.504  1.00  0.00    -0.179 F  
HETATM   19  C   UNL     1     -10.656  14.171  67.198  1.00  0.00    -0.278 C  
HETATM   20  C   UNL     1      -9.986  12.807  66.982  1.00  0.00    -0.231 C  
HETATM   21  C   UNL     1      -8.994  12.514  68.110  1.00  0.00    -0.199 C  
HETATM   22  C   UNL     1     -11.078  11.728  66.855  1.00  0.00    -0.361 C  
HETATM   23  C   UNL     1      -8.766  11.232  68.473  1.00  0.00    -0.156 C  
HETATM   24  C   UNL     1      -7.709  10.669  67.555  1.00  0.00    -0.101 C  
HETATM   25  C   UNL     1      -6.691  11.639  67.005  1.00  0.00    -0.145 C  
HETATM   26  O   UNL     1      -7.648   9.468  67.322  1.00  0.00    -0.091 OA 
ENDROOT
BRANCH   4  27
HETATM   27  C   UNL     1      -7.851  18.595  66.316  1.00  0.00    -0.262 C  
HETATM   28  O   UNL     1      -7.227  18.078  65.370  1.00  0.00    -0.502 OA 
HETATM   29  C   UNL     1      -7.642  20.089  66.591  1.00  0.00    -0.314 C  
ENDBRANCH   4  27
TORSDOF 1
ENDMDL
MODEL       30
REMARK 921   NORMALIZED FREE ENERGY PREDICTED BY IDOCK:   -5.80 KCAL/MOL
REMARK 922        TOTAL FREE ENERGY PREDICTED BY IDOCK:   -5.55 KCAL/MOL
REMARK 923 INTER-LIGAND FREE ENERGY PREDICTED BY IDOCK:   -6.10 KCAL/MOL
REMARK 924 INTRA-LIGAND FREE ENERGY PREDICTED BY IDOCK:    0.55 KCAL/MOL
REMARK 927      BINDING AFFINITY PREDICTED BY RF-SCORE:    0.00 PKD
ROOT
HETATM    1  C   UNL     1      -7.583  10.775  68.016  1.00  0.00    -0.092 C  
HETATM    2  C   UNL     1      -8.117  10.915  69.323  1.00  0.00    -0.062 C  
HETATM    3  C   UNL     1      -9.025  10.226  68.374  1.00  0.00    -0.132 C  
HETATM    4  C   UNL     1      -8.236   9.789  66.534  1.00  0.00    -0.120 C  
HETATM    5  C   UNL     1      -8.425   9.044  67.628  1.00  0.00    -0.117 C  
HETATM    6  C   UNL     1     -11.967  13.616  67.128  1.00  0.00    -0.434 C  
HETATM    7  O   UNL     1      -6.765   9.693  66.270  1.00  0.00    -0.073 OA 
HETATM    8  C   UNL     1     -10.521  13.628  66.477  1.00  0.00    -0.281 C  
HETATM    9  C   UNL     1     -10.235   9.187  67.003  1.00  0.00    -0.333 C  
HETATM   10  C   UNL     1      -7.666   7.896  68.279  1.00  0.00    -0.121 C  
HETATM   11  C   UNL     1     -10.779  14.057  65.035  1.00  0.00    -0.409 C  
HETATM   12  H   UNL     1      -6.398   9.490  65.417  1.00  0.00     0.000 HD 
HETATM   13  C   UNL     1     -10.561  10.832  66.323  1.00  0.00    -0.192 C  
HETATM   14  O   UNL     1     -10.420  10.812  64.898  1.00  0.00    -0.311 OA 
HETATM   15  C   UNL     1      -9.854  12.252  66.949  1.00  0.00    -0.209 C  
HETATM   16  H   UNL     1     -10.592  11.675  64.541  1.00  0.00     0.000 HD 
HETATM   17  C   UNL     1      -8.230  12.158  67.021  1.00  0.00    -0.164 C  
HETATM   18  F   UNL     1     -10.219  12.376  68.300  1.00  0.00    -0.202 F  
HETATM   19  C   UNL     1      -7.612  13.462  67.559  1.00  0.00    -0.176 C  
HETATM   20  C   UNL     1      -8.180  14.719  66.885  1.00  0.00    -0.144 C  
HETATM   21  C   UNL     1      -9.695  14.796  67.089  1.00  0.00    -0.234 C  
HETATM   22  C   UNL     1      -7.442  15.956  67.432  1.00  0.00    -0.217 C  
HETATM   23  C   UNL     1     -10.292  16.008  67.146  1.00  0.00    -0.295 C  
HETATM   24  C   UNL     1     -10.577  16.454  65.732  1.00  0.00    -0.315 C  
HETATM   25  C   UNL     1     -10.839  15.373  64.712  1.00  0.00    -0.385 C  
HETATM   26  O   UNL     1     -10.653  17.643  65.447  1.00  0.00    -0.657 OA 
ENDROOT
BRANCH   4  27
HETATM   27  C   UNL     1      -8.481   8.720  65.329  1.00  0.00    -0.174 C  
HETATM   28  O   UNL     1      -8.364   9.176  64.176  1.00  0.00    -0.161 OA 
HETATM   29  C   UNL     1      -8.648   7.204  65.494  1.00  0.00    -0.093 C  
ENDBRANCH   4  27
TORSDOF 1
ENDMDL
MODEL       31
REMARK 921   NORMALIZED FREE ENERGY PREDICTED BY IDOCK:   -5.76 KCAL/MOL
REMARK 922        TOTAL FREE ENERGY PREDICTED BY IDOCK:   -5.51 KCAL/MOL
REMARK 923 INTER-LIGAND FREE ENERGY PREDICTED BY IDOCK:   -6.07 KCAL/MOL
REMARK 924 INTRA-LIGAND FREE ENERGY PREDICTED BY IDOCK:    0.56 KCAL/MOL
REMARK 927      BINDING AFFINITY PREDICTED BY RF-SCORE:    0.00 PKD
ROOT
HETATM    1  C   UNL     1      -9.968   6.738  68.163  1.00  0.00    -0.161 C  
HETATM    2  C   UNL     1      -8.593   6.512  67.895  1.00  0.00    -0.117 C  
HETATM    3  C   UNL     1      -8.864   7.004  69.267  1.00  0.00    -0.139 C  
HETATM    4  C   UNL     1     -10.837   7.138  69.800  1.00  0.00    -0.240 C  
HETATM    5  C   UNL     1      -9.901   6.220  70.056  1.00  0.00    -0.200 C  
HETATM    6  C   UNL     1      -7.876  11.545  68.941  1.00  0.00    -0.071 C  
HETATM    7  O   UNL     1     -11.930   6.374  69.116  1.00  0.00    -0.372 OA 
HETATM    8  C   UNL     1      -9.256  11.051  68.332  1.00  0.00    -0.175 C  
HETATM    9  C   UNL     1      -9.317   7.628  71.224  1.00  0.00    -0.161 C  
HETATM   10  C   UNL     1      -9.910   4.706  70.221  1.00  0.00    -0.314 C  
HETATM   11  C   UNL     1     -10.228  12.172  68.692  1.00  0.00    -0.186 C  
HETATM   12  H   UNL     1     -12.845   6.436  69.363  1.00  0.00     0.000 HD 
HETATM   13  C   UNL     1      -9.553   9.249  70.456  1.00  0.00    -0.262 C  
HETATM   14  O   UNL     1     -10.780   9.834  70.907  1.00  0.00    -0.312 OA 
HETATM   15  C   UNL     1      -9.370   9.520  68.782  1.00  0.00    -0.146 C  
HETATM   16  H   UNL     1     -10.904  10.686  70.505  1.00  0.00     0.000 HD 
HETATM   17  C   UNL     1     -10.283   8.512  67.887  1.00  0.00    -0.273 C  
HETATM   18  F   UNL     1      -8.062   9.167  68.412  1.00  0.00    -0.099 F  
HETATM   19  C   UNL     1     -10.127   8.795  66.381  1.00  0.00    -0.313 C  
HETATM   20  C   UNL     1     -10.241  10.285  66.035  1.00  0.00    -0.298 C  
HETATM   21  C   UNL     1      -9.174  11.091  66.779  1.00  0.00    -0.174 C  
HETATM   22  C   UNL     1     -10.154  10.452  64.506  1.00  0.00    -0.365 C  
HETATM   23  C   UNL     1      -8.688  12.221  66.217  1.00  0.00     0.057 C  
HETATM   24  C   UNL     1      -9.621  13.354  66.569  1.00  0.00    -0.272 C  
HETATM   25  C   UNL     1     -10.359  13.252  67.882  1.00  0.00    -0.239 C  
HETATM   26  O   UNL     1      -9.720  14.339  65.847  1.00  0.00    -0.303 OA 
ENDROOT
BRANCH   4  27
HETATM   27  C   UNL     1     -11.734   7.122  71.161  1.00  0.00    -0.313 C  
HETATM   28  O   UNL     1     -12.711   7.895  71.168  1.00  0.00    -0.260 OA 
HETATM   29  C   UNL     1     -11.588   6.128  72.319  1.00  0.00    -0.362 C  
ENDBRANCH   4  27
TORSDOF 1
ENDMDL
MODEL       32
REMARK 921   NORMALIZED FREE ENERGY PREDICTED BY IDOCK:   -5.75 KCAL/MOL
REMARK 922        TOTAL FREE ENERGY PREDICTED BY IDOCK:   -5.50 KCAL/MOL
REMARK 923 INTER-LIGAND FREE ENERGY PREDICTED BY IDOCK:   -6.05 KCAL/MOL
REMARK 924 INTRA-LIGAND FREE ENERGY PREDICTED BY IDOCK:    0.55 KCAL/MOL
REMARK 927      BINDING AFFINITY PREDICTED BY RF-SCORE:    0.00 PKD
ROOT
HETATM    1  C   UNL     1      -8.917  10.974  66.108  1.00  0.00    -0.203 C  
HETATM    2  C   UNL     1      -9.545   9.953  65.350  1.00  0.00    -0.350 C  
HETATM    3  C   UNL     1     -10.480  10.732  66.196  1.00  0.00    -0.278 C  
HETATM    4  C   UNL     1      -9.683  12.363  67.147  1.00  0.00    -0.207 C  
HETATM    5  C   UNL     1     -10.414  12.242  66.034  1.00  0.00    -0.284 C  
HETATM    6  C   UNL     1     -11.078   7.949  69.885  1.00  0.00    -0.123 C  
HETATM    7  O   UNL     1      -8.431  13.050  66.696  1.00  0.00    -0.416 OA 
HETATM    8  C   UNL     1      -9.722   8.767  69.799  1.00  0.00    -0.179 C  
HETATM    9  C   UNL     1     -11.766  11.921  67.359  1.00  0.00    -0.326 C  
HETATM   10  C   UNL     1     -10.456  12.978  64.702  1.00  0.00    -0.400 C  
HETATM   11  C   UNL     1      -9.463   9.185  71.244  1.00  0.00    -0.313 C  
HETATM   12  H   UNL     1      -8.062  13.806  67.136  1.00  0.00     0.000 HD 
HETATM   13  C   UNL     1     -11.106  10.961  68.743  1.00  0.00    -0.256 C  
HETATM   14  O   UNL     1     -10.732  11.835  69.815  1.00  0.00    -0.439 OA 
HETATM   15  C   UNL     1      -9.921   9.750  68.552  1.00  0.00    -0.160 C  
HETATM   16  H   UNL     1     -10.386  11.332  70.542  1.00  0.00     0.000 HD 
HETATM   17  C   UNL     1      -8.601  10.291  67.768  1.00  0.00    -0.118 C  
HETATM   18  F   UNL     1     -10.421   8.769  67.679  1.00  0.00    -0.262 F  
HETATM   19  C   UNL     1      -7.532   9.190  67.635  1.00  0.00    -0.084 C  
HETATM   20  C   UNL     1      -7.270   8.444  68.950  1.00  0.00    -0.078 C  
HETATM   21  C   UNL     1      -8.557   7.792  69.461  1.00  0.00    -0.135 C  
HETATM   22  C   UNL     1      -6.134   7.427  68.731  1.00  0.00    -0.027 C  
HETATM   23  C   UNL     1      -8.478   6.653  70.186  1.00  0.00    -0.136 C  
HETATM   24  C   UNL     1      -8.238   7.034  71.626  1.00  0.00    -0.104 C  
HETATM   25  C   UNL     1      -8.805   8.354  72.090  1.00  0.00    -0.285 C  
HETATM   26  O   UNL     1      -7.664   6.272  72.394  1.00  0.00    -0.101 OA 
ENDROOT
BRANCH   4  27
HETATM   27  C   UNL     1     -10.195  13.785  67.756  1.00  0.00    -0.241 C  
HETATM   28  O   UNL     1      -9.666  14.130  68.830  1.00  0.00    -0.215 OA 
HETATM   29  C   UNL     1     -11.106  14.791  67.042  1.00  0.00    -0.333 C  
ENDBRANCH   4  27
TORSDOF 1
ENDMDL
MODEL       33
REMARK 921   NORMALIZED FREE ENERGY PREDICTED BY IDOCK:   -5.72 KCAL/MOL
REMARK 922        TOTAL FREE ENERGY PREDICTED BY IDOCK:   -5.47 KCAL/MOL
REMARK 923 INTER-LIGAND FREE ENERGY PREDICTED BY IDOCK:   -6.02 KCAL/MOL
REMARK 924 INTRA-LIGAND FREE ENERGY PREDICTED BY IDOCK:    0.55 KCAL/MOL
REMARK 927      BINDING AFFINITY PREDICTED BY RF-SCORE:    0.00 PKD
ROOT
HETATM    1  C   UNL     1     -10.069  13.555  67.787  1.00  0.00    -0.236 C  
HETATM    2  C   UNL     1      -8.684  13.835  67.909  1.00  0.00    -0.183 C  
HETATM    3  C   UNL     1      -9.123  13.575  66.517  1.00  0.00    -0.129 C  
HETATM    4  C   UNL     1     -11.143  13.385  66.233  1.00  0.00    -0.293 C  
HETATM    5  C   UNL     1     -10.301  14.404  66.032  1.00  0.00    -0.319 C  
HETATM    6  C   UNL     1      -7.864   9.138  65.859  1.00  0.00    -0.105 C  
HETATM    7  O   UNL     1     -12.164  13.929  67.184  1.00  0.00    -0.423 OA 
HETATM    8  C   UNL     1      -9.165   9.408  66.724  1.00  0.00    -0.179 C  
HETATM    9  C   UNL     1      -9.819  13.274  64.555  1.00  0.00     0.048 C  
HETATM   10  C   UNL     1     -10.413  15.917  66.154  1.00  0.00    -0.336 C  
HETATM   11  C   UNL     1     -10.120   8.297  66.293  1.00  0.00    -0.101 C  
HETATM   12  H   UNL     1     -13.100  13.841  67.053  1.00  0.00     0.000 HD 
HETATM   13  C   UNL     1      -9.857  11.530  65.031  1.00  0.00    -0.257 C  
HETATM   14  O   UNL     1     -11.105  10.941  64.645  1.00  0.00    -0.110 OA 
HETATM   15  C   UNL     1      -9.423  10.981  66.587  1.00  0.00    -0.184 C  
HETATM   16  H   UNL     1     -11.125  10.025  64.894  1.00  0.00     0.000 HD 
HETATM   17  C   UNL     1     -10.250  11.741  67.766  1.00  0.00    -0.205 C  
HETATM   18  F   UNL     1      -8.095  11.363  66.842  1.00  0.00    -0.132 F  
HETATM   19  C   UNL     1      -9.865  11.209  69.159  1.00  0.00    -0.074 C  
HETATM   20  C   UNL     1      -9.850   9.676  69.234  1.00  0.00    -0.195 C  
HETATM   21  C   UNL     1      -8.860   9.100  68.219  1.00  0.00    -0.129 C  
HETATM   22  C   UNL     1      -9.537   9.248  70.680  1.00  0.00    -0.334 C  
HETATM   23  C   UNL     1      -8.240   7.929  68.491  1.00  0.00    -0.127 C  
HETATM   24  C   UNL     1      -9.154   6.808  68.060  1.00  0.00    -0.119 C  
HETATM   25  C   UNL     1     -10.077   7.084  66.898  1.00  0.00    -0.296 C  
HETATM   26  O   UNL     1      -9.097   5.706  68.593  1.00  0.00    -0.117 OA 
ENDROOT
BRANCH   4  27
HETATM   27  C   UNL     1     -12.224  13.573  65.029  1.00  0.00    -0.419 C  
HETATM   28  O   UNL     1     -13.133  12.722  64.986  1.00  0.00    -0.811 OA 
HETATM   29  C   UNL     1     -12.321  14.782  64.090  1.00  0.00    -0.259 C  
ENDBRANCH   4  27
TORSDOF 1
ENDMDL
MODEL       34
REMARK 921   NORMALIZED FREE ENERGY PREDICTED BY IDOCK:   -5.70 KCAL/MOL
REMARK 922        TOTAL FREE ENERGY PREDICTED BY IDOCK:   -5.45 KCAL/MOL
REMARK 923 INTER-LIGAND FREE ENERGY PREDICTED BY IDOCK:   -6.00 KCAL/MOL
REMARK 924 INTRA-LIGAND FREE ENERGY PREDICTED BY IDOCK:    0.55 KCAL/MOL
REMARK 927      BINDING AFFINITY PREDICTED BY RF-SCORE:    0.00 PKD
ROOT
HETATM    1  C   UNL     1      -8.510   8.554  67.481  1.00  0.00    -0.128 C  
HETATM    2  C   UNL     1      -7.514   9.014  68.380  1.00  0.00    -0.082 C  
HETATM    3  C   UNL     1      -7.729   7.548  68.424  1.00  0.00    -0.120 C  
HETATM    4  C   UNL     1      -8.989   6.784  67.000  1.00  0.00    -0.116 C  
HETATM    5  C   UNL     1      -7.656   6.831  67.086  1.00  0.00    -0.099 C  
HETATM    6  C   UNL     1     -10.448   7.025  72.171  1.00  0.00    -0.234 C  
HETATM    7  O   UNL     1      -9.304   7.486  65.716  1.00  0.00    -0.395 OA 
HETATM    8  C   UNL     1     -11.128   7.566  70.845  1.00  0.00    -0.279 C  
HETATM    9  C   UNL     1      -8.026   5.466  68.385  1.00  0.00    -0.088 C  
HETATM   10  C   UNL     1      -6.529   6.986  66.074  1.00  0.00    -0.051 C  
HETATM   11  C   UNL     1     -12.489   6.874  70.831  1.00  0.00    -0.314 C  
HETATM   12  H   UNL     1      -9.888   7.132  65.055  1.00  0.00     0.000 HD 
HETATM   13  C   UNL     1      -9.529   5.847  69.317  1.00  0.00    -0.128 C  
HETATM   14  O   UNL     1     -10.647   5.150  68.755  1.00  0.00    -0.114 OA 
HETATM   15  C   UNL     1      -9.991   7.437  69.726  1.00  0.00    -0.188 C  
HETATM   16  H   UNL     1     -11.436   5.349  69.245  1.00  0.00     0.000 HD 
HETATM   17  C   UNL     1     -10.062   8.416  68.427  1.00  0.00    -0.224 C  
HETATM   18  F   UNL     1      -8.970   8.016  70.497  1.00  0.00    -0.143 F  
HETATM   19  C   UNL     1     -10.512   9.837  68.814  1.00  0.00    -0.240 C  
HETATM   20  C   UNL     1     -11.745   9.849  69.728  1.00  0.00    -0.079 C  
HETATM   21  C   UNL     1     -11.461   9.076  71.019  1.00  0.00    -0.358 C  
HETATM   22  C   UNL     1     -12.160  11.309  69.989  1.00  0.00    -0.425 C  
HETATM   23  C   UNL     1     -12.092   9.439  72.159  1.00  0.00    -0.293 C  
HETATM   24  C   UNL     1     -13.438   8.757  72.184  1.00  0.00    -0.427 C  
HETATM   25  C   UNL     1     -13.542   7.421  71.488  1.00  0.00    -0.454 C  
HETATM   26  O   UNL     1     -14.381   9.241  72.797  1.00  0.00    -0.496 OA 
ENDROOT
BRANCH   4  27
HETATM   27  C   UNL     1      -9.248   5.365  66.241  1.00  0.00    -0.152 C  
HETATM   28  O   UNL     1     -10.442   5.064  66.059  1.00  0.00    -0.260 OA 
HETATM   29  C   UNL     1      -8.173   4.491  65.583  1.00  0.00    -0.110 C  
ENDBRANCH   4  27
TORSDOF 1
ENDMDL
MODEL       35
REMARK 921   NORMALIZED FREE ENERGY PREDICTED BY IDOCK:   -5.62 KCAL/MOL
REMARK 922        TOTAL FREE ENERGY PREDICTED BY IDOCK:   -5.36 KCAL/MOL
REMARK 923 INTER-LIGAND FREE ENERGY PREDICTED BY IDOCK:   -5.91 KCAL/MOL
REMARK 924 INTRA-LIGAND FREE ENERGY PREDICTED BY IDOCK:    0.55 KCAL/MOL
REMARK 927      BINDING AFFINITY PREDICTED BY RF-SCORE:    0.00 PKD
ROOT
HETATM    1  C   UNL     1      -9.479   8.350  67.789  1.00  0.00    -0.171 C  
HETATM    2  C   UNL     1     -10.646   7.965  67.080  1.00  0.00    -0.381 C  
HETATM    3  C   UNL     1      -9.516   8.361  66.206  1.00  0.00    -0.292 C  
HETATM    4  C   UNL     1      -7.732   8.714  67.149  1.00  0.00    -0.096 C  
HETATM    5  C   UNL     1      -8.195   7.658  66.474  1.00  0.00    -0.125 C  
HETATM    6  C   UNL     1     -10.612  12.737  65.041  1.00  0.00    -0.330 C  
HETATM    7  O   UNL     1      -7.394   8.171  68.503  1.00  0.00    -0.089 OA 
HETATM    8  C   UNL     1     -10.025  12.493  66.494  1.00  0.00    -0.252 C  
HETATM    9  C   UNL     1      -7.854   8.862  65.018  1.00  0.00    -0.112 C  
HETATM   10  C   UNL     1      -8.021   6.151  66.604  1.00  0.00    -0.105 C  
HETATM   11  C   UNL     1      -9.116  13.698  66.722  1.00  0.00    -0.230 C  
HETATM   12  H   UNL     1      -6.567   8.334  68.941  1.00  0.00     0.000 HD 
HETATM   13  C   UNL     1      -8.274  10.563  65.468  1.00  0.00    -0.162 C  
HETATM   14  O   UNL     1      -7.099  11.265  65.889  1.00  0.00    -0.369 OA 
HETATM   15  C   UNL     1      -9.576  10.957  66.496  1.00  0.00    -0.194 C  
HETATM   16  H   UNL     1      -7.319  12.159  66.125  1.00  0.00     0.000 HD 
HETATM   17  C   UNL     1      -9.506  10.168  67.918  1.00  0.00    -0.154 C  
HETATM   18  F   UNL     1     -10.762  10.464  65.925  1.00  0.00    -0.259 F  
HETATM   19  C   UNL     1     -10.673  10.562  68.842  1.00  0.00    -0.253 C  
HETATM   20  C   UNL     1     -10.884  12.080  68.929  1.00  0.00    -0.252 C  
HETATM   21  C   UNL     1     -11.163  12.662  67.542  1.00  0.00    -0.335 C  
HETATM   22  C   UNL     1     -12.013  12.371  69.935  1.00  0.00    -0.369 C  
HETATM   23  C   UNL     1     -11.942  13.762  67.431  1.00  0.00    -0.423 C  
HETATM   24  C   UNL     1     -11.067  14.974  67.635  1.00  0.00    -0.316 C  
HETATM   25  C   UNL     1      -9.621  14.854  67.217  1.00  0.00    -0.216 C  
HETATM   26  O   UNL     1     -11.532  16.025  68.061  1.00  0.00    -0.309 OA 
ENDROOT
BRANCH   4  27
HETATM   27  C   UNL     1      -6.142   8.697  66.791  1.00  0.00    -0.058 C  
HETATM   28  O   UNL     1      -5.470   9.620  67.287  1.00  0.00    -0.036 OA 
HETATM   29  C   UNL     1      -5.397   7.565  66.072  1.00  0.00    -0.025 C  
ENDBRANCH   4  27
TORSDOF 1
ENDMDL
MODEL       36
REMARK 921   NORMALIZED FREE ENERGY PREDICTED BY IDOCK:   -5.59 KCAL/MOL
REMARK 922        TOTAL FREE ENERGY PREDICTED BY IDOCK:   -5.33 KCAL/MOL
REMARK 923 INTER-LIGAND FREE ENERGY PREDICTED BY IDOCK:   -6.76 KCAL/MOL
REMARK 924 INTRA-LIGAND FREE ENERGY PREDICTED BY IDOCK:    1.43 KCAL/MOL
REMARK 927      BINDING AFFINITY PREDICTED BY RF-SCORE:    0.00 PKD
ROOT
HETATM    1  C   UNL     1     -11.086  12.863  67.832  1.00  0.00    -0.283 C  
HETATM    2  C   UNL     1      -9.856  13.216  68.444  1.00  0.00    -0.206 C  
HETATM    3  C   UNL     1      -9.708  12.659  67.078  1.00  0.00    -0.225 C  
HETATM    4  C   UNL     1     -11.449  12.336  66.048  1.00  0.00    -0.381 C  
HETATM    5  C   UNL     1     -10.550  13.324  66.000  1.00  0.00    -0.292 C  
HETATM    6  C   UNL     1      -8.507   8.234  67.903  1.00  0.00    -0.132 C  
HETATM    7  O   UNL     1     -12.739  13.024  66.373  1.00  0.00    -0.231 OA 
HETATM    8  C   UNL     1     -10.032   8.625  68.094  1.00  0.00    -0.210 C  
HETATM    9  C   UNL     1      -9.569  11.934  65.109  1.00  0.00    -0.132 C  
HETATM   10  C   UNL     1     -10.628  14.825  65.757  1.00  0.00    -0.338 C  
HETATM   11  C   UNL     1     -10.785   7.413  67.550  1.00  0.00    -0.310 C  
HETATM   12  H   UNL     1     -13.547  12.875  65.895  1.00  0.00     0.000 HD 
HETATM   13  C   UNL     1      -9.880  10.325  65.873  1.00  0.00    -0.237 C  
HETATM   14  O   UNL     1     -10.893   9.621  65.144  1.00  0.00     0.647 OA 
HETATM   15  C   UNL     1     -10.136  10.125  67.547  1.00  0.00    -0.201 C  
HETATM   16  H   UNL     1     -11.056   8.776  65.545  1.00  0.00     0.000 HD 
HETATM   17  C   UNL     1     -11.330  11.079  68.110  1.00  0.00    -0.374 C  
HETATM   18  F   UNL     1      -9.007  10.603  68.233  1.00  0.00    -0.126 F  
HETATM   19  C   UNL     1     -11.565  10.859  69.617  1.00  0.00    -0.394 C  
HETATM   20  C   UNL     1     -11.656   9.376  70.001  1.00  0.00    -0.046 C  
HETATM   21  C   UNL     1     -10.370   8.643  69.613  1.00  0.00    -0.213 C  
HETATM   22  C   UNL     1     -11.973   9.267  71.504  1.00  0.00    -0.439 C  
HETATM   23  C   UNL     1      -9.970   7.578  70.345  1.00  0.00    -0.184 C  
HETATM   24  C   UNL     1     -10.686   6.358  69.819  1.00  0.00    -0.283 C  
HETATM   25  C   UNL     1     -11.048   6.353  68.354  1.00  0.00    -0.374 C  
HETATM   26  O   UNL     1     -10.902   5.392  70.541  1.00  0.00    -0.239 OA 
ENDROOT
BRANCH   4  27
HETATM   27  C   UNL     1     -11.943  12.230  64.498  1.00  0.00    -0.383 C  
HETATM   28  O   UNL     1     -13.177  12.254  64.326  1.00  0.00    -0.785 OA 
HETATM   29  C   UNL     1     -11.038  12.294  63.262  1.00  0.00    -0.389 C  
ENDBRANCH   4  27
TORSDOF 1
ENDMDL
MODEL       37
REMARK 921   NORMALIZED FREE ENERGY PREDICTED BY IDOCK:   -5.45 KCAL/MOL
REMARK 922        TOTAL FREE ENERGY PREDICTED BY IDOCK:   -5.19 KCAL/MOL
REMARK 923 INTER-LIGAND FREE ENERGY PREDICTED BY IDOCK:   -5.75 KCAL/MOL
REMARK 924 INTRA-LIGAND FREE ENERGY PREDICTED BY IDOCK:    0.56 KCAL/MOL
REMARK 927      BINDING AFFINITY PREDICTED BY RF-SCORE:    0.00 PKD
ROOT
HETATM    1  C   UNL     1     -10.564   6.650  70.702  1.00  0.00    -0.268 C  
HETATM    2  C   UNL     1     -11.602   6.221  69.836  1.00  0.00    -0.361 C  
HETATM    3  C   UNL     1     -10.260   6.231  69.205  1.00  0.00    -0.236 C  
HETATM    4  C   UNL     1      -8.684   6.623  70.455  1.00  0.00    -0.151 C  
HETATM    5  C   UNL     1      -9.172   5.482  69.958  1.00  0.00    -0.172 C  
HETATM    6  C   UNL     1     -10.293  10.214  66.790  1.00  0.00    -0.285 C  
HETATM    7  O   UNL     1      -8.743   6.437  71.940  1.00  0.00    -0.134 OA 
HETATM    8  C   UNL     1     -10.082  10.313  68.358  1.00  0.00    -0.178 C  
HETATM    9  C   UNL     1      -8.322   6.192  68.390  1.00  0.00    -0.114 C  
HETATM   10  C   UNL     1      -9.299   4.059  70.485  1.00  0.00    -0.220 C  
HETATM   11  C   UNL     1      -9.043  11.422  68.511  1.00  0.00    -0.169 C  
HETATM   12  H   UNL     1      -8.013   6.618  72.519  1.00  0.00     0.000 HD 
HETATM   13  C   UNL     1      -8.521   7.987  68.299  1.00  0.00    -0.123 C  
HETATM   14  O   UNL     1      -7.357   8.639  68.821  1.00  0.00    -0.080 OA 
HETATM   15  C   UNL     1      -9.922   8.795  68.840  1.00  0.00    -0.192 C  
HETATM   16  H   UNL     1      -7.461   9.582  68.773  1.00  0.00     0.000 HD 
HETATM   17  C   UNL     1     -10.296   8.424  70.381  1.00  0.00    -0.219 C  
HETATM   18  F   UNL     1     -11.027   8.304  68.125  1.00  0.00    -0.173 F  
HETATM   19  C   UNL     1     -11.545   9.189  70.859  1.00  0.00    -0.350 C  
HETATM   20  C   UNL     1     -11.498  10.685  70.524  1.00  0.00    -0.407 C  
HETATM   21  C   UNL     1     -11.369  10.892  69.013  1.00  0.00    -0.348 C  
HETATM   22  C   UNL     1     -12.746  11.369  71.114  1.00  0.00    -0.479 C  
HETATM   23  C   UNL     1     -11.900  12.001  68.450  1.00  0.00    -0.360 C  
HETATM   24  C   UNL     1     -10.888  13.114  68.571  1.00  0.00    -0.262 C  
HETATM   25  C   UNL     1      -9.431  12.720  68.572  1.00  0.00    -0.094 C  
HETATM   26  O   UNL     1     -11.240  14.287  68.602  1.00  0.00    -0.240 OA 
ENDROOT
BRANCH   4  27
HETATM   27  C   UNL     1      -7.083   6.325  70.523  1.00  0.00    -0.069 C  
HETATM   28  O   UNL     1      -6.389   7.235  71.015  1.00  0.00    -0.036 OA 
HETATM   29  C   UNL     1      -6.406   4.984  70.216  1.00  0.00    -0.026 C  
ENDBRANCH   4  27
TORSDOF 1
ENDMDL
MODEL       38
REMARK 921   NORMALIZED FREE ENERGY PREDICTED BY IDOCK:   -5.44 KCAL/MOL
REMARK 922        TOTAL FREE ENERGY PREDICTED BY IDOCK:   -5.17 KCAL/MOL
REMARK 923 INTER-LIGAND FREE ENERGY PREDICTED BY IDOCK:   -5.73 KCAL/MOL
REMARK 924 INTRA-LIGAND FREE ENERGY PREDICTED BY IDOCK:    0.56 KCAL/MOL
REMARK 927      BINDING AFFINITY PREDICTED BY RF-SCORE:    0.00 PKD
ROOT
HETATM    1  C   UNL     1      -7.464  10.245  68.980  1.00  0.00    -0.097 C  
HETATM    2  C   UNL     1      -6.645   9.222  68.436  1.00  0.00    -0.058 C  
HETATM    3  C   UNL     1      -7.854   9.514  67.630  1.00  0.00    -0.102 C  
HETATM    4  C   UNL     1      -8.965  11.128  68.231  1.00  0.00    -0.166 C  
HETATM    5  C   UNL     1      -8.062  10.974  67.258  1.00  0.00    -0.126 C  
HETATM    6  C   UNL     1     -10.770   6.104  68.885  1.00  0.00    -0.376 C  
HETATM    7  O   UNL     1      -8.417  12.238  69.074  1.00  0.00    -0.345 OA 
HETATM    8  C   UNL     1     -10.573   7.307  69.899  1.00  0.00    -0.244 C  
HETATM    9  C   UNL     1      -9.545  10.028  66.490  1.00  0.00    -0.237 C  
HETATM   10  C   UNL     1      -7.003  11.874  66.635  1.00  0.00     0.084 C  
HETATM   11  C   UNL     1     -11.974   7.535  70.462  1.00  0.00    -0.088 C  
HETATM   12  H   UNL     1      -8.931  12.986  69.353  1.00  0.00     0.000 HD 
HETATM   13  C   UNL     1     -10.452   9.103  67.753  1.00  0.00    -0.247 C  
HETATM   14  O   UNL     1     -11.588   9.857  68.194  1.00  0.00    -0.596 OA 
HETATM   15  C   UNL     1      -9.692   8.374  69.094  1.00  0.00    -0.171 C  
HETATM   16  H   UNL     1     -12.064   9.371  68.857  1.00  0.00     0.000 HD 
HETATM   17  C   UNL     1      -8.780   9.425  69.939  1.00  0.00    -0.209 C  
HETATM   18  F   UNL     1      -8.746   7.448  68.624  1.00  0.00    -0.127 F  
HETATM   19  C   UNL     1      -8.129   8.753  71.162  1.00  0.00    -0.192 C  
HETATM   20  C   UNL     1      -9.118   7.916  71.985  1.00  0.00    -0.198 C  
HETATM   21  C   UNL     1      -9.739   6.818  71.118  1.00  0.00    -0.181 C  
HETATM   22  C   UNL     1      -8.392   7.357  73.223  1.00  0.00    -0.152 C  
HETATM   23  C   UNL     1     -10.119   5.655  71.696  1.00  0.00    -0.245 C  
HETATM   24  C   UNL     1     -11.511   5.844  72.249  1.00  0.00    -0.297 C  
HETATM   25  C   UNL     1     -12.408   6.822  71.530  1.00  0.00    -0.407 C  
HETATM   26  O   UNL     1     -11.908   5.181  73.200  1.00  0.00    -0.263 OA 
ENDROOT
BRANCH   4  27
HETATM   27  C   UNL     1     -10.011  12.194  67.580  1.00  0.00    -0.197 C  
HETATM   28  O   UNL     1     -10.951  12.543  68.319  1.00  0.00    -0.217 OA 
HETATM   29  C   UNL     1      -9.832  12.925  66.244  1.00  0.00    -0.273 C  
ENDBRANCH   4  27
TORSDOF 1
ENDMDL
MODEL       39
REMARK 921   NORMALIZED FREE ENERGY PREDICTED BY IDOCK:   -5.40 KCAL/MOL
REMARK 922        TOTAL FREE ENERGY PREDICTED BY IDOCK:   -5.13 KCAL/MOL
REMARK 923 INTER-LIGAND FREE ENERGY PREDICTED BY IDOCK:   -5.69 KCAL/MOL
REMARK 924 INTRA-LIGAND FREE ENERGY PREDICTED BY IDOCK:    0.55 KCAL/MOL
REMARK 927      BINDING AFFINITY PREDICTED BY RF-SCORE:    0.00 PKD
ROOT
HETATM    1  C   UNL     1     -10.384   8.546  72.268  1.00  0.00    -0.402 C  
HETATM    2  C   UNL     1     -11.751   8.194  72.130  1.00  0.00    -0.418 C  
HETATM    3  C   UNL     1     -10.814   7.075  71.868  1.00  0.00    -0.253 C  
HETATM    4  C   UNL     1      -8.839   7.446  72.266  1.00  0.00    -0.124 C  
HETATM    5  C   UNL     1      -9.787   6.806  72.957  1.00  0.00    -0.191 C  
HETATM    6  C   UNL     1     -10.622   6.968  67.215  1.00  0.00    -0.395 C  
HETATM    7  O   UNL     1      -8.374   8.529  73.190  1.00  0.00    -0.369 OA 
HETATM    8  C   UNL     1      -9.805   8.109  67.954  1.00  0.00    -0.206 C  
HETATM    9  C   UNL     1      -9.439   5.508  71.585  1.00  0.00    -0.176 C  
HETATM   10  C   UNL     1     -10.107   6.653  74.438  1.00  0.00    -0.343 C  
HETATM   11  C   UNL     1      -8.515   8.210  67.142  1.00  0.00    -0.124 C  
HETATM   12  H   UNL     1      -7.458   8.702  73.374  1.00  0.00     0.000 HD 
HETATM   13  C   UNL     1      -9.131   6.311  69.993  1.00  0.00    -0.148 C  
HETATM   14  O   UNL     1      -7.722   6.436  69.770  1.00  0.00    -0.103 OA 
HETATM   15  C   UNL     1      -9.918   7.744  69.508  1.00  0.00    -0.187 C  
HETATM   16  H   UNL     1      -7.559   6.857  68.934  1.00  0.00     0.000 HD 
HETATM   17  C   UNL     1      -9.760   8.940  70.601  1.00  0.00    -0.260 C  
HETATM   18  F   UNL     1     -11.303   7.512  69.497  1.00  0.00    -0.167 F  
HETATM   19  C   UNL     1     -10.451  10.233  70.128  1.00  0.00    -0.259 C  
HETATM   20  C   UNL     1     -10.106  10.603  68.679  1.00  0.00    -0.194 C  
HETATM   21  C   UNL     1     -10.514   9.475  67.728  1.00  0.00    -0.309 C  
HETATM   22  C   UNL     1     -10.776  11.945  68.333  1.00  0.00    -0.248 C  
HETATM   23  C   UNL     1     -10.876   9.779  66.461  1.00  0.00     0.053 C  
HETATM   24  C   UNL     1      -9.621   9.869  65.628  1.00  0.00    -0.256 C  
HETATM   25  C   UNL     1      -8.457   9.003  66.044  1.00  0.00    -0.138 C  
HETATM   26  O   UNL     1      -9.578  10.569  64.623  1.00  0.00    -0.238 OA 
ENDROOT
BRANCH   4  27
HETATM   27  C   UNL     1      -7.495   6.604  72.642  1.00  0.00    -0.092 C  
HETATM   28  O   UNL     1      -6.444   7.005  72.106  1.00  0.00    -0.051 OA 
HETATM   29  C   UNL     1      -7.390   5.515  73.716  1.00  0.00    -0.087 C  
ENDBRANCH   4  27
TORSDOF 1
ENDMDL
MODEL       40
REMARK 921   NORMALIZED FREE ENERGY PREDICTED BY IDOCK:   -5.38 KCAL/MOL
REMARK 922        TOTAL FREE ENERGY PREDICTED BY IDOCK:   -5.11 KCAL/MOL
REMARK 923 INTER-LIGAND FREE ENERGY PREDICTED BY IDOCK:   -6.50 KCAL/MOL
REMARK 924 INTRA-LIGAND FREE ENERGY PREDICTED BY IDOCK:    1.39 KCAL/MOL
REMARK 927      BINDING AFFINITY PREDICTED BY RF-SCORE:    0.00 PKD
ROOT
HETATM    1  C   UNL     1      -8.716  11.402  67.241  1.00  0.00    -0.148 C  
HETATM    2  C   UNL     1      -9.388  11.058  68.442  1.00  0.00    -0.179 C  
HETATM    3  C   UNL     1     -10.293  11.259  67.285  1.00  0.00    -0.236 C  
HETATM    4  C   UNL     1      -9.382  11.536  65.471  1.00  0.00    -0.185 C  
HETATM    5  C   UNL     1      -9.950  10.465  66.034  1.00  0.00    -0.301 C  
HETATM    6  C   UNL     1     -11.895  15.579  67.975  1.00  0.00    -0.088 C  
HETATM    7  O   UNL     1      -7.979  11.102  65.178  1.00  0.00    -0.355 OA 
HETATM    8  C   UNL     1     -10.422  15.428  67.406  1.00  0.00    -0.277 C  
HETATM    9  C   UNL     1     -11.518  11.480  65.590  1.00  0.00    -0.074 C  
HETATM   10  C   UNL     1      -9.668   8.969  66.001  1.00  0.00    -0.339 C  
HETATM   11  C   UNL     1     -10.313  16.559  66.387  1.00  0.00    -0.316 C  
HETATM   12  H   UNL     1      -7.556  11.231  64.338  1.00  0.00     0.000 HD 
HETATM   13  C   UNL     1     -11.243  13.249  65.847  1.00  0.00    -0.290 C  
HETATM   14  O   UNL     1     -10.889  13.878  64.610  1.00  0.00    -0.390 OA 
HETATM   15  C   UNL     1     -10.265  13.864  67.102  1.00  0.00    -0.258 C  
HETATM   16  H   UNL     1     -10.745  14.807  64.744  1.00  0.00     0.000 HD 
HETATM   17  C   UNL     1      -8.771  13.218  67.098  1.00  0.00    -0.215 C  
HETATM   18  F   UNL     1     -10.789  13.430  68.332  1.00  0.00    -0.237 F  
HETATM   19  C   UNL     1      -7.896  13.811  68.219  1.00  0.00    -0.144 C  
HETATM   20  C   UNL     1      -7.962  15.343  68.286  1.00  0.00    -0.128 C  
HETATM   21  C   UNL     1      -9.402  15.806  68.518  1.00  0.00    -0.198 C  
HETATM   22  C   UNL     1      -6.995  15.837  69.379  1.00  0.00    -0.202 C  
HETATM   23  C   UNL     1      -9.626  16.957  69.192  1.00  0.00    -0.158 C  
HETATM   24  C   UNL     1      -9.541  18.097  68.206  1.00  0.00    -0.317 C  
HETATM   25  C   UNL     1      -9.938  17.802  66.780  1.00  0.00    -0.333 C  
HETATM   26  O   UNL     1      -9.224  19.224  68.568  1.00  0.00    -0.353 OA 
ENDROOT
BRANCH   4  27
HETATM   27  C   UNL     1      -9.731  11.335  63.892  1.00  0.00    -0.277 C  
HETATM   28  O   UNL     1      -9.944  12.382  63.252  1.00  0.00    -0.392 OA 
HETATM   29  C   UNL     1      -9.632  10.017  63.113  1.00  0.00    -0.107 C  
ENDBRANCH   4  27
TORSDOF 1
ENDMDL
MODEL       41
REMARK 921   NORMALIZED FREE ENERGY PREDICTED BY IDOCK:   -5.36 KCAL/MOL
REMARK 922        TOTAL FREE ENERGY PREDICTED BY IDOCK:   -5.08 KCAL/MOL
REMARK 923 INTER-LIGAND FREE ENERGY PREDICTED BY IDOCK:   -5.64 KCAL/MOL
REMARK 924 INTRA-LIGAND FREE ENERGY PREDICTED BY IDOCK:    0.55 KCAL/MOL
REMARK 927      BINDING AFFINITY PREDICTED BY RF-SCORE:    0.00 PKD
ROOT
HETATM    1  C   UNL     1     -10.816  10.523  67.307  1.00  0.00    -0.338 C  
HETATM    2  C   UNL     1     -10.383  10.460  65.958  1.00  0.00    -0.262 C  
HETATM    3  C   UNL     1      -9.429   9.861  66.922  1.00  0.00    -0.202 C  
HETATM    4  C   UNL     1     -10.083   9.714  68.858  1.00  0.00    -0.187 C  
HETATM    5  C   UNL     1     -10.011   8.821  67.866  1.00  0.00    -0.231 C  
HETATM    6  C   UNL     1      -6.269  13.241  67.468  1.00  0.00    -0.114 C  
HETATM    7  O   UNL     1     -11.531   9.726  69.242  1.00  0.00    -0.441 OA 
HETATM    8  C   UNL     1      -7.658  13.411  68.216  1.00  0.00    -0.135 C  
HETATM    9  C   UNL     1      -8.152   8.959  68.329  1.00  0.00    -0.109 C  
HETATM   10  C   UNL     1     -10.862   7.634  67.437  1.00  0.00    -0.240 C  
HETATM   11  C   UNL     1      -7.268  14.017  69.562  1.00  0.00     0.095 C  
HETATM   12  H   UNL     1     -11.835   9.657  70.139  1.00  0.00     0.000 HD 
HETATM   13  C   UNL     1      -7.711  10.662  68.750  1.00  0.00    -0.117 C  
HETATM   14  O   UNL     1      -7.738  10.841  70.171  1.00  0.00    -0.399 OA 
HETATM   15  C   UNL     1      -8.412  12.018  67.989  1.00  0.00    -0.168 C  
HETATM   16  H   UNL     1      -7.505  11.735  70.392  1.00  0.00     0.000 HD 
HETATM   17  C   UNL     1     -10.038  11.994  68.052  1.00  0.00    -0.199 C  
HETATM   18  F   UNL     1      -8.152  11.941  66.610  1.00  0.00    -0.169 F  
HETATM   19  C   UNL     1     -10.648  13.242  67.387  1.00  0.00    -0.250 C  
HETATM   20  C   UNL     1      -9.981  14.549  67.837  1.00  0.00    -0.226 C  
HETATM   21  C   UNL     1      -8.485  14.525  67.513  1.00  0.00    -0.201 C  
HETATM   22  C   UNL     1     -10.713  15.736  67.182  1.00  0.00    -0.312 C  
HETATM   23  C   UNL     1      -7.849  15.688  67.245  1.00  0.00    -0.230 C  
HETATM   24  C   UNL     1      -7.435  16.305  68.559  1.00  0.00    -0.176 C  
HETATM   25  C   UNL     1      -7.133  15.359  69.696  1.00  0.00    -0.180 C  
HETATM   26  O   UNL     1      -7.292  17.517  68.671  1.00  0.00    -0.236 OA 
ENDROOT
BRANCH   4  27
HETATM   27  C   UNL     1      -9.783   8.806  70.178  1.00  0.00    -0.172 C  
HETATM   28  O   UNL     1      -9.779   9.420  71.261  1.00  0.00    -0.262 OA 
HETATM   29  C   UNL     1      -9.699   7.275  70.212  1.00  0.00    -0.175 C  
ENDBRANCH   4  27
TORSDOF 1
ENDMDL
MODEL       42
REMARK 921   NORMALIZED FREE ENERGY PREDICTED BY IDOCK:   -5.31 KCAL/MOL
REMARK 922        TOTAL FREE ENERGY PREDICTED BY IDOCK:   -5.03 KCAL/MOL
REMARK 923 INTER-LIGAND FREE ENERGY PREDICTED BY IDOCK:   -5.67 KCAL/MOL
REMARK 924 INTRA-LIGAND FREE ENERGY PREDICTED BY IDOCK:    0.64 KCAL/MOL
REMARK 927      BINDING AFFINITY PREDICTED BY RF-SCORE:    0.00 PKD
ROOT
HETATM    1  C   UNL     1     -11.582   8.419  71.749  1.00  0.00    -0.372 C  
HETATM    2  C   UNL     1     -12.636   7.897  70.955  1.00  0.00    -0.111 C  
HETATM    3  C   UNL     1     -11.282   7.575  70.442  1.00  0.00    -0.270 C  
HETATM    4  C   UNL     1      -9.715   8.102  71.652  1.00  0.00    -0.179 C  
HETATM    5  C   UNL     1     -10.333   6.935  71.442  1.00  0.00    -0.219 C  
HETATM    6  C   UNL     1     -10.695  10.726  67.061  1.00  0.00    -0.320 C  
HETATM    7  O   UNL     1      -9.853   8.336  73.125  1.00  0.00    -0.253 OA 
HETATM    8  C   UNL     1     -10.529  11.221  68.558  1.00  0.00    -0.218 C  
HETATM    9  C   UNL     1      -9.338   7.086  69.807  1.00  0.00    -0.146 C  
HETATM   10  C   UNL     1     -10.667   5.735  72.317  1.00  0.00    -0.282 C  
HETATM   11  C   UNL     1      -9.359  12.199  68.486  1.00  0.00    -0.108 C  
HETATM   12  H   UNL     1      -9.127   8.580  73.686  1.00  0.00     0.000 HD 
HETATM   13  C   UNL     1      -9.292   8.799  69.228  1.00  0.00    -0.149 C  
HETATM   14  O   UNL     1      -8.072   9.426  69.641  1.00  0.00    -0.100 OA 
HETATM   15  C   UNL     1     -10.592   9.885  69.435  1.00  0.00    -0.229 C  
HETATM   16  H   UNL     1      -8.047  10.325  69.337  1.00  0.00     0.000 HD 
HETATM   17  C   UNL     1     -11.068   9.994  70.989  1.00  0.00    -0.341 C  
HETATM   18  F   UNL     1     -11.726   9.352  68.799  1.00  0.00     0.174 F  
HETATM   19  C   UNL     1     -12.220  11.002  71.157  1.00  0.00    -0.415 C  
HETATM   20  C   UNL     1     -11.961  12.335  70.441  1.00  0.00    -0.349 C  
HETATM   21  C   UNL     1     -11.751  12.106  68.943  1.00  0.00    -0.381 C  
HETATM   22  C   UNL     1     -13.128  13.296  70.738  1.00  0.00     0.005 C  
HETATM   23  C   UNL     1     -12.108  13.075  68.070  1.00  0.00    -0.220 C  
HETATM   24  C   UNL     1     -10.961  14.050  67.963  1.00  0.00    -0.251 C  
HETATM   25  C   UNL     1      -9.571  13.501  68.172  1.00  0.00    -0.215 C  
HETATM   26  O   UNL     1     -11.154  15.221  67.656  1.00  0.00    -0.307 OA 
ENDROOT
BRANCH   4  27
HETATM   27  C   UNL     1      -8.172   7.646  71.910  1.00  0.00    -0.108 C  
HETATM   28  O   UNL     1      -7.426   8.524  72.383  1.00  0.00    -0.210 OA 
HETATM   29  C   UNL     1      -7.629   6.216  71.801  1.00  0.00    -0.096 C  
ENDBRANCH   4  27
TORSDOF 1
ENDMDL
MODEL       43
REMARK 921   NORMALIZED FREE ENERGY PREDICTED BY IDOCK:   -5.30 KCAL/MOL
REMARK 922        TOTAL FREE ENERGY PREDICTED BY IDOCK:   -5.02 KCAL/MOL
REMARK 923 INTER-LIGAND FREE ENERGY PREDICTED BY IDOCK:   -5.63 KCAL/MOL
REMARK 924 INTRA-LIGAND FREE ENERGY PREDICTED BY IDOCK:    0.61 KCAL/MOL
REMARK 927      BINDING AFFINITY PREDICTED BY RF-SCORE:    0.00 PKD
ROOT
HETATM    1  C   UNL     1     -10.674   8.575  71.237  1.00  0.00    -0.302 C  
HETATM    2  C   UNL     1     -11.754   7.924  70.588  1.00  0.00    -0.169 C  
HETATM    3  C   UNL     1     -10.426   7.595  70.018  1.00  0.00    -0.229 C  
HETATM    4  C   UNL     1      -8.805   8.319  71.040  1.00  0.00    -0.150 C  
HETATM    5  C   UNL     1      -9.382   7.114  71.012  1.00  0.00    -0.158 C  
HETATM    6  C   UNL     1     -10.217  10.343  66.262  1.00  0.00    -0.286 C  
HETATM    7  O   UNL     1      -8.853   8.720  72.482  1.00  0.00    -0.402 OA 
HETATM    8  C   UNL     1      -9.973  11.018  67.676  1.00  0.00    -0.196 C  
HETATM    9  C   UNL     1      -8.510   7.107  69.302  1.00  0.00    -0.133 C  
HETATM   10  C   UNL     1      -9.600   6.014  72.042  1.00  0.00    -0.167 C  
HETATM   11  C   UNL     1      -8.856  12.023  67.405  1.00  0.00    -0.178 C  
HETATM   12  H   UNL     1      -8.102   9.056  72.957  1.00  0.00     0.000 HD 
HETATM   13  C   UNL     1      -8.582   8.741  68.528  1.00  0.00    -0.134 C  
HETATM   14  O   UNL     1      -7.367   9.457  68.775  1.00  0.00    -0.073 OA 
HETATM   15  C   UNL     1      -9.913   9.793  68.703  1.00  0.00    -0.167 C  
HETATM   16  H   UNL     1      -7.404  10.315  68.368  1.00  0.00     0.000 HD 
HETATM   17  C   UNL     1     -10.286  10.067  70.264  1.00  0.00    -0.301 C  
HETATM   18  F   UNL     1     -11.062   9.147  68.217  1.00  0.00    -0.189 F  
HETATM   19  C   UNL     1     -11.469  11.044  70.399  1.00  0.00    -0.316 C  
HETATM   20  C   UNL     1     -11.322  12.292  69.518  1.00  0.00    -0.258 C  
HETATM   21  C   UNL     1     -11.204  11.895  68.044  1.00  0.00    -0.317 C  
HETATM   22  C   UNL     1     -12.508  13.237  69.787  1.00  0.00    -0.072 C  
HETATM   23  C   UNL     1     -11.664  12.740  67.094  1.00  0.00    -0.443 C  
HETATM   24  C   UNL     1     -10.574  13.739  66.791  1.00  0.00    -0.273 C  
HETATM   25  C   UNL     1      -9.149  13.270  66.960  1.00  0.00    -0.232 C  
HETATM   26  O   UNL     1     -10.841  14.857  66.367  1.00  0.00    -0.313 OA 
ENDROOT
BRANCH   4  27
HETATM   27  C   UNL     1      -7.229   7.956  71.235  1.00  0.00    -0.059 C  
HETATM   28  O   UNL     1      -6.446   8.924  71.194  1.00  0.00    -0.053 OA 
HETATM   29  C   UNL     1      -6.667   6.588  71.643  1.00  0.00    -0.062 C  
ENDBRANCH   4  27
TORSDOF 1
ENDMDL
MODEL       44
REMARK 921   NORMALIZED FREE ENERGY PREDICTED BY IDOCK:   -5.23 KCAL/MOL
REMARK 922        TOTAL FREE ENERGY PREDICTED BY IDOCK:   -4.96 KCAL/MOL
REMARK 923 INTER-LIGAND FREE ENERGY PREDICTED BY IDOCK:   -5.91 KCAL/MOL
REMARK 924 INTRA-LIGAND FREE ENERGY PREDICTED BY IDOCK:    0.96 KCAL/MOL
REMARK 927      BINDING AFFINITY PREDICTED BY RF-SCORE:    0.00 PKD
ROOT
HETATM    1  C   UNL     1      -9.084  14.593  67.958  1.00  0.00    -0.189 C  
HETATM    2  C   UNL     1      -8.934  14.865  66.574  1.00  0.00    -0.288 C  
HETATM    3  C   UNL     1     -10.297  14.423  66.954  1.00  0.00    -0.265 C  
HETATM    4  C   UNL     1     -10.649  14.228  68.963  1.00  0.00    -0.232 C  
HETATM    5  C   UNL     1     -10.948  15.195  68.091  1.00  0.00    -0.287 C  
HETATM    6  C   UNL     1     -10.280   9.918  65.767  1.00  0.00    -0.251 C  
HETATM    7  O   UNL     1      -9.831  14.914  70.014  1.00  0.00    -0.462 OA 
HETATM    8  C   UNL     1      -9.524  10.325  67.100  1.00  0.00    -0.184 C  
HETATM    9  C   UNL     1     -12.230  13.866  67.568  1.00  0.00    -0.266 C  
HETATM   10  C   UNL     1     -11.039  16.713  68.174  1.00  0.00    -0.285 C  
HETATM   11  C   UNL     1      -9.844   9.181  68.058  1.00  0.00    -0.197 C  
HETATM   12  H   UNL     1      -9.994  14.824  70.945  1.00  0.00     0.000 HD 
HETATM   13  C   UNL     1     -11.522  12.204  67.667  1.00  0.00    -0.331 C  
HETATM   14  O   UNL     1     -11.884  11.588  68.908  1.00  0.00    -0.310 OA 
HETATM   15  C   UNL     1      -9.887  11.869  67.316  1.00  0.00    -0.187 C  
HETATM   16  H   UNL     1     -11.513  10.715  68.960  1.00  0.00     0.000 HD 
HETATM   17  C   UNL     1      -8.864  12.797  68.178  1.00  0.00    -0.194 C  
HETATM   18  F   UNL     1      -9.624  12.261  65.992  1.00  0.00    -0.230 F  
HETATM   19  C   UNL     1      -7.395  12.455  67.868  1.00  0.00    -0.112 C  
HETATM   20  C   UNL     1      -7.110  10.947  67.892  1.00  0.00    -0.081 C  
HETATM   21  C   UNL     1      -7.988  10.222  66.869  1.00  0.00    -0.112 C  
HETATM   22  C   UNL     1      -5.606  10.718  67.653  1.00  0.00    -0.043 C  
HETATM   23  C   UNL     1      -7.529   9.090  66.289  1.00  0.00    -0.092 C  
HETATM   24  C   UNL     1      -7.846   7.934  67.207  1.00  0.00    -0.113 C  
HETATM   25  C   UNL     1      -9.077   8.062  68.071  1.00  0.00    -0.130 C  
HETATM   26  O   UNL     1      -7.165   6.916  67.199  1.00  0.00    -0.080 OA 
ENDROOT
BRANCH   4  27
HETATM   27  C   UNL     1     -11.918  14.265  69.985  1.00  0.00    -0.334 C  
HETATM   28  O   UNL     1     -12.095  13.232  70.658  1.00  0.00    -0.348 OA 
HETATM   29  C   UNL     1     -12.769  15.498  70.314  1.00  0.00    -0.310 C  
ENDBRANCH   4  27
TORSDOF 1
ENDMDL
MODEL       45
REMARK 921   NORMALIZED FREE ENERGY PREDICTED BY IDOCK:   -5.22 KCAL/MOL
REMARK 922        TOTAL FREE ENERGY PREDICTED BY IDOCK:   -4.94 KCAL/MOL
REMARK 923 INTER-LIGAND FREE ENERGY PREDICTED BY IDOCK:   -5.54 KCAL/MOL
REMARK 924 INTRA-LIGAND FREE ENERGY PREDICTED BY IDOCK:    0.59 KCAL/MOL
REMARK 927      BINDING AFFINITY PREDICTED BY RF-SCORE:    0.00 PKD
ROOT
HETATM    1  C   UNL     1     -11.755  12.641  68.227  1.00  0.00    -0.389 C  
HETATM    2  C   UNL     1     -11.799  12.272  69.596  1.00  0.00    -0.393 C  
HETATM    3  C   UNL     1     -10.738  13.256  69.274  1.00  0.00     0.004 C  
HETATM    4  C   UNL     1     -10.757  14.004  67.367  1.00  0.00    -0.283 C  
HETATM    5  C   UNL     1     -11.197  14.499  68.528  1.00  0.00    -0.285 C  
HETATM    6  C   UNL     1      -6.926  10.594  68.984  1.00  0.00    -0.080 C  
HETATM    7  O   UNL     1     -11.970  13.989  66.487  1.00  0.00    -0.401 OA 
HETATM    8  C   UNL     1      -7.934  10.564  67.760  1.00  0.00    -0.106 C  
HETATM    9  C   UNL     1      -9.303  14.709  68.769  1.00  0.00    -0.191 C  
HETATM   10  C   UNL     1     -12.373  15.376  68.935  1.00  0.00     0.006 C  
HETATM   11  C   UNL     1      -7.016  10.504  66.541  1.00  0.00    -0.115 C  
HETATM   12  H   UNL     1     -11.979  14.335  65.603  1.00  0.00     0.000 HD 
HETATM   13  C   UNL     1      -8.399  13.309  68.067  1.00  0.00    -0.162 C  
HETATM   14  O   UNL     1      -7.932  13.633  66.753  1.00  0.00    -0.373 OA 
HETATM   15  C   UNL     1      -8.999  11.712  68.084  1.00  0.00    -0.182 C  
HETATM   16  H   UNL     1      -7.457  12.898  66.384  1.00  0.00     0.000 HD 
HETATM   17  C   UNL     1     -10.487  11.602  67.432  1.00  0.00    -0.239 C  
HETATM   18  F   UNL     1      -9.215  11.329  69.419  1.00  0.00    -0.046 F  
HETATM   19  C   UNL     1     -10.996  10.148  67.429  1.00  0.00    -0.295 C  
HETATM   20  C   UNL     1      -9.957   9.149  66.900  1.00  0.00    -0.304 C  
HETATM   21  C   UNL     1      -8.685   9.201  67.748  1.00  0.00    -0.121 C  
HETATM   22  C   UNL     1     -10.589   7.745  66.861  1.00  0.00    -0.347 C  
HETATM   23  C   UNL     1      -7.934   8.084  67.883  1.00  0.00    -0.128 C  
HETATM   24  C   UNL     1      -7.002   8.004  66.699  1.00  0.00    -0.072 C  
HETATM   25  C   UNL     1      -6.562   9.311  66.083  1.00  0.00    -0.070 C  
HETATM   26  O   UNL     1      -6.575   6.927  66.301  1.00  0.00    -0.049 OA 
ENDROOT
BRANCH   4  27
HETATM   27  C   UNL     1     -10.253  15.339  66.578  1.00  0.00    -0.275 C  
HETATM   28  O   UNL     1      -9.941  15.170  65.385  1.00  0.00    -0.344 OA 
HETATM   29  C   UNL     1     -10.313  16.774  67.116  1.00  0.00    -0.297 C  
ENDBRANCH   4  27
TORSDOF 1
ENDMDL
MODEL       46
REMARK 921   NORMALIZED FREE ENERGY PREDICTED BY IDOCK:   -5.20 KCAL/MOL
REMARK 922        TOTAL FREE ENERGY PREDICTED BY IDOCK:   -4.91 KCAL/MOL
REMARK 923 INTER-LIGAND FREE ENERGY PREDICTED BY IDOCK:   -5.48 KCAL/MOL
REMARK 924 INTRA-LIGAND FREE ENERGY PREDICTED BY IDOCK:    0.56 KCAL/MOL
REMARK 927      BINDING AFFINITY PREDICTED BY RF-SCORE:    0.00 PKD
ROOT
HETATM    1  C   UNL     1      -8.151   8.060  66.810  1.00  0.00    -0.107 C  
HETATM    2  C   UNL     1      -7.082   8.586  67.580  1.00  0.00    -0.080 C  
HETATM    3  C   UNL     1      -7.277   7.125  67.743  1.00  0.00    -0.091 C  
HETATM    4  C   UNL     1      -8.653   6.259  66.496  1.00  0.00    -0.128 C  
HETATM    5  C   UNL     1      -7.318   6.318  66.455  1.00  0.00    -0.081 C  
HETATM    6  C   UNL     1      -9.636   6.847  71.751  1.00  0.00    -0.162 C  
HETATM    7  O   UNL     1      -9.091   6.870  65.201  1.00  0.00    -0.327 OA 
HETATM    8  C   UNL     1     -10.440   7.293  70.459  1.00  0.00    -0.229 C  
HETATM    9  C   UNL     1      -7.553   5.044  67.872  1.00  0.00    -0.083 C  
HETATM   10  C   UNL     1      -6.290   6.409  65.336  1.00  0.00    -0.038 C  
HETATM   11  C   UNL     1     -11.789   6.595  70.618  1.00  0.00    -0.443 C  
HETATM   12  H   UNL     1      -9.729   6.469  64.623  1.00  0.00     0.000 HD 
HETATM   13  C   UNL     1      -8.968   5.480  68.911  1.00  0.00    -0.114 C  
HETATM   14  O   UNL     1     -10.125   4.741  68.502  1.00  0.00    -0.130 OA 
HETATM   15  C   UNL     1      -9.409   7.092  69.252  1.00  0.00    -0.146 C  
HETATM   16  H   UNL     1     -10.869   4.970  69.048  1.00  0.00     0.000 HD 
HETATM   17  C   UNL     1      -9.609   7.980  67.901  1.00  0.00    -0.178 C  
HETATM   18  F   UNL     1      -8.327   7.728  69.885  1.00  0.00    -0.121 F  
HETATM   19  C   UNL     1     -10.037   9.422  68.231  1.00  0.00    -0.210 C  
HETATM   20  C   UNL     1     -11.181   9.491  69.252  1.00  0.00    -0.032 C  
HETATM   21  C   UNL     1     -10.772   8.809  70.560  1.00  0.00    -0.259 C  
HETATM   22  C   UNL     1     -11.587  10.963  69.449  1.00  0.00    -0.387 C  
HETATM   23  C   UNL     1     -11.300   9.247  71.726  1.00  0.00    -0.437 C  
HETATM   24  C   UNL     1     -12.631   8.561  71.920  1.00  0.00    -0.354 C  
HETATM   25  C   UNL     1     -12.784   7.180  71.330  1.00  0.00    -0.412 C  
HETATM   26  O   UNL     1     -13.519   9.082  72.584  1.00  0.00    -0.463 OA 
ENDROOT
BRANCH   4  27
HETATM   27  C   UNL     1      -8.964   4.791  65.861  1.00  0.00    -0.130 C  
HETATM   28  O   UNL     1     -10.170   4.509  65.727  1.00  0.00    -0.243 OA 
HETATM   29  C   UNL     1      -7.926   3.836  65.259  1.00  0.00    -0.093 C  
ENDBRANCH   4  27
TORSDOF 1
ENDMDL
MODEL       47
REMARK 921   NORMALIZED FREE ENERGY PREDICTED BY IDOCK:   -5.18 KCAL/MOL
REMARK 922        TOTAL FREE ENERGY PREDICTED BY IDOCK:   -4.90 KCAL/MOL
REMARK 923 INTER-LIGAND FREE ENERGY PREDICTED BY IDOCK:   -5.46 KCAL/MOL
REMARK 924 INTRA-LIGAND FREE ENERGY PREDICTED BY IDOCK:    0.57 KCAL/MOL
REMARK 927      BINDING AFFINITY PREDICTED BY RF-SCORE:    0.00 PKD
ROOT
HETATM    1  C   UNL     1      -6.743  10.434  66.688  1.00  0.00    -0.090 C  
HETATM    2  C   UNL     1      -6.752   9.793  67.954  1.00  0.00    -0.065 C  
HETATM    3  C   UNL     1      -7.768   9.269  67.009  1.00  0.00    -0.095 C  
HETATM    4  C   UNL     1      -7.668   9.989  65.094  1.00  0.00    -0.137 C  
HETATM    5  C   UNL     1      -7.245   8.848  65.645  1.00  0.00    -0.085 C  
HETATM    6  C   UNL     1     -11.661  11.416  68.403  1.00  0.00    -0.385 C  
HETATM    7  O   UNL     1      -6.433  10.597  64.505  1.00  0.00    -0.354 OA 
HETATM    8  C   UNL     1     -10.620  12.265  67.558  1.00  0.00    -0.242 C  
HETATM    9  C   UNL     1      -9.136   8.517  65.601  1.00  0.00    -0.189 C  
HETATM   10  C   UNL     1      -6.051   7.931  65.414  1.00  0.00    -0.038 C  
HETATM   11  C   UNL     1     -11.505  13.118  66.652  1.00  0.00    -0.389 C  
HETATM   12  H   UNL     1      -6.386  10.931  63.617  1.00  0.00     0.000 HD 
HETATM   13  C   UNL     1     -10.069  10.021  65.974  1.00  0.00    -0.248 C  
HETATM   14  O   UNL     1     -10.486  10.656  64.760  1.00  0.00    -0.325 OA 
HETATM   15  C   UNL     1      -9.525  11.201  67.080  1.00  0.00    -0.177 C  
HETATM   16  H   UNL     1     -10.976  11.446  64.956  1.00  0.00     0.000 HD 
HETATM   17  C   UNL     1      -8.024  11.730  66.735  1.00  0.00    -0.116 C  
HETATM   18  F   UNL     1      -9.361  10.594  68.337  1.00  0.00    -0.140 F  
HETATM   19  C   UNL     1      -7.567  12.816  67.727  1.00  0.00    -0.141 C  
HETATM   20  C   UNL     1      -8.623  13.905  67.955  1.00  0.00    -0.180 C  
HETATM   21  C   UNL     1      -9.917  13.290  68.493  1.00  0.00    -0.189 C  
HETATM   22  C   UNL     1      -8.040  14.980  68.892  1.00  0.00    -0.176 C  
HETATM   23  C   UNL     1     -10.710  14.026  69.306  1.00  0.00    -0.144 C  
HETATM   24  C   UNL     1     -11.610  14.871  68.438  1.00  0.00    -0.325 C  
HETATM   25  C   UNL     1     -11.986  14.308  67.088  1.00  0.00    -0.449 C  
HETATM   26  O   UNL     1     -12.063  15.934  68.844  1.00  0.00    -0.315 OA 
ENDROOT
BRANCH   4  27
HETATM   27  C   UNL     1      -8.103   9.521  63.595  1.00  0.00    -0.151 C  
HETATM   28  O   UNL     1      -8.466  10.435  62.831  1.00  0.00    -0.160 OA 
HETATM   29  C   UNL     1      -7.925   8.115  63.007  1.00  0.00    -0.154 C  
ENDBRANCH   4  27
TORSDOF 1
ENDMDL
MODEL       48
REMARK 921   NORMALIZED FREE ENERGY PREDICTED BY IDOCK:   -5.16 KCAL/MOL
REMARK 922        TOTAL FREE ENERGY PREDICTED BY IDOCK:   -4.88 KCAL/MOL
REMARK 923 INTER-LIGAND FREE ENERGY PREDICTED BY IDOCK:   -5.43 KCAL/MOL
REMARK 924 INTRA-LIGAND FREE ENERGY PREDICTED BY IDOCK:    0.56 KCAL/MOL
REMARK 927      BINDING AFFINITY PREDICTED BY RF-SCORE:    0.00 PKD
ROOT
HETATM    1  C   UNL     1     -10.749  11.083  66.500  1.00  0.00    -0.298 C  
HETATM    2  C   UNL     1      -9.639  10.919  65.632  1.00  0.00    -0.268 C  
HETATM    3  C   UNL     1      -9.265  11.115  67.054  1.00  0.00    -0.172 C  
HETATM    4  C   UNL     1     -10.814  11.134  68.394  1.00  0.00    -0.205 C  
HETATM    5  C   UNL     1      -9.941  10.184  68.048  1.00  0.00    -0.173 C  
HETATM    6  C   UNL     1      -8.111  15.626  67.196  1.00  0.00    -0.247 C  
HETATM    7  O   UNL     1     -12.155  10.527  68.114  1.00  0.00    -0.756 OA 
HETATM    8  C   UNL     1      -9.656  15.268  67.156  1.00  0.00    -0.223 C  
HETATM    9  C   UNL     1      -8.801  11.320  69.095  1.00  0.00     0.125 C  
HETATM   10  C   UNL     1     -10.013   8.669  67.913  1.00  0.00    -0.232 C  
HETATM   11  C   UNL     1     -10.286  16.289  68.100  1.00  0.00    -0.258 C  
HETATM   12  H   UNL     1     -12.873  10.536  68.736  1.00  0.00     0.000 HD 
HETATM   13  C   UNL     1      -9.193  13.065  68.822  1.00  0.00     0.160 C  
HETATM   14  O   UNL     1     -10.062  13.542  69.856  1.00  0.00     0.363 OA 
HETATM   15  C   UNL     1      -9.706  13.677  67.315  1.00  0.00    -0.243 C  
HETATM   16  H   UNL     1     -10.268  14.458  69.713  1.00  0.00     0.000 HD 
HETATM   17  C   UNL     1     -10.994  12.875  66.725  1.00  0.00    -0.300 C  
HETATM   18  F   UNL     1      -8.709  13.410  66.361  1.00  0.00    -0.133 F  
HETATM   19  C   UNL     1     -11.459  13.464  65.380  1.00  0.00    -0.322 C  
HETATM   20  C   UNL     1     -11.577  14.994  65.403  1.00  0.00    -0.229 C  
HETATM   21  C   UNL     1     -10.229  15.629  65.755  1.00  0.00    -0.391 C  
HETATM   22  C   UNL     1     -12.124  15.474  64.045  1.00  0.00     0.058 C  
HETATM   23  C   UNL     1      -9.926  16.852  65.263  1.00  0.00     0.367 C  
HETATM   24  C   UNL     1     -10.522  17.886  66.186  1.00  0.00    -0.321 C  
HETATM   25  C   UNL     1     -10.649  17.513  67.643  1.00  0.00    -0.355 C  
HETATM   26  O   UNL     1     -10.828  18.999  65.775  1.00  0.00    -0.404 OA 
ENDROOT
BRANCH   4  27
HETATM   27  C   UNL     1     -11.056  10.835  69.978  1.00  0.00    -0.255 C  
HETATM   28  O   UNL     1     -11.878  11.580  70.545  1.00  0.00    -0.346 OA 
HETATM   29  C   UNL     1     -10.514   9.630  70.756  1.00  0.00    -0.375 C  
ENDBRANCH   4  27
TORSDOF 1
ENDMDL
MODEL       49
REMARK 921   NORMALIZED FREE ENERGY PREDICTED BY IDOCK:   -5.11 KCAL/MOL
REMARK 922        TOTAL FREE ENERGY PREDICTED BY IDOCK:   -4.83 KCAL/MOL
REMARK 923 INTER-LIGAND FREE ENERGY PREDICTED BY IDOCK:   -5.38 KCAL/MOL
REMARK 924 INTRA-LIGAND FREE ENERGY PREDICTED BY IDOCK:    0.56 KCAL/MOL
REMARK 927      BINDING AFFINITY PREDICTED BY RF-SCORE:    0.00 PKD
ROOT
HETATM    1  C   UNL     1      -9.668   7.087  68.402  1.00  0.00    -0.139 C  
HETATM    2  C   UNL     1     -10.866   6.697  67.749  1.00  0.00    -0.372 C  
HETATM    3  C   UNL     1      -9.731   6.939  66.826  1.00  0.00    -0.232 C  
HETATM    4  C   UNL     1      -7.915   7.288  67.708  1.00  0.00    -0.115 C  
HETATM    5  C   UNL     1      -8.446   6.195  67.151  1.00  0.00    -0.104 C  
HETATM    6  C   UNL     1     -10.610  11.227  65.229  1.00  0.00    -0.323 C  
HETATM    7  O   UNL     1      -7.584   6.868  69.107  1.00  0.00    -0.093 OA 
HETATM    8  C   UNL     1     -10.013  11.100  66.693  1.00  0.00    -0.244 C  
HETATM    9  C   UNL     1      -8.064   7.223  65.575  1.00  0.00    -0.132 C  
HETATM   10  C   UNL     1      -8.351   4.702  67.434  1.00  0.00    -0.104 C  
HETATM   11  C   UNL     1      -9.036  12.270  66.785  1.00  0.00    -0.211 C  
HETATM   12  H   UNL     1      -6.743   7.029  69.517  1.00  0.00     0.000 HD 
HETATM   13  C   UNL     1      -8.385   8.981  65.851  1.00  0.00    -0.125 C  
HETATM   14  O   UNL     1      -7.167   9.658  66.185  1.00  0.00    -0.094 OA 
HETATM   15  C   UNL     1      -9.647   9.550  66.848  1.00  0.00    -0.165 C  
HETATM   16  H   UNL     1      -7.335  10.581  66.330  1.00  0.00     0.000 HD 
HETATM   17  C   UNL     1      -9.595   8.908  68.343  1.00  0.00    -0.157 C  
HETATM   18  F   UNL     1     -10.867   9.068  66.344  1.00  0.00    -0.189 F  
HETATM   19  C   UNL     1     -10.724   9.458  69.234  1.00  0.00    -0.228 C  
HETATM   20  C   UNL     1     -10.852  10.986  69.167  1.00  0.00    -0.283 C  
HETATM   21  C   UNL     1     -11.123  11.438  67.730  1.00  0.00    -0.323 C  
HETATM   22  C   UNL     1     -11.947  11.441  70.150  1.00  0.00    -0.460 C  
HETATM   23  C   UNL     1     -11.843  12.562  67.515  1.00  0.00    -0.389 C  
HETATM   24  C   UNL     1     -10.901  13.739  67.583  1.00  0.00    -0.254 C  
HETATM   25  C   UNL     1      -9.471  13.497  67.164  1.00  0.00    -0.244 C  
HETATM   26  O   UNL     1     -11.301  14.851  67.904  1.00  0.00    -0.302 OA 
ENDROOT
BRANCH   4  27
HETATM   27  C   UNL     1      -6.335   7.146  67.336  1.00  0.00    -0.050 C  
HETATM   28  O   UNL     1      -5.599   8.054  67.766  1.00  0.00    -0.035 OA 
HETATM   29  C   UNL     1      -5.673   5.926  66.684  1.00  0.00    -0.017 C  
ENDBRANCH   4  27
TORSDOF 1
ENDMDL
MODEL       50
REMARK 921   NORMALIZED FREE ENERGY PREDICTED BY IDOCK:   -5.08 KCAL/MOL
REMARK 922        TOTAL FREE ENERGY PREDICTED BY IDOCK:   -4.79 KCAL/MOL
REMARK 923 INTER-LIGAND FREE ENERGY PREDICTED BY IDOCK:   -5.35 KCAL/MOL
REMARK 924 INTRA-LIGAND FREE ENERGY PREDICTED BY IDOCK:    0.56 KCAL/MOL
REMARK 927      BINDING AFFINITY PREDICTED BY RF-SCORE:    0.00 PKD
ROOT
HETATM    1  C   UNL     1      -7.569   8.607  69.685  1.00  0.00    -0.080 C  
HETATM    2  C   UNL     1      -7.759   9.078  71.010  1.00  0.00    -0.153 C  
HETATM    3  C   UNL     1      -8.885   8.263  70.496  1.00  0.00    -0.148 C  
HETATM    4  C   UNL     1      -8.587   7.363  68.680  1.00  0.00    -0.129 C  
HETATM    5  C   UNL     1      -8.511   6.902  69.932  1.00  0.00    -0.140 C  
HETATM    6  C   UNL     1     -11.987  11.495  69.216  1.00  0.00    -0.397 C  
HETATM    7  O   UNL     1      -7.230   7.099  68.103  1.00  0.00    -0.088 OA 
HETATM    8  C   UNL     1     -10.748  11.251  68.257  1.00  0.00    -0.231 C  
HETATM    9  C   UNL     1     -10.417   7.035  69.739  1.00  0.00    -0.235 C  
HETATM   10  C   UNL     1      -7.634   5.877  70.638  1.00  0.00    -0.092 C  
HETATM   11  C   UNL     1     -11.350  11.361  66.858  1.00  0.00    -0.284 C  
HETATM   12  H   UNL     1      -7.091   6.682  67.261  1.00  0.00     0.000 HD 
HETATM   13  C   UNL     1     -10.873   8.503  68.786  1.00  0.00     0.043 C  
HETATM   14  O   UNL     1     -11.092   8.151  67.415  1.00  0.00    -0.470 OA 
HETATM   15  C   UNL     1     -10.008   9.971  68.870  1.00  0.00    -0.192 C  
HETATM   16  H   UNL     1     -11.332   8.922  66.914  1.00  0.00     0.000 HD 
HETATM   17  C   UNL     1      -8.420   9.774  68.573  1.00  0.00    -0.115 C  
HETATM   18  F   UNL     1     -10.023  10.424  70.200  1.00  0.00    -0.258 F  
HETATM   19  C   UNL     1      -7.665  11.115  68.623  1.00  0.00    -0.135 C  
HETATM   20  C   UNL     1      -8.360  12.226  67.825  1.00  0.00    -0.162 C  
HETATM   21  C   UNL     1      -9.776  12.462  68.358  1.00  0.00    -0.189 C  
HETATM   22  C   UNL     1      -7.489  13.495  67.870  1.00  0.00    -0.153 C  
HETATM   23  C   UNL     1     -10.319  13.697  68.266  1.00  0.00    -0.251 C  
HETATM   24  C   UNL     1     -10.939  13.831  66.896  1.00  0.00    -0.290 C  
HETATM   25  C   UNL     1     -11.465  12.570  66.255  1.00  0.00    -0.421 C  
HETATM   26  O   UNL     1     -11.063  14.928  66.364  1.00  0.00    -0.336 OA 
ENDROOT
BRANCH   4  27
HETATM   27  C   UNL     1      -9.142   6.071  67.857  1.00  0.00    -0.117 C  
HETATM   28  O   UNL     1      -9.288   6.237  66.631  1.00  0.00    -0.140 OA 
HETATM   29  C   UNL     1      -9.313   4.654  68.420  1.00  0.00    -0.186 C  
ENDBRANCH   4  27
TORSDOF 1
ENDMDL
MODEL       51
REMARK 921   NORMALIZED FREE ENERGY PREDICTED BY IDOCK:   -5.07 KCAL/MOL
REMARK 922        TOTAL FREE ENERGY PREDICTED BY IDOCK:   -4.78 KCAL/MOL
REMARK 923 INTER-LIGAND FREE ENERGY PREDICTED BY IDOCK:   -5.37 KCAL/MOL
REMARK 924 INTRA-LIGAND FREE ENERGY PREDICTED BY IDOCK:    0.59 KCAL/MOL
REMARK 927      BINDING AFFINITY PREDICTED BY RF-SCORE:    0.00 PKD
ROOT
HETATM    1  C   UNL     1      -8.030  10.058  67.958  1.00  0.00    -0.101 C  
HETATM    2  C   UNL     1      -7.292  10.671  69.002  1.00  0.00    -0.108 C  
HETATM    3  C   UNL     1      -7.115   9.201  68.926  1.00  0.00    -0.068 C  
HETATM    4  C   UNL     1      -7.970   8.277  67.310  1.00  0.00    -0.105 C  
HETATM    5  C   UNL     1      -6.714   8.655  67.565  1.00  0.00    -0.066 C  
HETATM    6  C   UNL     1      -9.976   7.653  72.261  1.00  0.00    -0.242 C  
HETATM    7  O   UNL     1      -8.323   8.992  66.043  1.00  0.00    -0.115 OA 
HETATM    8  C   UNL     1     -10.632   8.124  70.896  1.00  0.00    -0.236 C  
HETATM    9  C   UNL     1      -6.844   7.126  68.720  1.00  0.00    -0.076 C  
HETATM   10  C   UNL     1      -5.568   9.187  66.715  1.00  0.00    -0.040 C  
HETATM   11  C   UNL     1     -11.752   7.111  70.668  1.00  0.00    -0.348 C  
HETATM   12  H   UNL     1      -8.719   8.564  65.293  1.00  0.00     0.000 HD 
HETATM   13  C   UNL     1      -8.483   7.021  69.477  1.00  0.00    -0.134 C  
HETATM   14  O   UNL     1      -9.311   6.117  68.736  1.00  0.00    -0.124 OA 
HETATM   15  C   UNL     1      -9.390   8.394  69.923  1.00  0.00    -0.155 C  
HETATM   16  H   UNL     1     -10.172   6.061  69.134  1.00  0.00     0.000 HD 
HETATM   17  C   UNL     1      -9.581   9.440  68.690  1.00  0.00    -0.152 C  
HETATM   18  F   UNL     1      -8.645   9.141  70.852  1.00  0.00    -0.183 F  
HETATM   19  C   UNL     1     -10.429  10.656  69.106  1.00  0.00    -0.245 C  
HETATM   20  C   UNL     1     -11.710  10.267  69.856  1.00  0.00    -0.298 C  
HETATM   21  C   UNL     1     -11.369   9.475  71.121  1.00  0.00    -0.440 C  
HETATM   22  C   UNL     1     -12.522  11.542  70.153  1.00  0.00    -0.239 C  
HETATM   23  C   UNL     1     -12.190   9.557  72.193  1.00  0.00    -0.282 C  
HETATM   24  C   UNL     1     -13.302   8.554  72.005  1.00  0.00    -0.369 C  
HETATM   25  C   UNL     1     -12.975   7.307  71.220  1.00  0.00    -0.377 C  
HETATM   26  O   UNL     1     -14.399   8.722  72.524  1.00  0.00    -0.562 OA 
ENDROOT
BRANCH   4  27
HETATM   27  C   UNL     1      -7.762   6.917  66.437  1.00  0.00    -0.098 C  
HETATM   28  O   UNL     1      -8.797   6.437  65.937  1.00  0.00    -0.157 OA 
HETATM   29  C   UNL     1      -6.414   6.307  66.033  1.00  0.00    -0.046 C  
ENDBRANCH   4  27
TORSDOF 1
ENDMDL
MODEL       52
REMARK 921   NORMALIZED FREE ENERGY PREDICTED BY IDOCK:   -5.06 KCAL/MOL
REMARK 922        TOTAL FREE ENERGY PREDICTED BY IDOCK:   -4.77 KCAL/MOL
REMARK 923 INTER-LIGAND FREE ENERGY PREDICTED BY IDOCK:   -5.32 KCAL/MOL
REMARK 924 INTRA-LIGAND FREE ENERGY PREDICTED BY IDOCK:    0.55 KCAL/MOL
REMARK 927      BINDING AFFINITY PREDICTED BY RF-SCORE:    0.00 PKD
ROOT
HETATM    1  C   UNL     1      -9.314  18.394  68.946  1.00  0.00    -0.228 C  
HETATM    2  C   UNL     1      -8.111  17.924  69.536  1.00  0.00     0.618 C  
HETATM    3  C   UNL     1      -8.076  17.968  68.054  1.00  0.00    -0.259 C  
HETATM    4  C   UNL     1      -9.689  18.843  67.143  1.00  0.00    -0.303 C  
HETATM    5  C   UNL     1      -8.463  19.296  67.424  1.00  0.00    -0.318 C  
HETATM    6  C   UNL     1      -8.885  13.532  66.882  1.00  0.00    -0.194 C  
HETATM    7  O   UNL     1     -10.607  19.802  67.836  1.00  0.00    -0.416 OA 
HETATM    8  C   UNL     1     -10.125  14.401  67.353  1.00  0.00    -0.243 C  
HETATM    9  C   UNL     1      -8.060  18.124  65.957  1.00  0.00    -0.118 C  
HETATM   10  C   UNL     1      -7.894  20.650  67.825  1.00  0.00    -0.161 C  
HETATM   11  C   UNL     1     -11.254  13.946  66.431  1.00  0.00    -0.319 C  
HETATM   12  H   UNL     1     -11.355  20.209  67.414  1.00  0.00     0.000 HD 
HETATM   13  C   UNL     1      -9.077  16.630  66.019  1.00  0.00    -0.224 C  
HETATM   14  O   UNL     1     -10.214  16.772  65.160  1.00  0.00    -0.599 OA 
HETATM   15  C   UNL     1      -9.551  15.889  67.480  1.00  0.00    -0.221 C  
HETATM   16  H   UNL     1     -10.748  15.987  65.192  1.00  0.00     0.000 HD 
HETATM   17  C   UNL     1     -10.295  16.927  68.490  1.00  0.00    -0.336 C  
HETATM   18  F   UNL     1      -8.396  15.532  68.197  1.00  0.00    -0.139 F  
HETATM   19  C   UNL     1     -10.742  16.230  69.788  1.00  0.00    -0.345 C  
HETATM   20  C   UNL     1     -11.471  14.903  69.538  1.00  0.00    -0.325 C  
HETATM   21  C   UNL     1     -10.569  13.935  68.769  1.00  0.00    -0.258 C  
HETATM   22  C   UNL     1     -11.946  14.331  70.887  1.00  0.00    -0.389 C  
HETATM   23  C   UNL     1     -10.714  12.604  68.961  1.00  0.00    -0.135 C  
HETATM   24  C   UNL     1     -11.815  12.119  68.049  1.00  0.00    -0.285 C  
HETATM   25  C   UNL     1     -12.005  12.863  66.749  1.00  0.00    -0.418 C  
HETATM   26  O   UNL     1     -12.476  11.127  68.328  1.00  0.00    -0.300 OA 
ENDROOT
BRANCH   4  27
HETATM   27  C   UNL     1     -10.033  19.593  65.738  1.00  0.00    -0.225 C  
HETATM   28  O   UNL     1     -11.146  19.327  65.246  1.00  0.00    -0.397 OA 
HETATM   29  C   UNL     1      -9.204  20.710  65.091  1.00  0.00     1.215 C  
ENDBRANCH   4  27
TORSDOF 1
ENDMDL
MODEL       53
REMARK 921   NORMALIZED FREE ENERGY PREDICTED BY IDOCK:   -5.01 KCAL/MOL
REMARK 922        TOTAL FREE ENERGY PREDICTED BY IDOCK:   -4.72 KCAL/MOL
REMARK 923 INTER-LIGAND FREE ENERGY PREDICTED BY IDOCK:   -5.31 KCAL/MOL
REMARK 924 INTRA-LIGAND FREE ENERGY PREDICTED BY IDOCK:    0.59 KCAL/MOL
REMARK 927      BINDING AFFINITY PREDICTED BY RF-SCORE:    0.00 PKD
ROOT
HETATM    1  C   UNL     1     -10.336   6.119  69.904  1.00  0.00    -0.272 C  
HETATM    2  C   UNL     1      -9.191   5.400  70.335  1.00  0.00    -0.190 C  
HETATM    3  C   UNL     1      -9.384   6.693  71.033  1.00  0.00    -0.161 C  
HETATM    4  C   UNL     1     -11.132   7.681  70.626  1.00  0.00    -0.257 C  
HETATM    5  C   UNL     1     -10.755   6.911  71.651  1.00  0.00    -0.246 C  
HETATM    6  C   UNL     1      -6.412   9.508  68.809  1.00  0.00    -0.047 C  
HETATM    7  O   UNL     1     -12.353   7.005  70.083  1.00  0.00    -0.618 OA 
HETATM    8  C   UNL     1      -7.773   9.157  68.075  1.00  0.00    -0.092 C  
HETATM    9  C   UNL     1      -9.753   8.501  72.042  1.00  0.00    -0.377 C  
HETATM   10  C   UNL     1     -11.471   5.917  72.557  1.00  0.00    -0.347 C  
HETATM   11  C   UNL     1      -8.169  10.471  67.405  1.00  0.00    -0.118 C  
HETATM   12  H   UNL     1     -13.164   7.463  69.895  1.00  0.00     0.000 HD 
HETATM   13  C   UNL     1      -9.126   9.264  70.526  1.00  0.00    -0.259 C  
HETATM   14  O   UNL     1     -10.002  10.317  70.106  1.00  0.00    -0.418 OA 
HETATM   15  C   UNL     1      -8.627   8.359  69.169  1.00  0.00    -0.134 C  
HETATM   16  H   UNL     1      -9.673  10.718  69.310  1.00  0.00     0.000 HD 
HETATM   17  C   UNL     1      -9.774   7.323  68.657  1.00  0.00    -0.146 C  
HETATM   18  F   UNL     1      -7.585   7.502  69.561  1.00  0.00    -0.085 F  
HETATM   19  C   UNL     1      -9.314   6.541  67.413  1.00  0.00    -0.125 C  
HETATM   20  C   UNL     1      -8.694   7.438  66.333  1.00  0.00    -0.154 C  
HETATM   21  C   UNL     1      -7.483   8.189  66.893  1.00  0.00    -0.091 C  
HETATM   22  C   UNL     1      -8.345   6.576  65.106  1.00  0.00    -0.101 C  
HETATM   23  C   UNL     1      -6.469   8.520  66.061  1.00  0.00    -0.053 C  
HETATM   24  C   UNL     1      -6.824   9.827  65.393  1.00  0.00    -0.101 C  
HETATM   25  C   UNL     1      -7.691  10.784  66.175  1.00  0.00    -0.149 C  
HETATM   26  O   UNL     1      -6.371  10.117  64.292  1.00  0.00    -0.127 OA 
ENDROOT
BRANCH   4  27
HETATM   27  C   UNL     1     -12.105   8.775  71.341  1.00  0.00    -0.307 C  
HETATM   28  O   UNL     1     -12.536   9.677  70.598  1.00  0.00    -0.212 OA 
HETATM   29  C   UNL     1     -12.669   8.680  72.764  1.00  0.00    -0.129 C  
ENDBRANCH   4  27
TORSDOF 1
ENDMDL
MODEL       54
REMARK 921   NORMALIZED FREE ENERGY PREDICTED BY IDOCK:   -4.98 KCAL/MOL
REMARK 922        TOTAL FREE ENERGY PREDICTED BY IDOCK:   -4.69 KCAL/MOL
REMARK 923 INTER-LIGAND FREE ENERGY PREDICTED BY IDOCK:   -5.25 KCAL/MOL
REMARK 924 INTRA-LIGAND FREE ENERGY PREDICTED BY IDOCK:    0.56 KCAL/MOL
REMARK 927      BINDING AFFINITY PREDICTED BY RF-SCORE:    0.00 PKD
ROOT
HETATM    1  C   UNL     1      -9.123  16.820  69.190  1.00  0.00    -0.120 C  
HETATM    2  C   UNL     1      -7.983  15.977  69.253  1.00  0.00    -0.217 C  
HETATM    3  C   UNL     1      -7.981  16.906  68.097  1.00  0.00    -0.195 C  
HETATM    4  C   UNL     1      -9.478  18.303  68.064  1.00  0.00    -0.290 C  
HETATM    5  C   UNL     1      -8.195  18.373  68.429  1.00  0.00    -0.331 C  
HETATM    6  C   UNL     1      -9.431  14.190  64.600  1.00  0.00     1.400 C  
HETATM    7  O   UNL     1     -10.235  18.729  69.285  1.00  0.00    -0.489 OA 
HETATM    8  C   UNL     1     -10.525  14.709  65.624  1.00  0.00    -0.358 C  
HETATM    9  C   UNL     1      -7.996  18.298  66.521  1.00  0.00    -0.294 C  
HETATM   10  C   UNL     1      -7.432  19.146  69.497  1.00  0.00    -0.015 C  
HETATM   11  C   UNL     1     -11.729  15.017  64.737  1.00  0.00    -0.370 C  
HETATM   12  H   UNL     1     -10.930  19.376  69.270  1.00  0.00     0.000 HD 
HETATM   13  C   UNL     1      -9.210  17.177  65.784  1.00  0.00     0.143 C  
HETATM   14  O   UNL     1     -10.338  17.919  65.306  1.00  0.00    -0.470 OA 
HETATM   15  C   UNL     1      -9.745  15.752  66.554  1.00  0.00    -0.265 C  
HETATM   16  H   UNL     1     -10.975  17.330  64.918  1.00  0.00     0.000 HD 
HETATM   17  C   UNL     1     -10.311  16.032  68.054  1.00  0.00    -0.266 C  
HETATM   18  F   UNL     1      -8.633  14.926  66.789  1.00  0.00    -0.234 F  
HETATM   19  C   UNL     1     -10.818  14.738  68.718  1.00  0.00    -0.259 C  
HETATM   20  C   UNL     1     -11.731  13.911  67.802  1.00  0.00    -0.401 C  
HETATM   21  C   UNL     1     -10.993  13.525  66.518  1.00  0.00    -0.295 C  
HETATM   22  C   UNL     1     -12.246  12.687  68.583  1.00  0.00     0.031 C  
HETATM   23  C   UNL     1     -11.317  12.372  65.891  1.00  0.00    -0.399 C  
HETATM   24  C   UNL     1     -12.497  12.647  64.991  1.00  0.00    -0.487 C  
HETATM   25  C   UNL     1     -12.616  14.040  64.422  1.00  0.00    -0.204 C  
HETATM   26  O   UNL     1     -13.284  11.757  64.690  1.00  0.00    -0.066 OA 
ENDROOT
BRANCH   4  27
HETATM   27  C   UNL     1      -9.750  19.780  67.431  1.00  0.00    -0.373 C  
HETATM   28  O   UNL     1     -10.921  20.000  67.068  1.00  0.00    -0.292 OA 
HETATM   29  C   UNL     1      -8.757  20.949  67.422  1.00  0.00    -0.134 C  
ENDBRANCH   4  27
TORSDOF 1
ENDMDL
MODEL       55
REMARK 921   NORMALIZED FREE ENERGY PREDICTED BY IDOCK:   -4.86 KCAL/MOL
REMARK 922        TOTAL FREE ENERGY PREDICTED BY IDOCK:   -4.56 KCAL/MOL
REMARK 923 INTER-LIGAND FREE ENERGY PREDICTED BY IDOCK:   -5.11 KCAL/MOL
REMARK 924 INTRA-LIGAND FREE ENERGY PREDICTED BY IDOCK:    0.55 KCAL/MOL
REMARK 927      BINDING AFFINITY PREDICTED BY RF-SCORE:    0.00 PKD
ROOT
HETATM    1  C   UNL     1      -7.610   7.492  68.596  1.00  0.00    -0.110 C  
HETATM    2  C   UNL     1      -6.775   8.022  69.613  1.00  0.00    -0.038 C  
HETATM    3  C   UNL     1      -7.102   6.588  69.793  1.00  0.00    -0.072 C  
HETATM    4  C   UNL     1      -8.116   5.697  68.252  1.00  0.00    -0.103 C  
HETATM    5  C   UNL     1      -6.825   5.692  68.597  1.00  0.00    -0.059 C  
HETATM    6  C   UNL     1     -10.525   6.709  72.952  1.00  0.00    -0.254 C  
HETATM    7  O   UNL     1      -8.124   6.232  66.853  1.00  0.00    -0.107 OA 
HETATM    8  C   UNL     1     -10.894   7.096  71.459  1.00  0.00    -0.250 C  
HETATM    9  C   UNL     1      -7.538   4.536  69.954  1.00  0.00    -0.054 C  
HETATM   10  C   UNL     1      -5.515   5.655  67.821  1.00  0.00    -0.011 C  
HETATM   11  C   UNL     1     -12.274   6.474  71.259  1.00  0.00    -0.287 C  
HETATM   12  H   UNL     1      -8.594   5.820  66.138  1.00  0.00     0.000 HD 
HETATM   13  C   UNL     1      -9.161   5.111  70.510  1.00  0.00    -0.139 C  
HETATM   14  O   UNL     1     -10.197   4.398  69.825  1.00  0.00    -0.151 OA 
HETATM   15  C   UNL     1      -9.575   6.762  70.617  1.00  0.00    -0.169 C  
HETATM   16  H   UNL     1     -11.049   4.699  70.118  1.00  0.00     0.000 HD 
HETATM   17  C   UNL     1      -9.322   7.557  69.219  1.00  0.00    -0.151 C  
HETATM   18  F   UNL     1      -8.682   7.391  71.500  1.00  0.00    -0.116 F  
HETATM   19  C   UNL     1      -9.732   9.038  69.329  1.00  0.00    -0.168 C  
HETATM   20  C   UNL     1     -11.114   9.232  69.968  1.00  0.00    -0.228 C  
HETATM   21  C   UNL     1     -11.142   8.629  71.375  1.00  0.00    -0.343 C  
HETATM   22  C   UNL     1     -11.464  10.732  69.956  1.00  0.00    -0.412 C  
HETATM   23  C   UNL     1     -11.953   9.174  72.310  1.00  0.00    -0.277 C  
HETATM   24  C   UNL     1     -13.325   8.566  72.148  1.00  0.00    -0.351 C  
HETATM   25  C   UNL     1     -13.391   7.154  71.617  1.00  0.00    -0.397 C  
HETATM   26  O   UNL     1     -14.331   9.173  72.495  1.00  0.00    -0.529 OA 
ENDROOT
BRANCH   4  27
HETATM   27  C   UNL     1      -8.326   4.202  67.637  1.00  0.00    -0.098 C  
HETATM   28  O   UNL     1      -9.475   3.948  67.228  1.00  0.00    -0.179 OA 
HETATM   29  C   UNL     1      -7.215   3.184  67.355  1.00  0.00    -0.058 C  
ENDBRANCH   4  27
TORSDOF 1
ENDMDL
MODEL       56
REMARK 921   NORMALIZED FREE ENERGY PREDICTED BY IDOCK:   -4.85 KCAL/MOL
REMARK 922        TOTAL FREE ENERGY PREDICTED BY IDOCK:   -4.55 KCAL/MOL
REMARK 923 INTER-LIGAND FREE ENERGY PREDICTED BY IDOCK:   -5.11 KCAL/MOL
REMARK 924 INTRA-LIGAND FREE ENERGY PREDICTED BY IDOCK:    0.57 KCAL/MOL
REMARK 927      BINDING AFFINITY PREDICTED BY RF-SCORE:    0.00 PKD
ROOT
HETATM    1  C   UNL     1     -10.613   9.727  68.052  1.00  0.00    -0.291 C  
HETATM    2  C   UNL     1     -10.638  10.918  68.823  1.00  0.00    -0.231 C  
HETATM    3  C   UNL     1      -9.272  10.410  68.548  1.00  0.00    -0.145 C  
HETATM    4  C   UNL     1      -9.147   8.824  67.258  1.00  0.00    -0.132 C  
HETATM    5  C   UNL     1      -8.952  10.135  67.088  1.00  0.00    -0.146 C  
HETATM    6  C   UNL     1      -8.180   8.222  72.514  1.00  0.00    -0.224 C  
HETATM    7  O   UNL     1     -10.219   8.478  66.271  1.00  0.00    -0.424 OA 
HETATM    8  C   UNL     1      -9.170   7.482  71.520  1.00  0.00    -0.149 C  
HETATM    9  C   UNL     1      -7.360   9.683  68.062  1.00  0.00    -0.082 C  
HETATM   10  C   UNL     1      -9.196  11.109  65.943  1.00  0.00    -0.225 C  
HETATM   11  C   UNL     1      -8.740   6.020  71.606  1.00  0.00    -0.135 C  
HETATM   12  H   UNL     1     -10.162   7.742  65.672  1.00  0.00     0.000 HD 
HETATM   13  C   UNL     1      -7.705   8.446  69.335  1.00  0.00    -0.097 C  
HETATM   14  O   UNL     1      -7.383   7.137  68.851  1.00  0.00    -0.088 OA 
HETATM   15  C   UNL     1      -9.173   8.390  70.202  1.00  0.00    -0.159 C  
HETATM   16  H   UNL     1      -7.564   6.487  69.520  1.00  0.00     0.000 HD 
HETATM   17  C   UNL     1     -10.472   8.336  69.221  1.00  0.00    -0.218 C  
HETATM   18  F   UNL     1      -9.342   9.612  70.875  1.00  0.00    -0.297 F  
HETATM   19  C   UNL     1     -11.783   8.254  70.025  1.00  0.00     0.311 C  
HETATM   20  C   UNL     1     -11.742   7.199  71.138  1.00  0.00    -0.350 C  
HETATM   21  C   UNL     1     -10.606   7.501  72.119  1.00  0.00    -0.262 C  
HETATM   22  C   UNL     1     -13.120   7.139  71.823  1.00  0.00    -0.363 C  
HETATM   23  C   UNL     1     -10.737   7.134  73.414  1.00  0.00    -0.410 C  
HETATM   24  C   UNL     1     -10.302   5.693  73.536  1.00  0.00    -0.233 C  
HETATM   25  C   UNL     1      -9.246   5.212  72.570  1.00  0.00    -0.145 C  
HETATM   26  O   UNL     1     -10.744   4.973  74.422  1.00  0.00    -0.328 OA 
ENDROOT
BRANCH   4  27
HETATM   27  C   UNL     1      -8.056   8.167  66.241  1.00  0.00    -0.107 C  
HETATM   28  O   UNL     1      -8.093   6.926  66.143  1.00  0.00    -0.105 OA 
HETATM   29  C   UNL     1      -7.145   8.941  65.281  1.00  0.00    -0.080 C  
ENDBRANCH   4  27
TORSDOF 1
ENDMDL
MODEL       57
REMARK 921   NORMALIZED FREE ENERGY PREDICTED BY IDOCK:   -4.75 KCAL/MOL
REMARK 922        TOTAL FREE ENERGY PREDICTED BY IDOCK:   -4.44 KCAL/MOL
REMARK 923 INTER-LIGAND FREE ENERGY PREDICTED BY IDOCK:   -5.90 KCAL/MOL
REMARK 924 INTRA-LIGAND FREE ENERGY PREDICTED BY IDOCK:    1.46 KCAL/MOL
REMARK 927      BINDING AFFINITY PREDICTED BY RF-SCORE:    0.00 PKD
ROOT
HETATM    1  C   UNL     1     -11.880  12.911  67.723  1.00  0.00    -0.391 C  
HETATM    2  C   UNL     1     -11.519  13.758  68.802  1.00  0.00    -0.338 C  
HETATM    3  C   UNL     1     -10.528  13.735  67.700  1.00  0.00    -0.242 C  
HETATM    4  C   UNL     1     -11.083  12.712  66.015  1.00  0.00    -0.287 C  
HETATM    5  C   UNL     1     -11.079  14.015  66.311  1.00  0.00    -0.307 C  
HETATM    6  C   UNL     1      -7.282  10.804  69.306  1.00  0.00    -0.122 C  
HETATM    7  O   UNL     1     -12.509  12.416  65.662  1.00  0.00    -0.640 OA 
HETATM    8  C   UNL     1      -8.626  10.172  68.749  1.00  0.00    -0.133 C  
HETATM    9  C   UNL     1      -9.197  13.720  66.072  1.00  0.00     0.059 C  
HETATM   10  C   UNL     1     -11.974  15.193  65.949  1.00  0.00     0.181 C  
HETATM   11  C   UNL     1      -8.156   8.920  68.013  1.00  0.00    -0.106 C  
HETATM   12  H   UNL     1     -12.767  11.942  64.881  1.00  0.00     0.000 HD 
HETATM   13  C   UNL     1      -8.703  12.107  66.725  1.00  0.00    -0.183 C  
HETATM   14  O   UNL     1      -8.652  11.142  65.668  1.00  0.00    -0.279 OA 
HETATM   15  C   UNL     1      -9.417  11.406  68.107  1.00  0.00    -0.181 C  
HETATM   16  H   UNL     1      -8.392  10.295  66.011  1.00  0.00     0.000 HD 
HETATM   17  C   UNL     1     -11.038  11.316  67.990  1.00  0.00    -0.325 C  
HETATM   18  F   UNL     1      -9.231  12.274  69.196  1.00  0.00     0.090 F  
HETATM   19  C   UNL     1     -11.658  10.652  69.233  1.00  0.00    -0.346 C  
HETATM   20  C   UNL     1     -10.945   9.356  69.641  1.00  0.00    -0.216 C  
HETATM   21  C   UNL     1      -9.469   9.630  69.940  1.00  0.00    -0.260 C  
HETATM   22  C   UNL     1     -11.688   8.731  70.837  1.00  0.00    -0.299 C  
HETATM   23  C   UNL     1      -8.825   8.863  70.849  1.00  0.00    -0.268 C  
HETATM   24  C   UNL     1      -8.333   7.621  70.146  1.00  0.00    -0.130 C  
HETATM   25  C   UNL     1      -7.989   7.753  68.682  1.00  0.00    -0.122 C  
HETATM   26  O   UNL     1      -8.161   6.574  70.759  1.00  0.00    -0.116 OA 
ENDROOT
BRANCH   4  27
HETATM   27  C   UNL     1     -10.732  12.708  64.423  1.00  0.00    -0.359 C  
HETATM   28  O   UNL     1     -10.235  13.761  63.981  1.00  0.00    -0.091 OA 
HETATM   29  C   UNL     1     -10.783  11.487  63.496  1.00  0.00    -0.483 C  
ENDBRANCH   4  27
TORSDOF 1
ENDMDL
MODEL       58
REMARK 921   NORMALIZED FREE ENERGY PREDICTED BY IDOCK:   -4.74 KCAL/MOL
REMARK 922        TOTAL FREE ENERGY PREDICTED BY IDOCK:   -4.43 KCAL/MOL
REMARK 923 INTER-LIGAND FREE ENERGY PREDICTED BY IDOCK:   -4.98 KCAL/MOL
REMARK 924 INTRA-LIGAND FREE ENERGY PREDICTED BY IDOCK:    0.55 KCAL/MOL
REMARK 927      BINDING AFFINITY PREDICTED BY RF-SCORE:    0.00 PKD
ROOT
HETATM    1  C   UNL     1     -10.500   7.786  71.788  1.00  0.00    -0.259 C  
HETATM    2  C   UNL     1     -11.711   7.210  71.322  1.00  0.00    -0.342 C  
HETATM    3  C   UNL     1     -10.498   6.447  70.940  1.00  0.00    -0.275 C  
HETATM    4  C   UNL     1      -8.736   7.091  71.764  1.00  0.00    -0.122 C  
HETATM    5  C   UNL     1      -9.560   6.087  72.081  1.00  0.00    -0.165 C  
HETATM    6  C   UNL     1      -9.787   7.790  66.536  1.00  0.00    -0.255 C  
HETATM    7  O   UNL     1      -8.663   7.918  73.010  1.00  0.00    -0.159 OA 
HETATM    8  C   UNL     1      -9.370   8.801  67.685  1.00  0.00    -0.157 C  
HETATM    9  C   UNL     1      -8.749   5.367  70.496  1.00  0.00    -0.130 C  
HETATM   10  C   UNL     1      -9.987   5.431  73.387  1.00  0.00    -0.188 C  
HETATM   11  C   UNL     1      -8.069   9.412  67.170  1.00  0.00    -0.102 C  
HETATM   12  H   UNL     1      -7.846   8.217  73.393  1.00  0.00     0.000 HD 
HETATM   13  C   UNL     1      -8.485   6.658  69.257  1.00  0.00    -0.124 C  
HETATM   14  O   UNL     1      -7.138   7.140  69.327  1.00  0.00    -0.074 OA 
HETATM   15  C   UNL     1      -9.553   7.970  69.040  1.00  0.00    -0.156 C  
HETATM   16  H   UNL     1      -6.999   7.817  68.676  1.00  0.00     0.000 HD 
HETATM   17  C   UNL     1      -9.822   8.786  70.423  1.00  0.00    -0.212 C  
HETATM   18  F   UNL     1     -10.825   7.465  68.724  1.00  0.00    -0.212 F  
HETATM   19  C   UNL     1     -10.763   9.984  70.198  1.00  0.00    -0.361 C  
HETATM   20  C   UNL     1     -10.370  10.837  68.985  1.00  0.00    -0.235 C  
HETATM   21  C   UNL     1     -10.374   9.989  67.711  1.00  0.00    -0.261 C  
HETATM   22  C   UNL     1     -11.318  12.048  68.896  1.00  0.00    -0.333 C  
HETATM   23  C   UNL     1     -10.663  10.576  66.527  1.00  0.00    -0.191 C  
HETATM   24  C   UNL     1      -9.390  11.177  65.983  1.00  0.00    -0.206 C  
HETATM   25  C   UNL     1      -8.096  10.492  66.352  1.00  0.00    -0.135 C  
HETATM   26  O   UNL     1      -9.419  12.139  65.225  1.00  0.00    -0.125 OA 
ENDROOT
BRANCH   4  27
HETATM   27  C   UNL     1      -7.271   6.480  72.133  1.00  0.00    -0.086 C  
HETATM   28  O   UNL     1      -6.306   7.238  71.923  1.00  0.00    -0.040 OA 
HETATM   29  C   UNL     1      -7.009   5.161  72.871  1.00  0.00    -0.079 C  
ENDBRANCH   4  27
TORSDOF 1
ENDMDL
MODEL       59
REMARK 921   NORMALIZED FREE ENERGY PREDICTED BY IDOCK:   -4.71 KCAL/MOL
REMARK 922        TOTAL FREE ENERGY PREDICTED BY IDOCK:   -4.40 KCAL/MOL
REMARK 923 INTER-LIGAND FREE ENERGY PREDICTED BY IDOCK:   -4.97 KCAL/MOL
REMARK 924 INTRA-LIGAND FREE ENERGY PREDICTED BY IDOCK:    0.57 KCAL/MOL
REMARK 927      BINDING AFFINITY PREDICTED BY RF-SCORE:    0.00 PKD
ROOT
HETATM    1  C   UNL     1     -11.010   7.377  70.130  1.00  0.00    -0.272 C  
HETATM    2  C   UNL     1     -11.406   6.267  69.341  1.00  0.00    -0.448 C  
HETATM    3  C   UNL     1     -10.200   6.016  70.166  1.00  0.00    -0.267 C  
HETATM    4  C   UNL     1      -9.699   7.492  71.495  1.00  0.00    -0.165 C  
HETATM    5  C   UNL     1     -10.337   6.328  71.647  1.00  0.00    -0.248 C  
HETATM    6  C   UNL     1      -6.734   6.576  67.103  1.00  0.00    -0.060 C  
HETATM    7  O   UNL     1     -10.671   8.517  71.994  1.00  0.00    -0.288 OA 
HETATM    8  C   UNL     1      -7.430   7.885  67.666  1.00  0.00    -0.097 C  
HETATM    9  C   UNL     1      -8.539   5.696  71.416  1.00  0.00    -0.132 C  
HETATM   10  C   UNL     1     -11.473   5.845  72.538  1.00  0.00    -0.347 C  
HETATM   11  C   UNL     1      -6.269   8.859  67.848  1.00  0.00    -0.052 C  
HETATM   12  H   UNL     1     -10.439   9.201  72.611  1.00  0.00     0.000 HD 
HETATM   13  C   UNL     1      -7.654   6.688  70.188  1.00  0.00    -0.096 C  
HETATM   14  O   UNL     1      -6.865   7.690  70.840  1.00  0.00    -0.042 OA 
HETATM   15  C   UNL     1      -8.411   7.358  68.815  1.00  0.00    -0.129 C  
HETATM   16  H   UNL     1      -6.400   8.210  70.196  1.00  0.00     0.000 HD 
HETATM   17  C   UNL     1      -9.712   8.258  69.201  1.00  0.00    -0.171 C  
HETATM   18  F   UNL     1      -8.968   6.315  68.056  1.00  0.00    -0.117 F  
HETATM   19  C   UNL     1     -10.361   8.879  67.950  1.00  0.00    -0.286 C  
HETATM   20  C   UNL     1      -9.344   9.543  67.012  1.00  0.00    -0.183 C  
HETATM   21  C   UNL     1      -8.302   8.523  66.546  1.00  0.00    -0.113 C  
HETATM   22  C   UNL     1     -10.098  10.201  65.841  1.00  0.00    -0.325 C  
HETATM   23  C   UNL     1      -7.728   8.674  65.330  1.00  0.00    -0.094 C  
HETATM   24  C   UNL     1      -6.562   9.621  65.480  1.00  0.00    -0.080 C  
HETATM   25  C   UNL     1      -5.854   9.632  66.814  1.00  0.00    -0.055 C  
HETATM   26  O   UNL     1      -6.175  10.301  64.537  1.00  0.00    -0.130 OA 
ENDROOT
BRANCH   4  27
HETATM   27  C   UNL     1      -8.886   7.639  72.900  1.00  0.00    -0.160 C  
HETATM   28  O   UNL     1      -8.158   8.645  72.995  1.00  0.00    -0.394 OA 
HETATM   29  C   UNL     1      -9.086   6.769  74.147  1.00  0.00    -0.219 C  
ENDBRANCH   4  27
TORSDOF 1
ENDMDL
MODEL       60
REMARK 921   NORMALIZED FREE ENERGY PREDICTED BY IDOCK:   -4.69 KCAL/MOL
REMARK 922        TOTAL FREE ENERGY PREDICTED BY IDOCK:   -4.38 KCAL/MOL
REMARK 923 INTER-LIGAND FREE ENERGY PREDICTED BY IDOCK:   -5.03 KCAL/MOL
REMARK 924 INTRA-LIGAND FREE ENERGY PREDICTED BY IDOCK:    0.65 KCAL/MOL
REMARK 927      BINDING AFFINITY PREDICTED BY RF-SCORE:    0.00 PKD
ROOT
HETATM    1  C   UNL     1      -7.516   9.386  68.983  1.00  0.00    -0.073 C  
HETATM    2  C   UNL     1      -6.820   8.432  68.197  1.00  0.00    -0.069 C  
HETATM    3  C   UNL     1      -8.262   8.545  67.867  1.00  0.00    -0.119 C  
HETATM    4  C   UNL     1      -9.281  10.055  68.803  1.00  0.00    -0.159 C  
HETATM    5  C   UNL     1      -8.764   9.949  67.576  1.00  0.00    -0.121 C  
HETATM    6  C   UNL     1     -10.110   4.905  70.113  1.00  0.00    -0.332 C  
HETATM    7  O   UNL     1      -8.614  11.263  69.385  1.00  0.00    -0.370 OA 
HETATM    8  C   UNL     1      -9.720   6.176  70.978  1.00  0.00    -0.202 C  
HETATM    9  C   UNL     1     -10.295   8.804  67.394  1.00  0.00    -0.349 C  
HETATM   10  C   UNL     1      -8.110  10.926  66.608  1.00  0.00    -0.147 C  
HETATM   11  C   UNL     1     -10.852   6.277  71.997  1.00  0.00    -0.286 C  
HETATM   12  H   UNL     1      -9.087  11.964  69.819  1.00  0.00     0.000 HD 
HETATM   13  C   UNL     1     -10.580   7.855  68.907  1.00  0.00    -0.145 C  
HETATM   14  O   UNL     1     -11.573   8.500  69.713  1.00  0.00    -0.432 OA 
HETATM   15  C   UNL     1      -9.315   7.289  69.901  1.00  0.00    -0.154 C  
HETATM   16  H   UNL     1     -11.724   8.002  70.507  1.00  0.00     0.000 HD 
HETATM   17  C   UNL     1      -8.302   8.479  70.355  1.00  0.00    -0.124 C  
HETATM   18  F   UNL     1      -8.487   6.449  69.137  1.00  0.00    -0.117 F  
HETATM   19  C   UNL     1      -7.187   7.951  71.277  1.00  0.00    -0.059 C  
HETATM   20  C   UNL     1      -7.714   7.056  72.406  1.00  0.00    -0.094 C  
HETATM   21  C   UNL     1      -8.459   5.850  71.828  1.00  0.00    -0.131 C  
HETATM   22  C   UNL     1      -6.538   6.650  73.314  1.00  0.00    -0.064 C  
HETATM   23  C   UNL     1      -8.466   4.686  72.517  1.00  0.00    -0.115 C  
HETATM   24  C   UNL     1      -9.588   4.748  73.525  1.00  0.00    -0.131 C  
HETATM   25  C   UNL     1     -10.793   5.580  73.159  1.00  0.00    -0.328 C  
HETATM   26  O   UNL     1      -9.542   4.099  74.563  1.00  0.00    -0.107 OA 
ENDROOT
BRANCH   4  27
HETATM   27  C   UNL     1     -10.613  10.961  68.553  1.00  0.00    -0.190 C  
HETATM   28  O   UNL     1     -11.133  11.444  69.576  1.00  0.00    -0.245 OA 
HETATM   29  C   UNL     1     -11.148  11.411  67.187  1.00  0.00    -0.366 C  
ENDBRANCH   4  27
TORSDOF 1
ENDMDL
MODEL       61
REMARK 921   NORMALIZED FREE ENERGY PREDICTED BY IDOCK:   -4.66 KCAL/MOL
REMARK 922        TOTAL FREE ENERGY PREDICTED BY IDOCK:   -4.35 KCAL/MOL
REMARK 923 INTER-LIGAND FREE ENERGY PREDICTED BY IDOCK:   -4.91 KCAL/MOL
REMARK 924 INTRA-LIGAND FREE ENERGY PREDICTED BY IDOCK:    0.55 KCAL/MOL
REMARK 927      BINDING AFFINITY PREDICTED BY RF-SCORE:    0.00 PKD
ROOT
HETATM    1  C   UNL     1      -9.807   5.970  66.551  1.00  0.00    -0.186 C  
HETATM    2  C   UNL     1      -9.074   7.179  66.669  1.00  0.00    -0.175 C  
HETATM    3  C   UNL     1      -8.232   5.959  66.723  1.00  0.00    -0.105 C  
HETATM    4  C   UNL     1      -9.191   4.190  66.336  1.00  0.00    -0.157 C  
HETATM    5  C   UNL     1      -8.421   4.977  65.578  1.00  0.00    -0.134 C  
HETATM    6  C   UNL     1      -7.507   5.420  71.293  1.00  0.00    -0.093 C  
HETATM    7  O   UNL     1     -10.483   4.100  65.584  1.00  0.00    -0.452 OA 
HETATM    8  C   UNL     1      -8.924   4.994  70.723  1.00  0.00    -0.165 C  
HETATM    9  C   UNL     1      -7.085   4.197  66.716  1.00  0.00    -0.064 C  
HETATM   10  C   UNL     1      -8.403   5.346  64.101  1.00  0.00    -0.118 C  
HETATM   11  C   UNL     1      -9.259   3.726  71.505  1.00  0.00    -0.188 C  
HETATM   12  H   UNL     1     -10.927   3.280  65.404  1.00  0.00     0.000 HD 
HETATM   13  C   UNL     1      -7.701   4.005  68.406  1.00  0.00    -0.066 C  
HETATM   14  O   UNL     1      -8.178   2.670  68.608  1.00  0.00    -0.058 OA 
HETATM   15  C   UNL     1      -8.773   5.113  69.135  1.00  0.00    -0.092 C  
HETATM   16  H   UNL     1      -8.501   2.569  69.495  1.00  0.00     0.000 HD 
HETATM   17  C   UNL     1     -10.112   5.361  68.241  1.00  0.00    -0.225 C  
HETATM   18  F   UNL     1      -8.167   6.381  69.146  1.00  0.00    -0.106 F  
HETATM   19  C   UNL     1     -11.079   6.340  68.933  1.00  0.00    -0.434 C  
HETATM   20  C   UNL     1     -11.315   6.007  70.412  1.00  0.00    -0.322 C  
HETATM   21  C   UNL     1      -9.993   6.028  71.183  1.00  0.00    -0.227 C  
HETATM   22  C   UNL     1     -12.354   6.988  70.987  1.00  0.00    -0.402 C  
HETATM   23  C   UNL     1      -9.996   6.369  72.492  1.00  0.00    -0.183 C  
HETATM   24  C   UNL     1     -10.309   5.129  73.294  1.00  0.00    -0.204 C  
HETATM   25  C   UNL     1      -9.869   3.807  72.713  1.00  0.00    -0.202 C  
HETATM   26  O   UNL     1     -10.838   5.207  74.396  1.00  0.00    -0.323 OA 
ENDROOT
BRANCH   4  27
HETATM   27  C   UNL     1      -8.818   2.699  65.794  1.00  0.00    -0.134 C  
HETATM   28  O   UNL     1      -9.403   1.759  66.366  1.00  0.00    -0.010 OA 
HETATM   29  C   UNL     1      -7.979   2.380  64.551  1.00  0.00    -0.077 C  
ENDBRANCH   4  27
TORSDOF 1
ENDMDL
MODEL       62
REMARK 921   NORMALIZED FREE ENERGY PREDICTED BY IDOCK:   -4.61 KCAL/MOL
REMARK 922        TOTAL FREE ENERGY PREDICTED BY IDOCK:   -4.30 KCAL/MOL
REMARK 923 INTER-LIGAND FREE ENERGY PREDICTED BY IDOCK:   -5.17 KCAL/MOL
REMARK 924 INTRA-LIGAND FREE ENERGY PREDICTED BY IDOCK:    0.87 KCAL/MOL
REMARK 927      BINDING AFFINITY PREDICTED BY RF-SCORE:    0.00 PKD
ROOT
HETATM    1  C   UNL     1      -9.433  12.310  68.283  1.00  0.00    -0.209 C  
HETATM    2  C   UNL     1      -8.027  12.363  68.466  1.00  0.00    -0.110 C  
HETATM    3  C   UNL     1      -8.440  12.078  67.071  1.00  0.00    -0.183 C  
HETATM    4  C   UNL     1     -10.448  12.207  66.685  1.00  0.00    -0.220 C  
HETATM    5  C   UNL     1      -9.437  13.053  66.466  1.00  0.00    -0.246 C  
HETATM    6  C   UNL     1      -7.928   7.457  66.778  1.00  0.00    -0.115 C  
HETATM    7  O   UNL     1     -11.403  12.983  67.538  1.00  0.00    -0.273 OA 
HETATM    8  C   UNL     1      -9.202   8.004  67.548  1.00  0.00    -0.153 C  
HETATM    9  C   UNL     1      -9.088  11.753  65.096  1.00  0.00     0.161 C  
HETATM   10  C   UNL     1      -9.294  14.569  66.483  1.00  0.00    -0.307 C  
HETATM   11  C   UNL     1     -10.312   7.039  67.136  1.00  0.00    -0.351 C  
HETATM   12  H   UNL     1     -12.334  13.043  67.360  1.00  0.00     0.000 HD 
HETATM   13  C   UNL     1      -9.445  10.079  65.683  1.00  0.00    -0.220 C  
HETATM   14  O   UNL     1     -10.755   9.680  65.265  1.00  0.00     0.339 OA 
HETATM   15  C   UNL     1      -9.181   9.583  67.293  1.00  0.00    -0.134 C  
HETATM   16  H   UNL     1     -10.943   8.801  65.572  1.00  0.00     0.000 HD 
HETATM   17  C   UNL     1      -9.918  10.556  68.371  1.00  0.00    -0.177 C  
HETATM   18  F   UNL     1      -7.820   9.756  67.598  1.00  0.00    -0.093 F  
HETATM   19  C   UNL     1      -9.693  10.071  69.815  1.00  0.00    -0.259 C  
HETATM   20  C   UNL     1      -9.944   8.567  69.990  1.00  0.00    -0.191 C  
HETATM   21  C   UNL     1      -9.021   7.761  69.074  1.00  0.00    -0.145 C  
HETATM   22  C   UNL     1      -9.774   8.201  71.477  1.00  0.00    -0.230 C  
HETATM   23  C   UNL     1      -8.624   6.526  69.457  1.00  0.00    -0.134 C  
HETATM   24  C   UNL     1      -9.695   5.544  69.049  1.00  0.00    -0.144 C  
HETATM   25  C   UNL     1     -10.504   5.884  67.820  1.00  0.00    -0.300 C  
HETATM   26  O   UNL     1      -9.851   4.491  69.655  1.00  0.00    -0.205 OA 
ENDROOT
BRANCH   4  27
HETATM   27  C   UNL     1     -11.426  12.483  65.411  1.00  0.00    -0.344 C  
HETATM   28  O   UNL     1     -12.635  12.253  65.604  1.00  0.00    -0.504 OA 
HETATM   29  C   UNL     1     -11.018  13.163  64.098  1.00  0.00    -0.418 C  
ENDBRANCH   4  27
TORSDOF 1
ENDMDL
MODEL       63
REMARK 921   NORMALIZED FREE ENERGY PREDICTED BY IDOCK:   -4.61 KCAL/MOL
REMARK 922        TOTAL FREE ENERGY PREDICTED BY IDOCK:   -4.30 KCAL/MOL
REMARK 923 INTER-LIGAND FREE ENERGY PREDICTED BY IDOCK:   -5.14 KCAL/MOL
REMARK 924 INTRA-LIGAND FREE ENERGY PREDICTED BY IDOCK:    0.84 KCAL/MOL
REMARK 927      BINDING AFFINITY PREDICTED BY RF-SCORE:    0.00 PKD
ROOT
HETATM    1  C   UNL     1     -11.689   9.001  69.995  1.00  0.00     0.170 C  
HETATM    2  C   UNL     1     -12.019   9.843  71.088  1.00  0.00    -0.473 C  
HETATM    3  C   UNL     1     -10.693  10.129  70.490  1.00  0.00    -0.295 C  
HETATM    4  C   UNL     1     -10.244   9.107  68.772  1.00  0.00    -0.210 C  
HETATM    5  C   UNL     1     -10.682  10.352  68.986  1.00  0.00    -0.260 C  
HETATM    6  C   UNL     1      -7.769   7.980  73.412  1.00  0.00    -0.209 C  
HETATM    7  O   UNL     1     -11.282   8.497  67.881  1.00  0.00    -0.360 OA 
HETATM    8  C   UNL     1      -8.569   7.076  72.383  1.00  0.00    -0.130 C  
HETATM    9  C   UNL     1      -8.856  10.537  69.551  1.00  0.00    -0.043 C  
HETATM   10  C   UNL     1     -11.611  11.297  68.238  1.00  0.00    -0.370 C  
HETATM   11  C   UNL     1      -7.548   6.024  71.959  1.00  0.00    -0.097 C  
HETATM   12  H   UNL     1     -11.074   8.023  67.084  1.00  0.00     0.000 HD 
HETATM   13  C   UNL     1      -8.290   9.056  70.420  1.00  0.00    -0.164 C  
HETATM   14  O   UNL     1      -7.577   8.199  69.520  1.00  0.00    -0.094 OA 
HETATM   15  C   UNL     1      -9.307   8.119  71.418  1.00  0.00    -0.155 C  
HETATM   16  H   UNL     1      -7.279   7.421  69.977  1.00  0.00     0.000 HD 
HETATM   17  C   UNL     1     -10.664   7.646  70.653  1.00  0.00    -0.237 C  
HETATM   18  F   UNL     1      -9.800   8.937  72.449  1.00  0.00    -0.365 F  
HETATM   19  C   UNL     1     -11.552   6.776  71.562  1.00  0.00    -0.344 C  
HETATM   20  C   UNL     1     -10.771   5.669  72.284  1.00  0.00    -0.281 C  
HETATM   21  C   UNL     1      -9.661   6.274  73.147  1.00  0.00    -0.164 C  
HETATM   22  C   UNL     1     -11.757   4.810  73.097  1.00  0.00    -0.213 C  
HETATM   23  C   UNL     1      -9.277   5.631  74.273  1.00  0.00    -0.125 C  
HETATM   24  C   UNL     1      -8.251   4.592  73.890  1.00  0.00    -0.105 C  
HETATM   25  C   UNL     1      -7.386   4.893  72.690  1.00  0.00    -0.089 C  
HETATM   26  O   UNL     1      -8.092   3.582  74.565  1.00  0.00    -0.078 OA 
ENDROOT
BRANCH   4  27
HETATM   27  C   UNL     1      -9.286   9.286  67.465  1.00  0.00    -0.127 C  
HETATM   28  O   UNL     1      -8.513   8.338  67.233  1.00  0.00    -0.122 OA 
HETATM   29  C   UNL     1      -9.391  10.406  66.423  1.00  0.00    -0.197 C  
ENDBRANCH   4  27
TORSDOF 1
ENDMDL
MODEL       64
REMARK 921   NORMALIZED FREE ENERGY PREDICTED BY IDOCK:   -4.60 KCAL/MOL
REMARK 922        TOTAL FREE ENERGY PREDICTED BY IDOCK:   -4.28 KCAL/MOL
REMARK 923 INTER-LIGAND FREE ENERGY PREDICTED BY IDOCK:   -4.84 KCAL/MOL
REMARK 924 INTRA-LIGAND FREE ENERGY PREDICTED BY IDOCK:    0.56 KCAL/MOL
REMARK 927      BINDING AFFINITY PREDICTED BY RF-SCORE:    0.00 PKD
ROOT
HETATM    1  C   UNL     1      -6.963  10.405  68.729  1.00  0.00    -0.068 C  
HETATM    2  C   UNL     1      -7.249   9.447  67.722  1.00  0.00    -0.083 C  
HETATM    3  C   UNL     1      -7.727  10.813  67.402  1.00  0.00    -0.107 C  
HETATM    4  C   UNL     1      -7.155  12.291  68.701  1.00  0.00    -0.103 C  
HETATM    5  C   UNL     1      -6.686  11.917  67.507  1.00  0.00    -0.111 C  
HETATM    6  C   UNL     1     -12.253  10.592  68.482  1.00  0.00     0.453 C  
HETATM    7  O   UNL     1      -5.976  12.173  69.617  1.00  0.00    -0.093 OA 
HETATM    8  C   UNL     1     -11.222  10.719  69.680  1.00  0.00    -0.355 C  
HETATM    9  C   UNL     1      -8.312  12.786  66.971  1.00  0.00    -0.123 C  
HETATM   10  C   UNL     1      -5.304  11.875  66.871  1.00  0.00    -0.088 C  
HETATM   11  C   UNL     1     -11.921  11.660  70.658  1.00  0.00    -0.356 C  
HETATM   12  H   UNL     1      -5.711  12.858  70.219  1.00  0.00     0.000 HD 
HETATM   13  C   UNL     1      -9.646  12.454  68.147  1.00  0.00    -0.218 C  
HETATM   14  O   UNL     1      -9.763  13.537  69.077  1.00  0.00    -0.415 OA 
HETATM   15  C   UNL     1      -9.809  10.971  68.972  1.00  0.00    -0.149 C  
HETATM   16  H   UNL     1     -10.464  13.364  69.694  1.00  0.00     0.000 HD 
HETATM   17  C   UNL     1      -8.453  10.551  69.768  1.00  0.00     0.103 C  
HETATM   18  F   UNL     1      -9.943   9.943  68.022  1.00  0.00    -0.154 F  
HETATM   19  C   UNL     1      -8.633   9.225  70.531  1.00  0.00    -0.271 C  
HETATM   20  C   UNL     1      -9.931   9.173  71.348  1.00  0.00    -0.373 C  
HETATM   21  C   UNL     1     -11.145   9.360  70.435  1.00  0.00    -0.311 C  
HETATM   22  C   UNL     1      -9.975   7.849  72.133  1.00  0.00    -0.266 C  
HETATM   23  C   UNL     1     -12.318   8.774  70.766  1.00  0.00     0.002 C  
HETATM   24  C   UNL     1     -13.042   9.690  71.722  1.00  0.00    -0.421 C  
HETATM   25  C   UNL     1     -12.791  11.171  71.576  1.00  0.00    -0.542 C  
HETATM   26  O   UNL     1     -13.845   9.248  72.535  1.00  0.00    -0.468 OA 
ENDROOT
BRANCH   4  27
HETATM   27  C   UNL     1      -6.929  13.905  68.683  1.00  0.00    -0.108 C  
HETATM   28  O   UNL     1      -7.260  14.504  69.724  1.00  0.00    -0.112 OA 
HETATM   29  C   UNL     1      -6.187  14.694  67.597  1.00  0.00    -0.106 C  
ENDBRANCH   4  27
TORSDOF 1
ENDMDL
MODEL       65
REMARK 921   NORMALIZED FREE ENERGY PREDICTED BY IDOCK:   -4.59 KCAL/MOL
REMARK 922        TOTAL FREE ENERGY PREDICTED BY IDOCK:   -4.28 KCAL/MOL
REMARK 923 INTER-LIGAND FREE ENERGY PREDICTED BY IDOCK:   -4.85 KCAL/MOL
REMARK 924 INTRA-LIGAND FREE ENERGY PREDICTED BY IDOCK:    0.58 KCAL/MOL
REMARK 927      BINDING AFFINITY PREDICTED BY RF-SCORE:    0.00 PKD
ROOT
HETATM    1  C   UNL     1      -7.423   7.575  71.314  1.00  0.00    -0.079 C  
HETATM    2  C   UNL     1      -6.908   8.783  71.851  1.00  0.00    -0.060 C  
HETATM    3  C   UNL     1      -8.382   8.663  71.951  1.00  0.00    -0.189 C  
HETATM    4  C   UNL     1      -9.175   6.855  71.402  1.00  0.00    -0.156 C  
HETATM    5  C   UNL     1      -8.898   7.387  72.597  1.00  0.00    -0.163 C  
HETATM    6  C   UNL     1      -9.862  11.237  68.361  1.00  0.00    -0.200 C  
HETATM    7  O   UNL     1      -8.384   5.584  71.369  1.00  0.00    -0.122 OA 
HETATM    8  C   UNL     1      -9.289   9.794  68.038  1.00  0.00    -0.138 C  
HETATM    9  C   UNL     1     -10.461   8.401  72.133  1.00  0.00    -0.396 C  
HETATM   10  C   UNL     1      -8.413   6.825  73.926  1.00  0.00    -0.152 C  
HETATM   11  C   UNL     1     -10.209   9.282  66.933  1.00  0.00    -0.327 C  
HETATM   12  H   UNL     1      -8.751   4.746  71.115  1.00  0.00     0.000 HD 
HETATM   13  C   UNL     1     -10.482   8.794  70.368  1.00  0.00    -0.209 C  
HETATM   14  O   UNL     1     -11.292   7.848  69.662  1.00  0.00    -0.454 OA 
HETATM   15  C   UNL     1      -9.067   9.118  69.472  1.00  0.00    -0.155 C  
HETATM   16  H   UNL     1     -11.304   8.054  68.735  1.00  0.00     0.000 HD 
HETATM   17  C   UNL     1      -7.960   7.932  69.610  1.00  0.00    -0.118 C  
HETATM   18  F   UNL     1      -8.415  10.222  70.047  1.00  0.00    -0.190 F  
HETATM   19  C   UNL     1      -6.705   8.230  68.768  1.00  0.00    -0.058 C  
HETATM   20  C   UNL     1      -7.033   8.675  67.336  1.00  0.00    -0.078 C  
HETATM   21  C   UNL     1      -7.900   9.936  67.354  1.00  0.00    -0.098 C  
HETATM   22  C   UNL     1      -5.718   8.867  66.558  1.00  0.00    -0.047 C  
HETATM   23  C   UNL     1      -7.805  10.817  66.331  1.00  0.00    -0.148 C  
HETATM   24  C   UNL     1      -8.718  10.346  65.226  1.00  0.00    -0.179 C  
HETATM   25  C   UNL     1      -9.951   9.577  65.635  1.00  0.00    -0.269 C  
HETATM   26  O   UNL     1      -8.494  10.634  64.056  1.00  0.00    -0.147 OA 
ENDROOT
BRANCH   4  27
HETATM   27  C   UNL     1     -10.509   5.969  71.707  1.00  0.00    -0.221 C  
HETATM   28  O   UNL     1     -11.017   5.408  70.718  1.00  0.00    -0.184 OA 
HETATM   29  C   UNL     1     -11.059   5.626  73.097  1.00  0.00    -0.315 C  
ENDBRANCH   4  27
TORSDOF 1
ENDMDL
MODEL       66
REMARK 921   NORMALIZED FREE ENERGY PREDICTED BY IDOCK:   -4.57 KCAL/MOL
REMARK 922        TOTAL FREE ENERGY PREDICTED BY IDOCK:   -4.25 KCAL/MOL
REMARK 923 INTER-LIGAND FREE ENERGY PREDICTED BY IDOCK:   -4.80 KCAL/MOL
REMARK 924 INTRA-LIGAND FREE ENERGY PREDICTED BY IDOCK:    0.55 KCAL/MOL
REMARK 927      BINDING AFFINITY PREDICTED BY RF-SCORE:    0.00 PKD
ROOT
HETATM    1  C   UNL     1      -7.881   7.091  64.972  1.00  0.00    -0.125 C  
HETATM    2  C   UNL     1      -6.738   7.752  65.492  1.00  0.00    -0.045 C  
HETATM    3  C   UNL     1      -6.823   6.320  65.864  1.00  0.00    -0.057 C  
HETATM    4  C   UNL     1      -8.322   5.247  64.969  1.00  0.00    -0.146 C  
HETATM    5  C   UNL     1      -7.015   5.349  64.710  1.00  0.00    -0.049 C  
HETATM    6  C   UNL     1      -8.524   6.487  70.198  1.00  0.00    -0.135 C  
HETATM    7  O   UNL     1      -8.987   5.666  63.694  1.00  0.00    -0.334 OA 
HETATM    8  C   UNL     1      -9.540   6.729  69.004  1.00  0.00    -0.135 C  
HETATM    9  C   UNL     1      -6.959   4.265  66.294  1.00  0.00    -0.066 C  
HETATM   10  C   UNL     1      -6.176   5.329  63.439  1.00  0.00    -0.022 C  
HETATM   11  C   UNL     1     -10.807   6.010  69.461  1.00  0.00    -0.439 C  
HETATM   12  H   UNL     1      -9.682   5.169  63.278  1.00  0.00     0.000 HD 
HETATM   13  C   UNL     1      -8.221   4.783  67.481  1.00  0.00    -0.105 C  
HETATM   14  O   UNL     1      -9.384   3.955  67.356  1.00  0.00    -0.162 OA 
HETATM   15  C   UNL     1      -8.695   6.409  67.684  1.00  0.00    -0.114 C  
HETATM   16  H   UNL     1     -10.047   4.226  67.980  1.00  0.00     0.000 HD 
HETATM   17  C   UNL     1      -9.148   7.103  66.282  1.00  0.00    -0.182 C  
HETATM   18  F   UNL     1      -7.567   7.161  68.053  1.00  0.00    -0.099 F  
HETATM   19  C   UNL     1      -9.602   8.559  66.494  1.00  0.00    -0.303 C  
HETATM   20  C   UNL     1     -10.579   8.720  67.666  1.00  0.00    -0.281 C  
HETATM   21  C   UNL     1      -9.938   8.233  68.967  1.00  0.00    -0.193 C  
HETATM   22  C   UNL     1     -11.032  10.191  67.740  1.00  0.00    -0.338 C  
HETATM   23  C   UNL     1     -10.305   8.801  70.138  1.00  0.00    -0.225 C  
HETATM   24  C   UNL     1     -11.550   8.099  70.625  1.00  0.00    -0.194 C  
HETATM   25  C   UNL     1     -11.713   6.648  70.243  1.00  0.00    -0.432 C  
HETATM   26  O   UNL     1     -12.355   8.671  71.351  1.00  0.00    -0.301 OA 
ENDROOT
BRANCH   4  27
HETATM   27  C   UNL     1      -8.643   3.698  64.579  1.00  0.00    -0.097 C  
HETATM   28  O   UNL     1      -9.825   3.339  64.739  1.00  0.00    -0.155 OA 
HETATM   29  C   UNL     1      -7.682   2.732  63.875  1.00  0.00    -0.072 C  
ENDBRANCH   4  27
TORSDOF 1
ENDMDL
MODEL       67
REMARK 921   NORMALIZED FREE ENERGY PREDICTED BY IDOCK:   -4.53 KCAL/MOL
REMARK 922        TOTAL FREE ENERGY PREDICTED BY IDOCK:   -4.21 KCAL/MOL
REMARK 923 INTER-LIGAND FREE ENERGY PREDICTED BY IDOCK:   -4.78 KCAL/MOL
REMARK 924 INTRA-LIGAND FREE ENERGY PREDICTED BY IDOCK:    0.57 KCAL/MOL
REMARK 927      BINDING AFFINITY PREDICTED BY RF-SCORE:    0.00 PKD
ROOT
HETATM    1  C   UNL     1      -8.106  10.344  69.292  1.00  0.00    -0.159 C  
HETATM    2  C   UNL     1      -6.700  10.184  69.200  1.00  0.00    -0.056 C  
HETATM    3  C   UNL     1      -7.357  10.467  67.902  1.00  0.00    -0.086 C  
HETATM    4  C   UNL     1      -9.351  10.930  67.987  1.00  0.00    -0.160 C  
HETATM    5  C   UNL     1      -8.258  11.691  67.871  1.00  0.00    -0.141 C  
HETATM    6  C   UNL     1      -7.665   6.238  65.971  1.00  0.00    -0.092 C  
HETATM    7  O   UNL     1     -10.027  11.438  69.223  1.00  0.00    -0.419 OA 
HETATM    8  C   UNL     1      -8.703   6.596  67.116  1.00  0.00    -0.111 C  
HETATM    9  C   UNL     1      -8.336  10.946  66.103  1.00  0.00    -0.168 C  
HETATM   10  C   UNL     1      -7.865  13.075  68.370  1.00  0.00    -0.134 C  
HETATM   11  C   UNL     1     -10.005   5.964  66.630  1.00  0.00    -0.214 C  
HETATM   12  H   UNL     1     -10.951  11.653  69.263  1.00  0.00     0.000 HD 
HETATM   13  C   UNL     1      -8.873   9.219  66.148  1.00  0.00    -0.155 C  
HETATM   14  O   UNL     1     -10.279   9.134  65.887  1.00  0.00    -0.361 OA 
HETATM   15  C   UNL     1      -8.459   8.150  67.410  1.00  0.00    -0.126 C  
HETATM   16  H   UNL     1     -10.562   8.228  65.910  1.00  0.00     0.000 HD 
HETATM   17  C   UNL     1      -8.857   8.736  68.876  1.00  0.00    -0.137 C  
HETATM   18  F   UNL     1      -7.058   8.061  67.480  1.00  0.00    -0.071 F  
HETATM   19  C   UNL     1      -8.503   7.741  69.998  1.00  0.00    -0.135 C  
HETATM   20  C   UNL     1      -8.970   6.310  69.701  1.00  0.00    -0.135 C  
HETATM   21  C   UNL     1      -8.340   5.800  68.402  1.00  0.00    -0.107 C  
HETATM   22  C   UNL     1      -8.643   5.416  70.912  1.00  0.00    -0.129 C  
HETATM   23  C   UNL     1      -8.099   4.477  68.260  1.00  0.00    -0.083 C  
HETATM   24  C   UNL     1      -9.366   3.824  67.764  1.00  0.00    -0.189 C  
HETATM   25  C   UNL     1     -10.282   4.666  66.908  1.00  0.00    -0.200 C  
HETATM   26  O   UNL     1      -9.602   2.645  67.997  1.00  0.00    -0.197 OA 
ENDROOT
BRANCH   4  27
HETATM   27  C   UNL     1     -10.448  11.747  67.100  1.00  0.00    -0.220 C  
HETATM   28  O   UNL     1     -11.606  11.289  67.127  1.00  0.00    -0.513 OA 
HETATM   29  C   UNL     1     -10.219  13.098  66.413  1.00  0.00    -0.286 C  
ENDBRANCH   4  27
TORSDOF 1
ENDMDL
MODEL       68
REMARK 921   NORMALIZED FREE ENERGY PREDICTED BY IDOCK:   -4.48 KCAL/MOL
REMARK 922        TOTAL FREE ENERGY PREDICTED BY IDOCK:   -4.15 KCAL/MOL
REMARK 923 INTER-LIGAND FREE ENERGY PREDICTED BY IDOCK:   -4.71 KCAL/MOL
REMARK 924 INTRA-LIGAND FREE ENERGY PREDICTED BY IDOCK:    0.56 KCAL/MOL
REMARK 927      BINDING AFFINITY PREDICTED BY RF-SCORE:    0.00 PKD
ROOT
HETATM    1  C   UNL     1     -10.762   5.813  71.213  1.00  0.00    -0.323 C  
HETATM    2  C   UNL     1     -10.144   5.343  72.400  1.00  0.00    -0.225 C  
HETATM    3  C   UNL     1      -9.600   6.633  71.911  1.00  0.00    -0.152 C  
HETATM    4  C   UNL     1     -10.590   7.484  70.332  1.00  0.00    -0.229 C  
HETATM    5  C   UNL     1     -10.626   7.723  71.647  1.00  0.00    -0.252 C  
HETATM    6  C   UNL     1      -5.700   5.332  69.719  1.00  0.00    -0.016 C  
HETATM    7  O   UNL     1     -12.008   7.158  69.976  1.00  0.00    -0.565 OA 
HETATM    8  C   UNL     1      -7.076   5.083  68.971  1.00  0.00    -0.053 C  
HETATM    9  C   UNL     1      -8.923   8.497  71.211  1.00  0.00    -0.244 C  
HETATM   10  C   UNL     1     -11.713   8.153  72.622  1.00  0.00    -0.419 C  
HETATM   11  C   UNL     1      -6.757   5.410  67.514  1.00  0.00    -0.055 C  
HETATM   12  H   UNL     1     -12.468   7.552  69.245  1.00  0.00     0.000 HD 
HETATM   13  C   UNL     1      -8.060   7.510  69.964  1.00  0.00    -0.127 C  
HETATM   14  O   UNL     1      -8.274   8.067  68.661  1.00  0.00    -0.123 OA 
HETATM   15  C   UNL     1      -8.170   5.810  69.885  1.00  0.00    -0.115 C  
HETATM   16  H   UNL     1      -7.821   7.550  68.006  1.00  0.00     0.000 HD 
HETATM   17  C   UNL     1      -9.711   5.290  69.818  1.00  0.00    -0.257 C  
HETATM   18  F   UNL     1      -7.713   5.276  71.102  1.00  0.00    -0.088 F  
HETATM   19  C   UNL     1      -9.785   3.755  69.716  1.00  0.00    -0.193 C  
HETATM   20  C   UNL     1      -8.838   3.177  68.656  1.00  0.00    -0.166 C  
HETATM   21  C   UNL     1      -7.389   3.559  68.969  1.00  0.00    -0.049 C  
HETATM   22  C   UNL     1      -9.047   1.653  68.576  1.00  0.00    -0.187 C  
HETATM   23  C   UNL     1      -6.391   2.727  68.594  1.00  0.00    -0.029 C  
HETATM   24  C   UNL     1      -6.040   3.037  67.159  1.00  0.00    -0.024 C  
HETATM   25  C   UNL     1      -6.243   4.459  66.696  1.00  0.00    -0.032 C  
HETATM   26  O   UNL     1      -5.554   2.182  66.429  1.00  0.00    -0.016 OA 
ENDROOT
BRANCH   4  27
HETATM   27  C   UNL     1     -10.814   8.966  69.694  1.00  0.00    -0.178 C  
HETATM   28  O   UNL     1     -10.782   9.025  68.450  1.00  0.00    -0.186 OA 
HETATM   29  C   UNL     1     -11.238  10.221  70.467  1.00  0.00    -0.408 C  
ENDBRANCH   4  27
TORSDOF 1
ENDMDL
MODEL       69
REMARK 921   NORMALIZED FREE ENERGY PREDICTED BY IDOCK:   -4.47 KCAL/MOL
REMARK 922        TOTAL FREE ENERGY PREDICTED BY IDOCK:   -4.15 KCAL/MOL
REMARK 923 INTER-LIGAND FREE ENERGY PREDICTED BY IDOCK:   -4.70 KCAL/MOL
REMARK 924 INTRA-LIGAND FREE ENERGY PREDICTED BY IDOCK:    0.56 KCAL/MOL
REMARK 927      BINDING AFFINITY PREDICTED BY RF-SCORE:    0.00 PKD
ROOT
HETATM    1  C   UNL     1      -9.720   9.293  69.051  1.00  0.00    -0.162 C  
HETATM    2  C   UNL     1     -10.671   9.728  68.092  1.00  0.00    -0.280 C  
HETATM    3  C   UNL     1     -11.143   8.605  68.938  1.00  0.00     0.216 C  
HETATM    4  C   UNL     1      -9.914   8.072  70.488  1.00  0.00    -0.190 C  
HETATM    5  C   UNL     1     -11.024   8.815  70.439  1.00  0.00    -0.262 C  
HETATM    6  C   UNL     1     -10.496   4.906  66.180  1.00  0.00    -0.346 C  
HETATM    7  O   UNL     1      -8.882   8.986  71.074  1.00  0.00    -0.203 OA 
HETATM    8  C   UNL     1      -9.217   5.525  66.884  1.00  0.00    -0.119 C  
HETATM    9  C   UNL     1     -11.783   7.065  70.219  1.00  0.00    -0.284 C  
HETATM   10  C   UNL     1     -11.516  10.046  71.188  1.00  0.00    -0.432 C  
HETATM   11  C   UNL     1      -8.389   4.301  67.266  1.00  0.00    -0.100 C  
HETATM   12  H   UNL     1      -8.312   8.739  71.793  1.00  0.00     0.000 HD 
HETATM   13  C   UNL     1     -10.720   6.019  69.195  1.00  0.00    -0.331 C  
HETATM   14  O   UNL     1      -9.894   5.194  70.025  1.00  0.00    -0.184 OA 
HETATM   15  C   UNL     1      -9.801   6.623  67.891  1.00  0.00    -0.124 C  
HETATM   16  H   UNL     1      -9.336   4.644  69.488  1.00  0.00     0.000 HD 
HETATM   17  C   UNL     1      -8.845   7.866  68.329  1.00  0.00    -0.129 C  
HETATM   18  F   UNL     1     -10.675   7.213  66.963  1.00  0.00    -0.327 F  
HETATM   19  C   UNL     1      -8.002   8.374  67.144  1.00  0.00    -0.104 C  
HETATM   20  C   UNL     1      -7.314   7.243  66.367  1.00  0.00    -0.080 C  
HETATM   21  C   UNL     1      -8.354   6.262  65.819  1.00  0.00    -0.145 C  
HETATM   22  C   UNL     1      -6.436   7.858  65.262  1.00  0.00    -0.044 C  
HETATM   23  C   UNL     1      -8.093   5.597  64.671  1.00  0.00    -0.128 C  
HETATM   24  C   UNL     1      -7.287   4.368  65.018  1.00  0.00    -0.072 C  
HETATM   25  C   UNL     1      -7.524   3.753  66.376  1.00  0.00    -0.083 C  
HETATM   26  O   UNL     1      -6.524   3.862  64.203  1.00  0.00    -0.038 OA 
ENDROOT
BRANCH   4  27
HETATM   27  C   UNL     1     -10.037   7.346  71.942  1.00  0.00    -0.178 C  
HETATM   28  O   UNL     1      -9.093   6.592  72.246  1.00  0.00    -0.138 OA 
HETATM   29  C   UNL     1     -11.091   7.654  73.013  1.00  0.00    -0.437 C  
ENDBRANCH   4  27
TORSDOF 1
ENDMDL
MODEL       70
REMARK 921   NORMALIZED FREE ENERGY PREDICTED BY IDOCK:   -4.43 KCAL/MOL
REMARK 922        TOTAL FREE ENERGY PREDICTED BY IDOCK:   -4.11 KCAL/MOL
REMARK 923 INTER-LIGAND FREE ENERGY PREDICTED BY IDOCK:   -4.78 KCAL/MOL
REMARK 924 INTRA-LIGAND FREE ENERGY PREDICTED BY IDOCK:    0.67 KCAL/MOL
REMARK 927      BINDING AFFINITY PREDICTED BY RF-SCORE:    0.00 PKD
ROOT
HETATM    1  C   UNL     1     -10.269  11.203  65.982  1.00  0.00    -0.300 C  
HETATM    2  C   UNL     1     -11.651  11.486  66.140  1.00  0.00     0.014 C  
HETATM    3  C   UNL     1     -10.786  12.131  67.157  1.00  0.00    -0.267 C  
HETATM    4  C   UNL     1      -8.766  11.951  66.862  1.00  0.00    -0.191 C  
HETATM    5  C   UNL     1      -9.624  12.946  66.613  1.00  0.00    -0.257 C  
HETATM    6  C   UNL     1     -11.247   9.304  70.832  1.00  0.00    -0.372 C  
HETATM    7  O   UNL     1      -8.152  11.650  65.530  1.00  0.00    -0.231 OA 
HETATM    8  C   UNL     1     -10.308   8.818  69.650  1.00  0.00    -0.213 C  
HETATM    9  C   UNL     1      -9.501  13.080  68.525  1.00  0.00    -0.098 C  
HETATM   10  C   UNL     1      -9.737  14.009  65.529  1.00  0.00    -0.141 C  
HETATM   11  C   UNL     1      -9.143   8.145  70.370  1.00  0.00    -0.150 C  
HETATM   12  H   UNL     1      -7.215  11.567  65.393  1.00  0.00     0.000 HD 
HETATM   13  C   UNL     1      -9.399  11.443  69.287  1.00  0.00     0.311 C  
HETATM   14  O   UNL     1      -8.032  11.108  69.554  1.00  0.00    -0.369 OA 
HETATM   15  C   UNL     1     -10.212  10.077  68.667  1.00  0.00    -0.180 C  
HETATM   16  H   UNL     1      -7.978  10.249  69.954  1.00  0.00     0.000 HD 
HETATM   17  C   UNL     1      -9.876   9.815  67.096  1.00  0.00    -0.238 C  
HETATM   18  F   UNL     1     -11.591  10.347  68.650  1.00  0.00    -0.304 F  
HETATM   19  C   UNL     1     -10.595   8.560  66.566  1.00  0.00     0.054 C  
HETATM   20  C   UNL     1     -10.447   7.346  67.493  1.00  0.00    -0.338 C  
HETATM   21  C   UNL     1     -11.010   7.662  68.881  1.00  0.00     0.058 C  
HETATM   22  C   UNL     1     -11.128   6.130  66.837  1.00  0.00    -0.301 C  
HETATM   23  C   UNL     1     -11.538   6.662  69.623  1.00  0.00    -0.305 C  
HETATM   24  C   UNL     1     -10.409   5.985  70.362  1.00  0.00    -0.223 C  
HETATM   25  C   UNL     1      -9.219   6.839  70.727  1.00  0.00    -0.158 C  
HETATM   26  O   UNL     1     -10.492   4.811  70.704  1.00  0.00    -0.168 OA 
ENDROOT
BRANCH   4  27
HETATM   27  C   UNL     1      -7.403  12.749  67.265  1.00  0.00    -0.090 C  
HETATM   28  O   UNL     1      -6.360  12.068  67.251  1.00  0.00    -0.122 OA 
HETATM   29  C   UNL     1      -7.276  14.264  67.466  1.00  0.00    -0.197 C  
ENDBRANCH   4  27
TORSDOF 1
ENDMDL
MODEL       71
REMARK 921   NORMALIZED FREE ENERGY PREDICTED BY IDOCK:   -4.36 KCAL/MOL
REMARK 922        TOTAL FREE ENERGY PREDICTED BY IDOCK:   -4.03 KCAL/MOL
REMARK 923 INTER-LIGAND FREE ENERGY PREDICTED BY IDOCK:   -4.69 KCAL/MOL
REMARK 924 INTRA-LIGAND FREE ENERGY PREDICTED BY IDOCK:    0.66 KCAL/MOL
REMARK 927      BINDING AFFINITY PREDICTED BY RF-SCORE:    0.00 PKD
ROOT
HETATM    1  C   UNL     1      -8.691   7.682  71.699  1.00  0.00    -0.132 C  
HETATM    2  C   UNL     1      -9.295   8.965  71.650  1.00  0.00    -0.328 C  
HETATM    3  C   UNL     1     -10.233   7.850  71.378  1.00  0.00    -0.226 C  
HETATM    4  C   UNL     1      -9.488   5.962  71.651  1.00  0.00    -0.149 C  
HETATM    5  C   UNL     1     -10.258   6.740  72.416  1.00  0.00    -0.201 C  
HETATM    6  C   UNL     1     -10.517   7.866  66.727  1.00  0.00    -0.317 C  
HETATM    7  O   UNL     1      -8.296   5.662  72.507  1.00  0.00    -0.114 OA 
HETATM    8  C   UNL     1      -9.213   7.240  67.378  1.00  0.00    -0.140 C  
HETATM    9  C   UNL     1     -11.532   6.224  71.075  1.00  0.00    -0.370 C  
HETATM   10  C   UNL     1     -10.399   6.954  73.917  1.00  0.00    -0.398 C  
HETATM   11  C   UNL     1      -8.915   6.032  66.493  1.00  0.00    -0.137 C  
HETATM   12  H   UNL     1      -7.950   4.787  72.634  1.00  0.00     0.000 HD 
HETATM   13  C   UNL     1     -10.761   6.146  69.441  1.00  0.00    -0.320 C  
HETATM   14  O   UNL     1     -10.389   4.797  69.135  1.00  0.00    -0.130 OA 
HETATM   15  C   UNL     1      -9.520   7.208  68.948  1.00  0.00    -0.142 C  
HETATM   16  H   UNL     1      -9.984   4.756  68.276  1.00  0.00     0.000 HD 
HETATM   17  C   UNL     1      -8.267   7.223  69.987  1.00  0.00    -0.132 C  
HETATM   18  F   UNL     1     -10.003   8.526  69.023  1.00  0.00    -0.173 F  
HETATM   19  C   UNL     1      -7.146   8.164  69.506  1.00  0.00    -0.051 C  
HETATM   20  C   UNL     1      -6.786   7.964  68.028  1.00  0.00    -0.072 C  
HETATM   21  C   UNL     1      -8.012   8.201  67.143  1.00  0.00    -0.105 C  
HETATM   22  C   UNL     1      -5.607   8.888  67.670  1.00  0.00    -0.039 C  
HETATM   23  C   UNL     1      -7.839   8.673  65.887  1.00  0.00    -0.102 C  
HETATM   24  C   UNL     1      -7.558   7.498  64.982  1.00  0.00    -0.098 C  
HETATM   25  C   UNL     1      -8.176   6.175  65.365  1.00  0.00    -0.145 C  
HETATM   26  O   UNL     1      -6.910   7.635  63.952  1.00  0.00    -0.056 OA 
ENDROOT
BRANCH   4  27
HETATM   27  C   UNL     1     -10.050   4.468  71.981  1.00  0.00    -0.196 C  
HETATM   28  O   UNL     1      -9.588   3.553  71.274  1.00  0.00    -0.151 OA 
HETATM   29  C   UNL     1     -10.927   4.085  73.180  1.00  0.00    -0.261 C  
ENDBRANCH   4  27
TORSDOF 1
ENDMDL
MODEL       72
REMARK 921   NORMALIZED FREE ENERGY PREDICTED BY IDOCK:   -4.34 KCAL/MOL
REMARK 922        TOTAL FREE ENERGY PREDICTED BY IDOCK:   -4.01 KCAL/MOL
REMARK 923 INTER-LIGAND FREE ENERGY PREDICTED BY IDOCK:   -4.58 KCAL/MOL
REMARK 924 INTRA-LIGAND FREE ENERGY PREDICTED BY IDOCK:    0.57 KCAL/MOL
REMARK 927      BINDING AFFINITY PREDICTED BY RF-SCORE:    0.00 PKD
ROOT
HETATM    1  C   UNL     1     -10.595   5.108  67.540  1.00  0.00    -0.085 C  
HETATM    2  C   UNL     1     -11.042   6.354  67.031  1.00  0.00    -0.405 C  
HETATM    3  C   UNL     1      -9.615   6.067  66.747  1.00  0.00    -0.171 C  
HETATM    4  C   UNL     1      -8.959   4.193  67.254  1.00  0.00    -0.128 C  
HETATM    5  C   UNL     1      -9.331   4.727  66.087  1.00  0.00    -0.152 C  
HETATM    6  C   UNL     1      -7.404   8.534  70.022  1.00  0.00    -0.055 C  
HETATM    7  O   UNL     1      -9.873   3.021  67.435  1.00  0.00    -0.326 OA 
HETATM    8  C   UNL     1      -8.083   7.172  70.467  1.00  0.00    -0.113 C  
HETATM    9  C   UNL     1      -7.619   5.568  66.309  1.00  0.00    -0.091 C  
HETATM   10  C   UNL     1     -10.045   4.195  64.852  1.00  0.00    -0.213 C  
HETATM   11  C   UNL     1      -7.087   6.584  71.464  1.00  0.00    -0.077 C  
HETATM   12  H   UNL     1      -9.569   2.152  67.670  1.00  0.00     0.000 HD 
HETATM   13  C   UNL     1      -7.324   5.995  68.042  1.00  0.00    -0.084 C  
HETATM   14  O   UNL     1      -6.536   4.978  68.672  1.00  0.00    -0.034 OA 
HETATM   15  C   UNL     1      -8.565   6.495  69.100  1.00  0.00    -0.129 C  
HETATM   16  H   UNL     1      -6.380   5.201  69.581  1.00  0.00     0.000 HD 
HETATM   17  C   UNL     1      -9.803   5.439  69.148  1.00  0.00    -0.242 C  
HETATM   18  F   UNL     1      -9.162   7.652  68.573  1.00  0.00    -0.143 F  
HETATM   19  C   UNL     1     -10.896   5.895  70.133  1.00  0.00    -0.402 C  
HETATM   20  C   UNL     1     -10.336   6.330  71.493  1.00  0.00    -0.243 C  
HETATM   21  C   UNL     1      -9.347   7.485  71.319  1.00  0.00    -0.157 C  
HETATM   22  C   UNL     1     -11.509   6.686  72.426  1.00  0.00    -0.300 C  
HETATM   23  C   UNL     1      -9.210   8.393  72.313  1.00  0.00    -0.329 C  
HETATM   24  C   UNL     1      -8.216   7.846  73.309  1.00  0.00    -0.182 C  
HETATM   25  C   UNL     1      -7.139   6.934  72.772  1.00  0.00    -0.074 C  
HETATM   26  O   UNL     1      -8.251   8.183  74.486  1.00  0.00    -0.241 OA 
ENDROOT
BRANCH   4  27
HETATM   27  C   UNL     1      -7.782   3.156  66.813  1.00  0.00    -0.076 C  
HETATM   28  O   UNL     1      -7.316   2.453  67.729  1.00  0.00    -0.054 OA 
HETATM   29  C   UNL     1      -7.349   2.850  65.374  1.00  0.00    -0.071 C  
ENDBRANCH   4  27
TORSDOF 1
ENDMDL
MODEL       73
REMARK 921   NORMALIZED FREE ENERGY PREDICTED BY IDOCK:   -4.30 KCAL/MOL
REMARK 922        TOTAL FREE ENERGY PREDICTED BY IDOCK:   -3.97 KCAL/MOL
REMARK 923 INTER-LIGAND FREE ENERGY PREDICTED BY IDOCK:   -4.52 KCAL/MOL
REMARK 924 INTRA-LIGAND FREE ENERGY PREDICTED BY IDOCK:    0.55 KCAL/MOL
REMARK 927      BINDING AFFINITY PREDICTED BY RF-SCORE:    0.00 PKD
ROOT
HETATM    1  C   UNL     1     -11.182   8.086  70.837  1.00  0.00    -0.282 C  
HETATM    2  C   UNL     1     -11.326   8.734  72.091  1.00  0.00    -0.411 C  
HETATM    3  C   UNL     1     -10.213   9.263  71.266  1.00  0.00    -0.383 C  
HETATM    4  C   UNL     1     -10.084   8.532  69.357  1.00  0.00    -0.205 C  
HETATM    5  C   UNL     1     -10.579   9.672  69.849  1.00  0.00    -0.281 C  
HETATM    6  C   UNL     1      -6.485   7.166  73.113  1.00  0.00    -0.064 C  
HETATM    7  O   UNL     1     -11.237   7.907  68.634  1.00  0.00    -0.355 OA 
HETATM    8  C   UNL     1      -7.413   6.302  72.160  1.00  0.00    -0.094 C  
HETATM    9  C   UNL     1      -8.699  10.022  70.020  1.00  0.00    -0.118 C  
HETATM   10  C   UNL     1     -11.747  10.574  69.475  1.00  0.00    -0.313 C  
HETATM   11  C   UNL     1      -6.422   5.453  71.368  1.00  0.00    -0.036 C  
HETATM   12  H   UNL     1     -11.178   7.568  67.749  1.00  0.00     0.000 HD 
HETATM   13  C   UNL     1      -7.801   8.530  70.508  1.00  0.00    -0.086 C  
HETATM   14  O   UNL     1      -7.240   7.893  69.354  1.00  0.00    -0.075 OA 
HETATM   15  C   UNL     1      -8.456   7.351  71.552  1.00  0.00    -0.112 C  
HETATM   16  H   UNL     1      -6.768   7.110  69.611  1.00  0.00     0.000 HD 
HETATM   17  C   UNL     1      -9.902   6.804  71.040  1.00  0.00    -0.192 C  
HETATM   18  F   UNL     1      -8.770   7.963  72.777  1.00  0.00    -0.154 F  
HETATM   19  C   UNL     1     -10.460   5.719  71.980  1.00  0.00    -0.267 C  
HETATM   20  C   UNL     1      -9.426   4.642  72.335  1.00  0.00    -0.172 C  
HETATM   21  C   UNL     1      -8.209   5.274  73.015  1.00  0.00    -0.112 C  
HETATM   22  C   UNL     1     -10.103   3.567  73.206  1.00  0.00    -0.205 C  
HETATM   23  C   UNL     1      -7.508   4.551  73.919  1.00  0.00    -0.081 C  
HETATM   24  C   UNL     1      -6.505   3.711  73.166  1.00  0.00    -0.028 C  
HETATM   25  C   UNL     1      -5.981   4.270  71.865  1.00  0.00    -0.016 C  
HETATM   26  O   UNL     1      -6.092   2.655  73.628  1.00  0.00    -0.010 OA 
ENDROOT
BRANCH   4  27
HETATM   27  C   UNL     1      -9.484   8.996  67.915  1.00  0.00    -0.141 C  
HETATM   28  O   UNL     1      -8.941   8.098  67.245  1.00  0.00    -0.134 OA 
HETATM   29  C   UNL     1      -9.697  10.363  67.253  1.00  0.00    -0.195 C  
ENDBRANCH   4  27
TORSDOF 1
ENDMDL
MODEL       74
REMARK 921   NORMALIZED FREE ENERGY PREDICTED BY IDOCK:   -4.30 KCAL/MOL
REMARK 922        TOTAL FREE ENERGY PREDICTED BY IDOCK:   -3.96 KCAL/MOL
REMARK 923 INTER-LIGAND FREE ENERGY PREDICTED BY IDOCK:   -4.52 KCAL/MOL
REMARK 924 INTRA-LIGAND FREE ENERGY PREDICTED BY IDOCK:    0.56 KCAL/MOL
REMARK 927      BINDING AFFINITY PREDICTED BY RF-SCORE:    0.00 PKD
ROOT
HETATM    1  C   UNL     1     -10.989  12.003  68.320  1.00  0.00    -0.275 C  
HETATM    2  C   UNL     1     -11.740  12.346  67.166  1.00  0.00    -0.415 C  
HETATM    3  C   UNL     1     -10.376  11.848  66.867  1.00  0.00    -0.238 C  
HETATM    4  C   UNL     1      -9.315  11.124  68.463  1.00  0.00    -0.190 C  
HETATM    5  C   UNL     1     -10.009  10.514  67.497  1.00  0.00    -0.204 C  
HETATM    6  C   UNL     1      -7.991  15.779  66.119  1.00  0.00     0.441 C  
HETATM    7  O   UNL     1      -9.955  10.653  69.733  1.00  0.00    -0.429 OA 
HETATM    8  C   UNL     1      -8.317  15.397  67.623  1.00  0.00    -0.174 C  
HETATM    9  C   UNL     1      -8.460  11.061  66.503  1.00  0.00    -0.161 C  
HETATM   10  C   UNL     1     -10.862   9.254  67.431  1.00  0.00    -0.165 C  
HETATM   11  C   UNL     1      -7.049  15.792  68.377  1.00  0.00    -0.116 C  
HETATM   12  H   UNL     1      -9.464  10.317  70.473  1.00  0.00     0.000 HD 
HETATM   13  C   UNL     1      -7.888  12.692  67.035  1.00  0.00    -0.038 C  
HETATM   14  O   UNL     1      -6.823  12.556  67.982  1.00  0.00    -0.075 OA 
HETATM   15  C   UNL     1      -8.949  13.929  67.540  1.00  0.00    -0.197 C  
HETATM   16  H   UNL     1      -6.522  13.412  68.261  1.00  0.00     0.000 HD 
HETATM   17  C   UNL     1      -9.948  13.443  68.729  1.00  0.00    -0.063 C  
HETATM   18  F   UNL     1      -9.834  14.218  66.487  1.00  0.00    -0.250 F  
HETATM   19  C   UNL     1     -10.874  14.584  69.191  1.00  0.00    -0.278 C  
HETATM   20  C   UNL     1     -10.126  15.900  69.443  1.00  0.00    -0.267 C  
HETATM   21  C   UNL     1      -9.410  16.360  68.171  1.00  0.00    -0.209 C  
HETATM   22  C   UNL     1     -11.123  16.947  69.977  1.00  0.00     0.218 C  
HETATM   23  C   UNL     1      -9.228  17.683  67.957  1.00  0.00    -0.271 C  
HETATM   24  C   UNL     1      -7.969  18.101  68.677  1.00  0.00    -0.288 C  
HETATM   25  C   UNL     1      -6.886  17.060  68.828  1.00  0.00    -0.199 C  
HETATM   26  O   UNL     1      -7.816  19.254  69.063  1.00  0.00    -0.342 OA 
ENDROOT
BRANCH   4  27
HETATM   27  C   UNL     1      -8.095  10.079  68.739  1.00  0.00    -0.106 C  
HETATM   28  O   UNL     1      -7.314  10.397  69.655  1.00  0.00    -0.126 OA 
HETATM   29  C   UNL     1      -7.946   8.688  68.111  1.00  0.00    -0.107 C  
ENDBRANCH   4  27
TORSDOF 1
ENDMDL
MODEL       75
REMARK 921   NORMALIZED FREE ENERGY PREDICTED BY IDOCK:   -4.28 KCAL/MOL
REMARK 922        TOTAL FREE ENERGY PREDICTED BY IDOCK:   -3.95 KCAL/MOL
REMARK 923 INTER-LIGAND FREE ENERGY PREDICTED BY IDOCK:   -4.74 KCAL/MOL
REMARK 924 INTRA-LIGAND FREE ENERGY PREDICTED BY IDOCK:    0.79 KCAL/MOL
REMARK 927      BINDING AFFINITY PREDICTED BY RF-SCORE:    0.00 PKD
ROOT
HETATM    1  C   UNL     1      -7.639   6.534  67.590  1.00  0.00    -0.105 C  
HETATM    2  C   UNL     1      -6.376   7.177  67.650  1.00  0.00    -0.047 C  
HETATM    3  C   UNL     1      -7.133   7.222  68.924  1.00  0.00    -0.084 C  
HETATM    4  C   UNL     1      -8.862   6.124  68.980  1.00  0.00    -0.123 C  
HETATM    5  C   UNL     1      -7.631   5.882  69.442  1.00  0.00    -0.092 C  
HETATM    6  C   UNL     1      -8.978  11.499  68.870  1.00  0.00     0.029 C  
HETATM    7  O   UNL     1      -9.142   4.980  68.054  1.00  0.00    -0.110 OA 
HETATM    8  C   UNL     1      -9.657  10.399  67.952  1.00  0.00    -0.157 C  
HETATM    9  C   UNL     1      -8.221   7.184  70.724  1.00  0.00    -0.120 C  
HETATM   10  C   UNL     1      -6.776   4.631  69.589  1.00  0.00    -0.044 C  
HETATM   11  C   UNL     1     -11.150  10.695  68.081  1.00  0.00    -0.343 C  
HETATM   12  H   UNL     1      -9.943   4.470  68.080  1.00  0.00     0.000 HD 
HETATM   13  C   UNL     1      -9.221   8.468  69.934  1.00  0.00    -0.154 C  
HETATM   14  O   UNL     1     -10.613   8.173  70.089  1.00  0.00    -0.228 OA 
HETATM   15  C   UNL     1      -8.927   9.032  68.351  1.00  0.00    -0.133 C  
HETATM   16  H   UNL     1     -11.139   8.847  69.675  1.00  0.00     0.000 HD 
HETATM   17  C   UNL     1      -8.883   7.824  67.260  1.00  0.00    -0.130 C  
HETATM   18  F   UNL     1      -7.622   9.550  68.295  1.00  0.00    -0.077 F  
HETATM   19  C   UNL     1      -8.649   8.359  65.835  1.00  0.00    -0.179 C  
HETATM   20  C   UNL     1      -9.554   9.547  65.482  1.00  0.00    -0.349 C  
HETATM   21  C   UNL     1      -9.329  10.701  66.461  1.00  0.00    -0.192 C  
HETATM   22  C   UNL     1      -9.301   9.951  64.017  1.00  0.00    -0.280 C  
HETATM   23  C   UNL     1      -9.510  11.972  66.037  1.00  0.00    -0.229 C  
HETATM   24  C   UNL     1     -10.977  12.302  66.168  1.00  0.00    -0.293 C  
HETATM   25  C   UNL     1     -11.740  11.607  67.270  1.00  0.00    -0.255 C  
HETATM   26  O   UNL     1     -11.503  13.144  65.450  1.00  0.00    -0.295 OA 
ENDROOT
BRANCH   4  27
HETATM   27  C   UNL     1      -9.809   5.402  70.092  1.00  0.00    -0.207 C  
HETATM   28  O   UNL     1     -11.016   5.702  70.045  1.00  0.00    -0.328 OA 
HETATM   29  C   UNL     1      -9.380   4.273  71.039  1.00  0.00    -0.221 C  
ENDBRANCH   4  27
TORSDOF 1
ENDMDL
MODEL       76
REMARK 921   NORMALIZED FREE ENERGY PREDICTED BY IDOCK:   -4.22 KCAL/MOL
REMARK 922        TOTAL FREE ENERGY PREDICTED BY IDOCK:   -3.89 KCAL/MOL
REMARK 923 INTER-LIGAND FREE ENERGY PREDICTED BY IDOCK:   -4.44 KCAL/MOL
REMARK 924 INTRA-LIGAND FREE ENERGY PREDICTED BY IDOCK:    0.56 KCAL/MOL
REMARK 927      BINDING AFFINITY PREDICTED BY RF-SCORE:    0.00 PKD
ROOT
HETATM    1  C   UNL     1      -8.926   9.540  68.670  1.00  0.00    -0.132 C  
HETATM    2  C   UNL     1     -10.222   9.153  69.100  1.00  0.00    -0.215 C  
HETATM    3  C   UNL     1      -9.917   8.774  67.699  1.00  0.00    -0.247 C  
HETATM    4  C   UNL     1      -7.991   9.098  67.081  1.00  0.00    -0.106 C  
HETATM    5  C   UNL     1      -8.627   7.997  67.493  1.00  0.00    -0.126 C  
HETATM    6  C   UNL     1     -12.049  12.114  65.249  1.00  0.00    -0.257 C  
HETATM    7  O   UNL     1      -6.834   9.232  68.023  1.00  0.00    -0.067 OA 
HETATM    8  C   UNL     1     -10.675  12.486  65.950  1.00  0.00    -0.294 C  
HETATM    9  C   UNL     1      -9.398   8.196  65.745  1.00  0.00    -0.053 C  
HETATM   10  C   UNL     1      -8.216   6.763  68.284  1.00  0.00    -0.115 C  
HETATM   11  C   UNL     1      -9.980  13.380  64.926  1.00  0.00    -0.162 C  
HETATM   12  H   UNL     1      -5.941   9.382  67.737  1.00  0.00     0.000 HD 
HETATM   13  C   UNL     1      -9.675   9.939  65.351  1.00  0.00    -0.306 C  
HETATM   14  O   UNL     1      -8.588  10.445  64.566  1.00  0.00    -0.174 OA 
HETATM   15  C   UNL     1     -10.124  11.096  66.521  1.00  0.00    -0.223 C  
HETATM   16  H   UNL     1      -8.734  11.361  64.359  1.00  0.00     0.000 HD 
HETATM   17  C   UNL     1      -9.104  11.125  67.789  1.00  0.00    -0.149 C  
HETATM   18  F   UNL     1     -11.337  10.694  67.105  1.00  0.00    -0.345 F  
HETATM   19  C   UNL     1      -9.511  12.198  68.817  1.00  0.00     0.048 C  
HETATM   20  C   UNL     1      -9.819  13.558  68.176  1.00  0.00    -0.237 C  
HETATM   21  C   UNL     1     -10.955  13.424  67.159  1.00  0.00    -0.292 C  
HETATM   22  C   UNL     1     -10.133  14.575  69.289  1.00  0.00    -0.083 C  
HETATM   23  C   UNL     1     -11.776  14.478  66.944  1.00  0.00    -0.399 C  
HETATM   24  C   UNL     1     -11.122  15.375  65.921  1.00  0.00    -0.247 C  
HETATM   25  C   UNL     1     -10.226  14.713  64.902  1.00  0.00    -0.322 C  
HETATM   26  O   UNL     1     -11.364  16.575  65.886  1.00  0.00     0.243 OA 
ENDROOT
BRANCH   4  27
HETATM   27  C   UNL     1      -6.959   8.516  65.962  1.00  0.00    -0.068 C  
HETATM   28  O   UNL     1      -6.209   9.359  65.434  1.00  0.00    -0.062 OA 
HETATM   29  C   UNL     1      -6.712   7.034  65.654  1.00  0.00    -0.052 C  
ENDBRANCH   4  27
TORSDOF 1
ENDMDL
MODEL       77
REMARK 921   NORMALIZED FREE ENERGY PREDICTED BY IDOCK:   -4.22 KCAL/MOL
REMARK 922        TOTAL FREE ENERGY PREDICTED BY IDOCK:   -3.88 KCAL/MOL
REMARK 923 INTER-LIGAND FREE ENERGY PREDICTED BY IDOCK:   -4.45 KCAL/MOL
REMARK 924 INTRA-LIGAND FREE ENERGY PREDICTED BY IDOCK:    0.57 KCAL/MOL
REMARK 927      BINDING AFFINITY PREDICTED BY RF-SCORE:    0.00 PKD
ROOT
HETATM    1  C   UNL     1      -7.633  15.276  68.372  1.00  0.00    -0.116 C  
HETATM    2  C   UNL     1      -6.559  15.111  67.460  1.00  0.00    -0.167 C  
HETATM    3  C   UNL     1      -7.847  15.460  66.814  1.00  0.00    -0.105 C  
HETATM    4  C   UNL     1      -9.387  15.932  68.079  1.00  0.00    -0.201 C  
HETATM    5  C   UNL     1      -8.550  16.690  67.365  1.00  0.00    -0.203 C  
HETATM    6  C   UNL     1      -9.379  11.330  65.296  1.00  0.00    -0.225 C  
HETATM    7  O   UNL     1      -9.184  16.385  69.492  1.00  0.00    -0.137 OA 
HETATM    8  C   UNL     1      -9.526  11.640  66.844  1.00  0.00    -0.195 C  
HETATM    9  C   UNL     1      -9.683  16.031  65.962  1.00  0.00    -0.376 C  
HETATM   10  C   UNL     1      -7.892  18.046  67.582  1.00  0.00    -0.220 C  
HETATM   11  C   UNL     1     -10.884  11.040  67.203  1.00  0.00    -0.336 C  
HETATM   12  H   UNL     1      -9.898  16.604  70.079  1.00  0.00     0.000 HD 
HETATM   13  C   UNL     1     -10.148  14.307  66.257  1.00  0.00    -0.298 C  
HETATM   14  O   UNL     1     -11.437  14.244  66.877  1.00  0.00    -0.331 OA 
HETATM   15  C   UNL     1      -9.103  13.176  66.991  1.00  0.00    -0.231 C  
HETATM   16  H   UNL     1     -11.682  13.340  67.031  1.00  0.00     0.000 HD 
HETATM   17  C   UNL     1      -8.537  13.695  68.427  1.00  0.00    -0.151 C  
HETATM   18  F   UNL     1      -7.936  13.075  66.214  1.00  0.00     0.308 F  
HETATM   19  C   UNL     1      -7.622  12.645  69.085  1.00  0.00     0.254 C  
HETATM   20  C   UNL     1      -8.222  11.233  69.073  1.00  0.00    -0.026 C  
HETATM   21  C   UNL     1      -8.499  10.782  67.637  1.00  0.00    -0.119 C  
HETATM   22  C   UNL     1      -7.273  10.280  69.824  1.00  0.00    -0.147 C  
HETATM   23  C   UNL     1      -8.434   9.465  67.335  1.00  0.00    -0.125 C  
HETATM   24  C   UNL     1      -9.770   8.845  67.663  1.00  0.00    -0.161 C  
HETATM   25  C   UNL     1     -10.986   9.732  67.545  1.00  0.00    -0.205 C  
HETATM   26  O   UNL     1      -9.862   7.657  67.950  1.00  0.00    -0.147 OA 
ENDROOT
BRANCH   4  27
HETATM   27  C   UNL     1     -10.768  16.797  68.044  1.00  0.00    -0.355 C  
HETATM   28  O   UNL     1     -11.706  16.338  68.722  1.00  0.00    -0.317 OA 
HETATM   29  C   UNL     1     -10.941  18.186  67.417  1.00  0.00    -0.113 C  
ENDBRANCH   4  27
TORSDOF 1
ENDMDL
MODEL       78
REMARK 921   NORMALIZED FREE ENERGY PREDICTED BY IDOCK:   -4.22 KCAL/MOL
REMARK 922        TOTAL FREE ENERGY PREDICTED BY IDOCK:   -3.88 KCAL/MOL
REMARK 923 INTER-LIGAND FREE ENERGY PREDICTED BY IDOCK:   -4.44 KCAL/MOL
REMARK 924 INTRA-LIGAND FREE ENERGY PREDICTED BY IDOCK:    0.56 KCAL/MOL
REMARK 927      BINDING AFFINITY PREDICTED BY RF-SCORE:    0.00 PKD
ROOT
HETATM    1  C   UNL     1      -7.438  10.272  67.706  1.00  0.00    -0.088 C  
HETATM    2  C   UNL     1      -6.939  10.123  66.387  1.00  0.00    -0.105 C  
HETATM    3  C   UNL     1      -8.419  10.145  66.469  1.00  0.00    -0.128 C  
HETATM    4  C   UNL     1      -9.209  10.581  68.309  1.00  0.00    -0.152 C  
HETATM    5  C   UNL     1      -9.021  11.325  67.215  1.00  0.00    -0.149 C  
HETATM    6  C   UNL     1      -9.524   5.625  66.244  1.00  0.00    -0.171 C  
HETATM    7  O   UNL     1      -8.451  11.299  69.382  1.00  0.00    -0.374 OA 
HETATM    8  C   UNL     1      -8.963   6.172  67.623  1.00  0.00    -0.111 C  
HETATM    9  C   UNL     1     -10.512  10.261  66.641  1.00  0.00    -0.260 C  
HETATM   10  C   UNL     1      -8.664  12.785  66.969  1.00  0.00    -0.197 C  
HETATM   11  C   UNL     1      -9.799   5.437  68.667  1.00  0.00    -0.204 C  
HETATM   12  H   UNL     1      -8.817  11.501  70.235  1.00  0.00     0.000 HD 
HETATM   13  C   UNL     1     -10.373   8.564  67.252  1.00  0.00    -0.302 C  
HETATM   14  O   UNL     1     -11.146   8.406  68.448  1.00  0.00    -0.426 OA 
HETATM   15  C   UNL     1      -8.880   7.758  67.424  1.00  0.00    -0.127 C  
HETATM   16  H   UNL     1     -11.073   7.515  68.769  1.00  0.00     0.000 HD 
HETATM   17  C   UNL     1      -7.820   8.601  68.327  1.00  0.00    -0.102 C  
HETATM   18  F   UNL     1      -8.251   7.709  66.169  1.00  0.00    -0.102 F  
HETATM   19  C   UNL     1      -6.491   7.841  68.495  1.00  0.00    -0.052 C  
HETATM   20  C   UNL     1      -6.685   6.371  68.891  1.00  0.00    -0.060 C  
HETATM   21  C   UNL     1      -7.517   5.638  67.836  1.00  0.00    -0.077 C  
HETATM   22  C   UNL     1      -5.304   5.726  69.114  1.00  0.00    -0.004 C  
HETATM   23  C   UNL     1      -7.314   4.316  67.635  1.00  0.00    -0.069 C  
HETATM   24  C   UNL     1      -8.142   3.559  68.645  1.00  0.00    -0.065 C  
HETATM   25  C   UNL     1      -9.425   4.209  69.105  1.00  0.00    -0.248 C  
HETATM   26  O   UNL     1      -7.813   2.441  69.020  1.00  0.00    -0.049 OA 
ENDROOT
BRANCH   4  27
HETATM   27  C   UNL     1     -10.586  11.196  68.926  1.00  0.00    -0.207 C  
HETATM   28  O   UNL     1     -10.951  10.710  70.013  1.00  0.00    -0.282 OA 
HETATM   29  C   UNL     1     -11.341  12.419  68.390  1.00  0.00    -0.330 C  
ENDBRANCH   4  27
TORSDOF 1
ENDMDL
MODEL       79
REMARK 921   NORMALIZED FREE ENERGY PREDICTED BY IDOCK:   -4.17 KCAL/MOL
REMARK 922        TOTAL FREE ENERGY PREDICTED BY IDOCK:   -3.83 KCAL/MOL
REMARK 923 INTER-LIGAND FREE ENERGY PREDICTED BY IDOCK:   -4.38 KCAL/MOL
REMARK 924 INTRA-LIGAND FREE ENERGY PREDICTED BY IDOCK:    0.55 KCAL/MOL
REMARK 927      BINDING AFFINITY PREDICTED BY RF-SCORE:    0.00 PKD
ROOT
HETATM    1  C   UNL     1      -7.714   7.836  65.559  1.00  0.00    -0.100 C  
HETATM    2  C   UNL     1      -6.478   8.328  66.053  1.00  0.00    -0.049 C  
HETATM    3  C   UNL     1      -7.111   7.311  66.926  1.00  0.00    -0.086 C  
HETATM    4  C   UNL     1      -8.780   6.394  66.172  1.00  0.00    -0.146 C  
HETATM    5  C   UNL     1      -7.502   6.009  66.246  1.00  0.00    -0.086 C  
HETATM    6  C   UNL     1      -9.126   9.910  70.227  1.00  0.00    -0.108 C  
HETATM    7  O   UNL     1      -9.101   6.338  64.710  1.00  0.00    -0.255 OA 
HETATM    8  C   UNL     1      -9.844   9.836  68.815  1.00  0.00    -0.176 C  
HETATM    9  C   UNL     1      -8.019   5.809  68.085  1.00  0.00    -0.104 C  
HETATM   10  C   UNL     1      -6.586   5.181  65.356  1.00  0.00    -0.040 C  
HETATM   11  C   UNL     1     -11.328   9.779  69.170  1.00  0.00    -0.031 C  
HETATM   12  H   UNL     1      -9.875   5.912  64.360  1.00  0.00     0.000 HD 
HETATM   13  C   UNL     1      -9.141   7.134  68.593  1.00  0.00    -0.133 C  
HETATM   14  O   UNL     1     -10.500   6.688  68.508  1.00  0.00    -0.180 OA 
HETATM   15  C   UNL     1      -9.024   8.729  68.002  1.00  0.00    -0.140 C  
HETATM   16  H   UNL     1     -11.090   7.383  68.775  1.00  0.00     0.000 HD 
HETATM   17  C   UNL     1      -9.035   8.790  66.375  1.00  0.00    -0.194 C  
HETATM   18  F   UNL     1      -7.752   9.233  68.323  1.00  0.00    -0.084 F  
HETATM   19  C   UNL     1      -8.960  10.241  65.864  1.00  0.00    -0.181 C  
HETATM   20  C   UNL     1      -9.943  11.181  66.575  1.00  0.00    -0.252 C  
HETATM   21  C   UNL     1      -9.672  11.197  68.081  1.00  0.00    -0.186 C  
HETATM   22  C   UNL     1      -9.847  12.580  65.938  1.00  0.00    -0.257 C  
HETATM   23  C   UNL     1      -9.945  12.317  68.790  1.00  0.00    -0.048 C  
HETATM   24  C   UNL     1     -11.405  12.282  69.171  1.00  0.00    -0.272 C  
HETATM   25  C   UNL     1     -12.030  10.922  69.368  1.00  0.00    -0.393 C  
HETATM   26  O   UNL     1     -12.030  13.316  69.372  1.00  0.00    -0.306 OA 
ENDROOT
BRANCH   4  27
HETATM   27  C   UNL     1      -9.586   4.990  66.361  1.00  0.00    -0.164 C  
HETATM   28  O   UNL     1     -10.828   5.078  66.346  1.00  0.00    -0.257 OA 
HETATM   29  C   UNL     1      -8.960   3.590  66.363  1.00  0.00    -0.149 C  
ENDBRANCH   4  27
TORSDOF 1
ENDMDL
MODEL       80
REMARK 921   NORMALIZED FREE ENERGY PREDICTED BY IDOCK:   -4.02 KCAL/MOL
REMARK 922        TOTAL FREE ENERGY PREDICTED BY IDOCK:   -3.67 KCAL/MOL
REMARK 923 INTER-LIGAND FREE ENERGY PREDICTED BY IDOCK:   -4.23 KCAL/MOL
REMARK 924 INTRA-LIGAND FREE ENERGY PREDICTED BY IDOCK:    0.55 KCAL/MOL
REMARK 927      BINDING AFFINITY PREDICTED BY RF-SCORE:    0.00 PKD
ROOT
HETATM    1  C   UNL     1      -9.857   8.628  66.264  1.00  0.00    -0.320 C  
HETATM    2  C   UNL     1     -10.354   9.905  66.632  1.00  0.00    -0.275 C  
HETATM    3  C   UNL     1      -8.877   9.848  66.510  1.00  0.00    -0.154 C  
HETATM    4  C   UNL     1      -8.105   8.102  65.767  1.00  0.00    -0.115 C  
HETATM    5  C   UNL     1      -8.345   9.288  65.200  1.00  0.00    -0.155 C  
HETATM    6  C   UNL     1      -7.500   9.438  70.941  1.00  0.00    -0.097 C  
HETATM    7  O   UNL     1      -8.899   7.132  64.948  1.00  0.00    -0.349 OA 
HETATM    8  C   UNL     1      -8.085   8.144  70.235  1.00  0.00    -0.109 C  
HETATM    9  C   UNL     1      -6.794   9.724  66.246  1.00  0.00    -0.092 C  
HETATM   10  C   UNL     1      -8.791   9.736  63.815  1.00  0.00    -0.259 C  
HETATM   11  C   UNL     1      -7.200   7.016  70.761  1.00  0.00    -0.071 C  
HETATM   12  H   UNL     1      -8.541   6.322  64.604  1.00  0.00     0.000 HD 
HETATM   13  C   UNL     1      -6.826   8.874  67.842  1.00  0.00    -0.070 C  
HETATM   14  O   UNL     1      -6.039   7.679  67.780  1.00  0.00    -0.041 OA 
HETATM   15  C   UNL     1      -8.266   8.567  68.703  1.00  0.00    -0.122 C  
HETATM   16  H   UNL     1      -6.054   7.233  68.618  1.00  0.00     0.000 HD 
HETATM   17  C   UNL     1      -9.371   7.779  67.803  1.00  0.00    -0.155 C  
HETATM   18  F   UNL     1      -8.899   9.793  68.970  1.00  0.00    -0.127 F  
HETATM   19  C   UNL     1     -10.650   7.485  68.609  1.00  0.00    -0.171 C  
HETATM   20  C   UNL     1     -10.364   6.884  69.992  1.00  0.00    -0.219 C  
HETATM   21  C   UNL     1      -9.495   7.835  70.818  1.00  0.00    -0.163 C  
HETATM   22  C   UNL     1     -11.702   6.552  70.679  1.00  0.00    -0.436 C  
HETATM   23  C   UNL     1      -9.618   7.841  72.165  1.00  0.00    -0.230 C  
HETATM   24  C   UNL     1      -8.740   6.746  72.717  1.00  0.00    -0.121 C  
HETATM   25  C   UNL     1      -7.497   6.402  71.933  1.00  0.00    -0.094 C  
HETATM   26  O   UNL     1      -8.998   6.209  73.788  1.00  0.00    -0.126 OA 
ENDROOT
BRANCH   4  27
HETATM   27  C   UNL     1      -6.764   7.599  64.988  1.00  0.00    -0.047 C  
HETATM   28  O   UNL     1      -6.327   6.487  65.337  1.00  0.00    -0.036 OA 
HETATM   29  C   UNL     1      -6.130   8.276  63.766  1.00  0.00    -0.071 C  
ENDBRANCH   4  27
TORSDOF 1
ENDMDL
MODEL       81
REMARK 921   NORMALIZED FREE ENERGY PREDICTED BY IDOCK:   -3.98 KCAL/MOL
REMARK 922        TOTAL FREE ENERGY PREDICTED BY IDOCK:   -3.63 KCAL/MOL
REMARK 923 INTER-LIGAND FREE ENERGY PREDICTED BY IDOCK:   -4.20 KCAL/MOL
REMARK 924 INTRA-LIGAND FREE ENERGY PREDICTED BY IDOCK:    0.57 KCAL/MOL
REMARK 927      BINDING AFFINITY PREDICTED BY RF-SCORE:    0.00 PKD
ROOT
HETATM    1  C   UNL     1      -8.458   5.302  69.250  1.00  0.00    -0.101 C  
HETATM    2  C   UNL     1      -9.585   5.498  70.090  1.00  0.00    -0.223 C  
HETATM    3  C   UNL     1      -9.931   5.243  68.671  1.00  0.00    -0.234 C  
HETATM    4  C   UNL     1      -8.373   4.729  67.445  1.00  0.00    -0.105 C  
HETATM    5  C   UNL     1      -9.311   3.999  68.054  1.00  0.00    -0.220 C  
HETATM    6  C   UNL     1     -10.776   9.523  67.038  1.00  0.00    -0.220 C  
HETATM    7  O   UNL     1      -7.079   4.166  67.947  1.00  0.00    -0.058 OA 
HETATM    8  C   UNL     1      -9.260   9.104  67.239  1.00  0.00    -0.157 C  
HETATM    9  C   UNL     1     -10.363   4.799  66.661  1.00  0.00    -0.258 C  
HETATM   10  C   UNL     1      -9.343   2.609  68.675  1.00  0.00    -0.244 C  
HETATM   11  C   UNL     1      -8.554   9.721  66.034  1.00  0.00    -0.146 C  
HETATM   12  H   UNL     1      -6.356   3.928  67.379  1.00  0.00     0.000 HD 
HETATM   13  C   UNL     1      -9.856   6.511  66.365  1.00  0.00    -0.052 C  
HETATM   14  O   UNL     1      -8.947   6.571  65.259  1.00  0.00    -0.366 OA 
HETATM   15  C   UNL     1      -9.316   7.548  67.607  1.00  0.00    -0.137 C  
HETATM   16  H   UNL     1      -8.681   7.469  65.103  1.00  0.00     0.000 HD 
HETATM   17  C   UNL     1      -8.090   6.905  68.464  1.00  0.00    -0.120 C  
HETATM   18  F   UNL     1     -10.337   7.667  68.565  1.00  0.00    -0.189 F  
HETATM   19  C   UNL     1      -7.599   7.870  69.558  1.00  0.00    -0.099 C  
HETATM   20  C   UNL     1      -7.378   9.299  69.044  1.00  0.00    -0.072 C  
HETATM   21  C   UNL     1      -8.676   9.866  68.464  1.00  0.00    -0.121 C  
HETATM   22  C   UNL     1      -6.812  10.161  70.189  1.00  0.00    -0.146 C  
HETATM   23  C   UNL     1      -8.900  11.198  68.524  1.00  0.00    -0.161 C  
HETATM   24  C   UNL     1      -8.227  11.837  67.333  1.00  0.00    -0.160 C  
HETATM   25  C   UNL     1      -8.113  11.002  66.080  1.00  0.00    -0.141 C  
HETATM   26  O   UNL     1      -7.850  13.002  67.370  1.00  0.00    -0.165 OA 
ENDROOT
BRANCH   4  27
HETATM   27  C   UNL     1      -8.138   3.917  66.052  1.00  0.00    -0.101 C  
HETATM   28  O   UNL     1      -7.216   4.343  65.331  1.00  0.00    -0.066 OA 
HETATM   29  C   UNL     1      -8.812   2.597  65.659  1.00  0.00    -0.134 C  
ENDBRANCH   4  27
TORSDOF 1
ENDMDL
MODEL       82
REMARK 921   NORMALIZED FREE ENERGY PREDICTED BY IDOCK:   -3.98 KCAL/MOL
REMARK 922        TOTAL FREE ENERGY PREDICTED BY IDOCK:   -3.63 KCAL/MOL
REMARK 923 INTER-LIGAND FREE ENERGY PREDICTED BY IDOCK:   -4.20 KCAL/MOL
REMARK 924 INTRA-LIGAND FREE ENERGY PREDICTED BY IDOCK:    0.57 KCAL/MOL
REMARK 927      BINDING AFFINITY PREDICTED BY RF-SCORE:    0.00 PKD
ROOT
HETATM    1  C   UNL     1      -9.676   6.705  66.738  1.00  0.00    -0.217 C  
HETATM    2  C   UNL     1     -11.065   6.432  66.651  1.00  0.00    -0.093 C  
HETATM    3  C   UNL     1     -10.736   7.610  67.490  1.00  0.00    -0.280 C  
HETATM    4  C   UNL     1      -8.774   8.198  67.481  1.00  0.00    -0.129 C  
HETATM    5  C   UNL     1      -9.850   8.658  66.836  1.00  0.00    -0.305 C  
HETATM    6  C   UNL     1     -10.971   5.887  71.812  1.00  0.00    -0.327 C  
HETATM    7  O   UNL     1      -7.811   7.842  66.391  1.00  0.00    -0.090 OA 
HETATM    8  C   UNL     1      -9.683   5.540  70.955  1.00  0.00    -0.229 C  
HETATM    9  C   UNL     1     -10.213   9.316  68.603  1.00  0.00    -0.220 C  
HETATM   10  C   UNL     1     -10.088   9.266  65.460  1.00  0.00     0.150 C  
HETATM   11  C   UNL     1      -8.546   5.608  71.973  1.00  0.00    -0.130 C  
HETATM   12  H   UNL     1      -6.901   8.114  66.386  1.00  0.00     0.000 HD 
HETATM   13  C   UNL     1      -9.708   8.117  69.860  1.00  0.00    -0.176 C  
HETATM   14  O   UNL     1      -8.409   8.448  70.362  1.00  0.00    -0.112 OA 
HETATM   15  C   UNL     1      -9.823   6.431  69.634  1.00  0.00    -0.159 C  
HETATM   16  H   UNL     1      -8.143   7.819  71.023  1.00  0.00     0.000 HD 
HETATM   17  C   UNL     1      -9.074   5.934  68.276  1.00  0.00    -0.118 C  
HETATM   18  F   UNL     1     -11.167   6.102  69.386  1.00  0.00    -0.374 F  
HETATM   19  C   UNL     1      -9.162   4.405  68.109  1.00  0.00    -0.178 C  
HETATM   20  C   UNL     1      -8.804   3.639  69.389  1.00  0.00    -0.150 C  
HETATM   21  C   UNL     1      -9.737   4.043  70.533  1.00  0.00    -0.258 C  
HETATM   22  C   UNL     1      -8.843   2.127  69.095  1.00  0.00    -0.144 C  
HETATM   23  C   UNL     1     -10.026   3.142  71.499  1.00  0.00    -0.132 C  
HETATM   24  C   UNL     1      -8.927   3.197  72.532  1.00  0.00    -0.087 C  
HETATM   25  C   UNL     1      -8.231   4.523  72.723  1.00  0.00    -0.099 C  
HETATM   26  O   UNL     1      -8.660   2.222  73.224  1.00  0.00    -0.068 OA 
ENDROOT
BRANCH   4  27
HETATM   27  C   UNL     1      -7.910   9.555  67.744  1.00  0.00    -0.095 C  
HETATM   28  O   UNL     1      -6.781   9.383  68.242  1.00  0.00    -0.058 OA 
HETATM   29  C   UNL     1      -8.284  10.964  67.267  1.00  0.00    -0.123 C  
ENDBRANCH   4  27
TORSDOF 1
ENDMDL
MODEL       83
REMARK 921   NORMALIZED FREE ENERGY PREDICTED BY IDOCK:   -3.89 KCAL/MOL
REMARK 922        TOTAL FREE ENERGY PREDICTED BY IDOCK:   -3.53 KCAL/MOL
REMARK 923 INTER-LIGAND FREE ENERGY PREDICTED BY IDOCK:   -4.11 KCAL/MOL
REMARK 924 INTRA-LIGAND FREE ENERGY PREDICTED BY IDOCK:    0.58 KCAL/MOL
REMARK 927      BINDING AFFINITY PREDICTED BY RF-SCORE:    0.00 PKD
ROOT
HETATM    1  C   UNL     1      -8.195   8.078  67.469  1.00  0.00    -0.123 C  
HETATM    2  C   UNL     1      -6.926   8.477  67.963  1.00  0.00    -0.074 C  
HETATM    3  C   UNL     1      -6.973   7.070  67.498  1.00  0.00    -0.079 C  
HETATM    4  C   UNL     1      -8.704   6.490  66.567  1.00  0.00    -0.134 C  
HETATM    5  C   UNL     1      -7.510   6.857  66.092  1.00  0.00    -0.080 C  
HETATM    6  C   UNL     1      -7.445   4.695  71.478  1.00  0.00    -0.073 C  
HETATM    7  O   UNL     1      -9.665   7.452  65.940  1.00  0.00    -0.411 OA 
HETATM    8  C   UNL     1      -8.731   5.427  70.907  1.00  0.00    -0.140 C  
HETATM    9  C   UNL     1      -7.082   5.106  66.753  1.00  0.00    -0.069 C  
HETATM   10  C   UNL     1      -7.043   7.615  64.857  1.00  0.00    -0.063 C  
HETATM   11  C   UNL     1      -9.862   4.441  71.193  1.00  0.00    -0.258 C  
HETATM   12  H   UNL     1     -10.468   7.183  65.509  1.00  0.00     0.000 HD 
HETATM   13  C   UNL     1      -7.957   4.763  68.298  1.00  0.00    -0.085 C  
HETATM   14  O   UNL     1      -9.146   4.010  68.034  1.00  0.00    -0.120 OA 
HETATM   15  C   UNL     1      -8.285   5.961  69.466  1.00  0.00    -0.113 C  
HETATM   16  H   UNL     1      -9.606   3.829  68.845  1.00  0.00     0.000 HD 
HETATM   17  C   UNL     1      -9.065   7.245  68.836  1.00  0.00    -0.132 C  
HETATM   18  F   UNL     1      -7.067   6.516  69.894  1.00  0.00    -0.059 F  
HETATM   19  C   UNL     1      -9.379   8.300  69.914  1.00  0.00    -0.159 C  
HETATM   20  C   UNL     1      -9.999   7.697  71.182  1.00  0.00    -0.188 C  
HETATM   21  C   UNL     1      -9.056   6.661  71.798  1.00  0.00    -0.144 C  
HETATM   22  C   UNL     1     -10.349   8.837  72.157  1.00  0.00    -0.378 C  
HETATM   23  C   UNL     1      -9.072   6.466  73.136  1.00  0.00    -0.134 C  
HETATM   24  C   UNL     1     -10.171   5.481  73.450  1.00  0.00    -0.203 C  
HETATM   25  C   UNL     1     -10.496   4.455  72.391  1.00  0.00    -0.219 C  
HETATM   26  O   UNL     1     -10.726   5.481  74.542  1.00  0.00    -0.259 OA 
ENDROOT
BRANCH   4  27
HETATM   27  C   UNL     1      -9.187   5.368  65.488  1.00  0.00    -0.081 C  
HETATM   28  O   UNL     1     -10.348   4.944  65.639  1.00  0.00    -0.187 OA 
HETATM   29  C   UNL     1      -8.420   4.946  64.228  1.00  0.00    -0.137 C  
ENDBRANCH   4  27
TORSDOF 1
ENDMDL
MODEL       84
REMARK 921   NORMALIZED FREE ENERGY PREDICTED BY IDOCK:   -3.88 KCAL/MOL
REMARK 922        TOTAL FREE ENERGY PREDICTED BY IDOCK:   -3.52 KCAL/MOL
REMARK 923 INTER-LIGAND FREE ENERGY PREDICTED BY IDOCK:   -4.50 KCAL/MOL
REMARK 924 INTRA-LIGAND FREE ENERGY PREDICTED BY IDOCK:    0.98 KCAL/MOL
REMARK 927      BINDING AFFINITY PREDICTED BY RF-SCORE:    0.00 PKD
ROOT
HETATM    1  C   UNL     1     -10.569   6.064  71.130  1.00  0.00    -0.303 C  
HETATM    2  C   UNL     1      -9.472   5.526  71.850  1.00  0.00    -0.171 C  
HETATM    3  C   UNL     1      -9.385   6.990  71.631  1.00  0.00    -0.158 C  
HETATM    4  C   UNL     1     -11.036   7.872  70.798  1.00  0.00    -0.256 C  
HETATM    5  C   UNL     1     -10.602   7.794  72.059  1.00  0.00    -0.279 C  
HETATM    6  C   UNL     1      -6.472   7.310  68.009  1.00  0.00    -0.045 C  
HETATM    7  O   UNL     1     -12.404   7.263  70.838  1.00  0.00    -0.465 OA 
HETATM    8  C   UNL     1      -7.967   6.873  67.708  1.00  0.00    -0.114 C  
HETATM    9  C   UNL     1      -9.356   9.074  71.355  1.00  0.00    -0.310 C  
HETATM   10  C   UNL     1     -11.285   7.685  73.416  1.00  0.00     0.047 C  
HETATM   11  C   UNL     1      -8.294   7.589  66.400  1.00  0.00    -0.126 C  
HETATM   12  H   UNL     1     -13.170   7.672  70.452  1.00  0.00     0.000 HD 
HETATM   13  C   UNL     1      -8.888   8.661  69.658  1.00  0.00    -0.137 C  
HETATM   14  O   UNL     1      -9.678   9.414  68.731  1.00  0.00    -0.152 OA 
HETATM   15  C   UNL     1      -8.729   7.056  69.103  1.00  0.00    -0.132 C  
HETATM   16  H   UNL     1      -9.432   9.198  67.840  1.00  0.00     0.000 HD 
HETATM   17  C   UNL     1     -10.065   6.168  69.382  1.00  0.00    -0.230 C  
HETATM   18  F   UNL     1      -7.756   6.407  69.881  1.00  0.00    -0.096 F  
HETATM   19  C   UNL     1      -9.912   4.732  68.845  1.00  0.00    -0.197 C  
HETATM   20  C   UNL     1      -9.363   4.682  67.413  1.00  0.00    -0.162 C  
HETATM   21  C   UNL     1      -7.993   5.361  67.341  1.00  0.00    -0.101 C  
HETATM   22  C   UNL     1      -9.326   3.216  66.943  1.00  0.00    -0.163 C  
HETATM   23  C   UNL     1      -7.091   4.934  66.428  1.00  0.00    -0.072 C  
HETATM   24  C   UNL     1      -7.379   5.638  65.125  1.00  0.00    -0.075 C  
HETATM   25  C   UNL     1      -7.982   7.020  65.210  1.00  0.00    -0.127 C  
HETATM   26  O   UNL     1      -7.074   5.131  64.052  1.00  0.00    -0.047 OA 
ENDROOT
BRANCH   4  27
HETATM   27  C   UNL     1     -11.736   9.343  70.752  1.00  0.00    -0.282 C  
HETATM   28  O   UNL     1     -11.867   9.839  69.617  1.00  0.00     0.001 OA 
HETATM   29  C   UNL     1     -12.399  10.058  71.936  1.00  0.00    -0.348 C  
ENDBRANCH   4  27
TORSDOF 1
ENDMDL
MODEL       85
REMARK 921   NORMALIZED FREE ENERGY PREDICTED BY IDOCK:   -3.88 KCAL/MOL
REMARK 922        TOTAL FREE ENERGY PREDICTED BY IDOCK:   -3.52 KCAL/MOL
REMARK 923 INTER-LIGAND FREE ENERGY PREDICTED BY IDOCK:   -4.09 KCAL/MOL
REMARK 924 INTRA-LIGAND FREE ENERGY PREDICTED BY IDOCK:    0.57 KCAL/MOL
REMARK 927      BINDING AFFINITY PREDICTED BY RF-SCORE:    0.00 PKD
ROOT
HETATM    1  C   UNL     1      -7.063   6.132  67.271  1.00  0.00    -0.070 C  
HETATM    2  C   UNL     1      -7.847   5.008  66.900  1.00  0.00    -0.096 C  
HETATM    3  C   UNL     1      -8.467   6.311  66.558  1.00  0.00    -0.121 C  
HETATM    4  C   UNL     1      -7.299   7.967  66.859  1.00  0.00    -0.090 C  
HETATM    5  C   UNL     1      -7.596   7.267  65.760  1.00  0.00    -0.091 C  
HETATM    6  C   UNL     1     -11.524   6.927  70.019  1.00  0.00    -0.328 C  
HETATM    7  O   UNL     1      -5.804   7.919  66.938  1.00  0.00    -0.041 OA 
HETATM    8  C   UNL     1      -9.994   7.199  70.339  1.00  0.00    -0.191 C  
HETATM    9  C   UNL     1      -9.260   8.186  66.030  1.00  0.00    -0.207 C  
HETATM   10  C   UNL     1      -6.835   6.901  64.492  1.00  0.00    -0.046 C  
HETATM   11  C   UNL     1     -10.030   8.424  71.249  1.00  0.00    -0.261 C  
HETATM   12  H   UNL     1      -5.262   8.686  67.077  1.00  0.00     0.000 HD 
HETATM   13  C   UNL     1      -9.655   8.312  67.791  1.00  0.00    -0.148 C  
HETATM   14  O   UNL     1      -9.249   9.588  68.297  1.00  0.00    -0.130 OA 
HETATM   15  C   UNL     1      -9.261   7.096  68.920  1.00  0.00    -0.137 C  
HETATM   16  H   UNL     1      -9.457   9.655  69.221  1.00  0.00     0.000 HD 
HETATM   17  C   UNL     1      -7.681   6.706  68.887  1.00  0.00    -0.109 C  
HETATM   18  F   UNL     1      -9.886   5.900  68.526  1.00  0.00    -0.122 F  
HETATM   19  C   UNL     1      -7.342   5.630  69.936  1.00  0.00    -0.070 C  
HETATM   20  C   UNL     1      -7.926   5.937  71.321  1.00  0.00    -0.113 C  
HETATM   21  C   UNL     1      -9.450   6.057  71.245  1.00  0.00    -0.180 C  
HETATM   22  C   UNL     1      -7.464   4.850  72.310  1.00  0.00    -0.089 C  
HETATM   23  C   UNL     1     -10.194   5.719  72.322  1.00  0.00    -0.233 C  
HETATM   24  C   UNL     1     -10.262   6.918  73.236  1.00  0.00    -0.258 C  
HETATM   25  C   UNL     1     -10.191   8.279  72.587  1.00  0.00    -0.368 C  
HETATM   26  O   UNL     1     -10.432   6.785  74.442  1.00  0.00    -0.282 OA 
ENDROOT
BRANCH   4  27
HETATM   27  C   UNL     1      -7.178   9.490  66.289  1.00  0.00    -0.093 C  
HETATM   28  O   UNL     1      -6.800  10.343  67.115  1.00  0.00    -0.079 OA 
HETATM   29  C   UNL     1      -7.304   9.910  64.820  1.00  0.00    -0.136 C  
ENDBRANCH   4  27
TORSDOF 1
ENDMDL
MODEL       86
REMARK 921   NORMALIZED FREE ENERGY PREDICTED BY IDOCK:   -3.81 KCAL/MOL
REMARK 922        TOTAL FREE ENERGY PREDICTED BY IDOCK:   -3.45 KCAL/MOL
REMARK 923 INTER-LIGAND FREE ENERGY PREDICTED BY IDOCK:   -4.85 KCAL/MOL
REMARK 924 INTRA-LIGAND FREE ENERGY PREDICTED BY IDOCK:    1.39 KCAL/MOL
REMARK 927      BINDING AFFINITY PREDICTED BY RF-SCORE:    0.00 PKD
ROOT
HETATM    1  C   UNL     1      -6.716   9.414  67.502  1.00  0.00    -0.068 C  
HETATM    2  C   UNL     1      -5.689   8.436  67.552  1.00  0.00    -0.039 C  
HETATM    3  C   UNL     1      -6.736   8.156  66.539  1.00  0.00    -0.063 C  
HETATM    4  C   UNL     1      -8.127   9.633  66.255  1.00  0.00    -0.112 C  
HETATM    5  C   UNL     1      -7.034   9.288  65.569  1.00  0.00    -0.082 C  
HETATM    6  C   UNL     1      -9.423   5.015  68.687  1.00  0.00    -0.188 C  
HETATM    7  O   UNL     1      -7.896  11.066  66.626  1.00  0.00    -0.141 OA 
HETATM    8  C   UNL     1      -9.579   6.531  69.125  1.00  0.00    -0.137 C  
HETATM    9  C   UNL     1      -8.209   7.854  65.069  1.00  0.00    -0.134 C  
HETATM   10  C   UNL     1      -5.984  10.059  64.780  1.00  0.00    -0.113 C  
HETATM   11  C   UNL     1     -11.082   6.689  69.344  1.00  0.00    -0.365 C  
HETATM   12  H   UNL     1      -8.540  11.751  66.495  1.00  0.00     0.000 HD 
HETATM   13  C   UNL     1      -9.238   7.340  66.465  1.00  0.00    -0.157 C  
HETATM   14  O   UNL     1     -10.520   7.974  66.392  1.00  0.00    -0.448 OA 
HETATM   15  C   UNL     1      -8.685   7.348  68.079  1.00  0.00    -0.124 C  
HETATM   16  H   UNL     1     -11.061   7.704  67.125  1.00  0.00     0.000 HD 
HETATM   17  C   UNL     1      -8.093   8.797  68.525  1.00  0.00    -0.116 C  
HETATM   18  F   UNL     1      -7.561   6.510  68.171  1.00  0.00    -0.093 F  
HETATM   19  C   UNL     1      -7.630   8.790  69.994  1.00  0.00    -0.062 C  
HETATM   20  C   UNL     1      -8.659   8.167  70.946  1.00  0.00    -0.144 C  
HETATM   21  C   UNL     1      -8.958   6.722  70.539  1.00  0.00    -0.152 C  
HETATM   22  C   UNL     1      -8.139   8.283  72.391  1.00  0.00    -0.204 C  
HETATM   23  C   UNL     1      -9.308   5.827  71.491  1.00  0.00    -0.163 C  
HETATM   24  C   UNL     1     -10.795   5.947  71.718  1.00  0.00    -0.260 C  
HETATM   25  C   UNL     1     -11.636   6.379  70.542  1.00  0.00    -0.424 C  
HETATM   26  O   UNL     1     -11.296   5.644  72.795  1.00  0.00    -0.289 OA 
ENDROOT
BRANCH   4  27
HETATM   27  C   UNL     1      -9.138  10.143  65.083  1.00  0.00    -0.201 C  
HETATM   28  O   UNL     1      -9.056   9.531  64.001  1.00  0.00    -0.228 OA 
HETATM   29  C   UNL     1     -10.277  11.154  65.258  1.00  0.00    -0.337 C  
ENDBRANCH   4  27
TORSDOF 1
ENDMDL
MODEL       87
REMARK 921   NORMALIZED FREE ENERGY PREDICTED BY IDOCK:   -3.81 KCAL/MOL
REMARK 922        TOTAL FREE ENERGY PREDICTED BY IDOCK:   -3.45 KCAL/MOL
REMARK 923 INTER-LIGAND FREE ENERGY PREDICTED BY IDOCK:   -4.01 KCAL/MOL
REMARK 924 INTRA-LIGAND FREE ENERGY PREDICTED BY IDOCK:    0.56 KCAL/MOL
REMARK 927      BINDING AFFINITY PREDICTED BY RF-SCORE:    0.00 PKD
ROOT
HETATM    1  C   UNL     1      -8.560  10.349  65.775  1.00  0.00    -0.172 C  
HETATM    2  C   UNL     1      -9.928  10.495  65.428  1.00  0.00    -0.353 C  
HETATM    3  C   UNL     1      -9.665  10.594  66.884  1.00  0.00    -0.213 C  
HETATM    4  C   UNL     1      -7.693  10.617  67.440  1.00  0.00    -0.106 C  
HETATM    5  C   UNL     1      -8.595  11.593  67.294  1.00  0.00    -0.154 C  
HETATM    6  C   UNL     1     -10.814   6.349  68.421  1.00  0.00    -0.383 C  
HETATM    7  O   UNL     1      -6.580  10.999  66.513  1.00  0.00    -0.115 OA 
HETATM    8  C   UNL     1      -9.423   6.504  67.675  1.00  0.00    -0.126 C  
HETATM    9  C   UNL     1      -9.219  10.801  68.928  1.00  0.00    -0.180 C  
HETATM   10  C   UNL     1      -8.531  13.041  66.830  1.00  0.00    -0.087 C  
HETATM   11  C   UNL     1      -8.489   5.592  68.466  1.00  0.00    -0.100 C  
HETATM   12  H   UNL     1      -5.666  11.010  66.771  1.00  0.00     0.000 HD 
HETATM   13  C   UNL     1      -9.047   9.001  68.887  1.00  0.00    -0.140 C  
HETATM   14  O   UNL     1      -7.838   8.607  69.545  1.00  0.00    -0.091 OA 
HETATM   15  C   UNL     1      -9.251   8.081  67.465  1.00  0.00    -0.137 C  
HETATM   16  H   UNL     1      -7.747   7.661  69.524  1.00  0.00     0.000 HD 
HETATM   17  C   UNL     1      -8.310   8.606  66.245  1.00  0.00    -0.124 C  
HETATM   18  F   UNL     1     -10.549   8.299  66.973  1.00  0.00    -0.347 F  
HETATM   19  C   UNL     1      -8.487   7.742  64.982  1.00  0.00    -0.052 C  
HETATM   20  C   UNL     1      -8.428   6.236  65.272  1.00  0.00    -0.113 C  
HETATM   21  C   UNL     1      -9.518   5.840  66.271  1.00  0.00    -0.166 C  
HETATM   22  C   UNL     1      -8.532   5.467  63.941  1.00  0.00    -0.070 C  
HETATM   23  C   UNL     1     -10.048   4.597  66.212  1.00  0.00    -0.292 C  
HETATM   24  C   UNL     1      -9.153   3.672  67.001  1.00  0.00    -0.167 C  
HETATM   25  C   UNL     1      -8.402   4.273  68.165  1.00  0.00    -0.097 C  
HETATM   26  O   UNL     1      -9.094   2.477  66.741  1.00  0.00    -0.146 OA 
ENDROOT
BRANCH   4  27
HETATM   27  C   UNL     1      -6.787  11.152  68.684  1.00  0.00    -0.070 C  
HETATM   28  O   UNL     1      -5.828  10.423  69.001  1.00  0.00    -0.041 OA 
HETATM   29  C   UNL     1      -6.900  12.529  69.349  1.00  0.00     0.033 C  
ENDBRANCH   4  27
TORSDOF 1
ENDMDL
MODEL       88
REMARK 921   NORMALIZED FREE ENERGY PREDICTED BY IDOCK:   -3.79 KCAL/MOL
REMARK 922        TOTAL FREE ENERGY PREDICTED BY IDOCK:   -3.43 KCAL/MOL
REMARK 923 INTER-LIGAND FREE ENERGY PREDICTED BY IDOCK:   -4.08 KCAL/MOL
REMARK 924 INTRA-LIGAND FREE ENERGY PREDICTED BY IDOCK:    0.65 KCAL/MOL
REMARK 927      BINDING AFFINITY PREDICTED BY RF-SCORE:    0.00 PKD
ROOT
HETATM    1  C   UNL     1     -10.117   4.411  71.082  1.00  0.00    -0.196 C  
HETATM    2  C   UNL     1      -9.294   3.268  70.913  1.00  0.00    -0.220 C  
HETATM    3  C   UNL     1      -8.614   4.403  71.582  1.00  0.00    -0.126 C  
HETATM    4  C   UNL     1      -9.800   6.003  72.061  1.00  0.00    -0.156 C  
HETATM    5  C   UNL     1      -9.333   4.984  72.789  1.00  0.00    -0.150 C  
HETATM    6  C   UNL     1      -6.162   6.314  68.113  1.00  0.00    -0.032 C  
HETATM    7  O   UNL     1     -11.287   5.913  72.206  1.00  0.00    -0.278 OA 
HETATM    8  C   UNL     1      -7.720   6.605  68.152  1.00  0.00    -0.105 C  
HETATM    9  C   UNL     1      -7.727   6.019  72.595  1.00  0.00    -0.100 C  
HETATM   10  C   UNL     1      -9.879   4.170  73.954  1.00  0.00    -0.155 C  
HETATM   11  C   UNL     1      -7.823   8.068  67.729  1.00  0.00    -0.126 C  
HETATM   12  H   UNL     1     -11.838   6.655  72.429  1.00  0.00     0.000 HD 
HETATM   13  C   UNL     1      -7.625   6.759  70.948  1.00  0.00    -0.088 C  
HETATM   14  O   UNL     1      -8.097   8.111  70.985  1.00  0.00    -0.090 OA 
HETATM   15  C   UNL     1      -8.211   5.987  69.544  1.00  0.00    -0.115 C  
HETATM   16  H   UNL     1      -8.044   8.500  70.121  1.00  0.00     0.000 HD 
HETATM   17  C   UNL     1      -9.768   5.533  69.689  1.00  0.00    -0.230 C  
HETATM   18  F   UNL     1      -7.542   4.760  69.396  1.00  0.00    -0.054 F  
HETATM   19  C   UNL     1     -10.285   4.867  68.400  1.00  0.00    -0.098 C  
HETATM   20  C   UNL     1      -9.934   5.658  67.133  1.00  0.00    -0.188 C  
HETATM   21  C   UNL     1      -8.417   5.818  67.005  1.00  0.00    -0.107 C  
HETATM   22  C   UNL     1     -10.562   4.955  65.914  1.00  0.00    -0.280 C  
HETATM   23  C   UNL     1      -7.863   5.906  65.774  1.00  0.00    -0.103 C  
HETATM   24  C   UNL     1      -7.935   7.348  65.334  1.00  0.00    -0.125 C  
HETATM   25  C   UNL     1      -7.885   8.399  66.416  1.00  0.00    -0.098 C  
HETATM   26  O   UNL     1      -7.967   7.644  64.145  1.00  0.00    -0.134 OA 
ENDROOT
BRANCH   4  27
HETATM   27  C   UNL     1      -9.811   7.230  73.134  1.00  0.00    -0.235 C  
HETATM   28  O   UNL     1     -10.460   8.237  72.791  1.00  0.00    -0.333 OA 
HETATM   29  C   UNL     1      -9.264   7.175  74.566  1.00  0.00    -0.156 C  
ENDBRANCH   4  27
TORSDOF 1
ENDMDL
MODEL       89
REMARK 921   NORMALIZED FREE ENERGY PREDICTED BY IDOCK:   -3.77 KCAL/MOL
REMARK 922        TOTAL FREE ENERGY PREDICTED BY IDOCK:   -3.41 KCAL/MOL
REMARK 923 INTER-LIGAND FREE ENERGY PREDICTED BY IDOCK:   -3.98 KCAL/MOL
REMARK 924 INTRA-LIGAND FREE ENERGY PREDICTED BY IDOCK:    0.57 KCAL/MOL
REMARK 927      BINDING AFFINITY PREDICTED BY RF-SCORE:    0.00 PKD
ROOT
HETATM    1  C   UNL     1     -10.221  10.354  67.479  1.00  0.00    -0.251 C  
HETATM    2  C   UNL     1     -11.113  10.265  68.578  1.00  0.00    -0.294 C  
HETATM    3  C   UNL     1      -9.723  10.612  68.961  1.00  0.00    -0.214 C  
HETATM    4  C   UNL     1      -8.432  10.978  67.413  1.00  0.00    -0.132 C  
HETATM    5  C   UNL     1      -9.112  11.793  68.224  1.00  0.00    -0.187 C  
HETATM    6  C   UNL     1      -8.010   6.527  70.402  1.00  0.00    -0.115 C  
HETATM    7  O   UNL     1      -8.881  11.363  66.037  1.00  0.00    -0.203 OA 
HETATM    8  C   UNL     1      -8.142   6.753  68.838  1.00  0.00    -0.120 C  
HETATM    9  C   UNL     1      -7.753  11.177  69.433  1.00  0.00     0.026 C  
HETATM   10  C   UNL     1      -9.776  13.153  68.055  1.00  0.00    -0.224 C  
HETATM   11  C   UNL     1      -6.883   6.099  68.273  1.00  0.00    -0.074 C  
HETATM   12  H   UNL     1      -8.283  11.532  65.320  1.00  0.00     0.000 HD 
HETATM   13  C   UNL     1      -7.379   9.429  69.155  1.00  0.00    -0.071 C  
HETATM   14  O   UNL     1      -6.225   9.300  68.316  1.00  0.00    -0.052 OA 
HETATM   15  C   UNL     1      -8.559   8.290  68.685  1.00  0.00    -0.133 C  
HETATM   16  H   UNL     1      -6.028   8.383  68.170  1.00  0.00     0.000 HD 
HETATM   17  C   UNL     1      -9.368   8.749  67.349  1.00  0.00    -0.166 C  
HETATM   18  F   UNL     1      -9.566   8.260  69.665  1.00  0.00    -0.163 F  
HETATM   19  C   UNL     1     -10.405   7.692  66.926  1.00  0.00    -0.388 C  
HETATM   20  C   UNL     1      -9.837   6.266  66.907  1.00  0.00    -0.196 C  
HETATM   21  C   UNL     1      -9.310   5.882  68.292  1.00  0.00    -0.118 C  
HETATM   22  C   UNL     1     -10.923   5.302  66.395  1.00  0.00    -0.059 C  
HETATM   23  C   UNL     1      -9.342   4.585  68.674  1.00  0.00    -0.199 C  
HETATM   24  C   UNL     1      -8.098   3.914  68.143  1.00  0.00    -0.083 C  
HETATM   25  C   UNL     1      -6.867   4.773  67.990  1.00  0.00    -0.056 C  
HETATM   26  O   UNL     1      -8.080   2.711  67.911  1.00  0.00    -0.062 OA 
ENDROOT
BRANCH   4  27
HETATM   27  C   UNL     1      -7.053  11.807  67.150  1.00  0.00    -0.146 C  
HETATM   28  O   UNL     1      -6.204  11.226  66.447  1.00  0.00    -0.139 OA 
HETATM   29  C   UNL     1      -6.802  13.272  67.525  1.00  0.00    -0.155 C  
ENDBRANCH   4  27
TORSDOF 1
ENDMDL
MODEL       90
REMARK 921   NORMALIZED FREE ENERGY PREDICTED BY IDOCK:   -3.72 KCAL/MOL
REMARK 922        TOTAL FREE ENERGY PREDICTED BY IDOCK:   -3.35 KCAL/MOL
REMARK 923 INTER-LIGAND FREE ENERGY PREDICTED BY IDOCK:   -3.98 KCAL/MOL
REMARK 924 INTRA-LIGAND FREE ENERGY PREDICTED BY IDOCK:    0.63 KCAL/MOL
REMARK 927      BINDING AFFINITY PREDICTED BY RF-SCORE:    0.00 PKD
ROOT
HETATM    1  C   UNL     1     -10.495   6.754  69.491  1.00  0.00    -0.248 C  
HETATM    2  C   UNL     1     -10.281   6.123  68.238  1.00  0.00    -0.207 C  
HETATM    3  C   UNL     1      -9.079   6.157  69.105  1.00  0.00    -0.128 C  
HETATM    4  C   UNL     1      -9.366   6.850  71.012  1.00  0.00    -0.156 C  
HETATM    5  C   UNL     1      -9.265   5.614  70.513  1.00  0.00    -0.175 C  
HETATM    6  C   UNL     1      -6.670   9.748  67.372  1.00  0.00    -0.074 C  
HETATM    7  O   UNL     1     -10.702   6.869  71.689  1.00  0.00    -0.220 OA 
HETATM    8  C   UNL     1      -7.923  10.082  68.285  1.00  0.00    -0.097 C  
HETATM    9  C   UNL     1      -7.429   6.168  70.410  1.00  0.00    -0.090 C  
HETATM   10  C   UNL     1      -9.901   4.273  70.853  1.00  0.00    -0.259 C  
HETATM   11  C   UNL     1      -7.461  11.284  69.104  1.00  0.00    -0.084 C  
HETATM   12  H   UNL     1     -10.836   7.190  72.573  1.00  0.00     0.000 HD 
HETATM   13  C   UNL     1      -7.301   7.910  69.941  1.00  0.00    -0.075 C  
HETATM   14  O   UNL     1      -7.136   8.724  71.108  1.00  0.00    -0.072 OA 
HETATM   15  C   UNL     1      -8.388   8.665  68.865  1.00  0.00    -0.124 C  
HETATM   16  H   UNL     1      -7.068   9.639  70.862  1.00  0.00     0.000 HD 
HETATM   17  C   UNL     1      -9.940   8.482  69.322  1.00  0.00    -0.195 C  
HETATM   18  F   UNL     1      -8.344   7.988  67.635  1.00  0.00    -0.121 F  
HETATM   19  C   UNL     1     -10.902   9.198  68.354  1.00  0.00    -0.098 C  
HETATM   20  C   UNL     1     -10.466  10.632  68.026  1.00  0.00    -0.228 C  
HETATM   21  C   UNL     1      -9.072  10.636  67.394  1.00  0.00    -0.146 C  
HETATM   22  C   UNL     1     -11.531  11.284  67.123  1.00  0.00    -0.217 C  
HETATM   23  C   UNL     1      -8.751  11.608  66.509  1.00  0.00    -0.182 C  
HETATM   24  C   UNL     1      -8.273  12.808  67.290  1.00  0.00    -0.181 C  
HETATM   25  C   UNL     1      -7.596  12.541  68.613  1.00  0.00    -0.080 C  
HETATM   26  O   UNL     1      -8.375  13.940  66.833  1.00  0.00    -0.138 OA 
ENDROOT
BRANCH   4  27
HETATM   27  C   UNL     1      -8.671   6.700  72.478  1.00  0.00    -0.124 C  
HETATM   28  O   UNL     1      -8.845   7.659  73.254  1.00  0.00    -0.157 OA 
HETATM   29  C   UNL     1      -8.002   5.435  73.029  1.00  0.00    -0.101 C  
ENDBRANCH   4  27
TORSDOF 1
ENDMDL
MODEL       91
REMARK 921   NORMALIZED FREE ENERGY PREDICTED BY IDOCK:   -3.68 KCAL/MOL
REMARK 922        TOTAL FREE ENERGY PREDICTED BY IDOCK:   -3.32 KCAL/MOL
REMARK 923 INTER-LIGAND FREE ENERGY PREDICTED BY IDOCK:   -4.11 KCAL/MOL
REMARK 924 INTRA-LIGAND FREE ENERGY PREDICTED BY IDOCK:    0.79 KCAL/MOL
REMARK 927      BINDING AFFINITY PREDICTED BY RF-SCORE:    0.00 PKD
ROOT
HETATM    1  C   UNL     1      -7.214   6.180  68.481  1.00  0.00    -0.084 C  
HETATM    2  C   UNL     1      -5.896   6.704  68.527  1.00  0.00    -0.021 C  
HETATM    3  C   UNL     1      -6.866   7.446  69.368  1.00  0.00    -0.053 C  
HETATM    4  C   UNL     1      -8.733   6.618  69.527  1.00  0.00    -0.135 C  
HETATM    5  C   UNL     1      -7.674   6.604  70.342  1.00  0.00    -0.097 C  
HETATM    6  C   UNL     1      -7.915  11.126  66.712  1.00  0.00    -0.156 C  
HETATM    7  O   UNL     1      -9.019   5.171  69.264  1.00  0.00    -0.097 OA 
HETATM    8  C   UNL     1      -8.581   9.738  66.332  1.00  0.00    -0.132 C  
HETATM    9  C   UNL     1      -8.270   8.410  70.601  1.00  0.00    -0.117 C  
HETATM   10  C   UNL     1      -7.086   5.583  71.307  1.00  0.00    -0.071 C  
HETATM   11  C   UNL     1      -9.998  10.122  65.913  1.00  0.00    -0.334 C  
HETATM   12  H   UNL     1      -9.884   4.787  69.338  1.00  0.00     0.000 HD 
HETATM   13  C   UNL     1      -8.867   9.127  69.051  1.00  0.00    -0.139 C  
HETATM   14  O   UNL     1     -10.293   9.017  68.975  1.00  0.00    -0.210 OA 
HETATM   15  C   UNL     1      -8.183   8.758  67.533  1.00  0.00    -0.110 C  
HETATM   16  H   UNL     1     -10.607   9.394  68.161  1.00  0.00     0.000 HD 
HETATM   17  C   UNL     1      -8.134   7.156  67.246  1.00  0.00    -0.115 C  
HETATM   18  F   UNL     1      -6.823   9.111  67.557  1.00  0.00    -0.072 F  
HETATM   19  C   UNL     1      -7.542   6.847  65.858  1.00  0.00    -0.090 C  
HETATM   20  C   UNL     1      -8.149   7.708  64.742  1.00  0.00    -0.121 C  
HETATM   21  C   UNL     1      -7.924   9.194  65.030  1.00  0.00    -0.120 C  
HETATM   22  C   UNL     1      -7.553   7.267  63.391  1.00  0.00    -0.117 C  
HETATM   23  C   UNL     1      -7.803  10.057  63.996  1.00  0.00    -0.150 C  
HETATM   24  C   UNL     1      -9.191  10.469  63.568  1.00  0.00    -0.274 C  
HETATM   25  C   UNL     1     -10.258  10.494  64.636  1.00  0.00    -0.364 C  
HETATM   26  O   UNL     1      -9.417  10.828  62.419  1.00  0.00    -0.251 OA 
ENDROOT
BRANCH   4  27
HETATM   27  C   UNL     1      -9.985   6.633  70.571  1.00  0.00    -0.179 C  
HETATM   28  O   UNL     1     -11.063   6.202  70.121  1.00  0.00    -0.323 OA 
HETATM   29  C   UNL     1      -9.899   6.946  72.070  1.00  0.00    -0.172 C  
ENDBRANCH   4  27
TORSDOF 1
ENDMDL
MODEL       92
REMARK 921   NORMALIZED FREE ENERGY PREDICTED BY IDOCK:   -3.67 KCAL/MOL
REMARK 922        TOTAL FREE ENERGY PREDICTED BY IDOCK:   -3.30 KCAL/MOL
REMARK 923 INTER-LIGAND FREE ENERGY PREDICTED BY IDOCK:   -3.90 KCAL/MOL
REMARK 924 INTRA-LIGAND FREE ENERGY PREDICTED BY IDOCK:    0.60 KCAL/MOL
REMARK 927      BINDING AFFINITY PREDICTED BY RF-SCORE:    0.00 PKD
ROOT
HETATM    1  C   UNL     1     -10.589   8.518  68.625  1.00  0.00    -0.154 C  
HETATM    2  C   UNL     1     -10.667   9.341  69.778  1.00  0.00    -0.245 C  
HETATM    3  C   UNL     1      -9.501   9.633  68.909  1.00  0.00    -0.157 C  
HETATM    4  C   UNL     1      -9.445   8.641  67.118  1.00  0.00    -0.160 C  
HETATM    5  C   UNL     1      -9.817   9.883  67.444  1.00  0.00    -0.223 C  
HETATM    6  C   UNL     1      -6.024   7.423  71.085  1.00  0.00    -0.036 C  
HETATM    7  O   UNL     1     -10.657   8.050  66.465  1.00  0.00    -0.426 OA 
HETATM    8  C   UNL     1      -7.036   6.541  70.240  1.00  0.00    -0.072 C  
HETATM    9  C   UNL     1      -7.911  10.053  67.599  1.00  0.00    -0.105 C  
HETATM   10  C   UNL     1     -10.882  10.844  66.933  1.00  0.00    -0.307 C  
HETATM   11  C   UNL     1      -6.139   5.493  69.586  1.00  0.00    -0.021 C  
HETATM   12  H   UNL     1     -10.631   7.590  65.634  1.00  0.00     0.000 HD 
HETATM   13  C   UNL     1      -7.179   8.554  68.298  1.00  0.00    -0.086 C  
HETATM   14  O   UNL     1      -6.686   7.712  67.250  1.00  0.00    -0.063 OA 
HETATM   15  C   UNL     1      -7.960   7.603  69.479  1.00  0.00    -0.125 C  
HETATM   16  H   UNL     1      -6.301   6.925  67.617  1.00  0.00     0.000 HD 
HETATM   17  C   UNL     1      -9.454   7.147  69.020  1.00  0.00    -0.143 C  
HETATM   18  F   UNL     1      -8.210   8.404  70.606  1.00  0.00    -0.095 F  
HETATM   19  C   UNL     1     -10.128   6.264  70.087  1.00  0.00    -0.222 C  
HETATM   20  C   UNL     1      -9.215   5.142  70.601  1.00  0.00    -0.191 C  
HETATM   21  C   UNL     1      -7.940   5.728  71.211  1.00  0.00    -0.113 C  
HETATM   22  C   UNL     1     -10.006   4.271  71.596  1.00  0.00    -0.250 C  
HETATM   23  C   UNL     1      -7.323   5.064  72.215  1.00  0.00    -0.091 C  
HETATM   24  C   UNL     1      -6.413   4.029  71.599  1.00  0.00    -0.015 C  
HETATM   25  C   UNL     1      -5.829   4.349  70.244  1.00  0.00    -0.014 C  
HETATM   26  O   UNL     1      -6.117   3.007  72.206  1.00  0.00    -0.012 OA 
ENDROOT
BRANCH   4  27
HETATM   27  C   UNL     1      -8.795   8.841  65.637  1.00  0.00    -0.199 C  
HETATM   28  O   UNL     1      -8.283   7.823  65.134  1.00  0.00    -0.135 OA 
HETATM   29  C   UNL     1      -8.928  10.092  64.760  1.00  0.00    -0.236 C  
ENDBRANCH   4  27
TORSDOF 1
ENDMDL
MODEL       93
REMARK 921   NORMALIZED FREE ENERGY PREDICTED BY IDOCK:   -3.59 KCAL/MOL
REMARK 922        TOTAL FREE ENERGY PREDICTED BY IDOCK:   -3.21 KCAL/MOL
REMARK 923 INTER-LIGAND FREE ENERGY PREDICTED BY IDOCK:   -3.78 KCAL/MOL
REMARK 924 INTRA-LIGAND FREE ENERGY PREDICTED BY IDOCK:    0.57 KCAL/MOL
REMARK 927      BINDING AFFINITY PREDICTED BY RF-SCORE:    0.00 PKD
ROOT
HETATM    1  C   UNL     1      -9.963  10.636  67.790  1.00  0.00    -0.192 C  
HETATM    2  C   UNL     1      -9.694  11.892  68.394  1.00  0.00    -0.201 C  
HETATM    3  C   UNL     1      -8.596  11.394  67.531  1.00  0.00    -0.137 C  
HETATM    4  C   UNL     1      -9.001   9.700  66.451  1.00  0.00    -0.152 C  
HETATM    5  C   UNL     1      -8.996  10.995  66.119  1.00  0.00    -0.203 C  
HETATM    6  C   UNL     1      -5.603   9.601  70.618  1.00  0.00    -0.053 C  
HETATM    7  O   UNL     1     -10.390   9.240  66.129  1.00  0.00    -0.229 OA 
HETATM    8  C   UNL     1      -6.898   8.751  70.277  1.00  0.00    -0.042 C  
HETATM    9  C   UNL     1      -7.107  10.671  66.234  1.00  0.00    -0.137 C  
HETATM   10  C   UNL     1      -9.820  11.855  65.171  1.00  0.00    -0.243 C  
HETATM   11  C   UNL     1      -6.385   7.313  70.245  1.00  0.00    -0.034 C  
HETATM   12  H   UNL     1     -10.578   8.455  65.629  1.00  0.00     0.000 HD 
HETATM   13  C   UNL     1      -6.721   9.547  67.597  1.00  0.00    -0.063 C  
HETATM   14  O   UNL     1      -6.585   8.208  67.108  1.00  0.00    -0.056 OA 
HETATM   15  C   UNL     1      -7.589   9.535  69.066  1.00  0.00    -0.075 C  
HETATM   16  H   UNL     1      -6.382   7.617  67.824  1.00  0.00     0.000 HD 
HETATM   17  C   UNL     1      -9.191   9.361  68.838  1.00  0.00    -0.140 C  
HETATM   18  F   UNL     1      -7.494  10.809  69.652  1.00  0.00    -0.130 F  
HETATM   19  C   UNL     1      -9.951   9.321  70.178  1.00  0.00    -0.251 C  
HETATM   20  C   UNL     1      -9.314   8.373  71.202  1.00  0.00    -0.223 C  
HETATM   21  C   UNL     1      -7.870   8.790  71.491  1.00  0.00    -0.147 C  
HETATM   22  C   UNL     1     -10.190   8.343  72.469  1.00  0.00    -0.369 C  
HETATM   23  C   UNL     1      -7.342   8.538  72.711  1.00  0.00    -0.054 C  
HETATM   24  C   UNL     1      -6.809   7.126  72.705  1.00  0.00    -0.068 C  
HETATM   25  C   UNL     1      -6.315   6.584  71.386  1.00  0.00    -0.042 C  
HETATM   26  O   UNL     1      -6.726   6.478  73.742  1.00  0.00    -0.073 OA 
ENDROOT
BRANCH   4  27
HETATM   27  C   UNL     1      -8.489   8.980  65.082  1.00  0.00    -0.167 C  
HETATM   28  O   UNL     1      -8.489   7.734  65.099  1.00  0.00    -0.134 OA 
HETATM   29  C   UNL     1      -8.200   9.685  63.751  1.00  0.00    -0.162 C  
ENDBRANCH   4  27
TORSDOF 1
ENDMDL
MODEL       94
REMARK 921   NORMALIZED FREE ENERGY PREDICTED BY IDOCK:   -3.57 KCAL/MOL
REMARK 922        TOTAL FREE ENERGY PREDICTED BY IDOCK:   -3.20 KCAL/MOL
REMARK 923 INTER-LIGAND FREE ENERGY PREDICTED BY IDOCK:   -3.79 KCAL/MOL
REMARK 924 INTRA-LIGAND FREE ENERGY PREDICTED BY IDOCK:    0.59 KCAL/MOL
REMARK 927      BINDING AFFINITY PREDICTED BY RF-SCORE:    0.00 PKD
ROOT
HETATM    1  C   UNL     1     -10.090   5.535  67.781  1.00  0.00    -0.214 C  
HETATM    2  C   UNL     1     -10.751   5.463  66.528  1.00  0.00    -0.309 C  
HETATM    3  C   UNL     1      -9.289   5.230  66.449  1.00  0.00    -0.153 C  
HETATM    4  C   UNL     1      -8.303   5.097  68.240  1.00  0.00    -0.096 C  
HETATM    5  C   UNL     1      -8.739   4.166  67.385  1.00  0.00    -0.115 C  
HETATM    6  C   UNL     1      -7.672   9.359  65.022  1.00  0.00    -0.110 C  
HETATM    7  O   UNL     1      -8.982   4.762  69.532  1.00  0.00    -0.088 OA 
HETATM    8  C   UNL     1      -8.092   9.226  66.546  1.00  0.00    -0.104 C  
HETATM    9  C   UNL     1      -7.224   4.832  66.411  1.00  0.00    -0.077 C  
HETATM   10  C   UNL     1      -9.307   2.762  67.539  1.00  0.00    -0.201 C  
HETATM   11  C   UNL     1      -7.029  10.036  67.284  1.00  0.00    -0.083 C  
HETATM   12  H   UNL     1      -8.526   4.700  70.363  1.00  0.00     0.000 HD 
HETATM   13  C   UNL     1      -7.060   6.623  66.607  1.00  0.00    -0.068 C  
HETATM   14  O   UNL     1      -6.110   6.920  67.637  1.00  0.00    -0.026 OA 
HETATM   15  C   UNL     1      -8.400   7.668  66.745  1.00  0.00    -0.125 C  
HETATM   16  H   UNL     1      -6.023   7.860  67.740  1.00  0.00     0.000 HD 
HETATM   17  C   UNL     1      -9.417   7.222  67.936  1.00  0.00    -0.142 C  
HETATM   18  F   UNL     1      -9.193   7.534  65.592  1.00  0.00    -0.139 F  
HETATM   19  C   UNL     1     -10.602   8.198  68.062  1.00  0.00    -0.188 C  
HETATM   20  C   UNL     1     -10.170   9.670  68.069  1.00  0.00    -0.235 C  
HETATM   21  C   UNL     1      -9.414  10.011  66.783  1.00  0.00    -0.209 C  
HETATM   22  C   UNL     1     -11.413  10.555  68.281  1.00  0.00    -0.272 C  
HETATM   23  C   UNL     1      -9.477  11.271  66.294  1.00  0.00    -0.227 C  
HETATM   24  C   UNL     1      -8.424  12.095  66.994  1.00  0.00    -0.183 C  
HETATM   25  C   UNL     1      -7.180  11.373  67.451  1.00  0.00    -0.115 C  
HETATM   26  O   UNL     1      -8.553  13.307  67.123  1.00  0.00    -0.201 OA 
ENDROOT
BRANCH   4  27
HETATM   27  C   UNL     1      -6.940   4.427  68.831  1.00  0.00    -0.051 C  
HETATM   28  O   UNL     1      -6.417   5.030  69.787  1.00  0.00    -0.032 OA 
HETATM   29  C   UNL     1      -6.372   3.056  68.442  1.00  0.00    -0.029 C  
ENDBRANCH   4  27
TORSDOF 1
ENDMDL
MODEL       95
REMARK 921   NORMALIZED FREE ENERGY PREDICTED BY IDOCK:   -3.53 KCAL/MOL
REMARK 922        TOTAL FREE ENERGY PREDICTED BY IDOCK:   -3.15 KCAL/MOL
REMARK 923 INTER-LIGAND FREE ENERGY PREDICTED BY IDOCK:   -4.55 KCAL/MOL
REMARK 924 INTRA-LIGAND FREE ENERGY PREDICTED BY IDOCK:    1.40 KCAL/MOL
REMARK 927      BINDING AFFINITY PREDICTED BY RF-SCORE:    0.00 PKD
ROOT
HETATM    1  C   UNL     1      -9.247  13.215  67.060  1.00  0.00    -0.233 C  
HETATM    2  C   UNL     1      -9.545  12.609  65.813  1.00  0.00    -0.117 C  
HETATM    3  C   UNL     1     -10.668  12.575  66.779  1.00  0.00    -0.261 C  
HETATM    4  C   UNL     1     -10.390  13.626  68.516  1.00  0.00    -0.243 C  
HETATM    5  C   UNL     1     -11.052  13.913  67.391  1.00  0.00    -0.313 C  
HETATM    6  C   UNL     1     -10.419   8.248  68.487  1.00  0.00    -0.199 C  
HETATM    7  O   UNL     1      -9.396  14.738  68.656  1.00  0.00    -0.189 OA 
HETATM    8  C   UNL     1      -9.365   9.306  69.021  1.00  0.00    -0.151 C  
HETATM    9  C   UNL     1     -12.249  12.627  68.166  1.00  0.00     0.067 C  
HETATM   10  C   UNL     1     -11.309  15.190  66.603  1.00  0.00    -0.234 C  
HETATM   11  C   UNL     1      -9.241   8.972  70.505  1.00  0.00    -0.261 C  
HETATM   12  H   UNL     1      -9.267  15.225  69.461  1.00  0.00     0.000 HD 
HETATM   13  C   UNL     1     -11.335  11.296  68.982  1.00  0.00    -0.278 C  
HETATM   14  O   UNL     1     -11.236  11.557  70.387  1.00  0.00    -0.444 OA 
HETATM   15  C   UNL     1      -9.845  10.702  68.403  1.00  0.00    -0.161 C  
HETATM   16  H   UNL     1     -10.757  10.858  70.816  1.00  0.00     0.000 HD 
HETATM   17  C   UNL     1      -8.744  11.882  68.197  1.00  0.00    -0.173 C  
HETATM   18  F   UNL     1     -10.033  10.219  67.097  1.00  0.00    -0.197 F  
HETATM   19  C   UNL     1      -7.397  11.319  67.705  1.00  0.00    -0.100 C  
HETATM   20  C   UNL     1      -6.927  10.099  68.507  1.00  0.00    -0.069 C  
HETATM   21  C   UNL     1      -7.964   8.976  68.429  1.00  0.00    -0.104 C  
HETATM   22  C   UNL     1      -5.541   9.665  67.992  1.00  0.00    -0.040 C  
HETATM   23  C   UNL     1      -7.552   7.690  68.505  1.00  0.00    -0.110 C  
HETATM   24  C   UNL     1      -7.436   7.323  69.964  1.00  0.00    -0.085 C  
HETATM   25  C   UNL     1      -8.367   8.023  70.924  1.00  0.00    -0.119 C  
HETATM   26  O   UNL     1      -6.662   6.449  70.336  1.00  0.00    -0.047 OA 
ENDROOT
BRANCH   4  27
HETATM   27  C   UNL     1     -11.299  14.348  69.659  1.00  0.00    -0.263 C  
HETATM   28  O   UNL     1     -12.527  14.334  69.456  1.00  0.00    -0.292 OA 
HETATM   29  C   UNL     1     -10.796  14.859  71.015  1.00  0.00     0.070 C  
ENDBRANCH   4  27
TORSDOF 1
ENDMDL
MODEL       96
REMARK 921   NORMALIZED FREE ENERGY PREDICTED BY IDOCK:   -3.39 KCAL/MOL
REMARK 922        TOTAL FREE ENERGY PREDICTED BY IDOCK:   -3.00 KCAL/MOL
REMARK 923 INTER-LIGAND FREE ENERGY PREDICTED BY IDOCK:   -3.66 KCAL/MOL
REMARK 924 INTRA-LIGAND FREE ENERGY PREDICTED BY IDOCK:    0.66 KCAL/MOL
REMARK 927      BINDING AFFINITY PREDICTED BY RF-SCORE:    0.00 PKD
ROOT
HETATM    1  C   UNL     1     -10.982  14.894  68.092  1.00  0.00    -0.276 C  
HETATM    2  C   UNL     1      -9.805  15.021  68.873  1.00  0.00    -0.233 C  
HETATM    3  C   UNL     1      -9.723  13.968  67.833  1.00  0.00    -0.229 C  
HETATM    4  C   UNL     1     -11.296  13.876  66.523  1.00  0.00    -0.331 C  
HETATM    5  C   UNL     1     -10.074  14.407  66.420  1.00  0.00    -0.294 C  
HETATM    6  C   UNL     1     -10.552  10.075  70.254  1.00  0.00    -0.354 C  
HETATM    7  O   UNL     1     -12.222  15.024  66.266  1.00  0.00     0.004 OA 
HETATM    8  C   UNL     1     -11.795  10.995  69.902  1.00  0.00    -0.431 C  
HETATM    9  C   UNL     1      -9.640  12.541  66.290  1.00  0.00    -0.246 C  
HETATM   10  C   UNL     1      -9.500  15.631  65.720  1.00  0.00    -0.338 C  
HETATM   11  C   UNL     1     -12.900   9.994  69.572  1.00  0.00     1.103 C  
HETATM   12  H   UNL     1     -12.952  14.982  65.659  1.00  0.00     0.000 HD 
HETATM   13  C   UNL     1     -10.677  11.553  67.395  1.00  0.00    -0.232 C  
HETATM   14  O   UNL     1     -11.786  11.006  66.671  1.00  0.00    -0.201 OA 
HETATM   15  C   UNL     1     -11.205  12.110  68.918  1.00  0.00    -0.269 C  
HETATM   16  H   UNL     1     -12.330  10.487  67.251  1.00  0.00     0.000 HD 
HETATM   17  C   UNL     1     -11.967  13.546  68.823  1.00  0.00    -0.374 C  
HETATM   18  F   UNL     1     -10.078  12.407  69.702  1.00  0.00     0.345 F  
HETATM   19  C   UNL     1     -12.463  14.015  70.204  1.00  0.00    -0.380 C  
HETATM   20  C   UNL     1     -13.201  12.916  70.982  1.00  0.00     0.045 C  
HETATM   21  C   UNL     1     -12.288  11.706  71.194  1.00  0.00    -0.351 C  
HETATM   22  C   UNL     1     -13.724  13.506  72.305  1.00  0.00    -0.700 C  
HETATM   23  C   UNL     1     -12.456  10.937  72.294  1.00  0.00     0.676 C  
HETATM   24  C   UNL     1     -13.533   9.924  71.993  1.00  0.00    -0.380 C  
HETATM   25  C   UNL     1     -13.674   9.478  70.558  1.00  0.00     0.451 C  
HETATM   26  O   UNL     1     -14.216   9.443  72.890  1.00  0.00    -0.389 OA 
ENDROOT
BRANCH   4  27
HETATM   27  C   UNL     1     -11.587  13.355  65.007  1.00  0.00    -0.317 C  
HETATM   28  O   UNL     1     -12.622  12.677  64.862  1.00  0.00    -0.510 OA 
HETATM   29  C   UNL     1     -10.817  13.778  63.750  1.00  0.00     0.552 C  
ENDBRANCH   4  27
TORSDOF 1
ENDMDL
MODEL       97
REMARK 921   NORMALIZED FREE ENERGY PREDICTED BY IDOCK:   -3.07 KCAL/MOL
REMARK 922        TOTAL FREE ENERGY PREDICTED BY IDOCK:   -2.66 KCAL/MOL
REMARK 923 INTER-LIGAND FREE ENERGY PREDICTED BY IDOCK:   -3.56 KCAL/MOL
REMARK 924 INTRA-LIGAND FREE ENERGY PREDICTED BY IDOCK:    0.89 KCAL/MOL
REMARK 927      BINDING AFFINITY PREDICTED BY RF-SCORE:    0.00 PKD
ROOT
HETATM    1  C   UNL     1      -8.843  11.962  66.519  1.00  0.00    -0.178 C  
HETATM    2  C   UNL     1      -9.007  11.664  65.142  1.00  0.00     0.177 C  
HETATM    3  C   UNL     1     -10.246  11.508  65.941  1.00  0.00    -0.286 C  
HETATM    4  C   UNL     1     -10.142  12.133  67.889  1.00  0.00    -0.197 C  
HETATM    5  C   UNL     1     -10.639  12.707  66.790  1.00  0.00    -0.254 C  
HETATM    6  C   UNL     1     -10.433   6.908  66.652  1.00  0.00    -0.213 C  
HETATM    7  O   UNL     1      -9.121  13.109  68.389  1.00  0.00    -0.248 OA 
HETATM    8  C   UNL     1      -9.405   7.741  67.526  1.00  0.00    -0.161 C  
HETATM    9  C   UNL     1     -11.988  11.380  67.113  1.00  0.00     0.361 C  
HETATM   10  C   UNL     1     -10.729  14.141  66.284  1.00  0.00    -0.293 C  
HETATM   11  C   UNL     1      -9.490   7.085  68.902  1.00  0.00    -0.137 C  
HETATM   12  H   UNL     1      -9.072  13.399  69.292  1.00  0.00     0.000 HD 
HETATM   13  C   UNL     1     -11.254   9.838  67.709  1.00  0.00     0.066 C  
HETATM   14  O   UNL     1     -11.323   9.780  69.139  1.00  0.00    -0.430 OA 
HETATM   15  C   UNL     1      -9.733   9.270  67.186  1.00  0.00    -0.172 C  
HETATM   16  H   UNL     1     -10.938   8.970  69.452  1.00  0.00     0.000 HD 
HETATM   17  C   UNL     1      -8.557  10.380  67.378  1.00  0.00    -0.125 C  
HETATM   18  F   UNL     1      -9.774   9.098  65.792  1.00  0.00    -0.302 F  
HETATM   19  C   UNL     1      -7.187   9.835  66.930  1.00  0.00    -0.090 C  
HETATM   20  C   UNL     1      -6.885   8.437  67.486  1.00  0.00    -0.070 C  
HETATM   21  C   UNL     1      -7.958   7.441  67.040  1.00  0.00    -0.116 C  
HETATM   22  C   UNL     1      -5.468   8.021  67.050  1.00  0.00    -0.033 C  
HETATM   23  C   UNL     1      -7.623   6.141  66.872  1.00  0.00    -0.099 C  
HETATM   24  C   UNL     1      -7.713   5.459  68.215  1.00  0.00    -0.081 C  
HETATM   25  C   UNL     1      -8.725   6.004  69.194  1.00  0.00    -0.120 C  
HETATM   26  O   UNL     1      -7.038   4.469  68.468  1.00  0.00    -0.051 OA 
ENDROOT
BRANCH   4  27
HETATM   27  C   UNL     1     -11.154  12.659  69.054  1.00  0.00    -0.238 C  
HETATM   28  O   UNL     1     -11.131  12.010  70.117  1.00  0.00     0.138 OA 
HETATM   29  C   UNL     1     -11.965  13.960  69.017  1.00  0.00    -0.402 C  
ENDBRANCH   4  27
TORSDOF 1
ENDMDL
MODEL       98
REMARK 921   NORMALIZED FREE ENERGY PREDICTED BY IDOCK:   -3.06 KCAL/MOL
REMARK 922        TOTAL FREE ENERGY PREDICTED BY IDOCK:   -2.66 KCAL/MOL
REMARK 923 INTER-LIGAND FREE ENERGY PREDICTED BY IDOCK:   -3.26 KCAL/MOL
REMARK 924 INTRA-LIGAND FREE ENERGY PREDICTED BY IDOCK:    0.60 KCAL/MOL
REMARK 927      BINDING AFFINITY PREDICTED BY RF-SCORE:    0.00 PKD
ROOT
HETATM    1  C   UNL     1      -7.431   9.836  66.655  1.00  0.00    -0.095 C  
HETATM    2  C   UNL     1      -6.579  10.304  65.622  1.00  0.00    -0.122 C  
HETATM    3  C   UNL     1      -6.035  10.506  66.986  1.00  0.00    -0.053 C  
HETATM    4  C   UNL     1      -7.103   9.657  68.514  1.00  0.00    -0.069 C  
HETATM    5  C   UNL     1      -5.997   9.270  67.871  1.00  0.00    -0.049 C  
HETATM    6  C   UNL     1      -6.997  14.988  67.816  1.00  0.00    -0.193 C  
HETATM    7  O   UNL     1      -8.062   8.522  68.318  1.00  0.00    -0.116 OA 
HETATM    8  C   UNL     1      -8.191  13.951  67.930  1.00  0.00    -0.164 C  
HETATM    9  C   UNL     1      -5.282  10.696  68.941  1.00  0.00    -0.041 C  
HETATM   10  C   UNL     1      -5.418   7.923  67.463  1.00  0.00    -0.036 C  
HETATM   11  C   UNL     1      -8.989  14.452  69.132  1.00  0.00     0.094 C  
HETATM   12  H   UNL     1      -8.557   8.128  69.026  1.00  0.00     0.000 HD 
HETATM   13  C   UNL     1      -6.455  12.068  69.064  1.00  0.00    -0.091 C  
HETATM   14  O   UNL     1      -7.200  11.971  70.283  1.00  0.00     0.111 OA 
HETATM   15  C   UNL     1      -7.496  12.517  67.790  1.00  0.00    -0.130 C  
HETATM   16  H   UNL     1      -7.816  12.692  70.348  1.00  0.00     0.000 HD 
HETATM   17  C   UNL     1      -8.389  11.268  67.249  1.00  0.00    -0.145 C  
HETATM   18  F   UNL     1      -6.715  12.849  66.669  1.00  0.00     0.162 F  
HETATM   19  C   UNL     1      -9.344  11.703  66.121  1.00  0.00    -0.237 C  
HETATM   20  C   UNL     1     -10.119  12.986  66.451  1.00  0.00    -0.279 C  
HETATM   21  C   UNL     1      -9.151  14.140  66.721  1.00  0.00    -0.266 C  
HETATM   22  C   UNL     1     -11.100  13.287  65.302  1.00  0.00    -0.306 C  
HETATM   23  C   UNL     1      -9.535  15.405  66.431  1.00  0.00    -0.325 C  
HETATM   24  C   UNL     1     -10.313  15.936  67.610  1.00  0.00    -0.281 C  
HETATM   25  C   UNL     1      -9.945  15.400  68.973  1.00  0.00    -0.229 C  
HETATM   26  O   UNL     1     -11.160  16.809  67.466  1.00  0.00    -0.196 OA 
ENDROOT
BRANCH   4  27
HETATM   27  C   UNL     1      -6.841   9.119  70.030  1.00  0.00    -0.049 C  
HETATM   28  O   UNL     1      -7.815   9.195  70.802  1.00  0.00    -0.125 OA 
HETATM   29  C   UNL     1      -5.590   8.375  70.514  1.00  0.00    -0.028 C  
ENDBRANCH   4  27
TORSDOF 1
ENDMDL
MODEL       99
REMARK 921   NORMALIZED FREE ENERGY PREDICTED BY IDOCK:   -3.00 KCAL/MOL
REMARK 922        TOTAL FREE ENERGY PREDICTED BY IDOCK:   -2.59 KCAL/MOL
REMARK 923 INTER-LIGAND FREE ENERGY PREDICTED BY IDOCK:   -4.00 KCAL/MOL
REMARK 924 INTRA-LIGAND FREE ENERGY PREDICTED BY IDOCK:    1.41 KCAL/MOL
REMARK 927      BINDING AFFINITY PREDICTED BY RF-SCORE:    0.00 PKD
ROOT
HETATM    1  C   UNL     1      -6.709   8.072  67.861  1.00  0.00    -0.068 C  
HETATM    2  C   UNL     1      -5.562   8.874  67.632  1.00  0.00    -0.039 C  
HETATM    3  C   UNL     1      -6.371   9.305  68.797  1.00  0.00    -0.048 C  
HETATM    4  C   UNL     1      -7.915   8.066  69.324  1.00  0.00    -0.116 C  
HETATM    5  C   UNL     1      -6.684   8.224  69.819  1.00  0.00    -0.040 C  
HETATM    6  C   UNL     1      -8.837  12.861  67.070  1.00  0.00    -0.208 C  
HETATM    7  O   UNL     1      -7.979   6.619  68.942  1.00  0.00    -0.109 OA 
HETATM    8  C   UNL     1      -9.302  11.394  66.685  1.00  0.00    -0.198 C  
HETATM    9  C   UNL     1      -7.518   9.821  70.483  1.00  0.00    -0.119 C  
HETATM   10  C   UNL     1      -5.656   7.286  70.437  1.00  0.00    -0.024 C  
HETATM   11  C   UNL     1     -10.826  11.481  66.716  1.00  0.00    -0.330 C  
HETATM   12  H   UNL     1      -8.694   6.044  69.186  1.00  0.00     0.000 HD 
HETATM   13  C   UNL     1      -8.665  10.510  69.266  1.00  0.00    -0.123 C  
HETATM   14  O   UNL     1     -10.003  10.087  69.555  1.00  0.00    -0.203 OA 
HETATM   15  C   UNL     1      -8.391  10.433  67.584  1.00  0.00    -0.114 C  
HETATM   16  H   UNL     1     -10.605  10.449  68.917  1.00  0.00     0.000 HD 
HETATM   17  C   UNL     1      -8.119   8.913  67.068  1.00  0.00    -0.109 C  
HETATM   18  F   UNL     1      -7.178  11.081  67.297  1.00  0.00    -0.084 F  
HETATM   19  C   UNL     1      -7.906   8.863  65.543  1.00  0.00    -0.100 C  
HETATM   20  C   UNL     1      -8.964   9.654  64.763  1.00  0.00    -0.268 C  
HETATM   21  C   UNL     1      -8.958  11.123  65.192  1.00  0.00    -0.106 C  
HETATM   22  C   UNL     1      -8.711   9.474  63.254  1.00  0.00    -0.238 C  
HETATM   23  C   UNL     1      -9.311  12.074  64.297  1.00  0.00     0.253 C  
HETATM   24  C   UNL     1     -10.815  12.196  64.316  1.00  0.00    -0.341 C  
HETATM   25  C   UNL     1     -11.512  11.890  65.620  1.00  0.00    -0.314 C  
HETATM   26  O   UNL     1     -11.430  12.588  63.332  1.00  0.00    -0.472 OA 
ENDROOT
BRANCH   4  27
HETATM   27  C   UNL     1      -8.789   7.710  70.653  1.00  0.00    -0.145 C  
HETATM   28  O   UNL     1      -8.484   8.343  71.681  1.00  0.00    -0.134 OA 
HETATM   29  C   UNL     1     -10.043   6.828  70.692  1.00  0.00    -0.204 C  
ENDBRANCH   4  27
TORSDOF 1
ENDMDL
MODEL      100
REMARK 921   NORMALIZED FREE ENERGY PREDICTED BY IDOCK:   -2.98 KCAL/MOL
REMARK 922        TOTAL FREE ENERGY PREDICTED BY IDOCK:   -2.57 KCAL/MOL
REMARK 923 INTER-LIGAND FREE ENERGY PREDICTED BY IDOCK:   -3.13 KCAL/MOL
REMARK 924 INTRA-LIGAND FREE ENERGY PREDICTED BY IDOCK:    0.55 KCAL/MOL
REMARK 927      BINDING AFFINITY PREDICTED BY RF-SCORE:    0.00 PKD
ROOT
HETATM    1  C   UNL     1      -8.974   6.290  71.487  1.00  0.00    -0.142 C  
HETATM    2  C   UNL     1     -10.246   6.885  71.282  1.00  0.00    -0.213 C  
HETATM    3  C   UNL     1     -10.002   5.686  70.444  1.00  0.00    -0.267 C  
HETATM    4  C   UNL     1      -8.284   4.645  70.844  1.00  0.00    -0.089 C  
HETATM    5  C   UNL     1      -9.558   4.438  71.190  1.00  0.00    -0.245 C  
HETATM    6  C   UNL     1      -8.804   7.537  66.340  1.00  0.00    -0.178 C  
HETATM    7  O   UNL     1      -7.554   4.730  72.149  1.00  0.00    -0.080 OA 
HETATM    8  C   UNL     1      -7.712   7.541  67.490  1.00  0.00    -0.118 C  
HETATM    9  C   UNL     1      -9.629   3.937  69.338  1.00  0.00    -0.239 C  
HETATM   10  C   UNL     1     -10.248   3.867  72.421  1.00  0.00    -0.227 C  
HETATM   11  C   UNL     1      -6.412   7.231  66.752  1.00  0.00    -0.052 C  
HETATM   12  H   UNL     1      -6.757   4.247  72.335  1.00  0.00     0.000 HD 
HETATM   13  C   UNL     1      -8.581   5.015  68.331  1.00  0.00    -0.097 C  
HETATM   14  O   UNL     1      -7.308   4.397  68.108  1.00  0.00    -0.063 OA 
HETATM   15  C   UNL     1      -8.361   6.673  68.667  1.00  0.00    -0.123 C  
HETATM   16  H   UNL     1      -6.758   4.962  67.580  1.00  0.00     0.000 HD 
HETATM   17  C   UNL     1      -7.865   6.937  70.194  1.00  0.00    -0.106 C  
HETATM   18  F   UNL     1      -9.615   7.307  68.633  1.00  0.00    -0.141 F  
HETATM   19  C   UNL     1      -7.643   8.437  70.465  1.00  0.00    -0.074 C  
HETATM   20  C   UNL     1      -6.825   9.131  69.367  1.00  0.00    -0.048 C  
HETATM   21  C   UNL     1      -7.525   8.995  68.013  1.00  0.00    -0.084 C  
HETATM   22  C   UNL     1      -6.590  10.599  69.771  1.00  0.00    -0.121 C  
HETATM   23  C   UNL     1      -7.364   9.966  67.086  1.00  0.00    -0.091 C  
HETATM   24  C   UNL     1      -6.092   9.678  66.326  1.00  0.00    -0.064 C  
HETATM   25  C   UNL     1      -5.690   8.230  66.186  1.00  0.00    -0.040 C  
HETATM   26  O   UNL     1      -5.455  10.580  65.795  1.00  0.00    -0.072 OA 
ENDROOT
BRANCH   4  27
HETATM   27  C   UNL     1      -7.712   3.129  70.669  1.00  0.00    -0.043 C  
HETATM   28  O   UNL     1      -6.512   3.043  70.347  1.00  0.00    -0.030 OA 
HETATM   29  C   UNL     1      -8.455   1.841  71.044  1.00  0.00    -0.077 C  
ENDBRANCH   4  27
TORSDOF 1
ENDMDL
MODEL      101
REMARK 921   NORMALIZED FREE ENERGY PREDICTED BY IDOCK:   -2.86 KCAL/MOL
REMARK 922        TOTAL FREE ENERGY PREDICTED BY IDOCK:   -2.44 KCAL/MOL
REMARK 923 INTER-LIGAND FREE ENERGY PREDICTED BY IDOCK:   -3.00 KCAL/MOL
REMARK 924 INTRA-LIGAND FREE ENERGY PREDICTED BY IDOCK:    0.55 KCAL/MOL
REMARK 927      BINDING AFFINITY PREDICTED BY RF-SCORE:    0.00 PKD
ROOT
HETATM    1  C   UNL     1      -6.867   5.970  65.264  1.00  0.00    -0.051 C  
HETATM    2  C   UNL     1      -7.935   5.387  64.534  1.00  0.00    -0.116 C  
HETATM    3  C   UNL     1      -8.226   6.752  65.036  1.00  0.00    -0.096 C  
HETATM    4  C   UNL     1      -6.656   7.742  65.904  1.00  0.00    -0.046 C  
HETATM    5  C   UNL     1      -7.199   7.816  64.685  1.00  0.00    -0.072 C  
HETATM    6  C   UNL     1     -10.770   5.918  68.848  1.00  0.00    -0.370 C  
HETATM    7  O   UNL     1      -5.221   7.394  65.651  1.00  0.00    -0.027 OA 
HETATM    8  C   UNL     1      -9.203   5.697  68.953  1.00  0.00    -0.136 C  
HETATM    9  C   UNL     1      -8.550   8.718  65.708  1.00  0.00    -0.185 C  
HETATM   10  C   UNL     1      -6.649   8.070  63.288  1.00  0.00    -0.080 C  
HETATM   11  C   UNL     1      -8.860   6.215  70.348  1.00  0.00    -0.149 C  
HETATM   12  H   UNL     1      -4.493   7.853  66.053  1.00  0.00     0.000 HD 
HETATM   13  C   UNL     1      -8.774   7.935  67.323  1.00  0.00    -0.131 C  
HETATM   14  O   UNL     1      -8.020   8.636  68.319  1.00  0.00    -0.107 OA 
HETATM   15  C   UNL     1      -8.623   6.254  67.569  1.00  0.00    -0.107 C  
HETATM   16  H   UNL     1      -8.138   8.225  69.168  1.00  0.00     0.000 HD 
HETATM   17  C   UNL     1      -7.201   5.672  67.031  1.00  0.00    -0.075 C  
HETATM   18  F   UNL     1      -9.558   5.596  66.752  1.00  0.00    -0.127 F  
HETATM   19  C   UNL     1      -7.074   4.160  67.292  1.00  0.00    -0.067 C  
HETATM   20  C   UNL     1      -7.460   3.762  68.723  1.00  0.00    -0.054 C  
HETATM   21  C   UNL     1      -8.904   4.172  69.020  1.00  0.00    -0.141 C  
HETATM   22  C   UNL     1      -7.221   2.251  68.904  1.00  0.00    -0.044 C  
HETATM   23  C   UNL     1      -9.632   3.441  69.895  1.00  0.00    -0.198 C  
HETATM   24  C   UNL     1      -9.326   3.941  71.286  1.00  0.00    -0.143 C  
HETATM   25  C   UNL     1      -8.957   5.398  71.425  1.00  0.00    -0.151 C  
HETATM   26  O   UNL     1      -9.438   3.207  72.261  1.00  0.00    -0.108 OA 
ENDROOT
BRANCH   4  27
HETATM   27  C   UNL     1      -6.192   9.279  66.182  1.00  0.00    -0.064 C  
HETATM   28  O   UNL     1      -5.644   9.483  67.281  1.00  0.00    -0.040 OA 
HETATM   29  C   UNL     1      -6.202  10.419  65.155  1.00  0.00    -0.114 C  
ENDBRANCH   4  27
TORSDOF 1
ENDMDL
MODEL      102
REMARK 921   NORMALIZED FREE ENERGY PREDICTED BY IDOCK:   -2.85 KCAL/MOL
REMARK 922        TOTAL FREE ENERGY PREDICTED BY IDOCK:   -2.43 KCAL/MOL
REMARK 923 INTER-LIGAND FREE ENERGY PREDICTED BY IDOCK:   -3.04 KCAL/MOL
REMARK 924 INTRA-LIGAND FREE ENERGY PREDICTED BY IDOCK:    0.60 KCAL/MOL
REMARK 927      BINDING AFFINITY PREDICTED BY RF-SCORE:    0.00 PKD
ROOT
HETATM    1  C   UNL     1      -8.603   7.829  71.304  1.00  0.00    -0.127 C  
HETATM    2  C   UNL     1      -9.641   8.527  70.635  1.00  0.00    -0.203 C  
HETATM    3  C   UNL     1     -10.002   7.142  71.024  1.00  0.00    -0.192 C  
HETATM    4  C   UNL     1      -8.638   6.152  72.188  1.00  0.00    -0.127 C  
HETATM    5  C   UNL     1      -9.776   6.787  72.485  1.00  0.00    -0.166 C  
HETATM    6  C   UNL     1      -9.431   4.781  67.048  1.00  0.00    -0.164 C  
HETATM    7  O   UNL     1      -7.599   6.848  73.012  1.00  0.00    -0.088 OA 
HETATM    8  C   UNL     1      -8.125   5.177  67.858  1.00  0.00    -0.098 C  
HETATM    9  C   UNL     1     -10.482   5.199  71.669  1.00  0.00    -0.255 C  
HETATM   10  C   UNL     1     -10.255   7.617  73.668  1.00  0.00    -0.237 C  
HETATM   11  C   UNL     1      -7.224   3.954  67.704  1.00  0.00    -0.066 C  
HETATM   12  H   UNL     1      -6.966   6.389  73.552  1.00  0.00     0.000 HD 
HETATM   13  C   UNL     1      -9.463   4.679  70.268  1.00  0.00    -0.170 C  
HETATM   14  O   UNL     1      -8.544   3.660  70.679  1.00  0.00    -0.067 OA 
HETATM   15  C   UNL     1      -8.671   5.781  69.235  1.00  0.00    -0.113 C  
HETATM   16  H   UNL     1      -8.009   3.386  69.944  1.00  0.00     0.000 HD 
HETATM   17  C   UNL     1      -7.733   6.832  70.051  1.00  0.00    -0.102 C  
HETATM   18  F   UNL     1      -9.637   6.617  68.648  1.00  0.00    -0.132 F  
HETATM   19  C   UNL     1      -7.004   7.797  69.097  1.00  0.00    -0.065 C  
HETATM   20  C   UNL     1      -6.336   7.082  67.914  1.00  0.00    -0.043 C  
HETATM   21  C   UNL     1      -7.376   6.310  67.099  1.00  0.00    -0.083 C  
HETATM   22  C   UNL     1      -5.570   8.119  67.071  1.00  0.00    -0.037 C  
HETATM   23  C   UNL     1      -7.180   6.137  65.772  1.00  0.00    -0.075 C  
HETATM   24  C   UNL     1      -6.304   4.922  65.586  1.00  0.00    -0.035 C  
HETATM   25  C   UNL     1      -6.411   3.833  66.626  1.00  0.00    -0.036 C  
HETATM   26  O   UNL     1      -5.587   4.805  64.599  1.00  0.00    -0.013 OA 
ENDROOT
BRANCH   4  27
HETATM   27  C   UNL     1      -8.619   4.932  73.268  1.00  0.00    -0.102 C  
HETATM   28  O   UNL     1      -7.558   4.282  73.325  1.00  0.00    -0.078 OA 
HETATM   29  C   UNL     1      -9.698   4.649  74.321  1.00  0.00    -0.160 C  
ENDBRANCH   4  27
TORSDOF 1
ENDMDL
MODEL      103
REMARK 921   NORMALIZED FREE ENERGY PREDICTED BY IDOCK:   -2.37 KCAL/MOL
REMARK 922        TOTAL FREE ENERGY PREDICTED BY IDOCK:   -1.92 KCAL/MOL
REMARK 923 INTER-LIGAND FREE ENERGY PREDICTED BY IDOCK:   -3.32 KCAL/MOL
REMARK 924 INTRA-LIGAND FREE ENERGY PREDICTED BY IDOCK:    1.40 KCAL/MOL
REMARK 927      BINDING AFFINITY PREDICTED BY RF-SCORE:    0.00 PKD
ROOT
HETATM    1  C   UNL     1      -9.843  13.747  67.657  1.00  0.00    -0.234 C  
HETATM    2  C   UNL     1     -10.294  12.816  68.629  1.00  0.00    -0.194 C  
HETATM    3  C   UNL     1      -8.964  13.400  68.928  1.00  0.00     0.249 C  
HETATM    4  C   UNL     1      -8.349  14.913  67.692  1.00  0.00    -0.167 C  
HETATM    5  C   UNL     1      -8.892  14.918  68.914  1.00  0.00    -0.184 C  
HETATM    6  C   UNL     1      -6.040  10.060  67.515  1.00  0.00    -0.058 C  
HETATM    7  O   UNL     1      -9.289  15.736  66.865  1.00  0.00    -0.212 OA 
HETATM    8  C   UNL     1      -6.713  10.962  66.398  1.00  0.00    -0.134 C  
HETATM    9  C   UNL     1      -7.118  14.319  69.338  1.00  0.00    -0.086 C  
HETATM   10  C   UNL     1      -9.851  15.844  69.649  1.00  0.00    -0.238 C  
HETATM   11  C   UNL     1      -5.593  11.172  65.382  1.00  0.00     0.169 C  
HETATM   12  H   UNL     1      -9.004  16.438  66.292  1.00  0.00     0.000 HD 
HETATM   13  C   UNL     1      -6.485  13.203  68.063  1.00  0.00    -0.126 C  
HETATM   14  O   UNL     1      -5.663  13.926  67.140  1.00  0.00    -0.264 OA 
HETATM   15  C   UNL     1      -7.478  12.108  67.211  1.00  0.00    -0.152 C  
HETATM   16  H   UNL     1      -5.330  13.340  66.470  1.00  0.00     0.000 HD 
HETATM   17  C   UNL     1      -8.753  12.841  66.512  1.00  0.00     0.015 C  
HETATM   18  F   UNL     1      -8.086  11.242  68.136  1.00  0.00    -0.111 F  
HETATM   19  C   UNL     1      -9.617  11.840  65.723  1.00  0.00    -0.253 C  
HETATM   20  C   UNL     1      -8.792  10.921  64.812  1.00  0.00    -0.111 C  
HETATM   21  C   UNL     1      -7.778  10.123  65.635  1.00  0.00    -0.143 C  
HETATM   22  C   UNL     1      -9.750  10.020  64.010  1.00  0.00    -0.157 C  
HETATM   23  C   UNL     1      -7.404   8.894  65.211  1.00  0.00    -0.088 C  
HETATM   24  C   UNL     1      -6.284   9.067  64.215  1.00  0.00    -0.071 C  
HETATM   25  C   UNL     1      -5.383  10.264  64.396  1.00  0.00    -0.127 C  
HETATM   26  O   UNL     1      -6.082   8.233  63.340  1.00  0.00    -0.071 OA 
ENDROOT
BRANCH   4  27
HETATM   27  C   UNL     1      -7.341  16.193  67.746  1.00  0.00    -0.135 C  
HETATM   28  O   UNL     1      -6.784  16.392  68.842  1.00  0.00    -0.152 OA 
HETATM   29  C   UNL     1      -6.891  17.031  66.543  1.00  0.00    -0.281 C  
ENDBRANCH   4  27
TORSDOF 1
ENDMDL
MODEL      104
REMARK 921   NORMALIZED FREE ENERGY PREDICTED BY IDOCK:   -2.22 KCAL/MOL
REMARK 922        TOTAL FREE ENERGY PREDICTED BY IDOCK:   -1.76 KCAL/MOL
REMARK 923 INTER-LIGAND FREE ENERGY PREDICTED BY IDOCK:   -3.22 KCAL/MOL
REMARK 924 INTRA-LIGAND FREE ENERGY PREDICTED BY IDOCK:    1.46 KCAL/MOL
REMARK 927      BINDING AFFINITY PREDICTED BY RF-SCORE:    0.00 PKD
ROOT
HETATM    1  C   UNL     1      -9.646  17.928  66.087  1.00  0.00    -0.192 C  
HETATM    2  C   UNL     1     -10.993  17.874  66.530  1.00  0.00     0.228 C  
HETATM    3  C   UNL     1     -10.052  18.414  67.539  1.00  0.00    -0.373 C  
HETATM    4  C   UNL     1      -8.132  18.731  66.897  1.00  0.00    -0.259 C  
HETATM    5  C   UNL     1      -9.167  19.559  67.071  1.00  0.00    -0.404 C  
HETATM    6  C   UNL     1      -9.305  14.742  70.308  1.00  0.00     0.933 C  
HETATM    7  O   UNL     1      -7.762  18.897  65.455  1.00  0.00    -0.434 OA 
HETATM    8  C   UNL     1      -8.562  14.764  68.907  1.00  0.00    -0.160 C  
HETATM    9  C   UNL     1      -8.680  19.244  68.901  1.00  0.00    -0.334 C  
HETATM   10  C   UNL     1      -9.664  20.808  66.356  1.00  0.00     0.069 C  
HETATM   11  C   UNL     1      -7.183  14.190  69.223  1.00  0.00    -0.049 C  
HETATM   12  H   UNL     1      -6.872  19.045  65.157  1.00  0.00     0.000 HD 
HETATM   13  C   UNL     1      -8.169  17.526  69.152  1.00  0.00     0.060 C  
HETATM   14  O   UNL     1      -6.741  17.425  69.101  1.00  0.00    -0.232 OA 
HETATM   15  C   UNL     1      -8.867  16.217  68.311  1.00  0.00    -0.188 C  
HETATM   16  H   UNL     1      -6.473  16.524  69.233  1.00  0.00     0.000 HD 
HETATM   17  C   UNL     1      -8.821  16.422  66.696  1.00  0.00    -0.283 C  
HETATM   18  F   UNL     1     -10.245  16.194  68.583  1.00  0.00    -0.216 F  
HETATM   19  C   UNL     1      -9.427  15.214  65.956  1.00  0.00    -0.358 C  
HETATM   20  C   UNL     1      -8.905  13.868  66.475  1.00  0.00    -0.023 C  
HETATM   21  C   UNL     1      -9.216  13.712  67.965  1.00  0.00    -0.197 C  
HETATM   22  C   UNL     1      -9.505  12.736  65.620  1.00  0.00     0.037 C  
HETATM   23  C   UNL     1      -9.418  12.474  68.472  1.00  0.00    -0.100 C  
HETATM   24  C   UNL     1      -8.070  11.884  68.810  1.00  0.00    -0.021 C  
HETATM   25  C   UNL     1      -6.980  12.849  69.210  1.00  0.00     0.039 C  
HETATM   26  O   UNL     1      -7.896  10.672  68.820  1.00  0.00    -0.107 OA 
ENDROOT
BRANCH   4  27
HETATM   27  C   UNL     1      -6.858  19.669  67.290  1.00  0.00    -0.202 C  
HETATM   28  O   UNL     1      -7.130  20.704  67.926  1.00  0.00    -0.296 OA 
HETATM   29  C   UNL     1      -5.381  19.295  67.112  1.00  0.00    -0.161 C  
ENDBRANCH   4  27
TORSDOF 1
ENDMDL
MODEL      105
REMARK 921   NORMALIZED FREE ENERGY PREDICTED BY IDOCK:   -2.08 KCAL/MOL
REMARK 922        TOTAL FREE ENERGY PREDICTED BY IDOCK:   -1.62 KCAL/MOL
REMARK 923 INTER-LIGAND FREE ENERGY PREDICTED BY IDOCK:   -3.16 KCAL/MOL
REMARK 924 INTRA-LIGAND FREE ENERGY PREDICTED BY IDOCK:    1.54 KCAL/MOL
REMARK 927      BINDING AFFINITY PREDICTED BY RF-SCORE:    0.00 PKD
ROOT
HETATM    1  C   UNL     1      -8.086  10.831  69.196  1.00  0.00    -0.133 C  
HETATM    2  C   UNL     1      -6.834  11.062  69.823  1.00  0.00    -0.116 C  
HETATM    3  C   UNL     1      -6.731  10.381  68.510  1.00  0.00    -0.056 C  
HETATM    4  C   UNL     1      -8.473  10.215  67.445  1.00  0.00    -0.122 C  
HETATM    5  C   UNL     1      -7.445  11.064  67.354  1.00  0.00    -0.106 C  
HETATM    6  C   UNL     1      -6.174   5.916  69.716  1.00  0.00    -0.027 C  
HETATM    7  O   UNL     1      -9.663  11.095  67.669  1.00  0.00    -0.167 OA 
HETATM    8  C   UNL     1      -7.634   6.524  69.821  1.00  0.00    -0.097 C  
HETATM    9  C   UNL     1      -6.643   9.487  66.608  1.00  0.00    -0.068 C  
HETATM   10  C   UNL     1      -7.309  12.537  66.993  1.00  0.00     0.013 C  
HETATM   11  C   UNL     1      -8.533   5.385  69.345  1.00  0.00    -0.099 C  
HETATM   12  H   UNL     1     -10.471  11.018  67.176  1.00  0.00     0.000 HD 
HETATM   13  C   UNL     1      -7.193   8.002  67.482  1.00  0.00    -0.088 C  
HETATM   14  O   UNL     1      -8.274   7.385  66.774  1.00  0.00    -0.116 OA 
HETATM   15  C   UNL     1      -7.516   7.975  69.157  1.00  0.00    -0.095 C  
HETATM   16  H   UNL     1      -8.562   6.605  67.232  1.00  0.00     0.000 HD 
HETATM   17  C   UNL     1      -8.581   9.124  69.601  1.00  0.00    -0.143 C  
HETATM   18  F   UNL     1      -6.349   8.349  69.844  1.00  0.00    -0.034 F  
HETATM   19  C   UNL     1      -8.882   9.062  71.111  1.00  0.00    -0.282 C  
HETATM   20  C   UNL     1      -9.187   7.641  71.604  1.00  0.00    -0.159 C  
HETATM   21  C   UNL     1      -8.004   6.711  71.320  1.00  0.00    -0.107 C  
HETATM   22  C   UNL     1      -9.553   7.699  73.099  1.00  0.00    -0.314 C  
HETATM   23  C   UNL     1      -7.774   5.665  72.146  1.00  0.00    -0.102 C  
HETATM   24  C   UNL     1      -8.638   4.514  71.690  1.00  0.00    -0.115 C  
HETATM   25  C   UNL     1      -8.960   4.439  70.217  1.00  0.00    -0.142 C  
HETATM   26  O   UNL     1      -9.003   3.648  72.477  1.00  0.00    -0.100 OA 
ENDROOT
BRANCH   4  27
HETATM   27  C   UNL     1      -8.938  10.051  65.892  1.00  0.00    -0.154 C  
HETATM   28  O   UNL     1      -8.029   9.773  65.086  1.00  0.00    -0.118 OA 
HETATM   29  C   UNL     1     -10.386  10.024  65.387  1.00  0.00    -0.111 C  
ENDBRANCH   4  27
TORSDOF 1
ENDMDL
MODEL      106
REMARK 921   NORMALIZED FREE ENERGY PREDICTED BY IDOCK:   -2.03 KCAL/MOL
REMARK 922        TOTAL FREE ENERGY PREDICTED BY IDOCK:   -1.56 KCAL/MOL
REMARK 923 INTER-LIGAND FREE ENERGY PREDICTED BY IDOCK:   -2.12 KCAL/MOL
REMARK 924 INTRA-LIGAND FREE ENERGY PREDICTED BY IDOCK:    0.56 KCAL/MOL
REMARK 927      BINDING AFFINITY PREDICTED BY RF-SCORE:    0.00 PKD
ROOT
HETATM    1  C   UNL     1      -8.784   9.968  64.003  1.00  0.00    -0.222 C  
HETATM    2  C   UNL     1      -7.657  10.805  63.797  1.00  0.00     0.304 C  
HETATM    3  C   UNL     1      -7.548   9.936  64.994  1.00  0.00    -0.134 C  
HETATM    4  C   UNL     1      -9.032   8.544  65.230  1.00  0.00    -0.050 C  
HETATM    5  C   UNL     1      -7.786   8.453  64.756  1.00  0.00    -0.128 C  
HETATM    6  C   UNL     1      -8.689  12.827  68.464  1.00  0.00    -0.045 C  
HETATM    7  O   UNL     1      -9.894   8.058  64.105  1.00  0.00     2.126 OA 
HETATM    8  C   UNL     1      -9.869  12.258  67.570  1.00  0.00    -0.193 C  
HETATM    9  C   UNL     1      -7.419   8.624  66.633  1.00  0.00    -0.089 C  
HETATM   10  C   UNL     1      -7.119   7.627  63.665  1.00  0.00    -0.070 C  
HETATM   11  C   UNL     1     -10.988  11.997  68.575  1.00  0.00    -0.280 C  
HETATM   12  H   UNL     1     -10.582   7.413  64.214  1.00  0.00     0.000 HD 
HETATM   13  C   UNL     1      -8.565   9.783  67.417  1.00  0.00    -0.128 C  
HETATM   14  O   UNL     1      -9.644   9.068  68.031  1.00  0.00    -0.144 OA 
HETATM   15  C   UNL     1      -9.171  11.168  66.628  1.00  0.00    -0.175 C  
HETATM   16  H   UNL     1     -10.246   9.676  68.444  1.00  0.00     0.000 HD 
HETATM   17  C   UNL     1      -9.868  10.813  65.199  1.00  0.00    -0.333 C  
HETATM   18  F   UNL     1      -8.088  11.980  66.253  1.00  0.00    -0.077 F  
HETATM   19  C   UNL     1     -10.436  12.074  64.520  1.00  0.00    -0.341 C  
HETATM   20  C   UNL     1     -11.266  12.947  65.470  1.00  0.00    -0.319 C  
HETATM   21  C   UNL     1     -10.418  13.396  66.662  1.00  0.00    -0.280 C  
HETATM   22  C   UNL     1     -11.853  14.130  64.677  1.00  0.00    -0.443 C  
HETATM   23  C   UNL     1     -10.689  14.580  67.257  1.00  0.00    -0.287 C  
HETATM   24  C   UNL     1     -11.783  14.352  68.271  1.00  0.00    -0.341 C  
HETATM   25  C   UNL     1     -11.846  12.989  68.917  1.00  0.00    -0.358 C  
HETATM   26  O   UNL     1     -12.542  15.257  68.595  1.00  0.00     0.199 OA 
ENDROOT
BRANCH   4  27
HETATM   27  C   UNL     1      -9.242   7.101  65.958  1.00  0.00    -0.022 C  
HETATM   28  O   UNL     1     -10.364   6.915  66.466  1.00  0.00    -0.163 OA 
HETATM   29  C   UNL     1      -8.266   5.919  65.905  1.00  0.00    -0.127 C  
ENDBRANCH   4  27
TORSDOF 1
ENDMDL
MODEL      107
REMARK 921   NORMALIZED FREE ENERGY PREDICTED BY IDOCK:   -1.42 KCAL/MOL
REMARK 922        TOTAL FREE ENERGY PREDICTED BY IDOCK:   -0.92 KCAL/MOL
REMARK 923 INTER-LIGAND FREE ENERGY PREDICTED BY IDOCK:   -1.50 KCAL/MOL
REMARK 924 INTRA-LIGAND FREE ENERGY PREDICTED BY IDOCK:    0.58 KCAL/MOL
REMARK 927      BINDING AFFINITY PREDICTED BY RF-SCORE:    0.00 PKD
ROOT
HETATM    1  C   UNL     1      -8.899   6.286  68.187  1.00  0.00    -0.113 C  
HETATM    2  C   UNL     1     -10.035   5.739  67.538  1.00  0.00    -0.171 C  
HETATM    3  C   UNL     1      -9.371   6.822  66.774  1.00  0.00    -0.189 C  
HETATM    4  C   UNL     1      -7.599   7.506  67.541  1.00  0.00    -0.113 C  
HETATM    5  C   UNL     1      -7.877   6.653  66.551  1.00  0.00    -0.104 C  
HETATM    6  C   UNL     1     -12.052  10.518  67.702  1.00  0.00     1.629 C  
HETATM    7  O   UNL     1      -6.750   6.714  68.487  1.00  0.00    -0.059 OA 
HETATM    8  C   UNL     1     -11.043  10.045  68.830  1.00  0.00    -0.219 C  
HETATM    9  C   UNL     1      -8.342   8.311  65.703  1.00  0.00    -0.154 C  
HETATM   10  C   UNL     1      -7.213   5.392  66.014  1.00  0.00    -0.076 C  
HETATM   11  C   UNL     1     -10.529  11.355  69.423  1.00  0.00    -0.040 C  
HETATM   12  H   UNL     1      -5.929   7.031  68.843  1.00  0.00     0.000 HD 
HETATM   13  C   UNL     1      -9.131   9.442  66.874  1.00  0.00    -0.135 C  
HETATM   14  O   UNL     1      -8.165  10.362  67.396  1.00  0.00    -0.117 OA 
HETATM   15  C   UNL     1     -10.156   8.912  68.130  1.00  0.00    -0.189 C  
HETATM   16  H   UNL     1      -8.579  10.956  68.011  1.00  0.00     0.000 HD 
HETATM   17  C   UNL     1      -9.454   7.782  69.068  1.00  0.00    -0.150 C  
HETATM   18  F   UNL     1     -11.238   8.219  67.562  1.00  0.00    -0.138 F  
HETATM   19  C   UNL     1     -10.385   7.342  70.214  1.00  0.00    -0.219 C  
HETATM   20  C   UNL     1     -11.025   8.523  70.956  1.00  0.00    -0.296 C  
HETATM   21  C   UNL     1     -11.843   9.382  69.988  1.00  0.00     0.107 C  
HETATM   22  C   UNL     1     -11.867   7.981  72.127  1.00  0.00    -0.401 C  
HETATM   23  C   UNL     1     -12.924  10.050  70.450  1.00  0.00    -0.052 C  
HETATM   24  C   UNL     1     -12.450  11.360  71.029  1.00  0.00    -0.383 C  
HETATM   25  C   UNL     1     -11.213  11.972  70.418  1.00  0.00     0.667 C  
HETATM   26  O   UNL     1     -13.083  11.927  71.912  1.00  0.00    -0.458 OA 
ENDROOT
BRANCH   4  27
HETATM   27  C   UNL     1      -6.246   8.242  67.008  1.00  0.00    -0.055 C  
HETATM   28  O   UNL     1      -5.696   9.007  67.822  1.00  0.00    -0.038 OA 
HETATM   29  C   UNL     1      -5.514   7.932  65.696  1.00  0.00    -0.029 C  
ENDBRANCH   4  27
TORSDOF 1
ENDMDL
MODEL      108
REMARK 921   NORMALIZED FREE ENERGY PREDICTED BY IDOCK:   -1.27 KCAL/MOL
REMARK 922        TOTAL FREE ENERGY PREDICTED BY IDOCK:   -0.76 KCAL/MOL
REMARK 923 INTER-LIGAND FREE ENERGY PREDICTED BY IDOCK:   -2.31 KCAL/MOL
REMARK 924 INTRA-LIGAND FREE ENERGY PREDICTED BY IDOCK:    1.55 KCAL/MOL
REMARK 927      BINDING AFFINITY PREDICTED BY RF-SCORE:    0.00 PKD
ROOT
HETATM    1  C   UNL     1     -10.533  13.958  68.668  1.00  0.00    -0.249 C  
HETATM    2  C   UNL     1     -10.388  13.904  70.079  1.00  0.00     0.953 C  
HETATM    3  C   UNL     1      -9.457  14.849  69.415  1.00  0.00    -0.068 C  
HETATM    4  C   UNL     1      -9.758  15.146  67.411  1.00  0.00    -0.209 C  
HETATM    5  C   UNL     1     -10.101  15.864  68.484  1.00  0.00    -0.217 C  
HETATM    6  C   UNL     1      -5.494  12.408  69.212  1.00  0.00    -0.071 C  
HETATM    7  O   UNL     1     -11.058  14.865  66.722  1.00  0.00    -0.325 OA 
HETATM    8  C   UNL     1      -6.630  12.046  68.165  1.00  0.00    -0.055 C  
HETATM    9  C   UNL     1      -8.217  16.229  68.425  1.00  0.00    -0.185 C  
HETATM   10  C   UNL     1     -11.292  16.743  68.842  1.00  0.00    -0.016 C  
HETATM   11  C   UNL     1      -5.857  11.765  66.879  1.00  0.00    -0.143 C  
HETATM   12  H   UNL     1     -11.198  15.003  65.792  1.00  0.00     0.000 HD 
HETATM   13  C   UNL     1      -7.285  14.760  67.931  1.00  0.00    -0.156 C  
HETATM   14  O   UNL     1      -7.002  14.806  66.527  1.00  0.00     0.132 OA 
HETATM   15  C   UNL     1      -7.744  13.177  68.371  1.00  0.00    -0.138 C  
HETATM   16  H   UNL     1      -6.512  14.035  66.267  1.00  0.00     0.000 HD 
HETATM   17  C   UNL     1      -9.282  12.839  67.958  1.00  0.00    -0.208 C  
HETATM   18  F   UNL     1      -7.772  13.093  69.773  1.00  0.00     0.469 F  
HETATM   19  C   UNL     1      -9.664  11.395  68.336  1.00  0.00    -0.203 C  
HETATM   20  C   UNL     1      -8.614  10.363  67.905  1.00  0.00    -0.118 C  
HETATM   21  C   UNL     1      -7.261  10.676  68.548  1.00  0.00    -0.086 C  
HETATM   22  C   UNL     1      -9.126   8.953  68.253  1.00  0.00    -0.140 C  
HETATM   23  C   UNL     1      -6.409   9.662  68.821  1.00  0.00    -0.046 C  
HETATM   24  C   UNL     1      -5.616   9.370  67.570  1.00  0.00    -0.037 C  
HETATM   25  C   UNL     1      -5.361  10.527  66.635  1.00  0.00    -0.048 C  
HETATM   26  O   UNL     1      -5.149   8.257  67.363  1.00  0.00    -0.031 OA 
ENDROOT
BRANCH   4  27
HETATM   27  C   UNL     1      -9.462  16.295  66.293  1.00  0.00    -0.316 C  
HETATM   28  O   UNL     1     -10.109  16.193  65.234  1.00  0.00    -0.505 OA 
HETATM   29  C   UNL     1      -8.620  17.559  66.508  1.00  0.00    -0.293 C  
ENDBRANCH   4  27
TORSDOF 1
ENDMDL
MODEL      109
REMARK 921   NORMALIZED FREE ENERGY PREDICTED BY IDOCK:   -0.47 KCAL/MOL
REMARK 922        TOTAL FREE ENERGY PREDICTED BY IDOCK:    0.09 KCAL/MOL
REMARK 923 INTER-LIGAND FREE ENERGY PREDICTED BY IDOCK:   -1.77 KCAL/MOL
REMARK 924 INTRA-LIGAND FREE ENERGY PREDICTED BY IDOCK:    1.86 KCAL/MOL
REMARK 927      BINDING AFFINITY PREDICTED BY RF-SCORE:    0.00 PKD
ROOT
HETATM    1  C   UNL     1      -7.239   7.238  72.253  1.00  0.00    -0.068 C  
HETATM    2  C   UNL     1      -8.405   7.553  72.999  1.00  0.00    -0.166 C  
HETATM    3  C   UNL     1      -8.591   6.441  72.036  1.00  0.00    -0.126 C  
HETATM    4  C   UNL     1      -6.899   5.783  71.086  1.00  0.00    -0.065 C  
HETATM    5  C   UNL     1      -7.581   5.308  72.133  1.00  0.00    -0.099 C  
HETATM    6  C   UNL     1     -10.684   8.539  68.442  1.00  0.00    -0.084 C  
HETATM    7  O   UNL     1      -5.516   6.008  71.616  1.00  0.00    -0.020 OA 
HETATM    8  C   UNL     1      -9.124   8.764  68.612  1.00  0.00    -0.141 C  
HETATM    9  C   UNL     1      -8.772   4.820  70.708  1.00  0.00    -0.134 C  
HETATM   10  C   UNL     1      -7.195   4.592  73.420  1.00  0.00    -0.080 C  
HETATM   11  C   UNL     1      -8.600   8.743  67.177  1.00  0.00    -0.119 C  
HETATM   12  H   UNL     1      -4.731   5.703  71.176  1.00  0.00     0.000 HD 
HETATM   13  C   UNL     1      -8.825   6.104  69.435  1.00  0.00    -0.126 C  
HETATM   14  O   UNL     1      -7.936   5.771  68.362  1.00  0.00    -0.102 OA 
HETATM   15  C   UNL     1      -8.697   7.768  69.788  1.00  0.00    -0.139 C  
HETATM   16  H   UNL     1      -7.964   6.444  67.693  1.00  0.00     0.000 HD 
HETATM   17  C   UNL     1      -7.368   8.117  70.661  1.00  0.00    -0.053 C  
HETATM   18  F   UNL     1      -9.743   8.122  70.658  1.00  0.00    -0.167 F  
HETATM   19  C   UNL     1      -7.257   9.628  70.941  1.00  0.00    -0.009 C  
HETATM   20  C   UNL     1      -7.481  10.489  69.691  1.00  0.00    -0.145 C  
HETATM   21  C   UNL     1      -8.866  10.220  69.098  1.00  0.00    -0.182 C  
HETATM   22  C   UNL     1      -7.268  11.969  70.059  1.00  0.00     1.010 C  
HETATM   23  C   UNL     1      -9.505  11.212  68.436  1.00  0.00    -0.189 C  
HETATM   24  C   UNL     1      -9.020  11.206  67.007  1.00  0.00    -0.154 C  
HETATM   25  C   UNL     1      -8.593   9.876  66.433  1.00  0.00    -0.136 C  
HETATM   26  O   UNL     1      -9.037  12.227  66.330  1.00  0.00    -0.211 OA 
ENDROOT
BRANCH   4  27
HETATM   27  C   UNL     1      -6.358   4.424  70.368  1.00  0.00    -0.023 C  
HETATM   28  O   UNL     1      -6.534   3.371  71.010  1.00  0.00    -0.025 OA 
HETATM   29  C   UNL     1      -5.840   4.315  68.928  1.00  0.00    -0.022 C  
ENDBRANCH   4  27
TORSDOF 1
ENDMDL
MODEL      110
REMARK 921   NORMALIZED FREE ENERGY PREDICTED BY IDOCK:   -0.33 KCAL/MOL
REMARK 922        TOTAL FREE ENERGY PREDICTED BY IDOCK:    0.23 KCAL/MOL
REMARK 923 INTER-LIGAND FREE ENERGY PREDICTED BY IDOCK:   -2.60 KCAL/MOL
REMARK 924 INTRA-LIGAND FREE ENERGY PREDICTED BY IDOCK:    2.83 KCAL/MOL
REMARK 927      BINDING AFFINITY PREDICTED BY RF-SCORE:    0.00 PKD
ROOT
HETATM    1  C   UNL     1      -7.748  10.449  68.430  1.00  0.00    -0.098 C  
HETATM    2  C   UNL     1      -6.398  10.882  68.393  1.00  0.00    -0.053 C  
HETATM    3  C   UNL     1      -7.177  11.242  67.183  1.00  0.00    -0.126 C  
HETATM    4  C   UNL     1      -9.186  10.850  67.261  1.00  0.00    -0.151 C  
HETATM    5  C   UNL     1      -8.485  11.974  67.436  1.00  0.00    -0.170 C  
HETATM    6  C   UNL     1      -5.901   7.962  64.131  1.00  0.00    -0.052 C  
HETATM    7  O   UNL     1      -9.944  10.682  68.541  1.00  0.00    -0.155 OA 
HETATM    8  C   UNL     1      -6.938   7.548  65.258  1.00  0.00    -0.059 C  
HETATM    9  C   UNL     1      -8.353  11.791  65.529  1.00  0.00     0.586 C  
HETATM   10  C   UNL     1      -8.641  13.198  68.327  1.00  0.00    -0.166 C  
HETATM   11  C   UNL     1      -7.911   6.625  64.529  1.00  0.00    -0.106 C  
HETATM   12  H   UNL     1     -10.876  10.500  68.577  1.00  0.00     0.000 HD 
HETATM   13  C   UNL     1      -8.169  10.056  65.053  1.00  0.00    -0.148 C  
HETATM   14  O   UNL     1      -9.441   9.509  64.685  1.00  0.00    -0.422 OA 
HETATM   15  C   UNL     1      -7.307   8.922  65.991  1.00  0.00    -0.090 C  
HETATM   16  H   UNL     1      -9.344   8.597  64.434  1.00  0.00     0.000 HD 
HETATM   17  C   UNL     1      -7.829   8.866  67.532  1.00  0.00    -0.101 C  
HETATM   18  F   UNL     1      -5.982   9.368  66.127  1.00  0.00    -0.054 F  
HETATM   19  C   UNL     1      -7.059   7.813  68.352  1.00  0.00    -0.077 C  
HETATM   20  C   UNL     1      -6.943   6.461  67.636  1.00  0.00    -0.078 C  
HETATM   21  C   UNL     1      -6.229   6.627  66.292  1.00  0.00    -0.038 C  
HETATM   22  C   UNL     1      -6.233   5.461  68.568  1.00  0.00    -0.030 C  
HETATM   23  C   UNL     1      -5.497   5.601  65.802  1.00  0.00    -0.013 C  
HETATM   24  C   UNL     1      -6.431   4.676  65.059  1.00  0.00    -0.036 C  
HETATM   25  C   UNL     1      -7.644   5.301  64.413  1.00  0.00    -0.077 C  
HETATM   26  O   UNL     1      -6.175   3.484  64.937  1.00  0.00    -0.023 OA 
ENDROOT
BRANCH   4  27
HETATM   27  C   UNL     1     -10.558  11.390  66.566  1.00  0.00    -0.263 C  
HETATM   28  O   UNL     1     -11.349  11.977  67.328  1.00  0.00    -0.289 OA 
HETATM   29  C   UNL     1     -10.858  11.402  65.062  1.00  0.00    -0.311 C  
ENDBRANCH   4  27
TORSDOF 1
ENDMDL
MODEL      111
REMARK 921   NORMALIZED FREE ENERGY PREDICTED BY IDOCK:    0.94 KCAL/MOL
REMARK 922        TOTAL FREE ENERGY PREDICTED BY IDOCK:    1.58 KCAL/MOL
REMARK 923 INTER-LIGAND FREE ENERGY PREDICTED BY IDOCK:    0.19 KCAL/MOL
REMARK 924 INTRA-LIGAND FREE ENERGY PREDICTED BY IDOCK:    1.40 KCAL/MOL
REMARK 927      BINDING AFFINITY PREDICTED BY RF-SCORE:    0.00 PKD
ROOT
HETATM    1  C   UNL     1     -11.471  12.867  68.863  1.00  0.00    -0.350 C  
HETATM    2  C   UNL     1     -12.852  13.078  68.614  1.00  0.00     1.516 C  
HETATM    3  C   UNL     1     -12.048  12.855  67.388  1.00  0.00    -0.258 C  
HETATM    4  C   UNL     1     -10.092  12.322  67.682  1.00  0.00    -0.200 C  
HETATM    5  C   UNL     1     -11.181  11.606  67.386  1.00  0.00    -0.358 C  
HETATM    6  C   UNL     1     -11.400  17.182  65.787  1.00  0.00     0.847 C  
HETATM    7  O   UNL     1      -9.584  11.717  68.954  1.00  0.00    -0.393 OA 
HETATM    8  C   UNL     1     -10.520  16.721  67.023  1.00  0.00    -0.285 C  
HETATM    9  C   UNL     1     -10.869  12.456  65.692  1.00  0.00    -0.312 C  
HETATM   10  C   UNL     1     -11.666  10.208  67.743  1.00  0.00     0.806 C  
HETATM   11  C   UNL     1      -9.153  17.339  66.740  1.00  0.00    -0.269 C  
HETATM   12  H   UNL     1      -8.678  11.470  69.091  1.00  0.00     0.000 HD 
HETATM   13  C   UNL     1     -10.298  14.158  65.914  1.00  0.00    -0.316 C  
HETATM   14  O   UNL     1      -8.869  14.213  65.831  1.00  0.00    -0.288 OA 
HETATM   15  C   UNL     1     -10.836  15.160  67.184  1.00  0.00    -0.320 C  
HETATM   16  H   UNL     1      -8.569  15.106  65.946  1.00  0.00     0.000 HD 
HETATM   17  C   UNL     1     -10.635  14.472  68.646  1.00  0.00    -0.255 C  
HETATM   18  F   UNL     1     -12.233  15.291  67.091  1.00  0.00    -0.112 F  
HETATM   19  C   UNL     1     -11.099  15.407  69.779  1.00  0.00    -0.295 C  
HETATM   20  C   UNL     1     -10.563  16.838  69.635  1.00  0.00    -0.242 C  
HETATM   21  C   UNL     1     -11.017  17.447  68.306  1.00  0.00    -0.148 C  
HETATM   22  C   UNL     1     -11.013  17.666  70.853  1.00  0.00     1.909 C  
HETATM   23  C   UNL     1     -11.206  18.784  68.222  1.00  0.00     0.770 C  
HETATM   24  C   UNL     1      -9.871  19.424  67.926  1.00  0.00    -0.361 C  
HETATM   25  C   UNL     1      -8.879  18.607  67.133  1.00  0.00    -0.281 C  
HETATM   26  O   UNL     1      -9.636  20.578  68.262  1.00  0.00    -0.105 OA 
ENDROOT
BRANCH   4  27
HETATM   27  C   UNL     1      -8.915  11.526  66.883  1.00  0.00    -0.179 C  
HETATM   28  O   UNL     1      -9.249  11.031  65.790  1.00  0.00    -0.192 OA 
HETATM   29  C   UNL     1      -7.430  11.502  67.264  1.00  0.00    -0.139 C  
ENDBRANCH   4  27
TORSDOF 1
ENDMDL
MODEL      112
REMARK 921   NORMALIZED FREE ENERGY PREDICTED BY IDOCK:    1.11 KCAL/MOL
REMARK 922        TOTAL FREE ENERGY PREDICTED BY IDOCK:    1.76 KCAL/MOL
REMARK 923 INTER-LIGAND FREE ENERGY PREDICTED BY IDOCK:    1.06 KCAL/MOL
REMARK 924 INTRA-LIGAND FREE ENERGY PREDICTED BY IDOCK:    0.69 KCAL/MOL
REMARK 927      BINDING AFFINITY PREDICTED BY RF-SCORE:    0.00 PKD
ROOT
HETATM    1  C   UNL     1      -8.963   8.729  71.334  1.00  0.00    -0.307 C  
HETATM    2  C   UNL     1     -10.160   9.479  71.207  1.00  0.00    -0.196 C  
HETATM    3  C   UNL     1     -10.088   8.306  70.303  1.00  0.00    -0.195 C  
HETATM    4  C   UNL     1      -8.494   7.051  70.586  1.00  0.00    -0.139 C  
HETATM    5  C   UNL     1      -9.772   6.977  70.970  1.00  0.00    -0.175 C  
HETATM    6  C   UNL     1      -8.812  10.217  66.250  1.00  0.00    -0.163 C  
HETATM    7  O   UNL     1      -7.717   6.981  71.865  1.00  0.00    -0.092 OA 
HETATM    8  C   UNL     1      -7.690  10.033  67.357  1.00  0.00    -0.095 C  
HETATM    9  C   UNL     1      -9.961   6.586  69.100  1.00  0.00    -0.163 C  
HETATM   10  C   UNL     1     -10.485   6.426  72.198  1.00  0.00    -0.234 C  
HETATM   11  C   UNL     1      -6.461   9.612  66.555  1.00  0.00    -0.070 C  
HETATM   12  H   UNL     1      -6.978   6.399  71.997  1.00  0.00     0.000 HD 
HETATM   13  C   UNL     1      -8.826   7.585  68.108  1.00  0.00    -0.127 C  
HETATM   14  O   UNL     1      -7.644   6.834  67.806  1.00  0.00    -0.102 OA 
HETATM   15  C   UNL     1      -8.400   9.186  68.514  1.00  0.00    -0.123 C  
HETATM   16  H   UNL     1      -7.048   7.359  67.285  1.00  0.00     0.000 HD 
HETATM   17  C   UNL     1      -7.826   9.309  70.033  1.00  0.00    -0.117 C  
HETATM   18  F   UNL     1      -9.570   9.963  68.559  1.00  0.00    -0.145 F  
HETATM   19  C   UNL     1      -7.419  10.757  70.367  1.00  0.00     0.870 C  
HETATM   20  C   UNL     1      -6.561  11.407  69.273  1.00  0.00    -0.106 C  
HETATM   21  C   UNL     1      -7.315  11.425  67.942  1.00  0.00    -0.093 C  
HETATM   22  C   UNL     1      -6.140  12.814  69.738  1.00  0.00    -0.131 C  
HETATM   23  C   UNL     1      -7.070  12.418  67.057  1.00  0.00    -0.012 C  
HETATM   24  C   UNL     1      -5.867  12.024  66.236  1.00  0.00     0.782 C  
HETATM   25  C   UNL     1      -5.644  10.547  66.011  1.00  0.00    -0.097 C  
HETATM   26  O   UNL     1      -5.144  12.871  65.726  1.00  0.00     2.607 OA 
ENDROOT
BRANCH   4  27
HETATM   27  C   UNL     1      -8.112   5.490  70.316  1.00  0.00    -0.102 C  
HETATM   28  O   UNL     1      -6.893   5.236  70.273  1.00  0.00    -0.045 OA 
HETATM   29  C   UNL     1      -9.097   4.315  70.303  1.00  0.00    -0.166 C  
ENDBRANCH   4  27
TORSDOF 1
ENDMDL
MODEL      113
REMARK 921   NORMALIZED FREE ENERGY PREDICTED BY IDOCK:    1.58 KCAL/MOL
REMARK 922        TOTAL FREE ENERGY PREDICTED BY IDOCK:    2.26 KCAL/MOL
REMARK 923 INTER-LIGAND FREE ENERGY PREDICTED BY IDOCK:    0.85 KCAL/MOL
REMARK 924 INTRA-LIGAND FREE ENERGY PREDICTED BY IDOCK:    1.41 KCAL/MOL
REMARK 927      BINDING AFFINITY PREDICTED BY RF-SCORE:    0.00 PKD
ROOT
HETATM    1  C   UNL     1      -7.837  13.559  67.162  1.00  0.00    -0.025 C  
HETATM    2  C   UNL     1      -6.845  13.076  68.054  1.00  0.00    -0.113 C  
HETATM    3  C   UNL     1      -8.170  13.284  68.686  1.00  0.00    -0.014 C  
HETATM    4  C   UNL     1      -9.705  13.766  67.417  1.00  0.00    -0.235 C  
HETATM    5  C   UNL     1      -9.345  12.614  67.992  1.00  0.00    -0.209 C  
HETATM    6  C   UNL     1      -7.653  17.397  70.813  1.00  0.00     4.412 C  
HETATM    7  O   UNL     1      -9.684  13.471  65.949  1.00  0.00    -0.401 OA 
HETATM    8  C   UNL     1      -7.870  17.408  69.242  1.00  0.00     0.096 C  
HETATM    9  C   UNL     1     -10.091  13.526  69.508  1.00  0.00     0.669 C  
HETATM   10  C   UNL     1      -9.389  11.152  67.567  1.00  0.00    -0.174 C  
HETATM   11  C   UNL     1      -8.776  18.616  69.013  1.00  0.00    -0.102 C  
HETATM   12  H   UNL     1     -10.395  13.694  65.360  1.00  0.00     0.000 HD 
HETATM   13  C   UNL     1      -9.686  15.288  69.471  1.00  0.00    -0.219 C  
HETATM   14  O   UNL     1     -10.773  16.032  68.908  1.00  0.00    -0.243 OA 
HETATM   15  C   UNL     1      -8.208  15.889  68.869  1.00  0.00    -0.213 C  
HETATM   16  H   UNL     1     -10.561  16.957  68.889  1.00  0.00     0.000 HD 
HETATM   17  C   UNL     1      -7.896  15.371  67.358  1.00  0.00    -0.215 C  
HETATM   18  F   UNL     1      -7.158  15.326  69.614  1.00  0.00    -0.150 F  
HETATM   19  C   UNL     1      -6.573  15.950  66.822  1.00  0.00     0.300 C  
HETATM   20  C   UNL     1      -6.445  17.463  67.050  1.00  0.00    -0.204 C  
HETATM   21  C   UNL     1      -6.532  17.788  68.543  1.00  0.00    -0.209 C  
HETATM   22  C   UNL     1      -5.133  17.955  66.409  1.00  0.00    -0.199 C  
HETATM   23  C   UNL     1      -5.871  18.865  69.024  1.00  0.00    -0.236 C  
HETATM   24  C   UNL     1      -6.750  20.077  68.828  1.00  0.00    -0.309 C  
HETATM   25  C   UNL     1      -8.243  19.853  68.860  1.00  0.00    -0.065 C  
HETATM   26  O   UNL     1      -6.266  21.196  68.712  1.00  0.00    -0.182 OA 
ENDROOT
BRANCH   4  27
HETATM   27  C   UNL     1     -11.330  13.651  67.376  1.00  0.00    -0.315 C  
HETATM   28  O   UNL     1     -11.840  12.939  68.262  1.00  0.00    -0.329 OA 
HETATM   29  C   UNL     1     -12.265  14.474  66.481  1.00  0.00    -0.268 C  
ENDBRANCH   4  27
TORSDOF 1
ENDMDL
MODEL      114
REMARK 921   NORMALIZED FREE ENERGY PREDICTED BY IDOCK:    3.67 KCAL/MOL
REMARK 922        TOTAL FREE ENERGY PREDICTED BY IDOCK:    4.46 KCAL/MOL
REMARK 923 INTER-LIGAND FREE ENERGY PREDICTED BY IDOCK:    2.98 KCAL/MOL
REMARK 924 INTRA-LIGAND FREE ENERGY PREDICTED BY IDOCK:    1.49 KCAL/MOL
REMARK 927      BINDING AFFINITY PREDICTED BY RF-SCORE:    0.00 PKD
ROOT
HETATM    1  C   UNL     1     -12.577  13.698  68.182  1.00  0.00     0.618 C  
HETATM    2  C   UNL     1     -13.184  12.678  68.959  1.00  0.00     2.913 C  
HETATM    3  C   UNL     1     -12.099  13.403  69.663  1.00  0.00    -0.349 C  
HETATM    4  C   UNL     1     -11.330  15.033  68.689  1.00  0.00    -0.296 C  
HETATM    5  C   UNL     1     -12.221  14.918  69.679  1.00  0.00    -0.299 C  
HETATM    6  C   UNL     1      -8.478  10.505  69.222  1.00  0.00    -0.138 C  
HETATM    7  O   UNL     1     -12.064  15.772  67.613  1.00  0.00    -0.026 OA 
HETATM    8  C   UNL     1      -8.882  11.368  67.955  1.00  0.00    -0.149 C  
HETATM    9  C   UNL     1     -10.604  14.518  70.635  1.00  0.00     0.612 C  
HETATM   10  C   UNL     1     -13.471  15.688  70.081  1.00  0.00     0.713 C  
HETATM   11  C   UNL     1      -7.538  11.755  67.342  1.00  0.00    -0.143 C  
HETATM   12  H   UNL     1     -11.708  16.528  67.161  1.00  0.00     0.000 HD 
HETATM   13  C   UNL     1      -9.470  13.544  69.618  1.00  0.00     1.458 C  
HETATM   14  O   UNL     1      -8.502  14.400  69.001  1.00  0.00    -0.301 OA 
HETATM   15  C   UNL     1     -10.001  12.377  68.493  1.00  0.00    -0.170 C  
HETATM   16  H   UNL     1      -7.906  13.889  68.467  1.00  0.00     0.000 HD 
HETATM   17  C   UNL     1     -11.079  12.982  67.432  1.00  0.00    -0.302 C  
HETATM   18  F   UNL     1     -10.749  11.404  69.176  1.00  0.00    -0.214 F  
HETATM   19  C   UNL     1     -11.520  11.920  66.408  1.00  0.00    -0.371 C  
HETATM   20  C   UNL     1     -10.342  11.148  65.797  1.00  0.00    -0.316 C  
HETATM   21  C   UNL     1      -9.541  10.441  66.893  1.00  0.00    -0.207 C  
HETATM   22  C   UNL     1     -10.881  10.175  64.732  1.00  0.00     1.149 C  
HETATM   23  C   UNL     1      -8.900   9.286  66.601  1.00  0.00    -0.146 C  
HETATM   24  C   UNL     1      -7.557   9.636  66.007  1.00  0.00    -0.102 C  
HETATM   25  C   UNL     1      -6.918  10.925  66.468  1.00  0.00    -0.139 C  
HETATM   26  O   UNL     1      -6.989   8.873  65.236  1.00  0.00    -0.075 OA 
ENDROOT
BRANCH   4  27
HETATM   27  C   UNL     1     -10.561  16.421  69.061  1.00  0.00    -0.308 C  
HETATM   28  O   UNL     1     -10.781  16.866  70.203  1.00  0.00    -0.158 OA 
HETATM   29  C   UNL     1      -9.475  17.099  68.217  1.00  0.00    -0.276 C  
ENDBRANCH   4  27
TORSDOF 1
ENDMDL
MODEL      115
REMARK 921   NORMALIZED FREE ENERGY PREDICTED BY IDOCK:    4.11 KCAL/MOL
REMARK 922        TOTAL FREE ENERGY PREDICTED BY IDOCK:    4.94 KCAL/MOL
REMARK 923 INTER-LIGAND FREE ENERGY PREDICTED BY IDOCK:    2.20 KCAL/MOL
REMARK 924 INTRA-LIGAND FREE ENERGY PREDICTED BY IDOCK:    2.74 KCAL/MOL
REMARK 927      BINDING AFFINITY PREDICTED BY RF-SCORE:    0.00 PKD
ROOT
HETATM    1  C   UNL     1     -11.803  14.740  65.994  1.00  0.00    -0.201 C  
HETATM    2  C   UNL     1     -11.291  15.922  65.400  1.00  0.00     0.020 C  
HETATM    3  C   UNL     1     -10.711  14.674  64.849  1.00  0.00    -0.447 C  
HETATM    4  C   UNL     1     -11.560  12.926  65.498  1.00  0.00    -0.358 C  
HETATM    5  C   UNL     1     -11.713  13.634  64.374  1.00  0.00    -0.444 C  
HETATM    6  C   UNL     1      -6.627  14.377  67.072  1.00  0.00     0.886 C  
HETATM    7  O   UNL     1     -12.940  12.845  66.075  1.00  0.00    -0.087 OA 
HETATM    8  C   UNL     1      -7.931  13.977  67.882  1.00  0.00    -0.158 C  
HETATM    9  C   UNL     1      -9.981  12.868  64.055  1.00  0.00     0.001 C  
HETATM   10  C   UNL     1     -12.884  13.914  63.442  1.00  0.00     0.911 C  
HETATM   11  C   UNL     1      -7.485  12.773  68.708  1.00  0.00    -0.048 C  
HETATM   12  H   UNL     1     -13.334  12.035  66.376  1.00  0.00     0.000 HD 
HETATM   13  C   UNL     1      -9.008  12.803  65.579  1.00  0.00     0.733 C  
HETATM   14  O   UNL     1      -9.108  11.503  66.171  1.00  0.00    -0.206 OA 
HETATM   15  C   UNL     1      -9.104  13.995  66.794  1.00  0.00    -0.232 C  
HETATM   16  H   UNL     1      -8.596  11.468  66.971  1.00  0.00     0.000 HD 
HETATM   17  C   UNL     1     -10.631  14.245  67.300  1.00  0.00    -0.278 C  
HETATM   18  F   UNL     1      -8.755  15.236  66.233  1.00  0.00    -0.307 F  
HETATM   19  C   UNL     1     -10.690  15.302  68.418  1.00  0.00    -0.250 C  
HETATM   20  C   UNL     1      -9.650  15.067  69.522  1.00  0.00    -0.094 C  
HETATM   21  C   UNL     1      -8.236  15.080  68.936  1.00  0.00    -0.178 C  
HETATM   22  C   UNL     1      -9.846  16.124  70.626  1.00  0.00     1.326 C  
HETATM   23  C   UNL     1      -7.206  15.497  69.707  1.00  0.00    -0.110 C  
HETATM   24  C   UNL     1      -6.731  14.322  70.525  1.00  0.00     0.172 C  
HETATM   25  C   UNL     1      -6.896  12.950  69.916  1.00  0.00     0.369 C  
HETATM   26  O   UNL     1      -6.178  14.486  71.606  1.00  0.00     0.063 OA 
ENDROOT
BRANCH   4  27
HETATM   27  C   UNL     1     -11.732  11.391  64.978  1.00  0.00     0.258 C  
HETATM   28  O   UNL     1     -12.645  11.204  64.151  1.00  0.00     0.650 OA 
HETATM   29  C   UNL     1     -10.770  10.233  65.268  1.00  0.00     0.210 C  
ENDBRANCH   4  27
TORSDOF 1
ENDMDL
MODEL      116
REMARK 921   NORMALIZED FREE ENERGY PREDICTED BY IDOCK:    5.30 KCAL/MOL
REMARK 922        TOTAL FREE ENERGY PREDICTED BY IDOCK:    6.20 KCAL/MOL
REMARK 923 INTER-LIGAND FREE ENERGY PREDICTED BY IDOCK:    4.86 KCAL/MOL
REMARK 924 INTRA-LIGAND FREE ENERGY PREDICTED BY IDOCK:    1.34 KCAL/MOL
REMARK 927      BINDING AFFINITY PREDICTED BY RF-SCORE:    0.00 PKD
ROOT
HETATM    1  C   UNL     1      -7.958   4.650  66.626  1.00  0.00    -0.103 C  
HETATM    2  C   UNL     1      -6.683   4.585  66.008  1.00  0.00    -0.053 C  
HETATM    3  C   UNL     1      -6.717   5.431  67.225  1.00  0.00    -0.059 C  
HETATM    4  C   UNL     1      -8.463   5.394  68.295  1.00  0.00    -0.097 C  
HETATM    5  C   UNL     1      -7.292   4.774  68.469  1.00  0.00    -0.065 C  
HETATM    6  C   UNL     1      -7.019   9.735  65.469  1.00  0.00    -0.099 C  
HETATM    7  O   UNL     1      -9.462   4.282  68.205  1.00  0.00    -0.145 OA 
HETATM    8  C   UNL     1      -8.336   8.852  65.468  1.00  0.00    -0.142 C  
HETATM    9  C   UNL     1      -6.809   6.555  69.000  1.00  0.00    -0.066 C  
HETATM   10  C   UNL     1      -6.878   3.410  69.006  1.00  0.00    -0.045 C  
HETATM   11  C   UNL     1      -9.437   9.850  65.818  1.00  0.00    -0.280 C  
HETATM   12  H   UNL     1     -10.272   4.265  68.701  1.00  0.00     0.000 HD 
HETATM   13  C   UNL     1      -7.629   7.788  67.961  1.00  0.00    -0.120 C  
HETATM   14  O   UNL     1      -8.811   8.271  68.610  1.00  0.00    -0.133 OA 
HETATM   15  C   UNL     1      -7.945   7.544  66.303  1.00  0.00    -0.109 C  
HETATM   16  H   UNL     1      -9.242   8.919  68.065  1.00  0.00     0.000 HD 
HETATM   17  C   UNL     1      -8.769   6.167  66.024  1.00  0.00    -0.157 C  
HETATM   18  F   UNL     1      -6.725   7.316  65.644  1.00  0.00    -0.048 F  
HETATM   19  C   UNL     1      -9.070   5.983  64.525  1.00  0.00     0.602 C  
HETATM   20  C   UNL     1      -9.639   7.248  63.867  1.00  0.00     3.519 C  
HETATM   21  C   UNL     1      -8.657   8.413  64.011  1.00  0.00     0.090 C  
HETATM   22  C   UNL     1      -9.981   6.936  62.398  1.00  0.00     3.703 C  
HETATM   23  C   UNL     1      -8.628   9.373  63.058  1.00  0.00    -0.222 C  
HETATM   24  C   UNL     1      -9.698  10.386  63.386  1.00  0.00    -0.263 C  
HETATM   25  C   UNL     1     -10.034  10.581  64.845  1.00  0.00    -0.401 C  
HETATM   26  O   UNL     1     -10.218  11.062  62.507  1.00  0.00     0.010 OA 
ENDROOT
BRANCH   4  27
HETATM   27  C   UNL     1      -8.957   5.658  69.826  1.00  0.00    -0.127 C  
HETATM   28  O   UNL     1     -10.139   5.350  70.069  1.00  0.00    -0.209 OA 
HETATM   29  C   UNL     1      -8.058   6.063  71.001  1.00  0.00    -0.121 C  
ENDBRANCH   4  27
TORSDOF 1
ENDMDL
MODEL      117
REMARK 921   NORMALIZED FREE ENERGY PREDICTED BY IDOCK:    5.59 KCAL/MOL
REMARK 922        TOTAL FREE ENERGY PREDICTED BY IDOCK:    6.50 KCAL/MOL
REMARK 923 INTER-LIGAND FREE ENERGY PREDICTED BY IDOCK:    4.64 KCAL/MOL
REMARK 924 INTRA-LIGAND FREE ENERGY PREDICTED BY IDOCK:    1.86 KCAL/MOL
REMARK 927      BINDING AFFINITY PREDICTED BY RF-SCORE:    0.00 PKD
ROOT
HETATM    1  C   UNL     1      -9.871  12.199  65.898  1.00  0.00    -0.265 C  
HETATM    2  C   UNL     1      -8.830  13.162  65.861  1.00  0.00     0.636 C  
HETATM    3  C   UNL     1      -8.609  12.078  66.848  1.00  0.00    -0.189 C  
HETATM    4  C   UNL     1      -9.956  10.535  66.802  1.00  0.00    -0.204 C  
HETATM    5  C   UNL     1      -8.721  10.661  66.307  1.00  0.00    -0.163 C  
HETATM    6  C   UNL     1      -9.902  14.066  70.858  1.00  0.00     3.865 C  
HETATM    7  O   UNL     1     -10.804  10.215  65.609  1.00  0.00     0.101 OA 
HETATM    8  C   UNL     1     -11.051  13.587  69.876  1.00  0.00     0.127 C  
HETATM    9  C   UNL     1      -8.316  10.472  68.175  1.00  0.00    -0.119 C  
HETATM   10  C   UNL     1      -8.015  10.145  65.061  1.00  0.00    -0.146 C  
HETATM   11  C   UNL     1     -12.113  13.020  70.815  1.00  0.00    -0.268 C  
HETATM   12  H   UNL     1     -11.428   9.500  65.587  1.00  0.00     0.000 HD 
HETATM   13  C   UNL     1      -9.538  11.331  69.196  1.00  0.00     0.060 C  
HETATM   14  O   UNL     1     -10.530  10.407  69.657  1.00  0.00    -0.231 OA 
HETATM   15  C   UNL     1     -10.288  12.787  68.720  1.00  0.00    -0.117 C  
HETATM   16  H   UNL     1     -11.172  10.857  70.194  1.00  0.00     0.000 HD 
HETATM   17  C   UNL     1     -10.991  12.673  67.256  1.00  0.00    -0.291 C  
HETATM   18  F   UNL     1      -9.292  13.756  68.513  1.00  0.00    -0.193 F  
HETATM   19  C   UNL     1     -11.689  13.988  66.861  1.00  0.00    -0.435 C  
HETATM   20  C   UNL     1     -12.566  14.564  67.981  1.00  0.00     0.539 C  
HETATM   21  C   UNL     1     -11.726  14.833  69.232  1.00  0.00    -0.347 C  
HETATM   22  C   UNL     1     -13.279  15.826  67.460  1.00  0.00     4.272 C  
HETATM   23  C   UNL     1     -12.084  15.837  70.065  1.00  0.00    -0.344 C  
HETATM   24  C   UNL     1     -13.124  15.302  71.019  1.00  0.00    -0.482 C  
HETATM   25  C   UNL     1     -13.046  13.835  71.367  1.00  0.00    -0.413 C  
HETATM   26  O   UNL     1     -13.951  16.046  71.534  1.00  0.00    -0.219 OA 
ENDROOT
BRANCH   4  27
HETATM   27  C   UNL     1     -10.015   8.959  67.215  1.00  0.00    -0.216 C  
HETATM   28  O   UNL     1     -10.386   8.723  68.380  1.00  0.00    -0.202 OA 
HETATM   29  C   UNL     1      -9.841   7.774  66.257  1.00  0.00    -0.111 C  
ENDBRANCH   4  27
TORSDOF 1
ENDMDL
MODEL      118
REMARK 921   NORMALIZED FREE ENERGY PREDICTED BY IDOCK:    7.65 KCAL/MOL
REMARK 922        TOTAL FREE ENERGY PREDICTED BY IDOCK:    8.68 KCAL/MOL
REMARK 923 INTER-LIGAND FREE ENERGY PREDICTED BY IDOCK:    7.32 KCAL/MOL
REMARK 924 INTRA-LIGAND FREE ENERGY PREDICTED BY IDOCK:    1.36 KCAL/MOL
REMARK 927      BINDING AFFINITY PREDICTED BY RF-SCORE:    0.00 PKD
ROOT
HETATM    1  C   UNL     1      -8.258   5.589  70.552  1.00  0.00    -0.112 C  
HETATM    2  C   UNL     1      -8.990   6.799  70.441  1.00  0.00    -0.152 C  
HETATM    3  C   UNL     1      -9.833   5.612  70.718  1.00  0.00    -0.239 C  
HETATM    4  C   UNL     1      -8.829   3.870  71.114  1.00  0.00    -0.088 C  
HETATM    5  C   UNL     1      -9.413   4.769  71.912  1.00  0.00    -0.192 C  
HETATM    6  C   UNL     1     -11.521   4.549  66.508  1.00  0.00     3.077 C  
HETATM    7  O   UNL     1      -7.407   3.827  71.582  1.00  0.00    -0.048 OA 
HETATM    8  C   UNL     1     -10.018   4.146  66.816  1.00  0.00    -0.140 C  
HETATM    9  C   UNL     1     -10.967   3.904  71.189  1.00  0.00     1.722 C  
HETATM   10  C   UNL     1      -9.113   5.315  73.302  1.00  0.00    -0.128 C  
HETATM   11  C   UNL     1      -9.868   2.782  66.147  1.00  0.00     0.519 C  
HETATM   12  H   UNL     1      -6.941   3.020  71.766  1.00  0.00     0.000 HD 
HETATM   13  C   UNL     1     -10.728   3.488  69.444  1.00  0.00     3.114 C  
HETATM   14  O   UNL     1     -10.315   2.123  69.316  1.00  0.00     0.970 OA 
HETATM   15  C   UNL     1      -9.826   4.462  68.373  1.00  0.00    -0.061 C  
HETATM   16  H   UNL     1     -10.190   1.904  68.400  1.00  0.00     0.000 HD 
HETATM   17  C   UNL     1      -8.326   4.769  68.926  1.00  0.00    -0.084 C  
HETATM   18  F   UNL     1     -10.410   5.739  68.330  1.00  0.00    -0.176 F  
HETATM   19  C   UNL     1      -7.520   5.623  67.928  1.00  0.00    -0.077 C  
HETATM   20  C   UNL     1      -7.608   5.105  66.487  1.00  0.00    -0.088 C  
HETATM   21  C   UNL     1      -9.064   5.079  66.016  1.00  0.00    -0.146 C  
HETATM   22  C   UNL     1      -6.707   5.973  65.588  1.00  0.00    -0.048 C  
HETATM   23  C   UNL     1      -9.337   5.259  64.703  1.00  0.00     0.255 C  
HETATM   24  C   UNL     1      -9.213   3.921  64.015  1.00  0.00    -0.141 C  
HETATM   25  C   UNL     1      -9.529   2.695  64.837  1.00  0.00    -0.094 C  
HETATM   26  O   UNL     1      -8.930   3.846  62.825  1.00  0.00    -0.096 OA 
ENDROOT
BRANCH   4  27
HETATM   27  C   UNL     1      -9.089   2.469  71.905  1.00  0.00    -0.086 C  
HETATM   28  O   UNL     1      -9.263   1.470  71.183  1.00  0.00    -0.074 OA 
HETATM   29  C   UNL     1      -8.951   2.254  73.417  1.00  0.00    -0.071 C  
ENDBRANCH   4  27
TORSDOF 1
ENDMDL
MODEL      119
REMARK 921   NORMALIZED FREE ENERGY PREDICTED BY IDOCK:   11.02 KCAL/MOL
REMARK 922        TOTAL FREE ENERGY PREDICTED BY IDOCK:   12.25 KCAL/MOL
REMARK 923 INTER-LIGAND FREE ENERGY PREDICTED BY IDOCK:   10.72 KCAL/MOL
REMARK 924 INTRA-LIGAND FREE ENERGY PREDICTED BY IDOCK:    1.52 KCAL/MOL
REMARK 927      BINDING AFFINITY PREDICTED BY RF-SCORE:    0.00 PKD
ROOT
HETATM    1  C   UNL     1     -10.909  11.785  68.468  1.00  0.00    -0.261 C  
HETATM    2  C   UNL     1     -12.155  11.184  68.156  1.00  0.00     0.047 C  
HETATM    3  C   UNL     1     -11.914  12.466  67.451  1.00  0.00    -0.246 C  
HETATM    4  C   UNL     1     -10.047  13.278  67.678  1.00  0.00    -0.229 C  
HETATM    5  C   UNL     1     -10.600  12.565  66.693  1.00  0.00    -0.259 C  
HETATM    6  C   UNL     1     -14.356  15.509  69.996  1.00  0.00     2.507 C  
HETATM    7  O   UNL     1      -8.845  12.481  68.084  1.00  0.00    -0.182 OA 
HETATM    8  C   UNL     1     -12.965  15.019  70.580  1.00  0.00    -0.344 C  
HETATM    9  C   UNL     1     -11.482  14.249  66.422  1.00  0.00    -0.361 C  
HETATM   10  C   UNL     1     -10.080  11.524  65.710  1.00  0.00    -0.278 C  
HETATM   11  C   UNL     1     -12.379  16.277  71.214  1.00  0.00     0.062 C  
HETATM   12  H   UNL     1      -7.979  12.857  68.190  1.00  0.00     0.000 HD 
HETATM   13  C   UNL     1     -11.871  15.040  68.001  1.00  0.00    -0.241 C  
HETATM   14  O   UNL     1     -10.860  15.999  68.334  1.00  0.00    -0.279 OA 
HETATM   15  C   UNL     1     -12.310  14.163  69.396  1.00  0.00    -0.205 C  
HETATM   16  H   UNL     1     -11.065  16.416  69.163  1.00  0.00     0.000 HD 
HETATM   17  C   UNL     1     -11.220  13.015  69.777  1.00  0.00    -0.010 C  
HETATM   18  F   UNL     1     -13.464  13.414  69.110  1.00  0.00     1.474 F  
HETATM   19  C   UNL     1     -11.620  12.258  71.057  1.00  0.00     1.145 C  
HETATM   20  C   UNL     1     -12.036  13.191  72.202  1.00  0.00     1.583 C  
HETATM   21  C   UNL     1     -13.222  14.061  71.779  1.00  0.00    -0.454 C  
HETATM   22  C   UNL     1     -12.336  12.344  73.453  1.00  0.00     6.559 C  
HETATM   23  C   UNL     1     -14.107  14.472  72.716  1.00  0.00    -0.081 C  
HETATM   24  C   UNL     1     -13.562  15.728  73.352  1.00  0.00    -0.276 C  
HETATM   25  C   UNL     1     -12.694  16.613  72.490  1.00  0.00     0.639 C  
HETATM   26  O   UNL     1     -13.867  16.040  74.496  1.00  0.00     1.152 OA 
ENDROOT
BRANCH   4  27
HETATM   27  C   UNL     1      -9.054  14.288  66.872  1.00  0.00    -0.252 C  
HETATM   28  O   UNL     1      -9.570  14.900  65.919  1.00  0.00    -0.314 OA 
HETATM   29  C   UNL     1      -7.633  14.678  67.298  1.00  0.00    -0.173 C  
ENDBRANCH   4  27
TORSDOF 1
ENDMDL
MODEL      120
REMARK 921   NORMALIZED FREE ENERGY PREDICTED BY IDOCK:   11.05 KCAL/MOL
REMARK 922        TOTAL FREE ENERGY PREDICTED BY IDOCK:   12.28 KCAL/MOL
REMARK 923 INTER-LIGAND FREE ENERGY PREDICTED BY IDOCK:   11.16 KCAL/MOL
REMARK 924 INTRA-LIGAND FREE ENERGY PREDICTED BY IDOCK:    1.11 KCAL/MOL
REMARK 927      BINDING AFFINITY PREDICTED BY RF-SCORE:    0.00 PKD
ROOT
HETATM    1  C   UNL     1     -12.518  11.974  71.026  1.00  0.00    -0.376 C  
HETATM    2  C   UNL     1     -11.477  11.207  71.611  1.00  0.00     1.930 C  
HETATM    3  C   UNL     1     -11.237  12.670  71.648  1.00  0.00     4.455 C  
HETATM    4  C   UNL     1     -12.792  13.850  71.027  1.00  0.00    -0.324 C  
HETATM    5  C   UNL     1     -12.358  13.507  72.243  1.00  0.00     0.269 C  
HETATM    6  C   UNL     1      -8.338  13.322  68.060  1.00  0.00    -0.162 C  
HETATM    7  O   UNL     1     -14.217  13.389  70.997  1.00  0.00     0.786 OA 
HETATM    8  C   UNL     1      -9.873  13.101  67.728  1.00  0.00    -0.228 C  
HETATM    9  C   UNL     1     -10.990  14.756  71.740  1.00  0.00     0.608 C  
HETATM   10  C   UNL     1     -13.037  13.232  73.578  1.00  0.00     2.839 C  
HETATM   11  C   UNL     1     -10.133  14.067  66.575  1.00  0.00    -0.287 C  
HETATM   12  H   UNL     1     -14.938  13.936  70.709  1.00  0.00     0.000 HD 
HETATM   13  C   UNL     1     -10.582  14.602  69.984  1.00  0.00     0.068 C  
HETATM   14  O   UNL     1     -11.295  15.585  69.225  1.00  0.00    -0.279 OA 
HETATM   15  C   UNL     1     -10.600  13.113  69.154  1.00  0.00     0.033 C  
HETATM   16  H   UNL     1     -11.081  15.505  68.303  1.00  0.00     0.000 HD 
HETATM   17  C   UNL     1     -12.020  12.332  69.310  1.00  0.00    -0.308 C  
HETATM   18  F   UNL     1      -9.694  12.240  69.780  1.00  0.00     0.782 F  
HETATM   19  C   UNL     1     -12.025  11.006  68.526  1.00  0.00    -0.206 C  
HETATM   20  C   UNL     1     -11.496  11.153  67.093  1.00  0.00    -0.163 C  
HETATM   21  C   UNL     1     -10.063  11.689  67.104  1.00  0.00    -0.227 C  
HETATM   22  C   UNL     1     -11.619   9.796  66.373  1.00  0.00     2.458 C  
HETATM   23  C   UNL     1      -9.219  11.338  66.106  1.00  0.00    -0.222 C  
HETATM   24  C   UNL     1      -9.441  12.288  64.954  1.00  0.00     0.185 C  
HETATM   25  C   UNL     1      -9.893  13.687  65.296  1.00  0.00    -0.135 C  
HETATM   26  O   UNL     1      -9.201  11.949  63.801  1.00  0.00     0.052 OA 
ENDROOT
BRANCH   4  27
HETATM   27  C   UNL     1     -13.333  15.370  71.257  1.00  0.00    -0.520 C  
HETATM   28  O   UNL     1     -14.361  15.676  70.624  1.00  0.00    -0.100 OA 
HETATM   29  C   UNL     1     -12.805  16.361  72.303  1.00  0.00     0.234 C  
ENDBRANCH   4  27
TORSDOF 1
ENDMDL
MODEL      121
REMARK 921   NORMALIZED FREE ENERGY PREDICTED BY IDOCK:   12.88 KCAL/MOL
REMARK 922        TOTAL FREE ENERGY PREDICTED BY IDOCK:   14.22 KCAL/MOL
REMARK 923 INTER-LIGAND FREE ENERGY PREDICTED BY IDOCK:   11.83 KCAL/MOL
REMARK 924 INTRA-LIGAND FREE ENERGY PREDICTED BY IDOCK:    2.39 KCAL/MOL
REMARK 927      BINDING AFFINITY PREDICTED BY RF-SCORE:    0.00 PKD
ROOT
HETATM    1  C   UNL     1     -12.021  12.124  65.937  1.00  0.00    -0.252 C  
HETATM    2  C   UNL     1     -13.078  13.019  65.629  1.00  0.00     0.522 C  
HETATM    3  C   UNL     1     -11.748  13.477  65.160  1.00  0.00    -0.341 C  
HETATM    4  C   UNL     1     -10.212  12.139  65.370  1.00  0.00    -0.270 C  
HETATM    5  C   UNL     1     -10.965  12.481  64.320  1.00  0.00    -0.401 C  
HETATM    6  C   UNL     1     -10.508  16.542  68.443  1.00  0.00    -0.307 C  
HETATM    7  O   UNL     1     -10.418  10.662  65.509  1.00  0.00    -0.248 OA 
HETATM    8  C   UNL     1     -10.381  15.001  68.796  1.00  0.00    -0.240 C  
HETATM    9  C   UNL     1      -9.849  14.038  64.452  1.00  0.00     0.893 C  
HETATM   10  C   UNL     1     -11.519  11.731  63.116  1.00  0.00    -0.191 C  
HETATM   11  C   UNL     1      -9.087  14.923  69.602  1.00  0.00     0.097 C  
HETATM   12  H   UNL     1      -9.706  10.041  65.606  1.00  0.00     0.000 HD 
HETATM   13  C   UNL     1      -9.532  14.466  66.181  1.00  0.00    -0.242 C  
HETATM   14  O   UNL     1      -8.270  13.932  66.597  1.00  0.00    -0.393 OA 
HETATM   15  C   UNL     1     -10.684  14.245  67.419  1.00  0.00    -0.282 C  
HETATM   16  H   UNL     1      -8.103  14.157  67.505  1.00  0.00     0.000 HD 
HETATM   17  C   UNL     1     -11.247  12.718  67.477  1.00  0.00    -0.332 C  
HETATM   18  F   UNL     1     -11.832  14.989  67.100  1.00  0.00    -0.356 F  
HETATM   19  C   UNL     1     -12.262  12.533  68.621  1.00  0.00     0.041 C  
HETATM   20  C   UNL     1     -11.776  13.118  69.955  1.00  0.00    -0.327 C  
HETATM   21  C   UNL     1     -11.495  14.615  69.811  1.00  0.00    -0.325 C  
HETATM   22  C   UNL     1     -12.820  12.810  71.045  1.00  0.00    -0.262 C  
HETATM   23  C   UNL     1     -11.657  15.423  70.884  1.00  0.00    -0.396 C  
HETATM   24  C   UNL     1     -10.384  15.381  71.694  1.00  0.00     1.240 C  
HETATM   25  C   UNL     1      -9.099  15.138  70.941  1.00  0.00     2.159 C  
HETATM   26  O   UNL     1     -10.396  15.599  72.900  1.00  0.00     2.478 OA 
ENDROOT
BRANCH   4  27
HETATM   27  C   UNL     1      -8.766  11.830  64.684  1.00  0.00     0.783 C  
HETATM   28  O   UNL     1      -8.542  10.634  64.420  1.00  0.00    -0.173 OA 
HETATM   29  C   UNL     1      -7.770  12.881  64.179  1.00  0.00     8.955 C  
ENDBRANCH   4  27
TORSDOF 1
ENDMDL
MODEL      122
REMARK 921   NORMALIZED FREE ENERGY PREDICTED BY IDOCK:   15.24 KCAL/MOL
REMARK 922        TOTAL FREE ENERGY PREDICTED BY IDOCK:   16.71 KCAL/MOL
REMARK 923 INTER-LIGAND FREE ENERGY PREDICTED BY IDOCK:   15.36 KCAL/MOL
REMARK 924 INTRA-LIGAND FREE ENERGY PREDICTED BY IDOCK:    1.35 KCAL/MOL
REMARK 927      BINDING AFFINITY PREDICTED BY RF-SCORE:    0.00 PKD
ROOT
HETATM    1  C   UNL     1      -6.505  10.357  67.764  1.00  0.00    -0.061 C  
HETATM    2  C   UNL     1      -5.127  10.311  68.102  1.00  0.00    -0.035 C  
HETATM    3  C   UNL     1      -6.031   9.932  69.215  1.00  0.00    -0.037 C  
HETATM    4  C   UNL     1      -8.016   9.758  68.739  1.00  0.00    -0.087 C  
HETATM    5  C   UNL     1      -7.050   8.849  68.897  1.00  0.00    -0.066 C  
HETATM    6  C   UNL     1      -6.220  13.832  71.755  1.00  0.00     0.737 C  
HETATM    7  O   UNL     1      -8.513   9.534  67.344  1.00  0.00    -0.124 OA 
HETATM    8  C   UNL     1      -7.070  13.790  70.417  1.00  0.00     0.900 C  
HETATM    9  C   UNL     1      -7.360   9.329  70.730  1.00  0.00    -0.134 C  
HETATM   10  C   UNL     1      -6.727   7.513  68.240  1.00  0.00    -0.058 C  
HETATM   11  C   UNL     1      -8.362  14.513  70.790  1.00  0.00     2.635 C  
HETATM   12  H   UNL     1      -9.433   9.454  67.122  1.00  0.00     0.000 HD 
HETATM   13  C   UNL     1      -7.692  11.100  70.891  1.00  0.00     3.844 C  
HETATM   14  O   UNL     1      -9.104  11.334  70.936  1.00  0.00     3.316 OA 
HETATM   15  C   UNL     1      -6.947  12.278  69.908  1.00  0.00     0.493 C  
HETATM   16  H   UNL     1      -9.279  12.264  71.022  1.00  0.00     0.000 HD 
HETATM   17  C   UNL     1      -7.139  11.973  68.320  1.00  0.00    -0.086 C  
HETATM   18  F   UNL     1      -5.555  12.187  70.076  1.00  0.00    -0.077 F  
HETATM   19  C   UNL     1      -6.486  13.065  67.452  1.00  0.00    -0.107 C  
HETATM   20  C   UNL     1      -6.842  14.487  67.908  1.00  0.00    -0.177 C  
HETATM   21  C   UNL     1      -6.401  14.710  69.356  1.00  0.00    -0.125 C  
HETATM   22  C   UNL     1      -6.211  15.497  66.931  1.00  0.00     0.649 C  
HETATM   23  C   UNL     1      -6.048  15.953  69.755  1.00  0.00    -0.169 C  
HETATM   24  C   UNL     1      -7.305  16.691  70.147  1.00  0.00     1.262 C  
HETATM   25  C   UNL     1      -8.444  15.863  70.694  1.00  0.00     2.417 C  
HETATM   26  O   UNL     1      -7.368  17.913  70.081  1.00  0.00     0.974 OA 
ENDROOT
BRANCH   4  27
HETATM   27  C   UNL     1      -9.335   8.976  69.290  1.00  0.00    -0.150 C  
HETATM   28  O   UNL     1     -10.184   9.689  69.858  1.00  0.00    -0.212 OA 
HETATM   29  C   UNL     1      -9.694   7.512  69.006  1.00  0.00    -0.162 C  
ENDBRANCH   4  27
TORSDOF 1
ENDMDL
MODEL      123
REMARK 921   NORMALIZED FREE ENERGY PREDICTED BY IDOCK:   17.69 KCAL/MOL
REMARK 922        TOTAL FREE ENERGY PREDICTED BY IDOCK:   19.31 KCAL/MOL
REMARK 923 INTER-LIGAND FREE ENERGY PREDICTED BY IDOCK:   17.67 KCAL/MOL
REMARK 924 INTRA-LIGAND FREE ENERGY PREDICTED BY IDOCK:    1.63 KCAL/MOL
REMARK 927      BINDING AFFINITY PREDICTED BY RF-SCORE:    0.00 PKD
ROOT
HETATM    1  C   UNL     1      -8.353   7.142  72.930  1.00  0.00    -0.124 C  
HETATM    2  C   UNL     1      -9.041   7.646  74.064  1.00  0.00    -0.280 C  
HETATM    3  C   UNL     1      -9.911   6.922  73.107  1.00  0.00    -0.227 C  
HETATM    4  C   UNL     1      -8.955   5.975  71.562  1.00  0.00    -0.143 C  
HETATM    5  C   UNL     1      -9.449   5.526  72.720  1.00  0.00    -0.160 C  
HETATM    6  C   UNL     1     -11.913  10.387  70.721  1.00  0.00    -0.462 C  
HETATM    7  O   UNL     1      -7.508   5.589  71.601  1.00  0.00    -0.087 OA 
HETATM    8  C   UNL     1     -10.410  10.026  70.363  1.00  0.00    -0.268 C  
HETATM    9  C   UNL     1     -11.080   5.818  71.751  1.00  0.00    -0.301 C  
HETATM   10  C   UNL     1      -9.036   4.441  73.705  1.00  0.00    -0.101 C  
HETATM   11  C   UNL     1     -10.359  10.167  68.843  1.00  0.00    -0.223 C  
HETATM   12  H   UNL     1      -7.064   5.150  70.886  1.00  0.00     0.000 HD 
HETATM   13  C   UNL     1     -10.972   7.306  70.728  1.00  0.00    -0.251 C  
HETATM   14  O   UNL     1     -10.625   6.955  69.383  1.00  0.00    -0.210 OA 
HETATM   15  C   UNL     1     -10.104   8.696  71.199  1.00  0.00    -0.226 C  
HETATM   16  H   UNL     1     -10.568   7.736  68.846  1.00  0.00     0.000 HD 
HETATM   17  C   UNL     1      -8.560   8.361  71.591  1.00  0.00    -0.223 C  
HETATM   18  F   UNL     1     -10.638   9.168  72.411  1.00  0.00    -0.351 F  
HETATM   19  C   UNL     1      -7.787   9.635  71.983  1.00  0.00     1.619 C  
HETATM   20  C   UNL     1      -7.990  10.789  70.992  1.00  0.00     3.523 C  
HETATM   21  C   UNL     1      -9.474  11.151  70.890  1.00  0.00     4.980 C  
HETATM   22  C   UNL     1      -7.116  11.981  71.427  1.00  0.00     5.478 C  
HETATM   23  C   UNL     1      -9.825  12.426  70.606  1.00  0.00     6.063 C  
HETATM   24  C   UNL     1      -9.800  12.594  69.107  1.00  0.00     0.463 C  
HETATM   25  C   UNL     1     -10.111  11.373  68.275  1.00  0.00    -0.204 C  
HETATM   26  O   UNL     1      -9.599  13.689  68.596  1.00  0.00    -0.193 OA 
ENDROOT
BRANCH   4  27
HETATM   27  C   UNL     1      -9.219   4.723  70.553  1.00  0.00    -0.137 C  
HETATM   28  O   UNL     1      -9.654   5.025  69.426  1.00  0.00    -0.137 OA 
HETATM   29  C   UNL     1      -8.808   3.267  70.804  1.00  0.00    -0.143 C  
ENDBRANCH   4  27
TORSDOF 1
ENDMDL
MODEL      124
REMARK 921   NORMALIZED FREE ENERGY PREDICTED BY IDOCK:   18.83 KCAL/MOL
REMARK 922        TOTAL FREE ENERGY PREDICTED BY IDOCK:   20.52 KCAL/MOL
REMARK 923 INTER-LIGAND FREE ENERGY PREDICTED BY IDOCK:   19.46 KCAL/MOL
REMARK 924 INTRA-LIGAND FREE ENERGY PREDICTED BY IDOCK:    1.06 KCAL/MOL
REMARK 927      BINDING AFFINITY PREDICTED BY RF-SCORE:    0.00 PKD
ROOT
HETATM    1  C   UNL     1      -9.033   9.603  70.376  1.00  0.00    -0.239 C  
HETATM    2  C   UNL     1      -7.859  10.397  70.451  1.00  0.00     0.570 C  
HETATM    3  C   UNL     1      -9.116  11.183  70.452  1.00  0.00     2.862 C  
HETATM    4  C   UNL     1     -10.852  10.102  70.571  1.00  0.00    -0.273 C  
HETATM    5  C   UNL     1     -10.150  10.774  71.488  1.00  0.00     4.923 C  
HETATM    6  C   UNL     1      -9.435  12.606  66.027  1.00  0.00    -0.140 C  
HETATM    7  O   UNL     1     -10.917   8.703  71.103  1.00  0.00    -0.236 OA 
HETATM    8  C   UNL     1      -9.817  11.099  66.340  1.00  0.00    -0.248 C  
HETATM    9  C   UNL     1     -10.933  12.240  70.527  1.00  0.00     1.726 C  
HETATM   10  C   UNL     1      -9.866  10.571  72.971  1.00  0.00    11.903 C  
HETATM   11  C   UNL     1     -11.020  10.839  65.436  1.00  0.00     0.040 C  
HETATM   12  H   UNL     1     -11.721   8.201  71.158  1.00  0.00     0.000 HD 
HETATM   13  C   UNL     1     -10.997  11.894  68.753  1.00  0.00    -0.235 C  
HETATM   14  O   UNL     1     -12.292  11.399  68.394  1.00  0.00    -0.505 OA 
HETATM   15  C   UNL     1      -9.796  10.999  67.937  1.00  0.00    -0.171 C  
HETATM   16  H   UNL     1     -12.327  11.217  67.462  1.00  0.00     0.000 HD 
HETATM   17  C   UNL     1      -9.529   9.547  68.623  1.00  0.00    -0.143 C  
HETATM   18  F   UNL     1      -8.562  11.653  68.101  1.00  0.00    -0.131 F  
HETATM   19  C   UNL     1      -8.464   8.745  67.852  1.00  0.00    -0.126 C  
HETATM   20  C   UNL     1      -8.701   8.734  66.335  1.00  0.00    -0.158 C  
HETATM   21  C   UNL     1      -8.705  10.163  65.785  1.00  0.00    -0.166 C  
HETATM   22  C   UNL     1      -7.636   7.843  65.669  1.00  0.00    -0.084 C  
HETATM   23  C   UNL     1      -8.292  10.383  64.516  1.00  0.00    -0.146 C  
HETATM   24  C   UNL     1      -9.466  10.150  63.597  1.00  0.00    -0.267 C  
HETATM   25  C   UNL     1     -10.840  10.435  64.155  1.00  0.00     0.959 C  
HETATM   26  O   UNL     1      -9.300   9.807  62.433  1.00  0.00    -0.287 OA 
ENDROOT
BRANCH   4  27
HETATM   27  C   UNL     1     -12.388  10.319  71.068  1.00  0.00    -0.381 C  
HETATM   28  O   UNL     1     -13.259  10.205  70.185  1.00  0.00    -0.012 OA 
HETATM   29  C   UNL     1     -12.849  10.457  72.524  1.00  0.00     0.424 C  
ENDBRANCH   4  27
TORSDOF 1
ENDMDL
MODEL      125
REMARK 921   NORMALIZED FREE ENERGY PREDICTED BY IDOCK:   20.18 KCAL/MOL
REMARK 922        TOTAL FREE ENERGY PREDICTED BY IDOCK:   21.95 KCAL/MOL
REMARK 923 INTER-LIGAND FREE ENERGY PREDICTED BY IDOCK:   20.49 KCAL/MOL
REMARK 924 INTRA-LIGAND FREE ENERGY PREDICTED BY IDOCK:    1.46 KCAL/MOL
REMARK 927      BINDING AFFINITY PREDICTED BY RF-SCORE:    0.00 PKD
ROOT
HETATM    1  C   UNL     1      -9.452  17.111  66.680  1.00  0.00    -0.279 C  
HETATM    2  C   UNL     1     -10.417  16.449  67.482  1.00  0.00    -0.304 C  
HETATM    3  C   UNL     1     -10.730  17.874  67.223  1.00  0.00    -0.278 C  
HETATM    4  C   UNL     1      -9.504  18.835  65.892  1.00  0.00     0.128 C  
HETATM    5  C   UNL     1     -10.720  18.297  65.762  1.00  0.00    -0.129 C  
HETATM    6  C   UNL     1      -9.332  19.959  71.148  1.00  0.00     2.210 C  
HETATM    7  O   UNL     1      -8.671  18.118  64.873  1.00  0.00     2.208 OA 
HETATM    8  C   UNL     1      -8.212  19.523  70.113  1.00  0.00     1.115 C  
HETATM    9  C   UNL     1     -11.159  19.880  66.756  1.00  0.00    -0.024 C  
HETATM   10  C   UNL     1     -11.450  17.571  64.640  1.00  0.00     1.835 C  
HETATM   11  C   UNL     1      -7.207  20.670  70.168  1.00  0.00     1.291 C  
HETATM   12  H   UNL     1      -8.102  18.563  64.256  1.00  0.00     0.000 HD 
HETATM   13  C   UNL     1      -9.886  20.248  67.988  1.00  0.00    -0.308 C  
HETATM   14  O   UNL     1      -8.971  21.224  67.474  1.00  0.00    -0.321 OA 
HETATM   15  C   UNL     1      -9.022  19.037  68.822  1.00  0.00    -0.319 C  
HETATM   16  H   UNL     1      -8.303  21.418  68.121  1.00  0.00     0.000 HD 
HETATM   17  C   UNL     1      -8.314  17.973  67.813  1.00  0.00    -0.249 C  
HETATM   18  F   UNL     1      -9.939  18.237  69.525  1.00  0.00    -0.213 F  
HETATM   19  C   UNL     1      -7.514  16.907  68.586  1.00  0.00    -0.226 C  
HETATM   20  C   UNL     1      -6.608  17.506  69.671  1.00  0.00    -0.088 C  
HETATM   21  C   UNL     1      -7.438  18.299  70.683  1.00  0.00     3.179 C  
HETATM   22  C   UNL     1      -5.796  16.372  70.325  1.00  0.00    -0.118 C  
HETATM   23  C   UNL     1      -7.013  18.382  71.965  1.00  0.00     5.151 C  
HETATM   24  C   UNL     1      -6.028  19.521  72.055  1.00  0.00     0.119 C  
HETATM   25  C   UNL     1      -6.220  20.673  71.099  1.00  0.00     0.244 C  
HETATM   26  O   UNL     1      -5.152  19.532  72.912  1.00  0.00     1.046 OA 
ENDROOT
BRANCH   4  27
HETATM   27  C   UNL     1      -9.569  20.111  64.880  1.00  0.00     1.836 C  
HETATM   28  O   UNL     1     -10.713  20.466  64.538  1.00  0.00     0.795 OA 
HETATM   29  C   UNL     1      -8.385  21.000  64.480  1.00  0.00     2.190 C  
ENDBRANCH   4  27
TORSDOF 1
ENDMDL
MODEL      126
REMARK 921   NORMALIZED FREE ENERGY PREDICTED BY IDOCK:   25.60 KCAL/MOL
REMARK 922        TOTAL FREE ENERGY PREDICTED BY IDOCK:   27.68 KCAL/MOL
REMARK 923 INTER-LIGAND FREE ENERGY PREDICTED BY IDOCK:   26.24 KCAL/MOL
REMARK 924 INTRA-LIGAND FREE ENERGY PREDICTED BY IDOCK:    1.44 KCAL/MOL
REMARK 927      BINDING AFFINITY PREDICTED BY RF-SCORE:    0.00 PKD
ROOT
HETATM    1  C   UNL     1      -8.035   5.004  67.210  1.00  0.00    -0.099 C  
HETATM    2  C   UNL     1      -7.046   4.063  67.598  1.00  0.00    -0.059 C  
HETATM    3  C   UNL     1      -8.305   3.446  67.114  1.00  0.00    -0.093 C  
HETATM    4  C   UNL     1      -9.691   4.734  66.328  1.00  0.00    -0.196 C  
HETATM    5  C   UNL     1      -8.794   3.924  65.756  1.00  0.00    -0.125 C  
HETATM    6  C   UNL     1     -10.490   2.339  71.077  1.00  0.00     1.001 C  
HETATM    7  O   UNL     1      -9.349   6.095  65.806  1.00  0.00    -0.350 OA 
HETATM    8  C   UNL     1     -10.507   3.861  70.634  1.00  0.00     0.771 C  
HETATM    9  C   UNL     1     -10.085   2.631  66.346  1.00  0.00     1.300 C  
HETATM   10  C   UNL     1      -7.939   4.001  64.499  1.00  0.00    -0.086 C  
HETATM   11  C   UNL     1     -11.914   4.326  71.000  1.00  0.00     6.087 C  
HETATM   12  H   UNL     1      -9.991   6.693  65.442  1.00  0.00     0.000 HD 
HETATM   13  C   UNL     1     -10.773   3.085  67.956  1.00  0.00     4.183 C  
HETATM   14  O   UNL     1     -12.023   3.763  67.783  1.00  0.00     9.140 OA 
HETATM   15  C   UNL     1      -9.862   3.863  69.169  1.00  0.00     0.049 C  
HETATM   16  H   UNL     1     -12.385   4.002  68.628  1.00  0.00     0.000 HD 
HETATM   17  C   UNL     1      -9.151   5.226  68.634  1.00  0.00    -0.129 C  
HETATM   18  F   UNL     1      -8.766   3.048  69.498  1.00  0.00    -0.085 F  
HETATM   19  C   UNL     1      -8.360   5.929  69.753  1.00  0.00    -0.124 C  
HETATM   20  C   UNL     1      -9.154   6.058  71.060  1.00  0.00    -0.150 C  
HETATM   21  C   UNL     1      -9.571   4.677  71.572  1.00  0.00    -0.225 C  
HETATM   22  C   UNL     1      -8.311   6.843  72.082  1.00  0.00    -0.105 C  
HETATM   23  C   UNL     1      -9.710   4.481  72.903  1.00  0.00    -0.172 C  
HETATM   24  C   UNL     1     -11.101   4.916  73.294  1.00  0.00    -0.337 C  
HETATM   25  C   UNL     1     -12.182   4.779  72.250  1.00  0.00     1.301 C  
HETATM   26  O   UNL     1     -11.345   5.303  74.431  1.00  0.00     0.392 OA 
ENDROOT
BRANCH   4  27
HETATM   27  C   UNL     1     -10.935   4.688  65.276  1.00  0.00     0.045 C  
HETATM   28  O   UNL     1     -11.367   5.796  64.907  1.00  0.00     2.722 OA 
HETATM   29  C   UNL     1     -11.473   3.433  64.578  1.00  0.00     1.587 C  
ENDBRANCH   4  27
TORSDOF 1
ENDMDL
MODEL      127
REMARK 921   NORMALIZED FREE ENERGY PREDICTED BY IDOCK:   27.04 KCAL/MOL
REMARK 922        TOTAL FREE ENERGY PREDICTED BY IDOCK:   29.21 KCAL/MOL
REMARK 923 INTER-LIGAND FREE ENERGY PREDICTED BY IDOCK:   28.00 KCAL/MOL
REMARK 924 INTRA-LIGAND FREE ENERGY PREDICTED BY IDOCK:    1.21 KCAL/MOL
REMARK 927      BINDING AFFINITY PREDICTED BY RF-SCORE:    0.00 PKD
ROOT
HETATM    1  C   UNL     1      -9.671   6.532  65.421  1.00  0.00     0.921 C  
HETATM    2  C   UNL     1      -9.371   7.489  64.418  1.00  0.00     1.921 C  
HETATM    3  C   UNL     1      -8.279   7.287  65.400  1.00  0.00    -0.137 C  
HETATM    4  C   UNL     1      -8.549   5.764  66.743  1.00  0.00    -0.112 C  
HETATM    5  C   UNL     1      -7.840   5.847  65.613  1.00  0.00    -0.101 C  
HETATM    6  C   UNL     1      -8.814  10.910  68.280  1.00  0.00    -0.140 C  
HETATM    7  O   UNL     1      -9.484   4.616  66.510  1.00  0.00    -0.140 OA 
HETATM    8  C   UNL     1      -9.823   9.697  68.437  1.00  0.00    -0.170 C  
HETATM    9  C   UNL     1      -6.738   6.902  66.779  1.00  0.00    -0.045 C  
HETATM   10  C   UNL     1      -7.491   4.869  64.500  1.00  0.00    -0.071 C  
HETATM   11  C   UNL     1     -10.008   9.576  69.948  1.00  0.00    -0.259 C  
HETATM   12  H   UNL     1      -9.610   3.910  67.132  1.00  0.00     0.000 HD 
HETATM   13  C   UNL     1      -7.746   7.894  67.906  1.00  0.00    -0.125 C  
HETATM   14  O   UNL     1      -7.871   7.230  69.169  1.00  0.00    -0.112 OA 
HETATM   15  C   UNL     1      -9.249   8.566  67.461  1.00  0.00    -0.133 C  
HETATM   16  H   UNL     1      -8.400   7.750  69.762  1.00  0.00     0.000 HD 
HETATM   17  C   UNL     1     -10.279   7.450  66.873  1.00  0.00    -0.346 C  
HETATM   18  F   UNL     1      -9.051   9.417  66.361  1.00  0.00    -0.152 F  
HETATM   19  C   UNL     1     -11.639   8.072  66.508  1.00  0.00     3.633 C  
HETATM   20  C   UNL     1     -12.198   8.983  67.609  1.00  0.00     5.661 C  
HETATM   21  C   UNL     1     -11.222  10.124  67.907  1.00  0.00    -0.234 C  
HETATM   22  C   UNL     1     -13.590   9.486  67.183  1.00  0.00    19.455 C  
HETATM   23  C   UNL     1     -11.706  11.312  68.335  1.00  0.00    -0.365 C  
HETATM   24  C   UNL     1     -11.885  11.230  69.831  1.00  0.00    -0.360 C  
HETATM   25  C   UNL     1     -10.944  10.322  70.585  1.00  0.00    -0.287 C  
HETATM   26  O   UNL     1     -12.715  11.922  70.407  1.00  0.00    -0.102 OA 
ENDROOT
BRANCH   4  27
HETATM   27  C   UNL     1      -7.635   4.779  67.665  1.00  0.00    -0.079 C  
HETATM   28  O   UNL     1      -7.729   4.955  68.894  1.00  0.00    -0.071 OA 
HETATM   29  C   UNL     1      -6.840   3.566  67.166  1.00  0.00    -0.050 C  
ENDBRANCH   4  27
TORSDOF 1
ENDMDL
MODEL      128
REMARK 921   NORMALIZED FREE ENERGY PREDICTED BY IDOCK:   27.72 KCAL/MOL
REMARK 922        TOTAL FREE ENERGY PREDICTED BY IDOCK:   29.92 KCAL/MOL
REMARK 923 INTER-LIGAND FREE ENERGY PREDICTED BY IDOCK:   29.33 KCAL/MOL
REMARK 924 INTRA-LIGAND FREE ENERGY PREDICTED BY IDOCK:    0.59 KCAL/MOL
REMARK 927      BINDING AFFINITY PREDICTED BY RF-SCORE:    0.00 PKD
ROOT
HETATM    1  C   UNL     1     -11.402  13.012  70.618  1.00  0.00     0.936 C  
HETATM    2  C   UNL     1     -12.460  13.725  69.999  1.00  0.00    -0.301 C  
HETATM    3  C   UNL     1     -12.322  12.327  69.526  1.00  0.00    -0.009 C  
HETATM    4  C   UNL     1     -10.964  11.169  70.533  1.00  0.00     0.622 C  
HETATM    5  C   UNL     1     -12.294  11.263  70.612  1.00  0.00    -0.477 C  
HETATM    6  C   UNL     1     -10.026  12.829  65.504  1.00  0.00    -0.234 C  
HETATM    7  O   UNL     1     -10.486  11.476  71.919  1.00  0.00     5.925 OA 
HETATM    8  C   UNL     1      -9.189  12.962  66.845  1.00  0.00    -0.234 C  
HETATM    9  C   UNL     1     -12.125  10.313  68.952  1.00  0.00     0.362 C  
HETATM   10  C   UNL     1     -13.304  11.149  71.746  1.00  0.00    -0.378 C  
HETATM   11  C   UNL     1      -7.869  12.269  66.514  1.00  0.00     0.253 C  
HETATM   12  H   UNL     1      -9.857  10.940  72.386  1.00  0.00     0.000 HD 
HETATM   13  C   UNL     1     -10.707  10.912  68.002  1.00  0.00    -0.220 C  
HETATM   14  O   UNL     1      -9.574  10.065  68.221  1.00  0.00    -0.139 OA 
HETATM   15  C   UNL     1     -10.212  12.544  68.002  1.00  0.00    -0.225 C  
HETATM   16  H   UNL     1      -8.829  10.379  67.721  1.00  0.00     0.000 HD 
HETATM   17  C   UNL     1      -9.962  13.116  69.506  1.00  0.00     0.971 C  
HETATM   18  F   UNL     1     -11.277  13.336  67.540  1.00  0.00    -0.262 F  
HETATM   19  C   UNL     1      -9.485  14.581  69.481  1.00  0.00     0.262 C  
HETATM   20  C   UNL     1      -8.352  14.827  68.475  1.00  0.00    -0.160 C  
HETATM   21  C   UNL     1      -8.802  14.453  67.061  1.00  0.00    -0.256 C  
HETATM   22  C   UNL     1      -7.894  16.293  68.586  1.00  0.00    -0.202 C  
HETATM   23  C   UNL     1      -8.273  15.111  66.004  1.00  0.00     1.065 C  
HETATM   24  C   UNL     1      -6.971  14.438  65.641  1.00  0.00     8.257 C  
HETATM   25  C   UNL     1      -6.862  12.959  65.922  1.00  0.00     4.178 C  
HETATM   26  O   UNL     1      -6.073  15.058  65.086  1.00  0.00    10.517 OA 
ENDROOT
BRANCH   4  27
HETATM   27  C   UNL     1     -10.699   9.590  70.835  1.00  0.00    -0.333 C  
HETATM   28  O   UNL     1      -9.505   9.263  70.974  1.00  0.00    -0.266 OA 
HETATM   29  C   UNL     1     -11.777   8.543  71.143  1.00  0.00    -0.322 C  
ENDBRANCH   4  27
TORSDOF 1
ENDMDL
MODEL      129
REMARK 921   NORMALIZED FREE ENERGY PREDICTED BY IDOCK:   30.05 KCAL/MOL
REMARK 922        TOTAL FREE ENERGY PREDICTED BY IDOCK:   32.40 KCAL/MOL
REMARK 923 INTER-LIGAND FREE ENERGY PREDICTED BY IDOCK:   31.51 KCAL/MOL
REMARK 924 INTRA-LIGAND FREE ENERGY PREDICTED BY IDOCK:    0.89 KCAL/MOL
REMARK 927      BINDING AFFINITY PREDICTED BY RF-SCORE:    0.00 PKD
ROOT
HETATM    1  C   UNL     1     -12.532  15.063  65.830  1.00  0.00     0.369 C  
HETATM    2  C   UNL     1     -12.216  16.305  65.221  1.00  0.00     1.679 C  
HETATM    3  C   UNL     1     -11.187  15.257  65.016  1.00  0.00    -0.409 C  
HETATM    4  C   UNL     1     -11.674  13.379  65.673  1.00  0.00    -0.346 C  
HETATM    5  C   UNL     1     -11.692  13.936  64.458  1.00  0.00    -0.430 C  
HETATM    6  C   UNL     1      -7.973  16.344  68.208  1.00  0.00    -0.170 C  
HETATM    7  O   UNL     1     -13.084  12.923  65.892  1.00  0.00     0.001 OA 
HETATM    8  C   UNL     1      -9.291  15.622  68.715  1.00  0.00    -0.213 C  
HETATM    9  C   UNL     1      -9.800  13.709  64.695  1.00  0.00     0.110 C  
HETATM   10  C   UNL     1     -12.584  13.791  63.233  1.00  0.00     0.397 C  
HETATM   11  C   UNL     1      -8.784  14.661  69.788  1.00  0.00     0.447 C  
HETATM   12  H   UNL     1     -13.310  12.052  66.197  1.00  0.00     0.000 HD 
HETATM   13  C   UNL     1      -9.314  14.035  66.406  1.00  0.00    -0.221 C  
HETATM   14  O   UNL     1      -9.218  12.805  67.134  1.00  0.00    -0.204 OA 
HETATM   15  C   UNL     1     -10.069  15.217  67.377  1.00  0.00    -0.232 C  
HETATM   16  H   UNL     1      -8.963  12.976  68.033  1.00  0.00     0.000 HD 
HETATM   17  C   UNL     1     -11.685  15.027  67.443  1.00  0.00    -0.255 C  
HETATM   18  F   UNL     1      -9.929  16.467  66.750  1.00  0.00    -0.243 F  
HETATM   19  C   UNL     1     -12.342  16.085  68.350  1.00  0.00     0.774 C  
HETATM   20  C   UNL     1     -11.631  16.244  69.700  1.00  0.00    -0.152 C  
HETATM   21  C   UNL     1     -10.169  16.645  69.491  1.00  0.00    -0.191 C  
HETATM   22  C   UNL     1     -12.410  17.259  70.559  1.00  0.00     5.280 C  
HETATM   23  C   UNL     1      -9.551  17.400  70.427  1.00  0.00     2.516 C  
HETATM   24  C   UNL     1      -9.023  16.476  71.497  1.00  0.00     7.589 C  
HETATM   25  C   UNL     1      -8.630  15.083  71.068  1.00  0.00     2.802 C  
HETATM   26  O   UNL     1      -8.863  16.867  72.647  1.00  0.00    13.249 OA 
ENDROOT
BRANCH   4  27
HETATM   27  C   UNL     1     -11.268  11.834  65.350  1.00  0.00    -0.251 C  
HETATM   28  O   UNL     1     -11.696  10.987  66.157  1.00  0.00     0.057 OA 
HETATM   29  C   UNL     1     -10.585  11.335  64.071  1.00  0.00    -0.450 C  
ENDBRANCH   4  27
TORSDOF 1
ENDMDL
MODEL      130
REMARK 921   NORMALIZED FREE ENERGY PREDICTED BY IDOCK:   30.70 KCAL/MOL
REMARK 922        TOTAL FREE ENERGY PREDICTED BY IDOCK:   33.08 KCAL/MOL
REMARK 923 INTER-LIGAND FREE ENERGY PREDICTED BY IDOCK:   32.40 KCAL/MOL
REMARK 924 INTRA-LIGAND FREE ENERGY PREDICTED BY IDOCK:    0.68 KCAL/MOL
REMARK 927      BINDING AFFINITY PREDICTED BY RF-SCORE:    0.00 PKD
ROOT
HETATM    1  C   UNL     1      -7.241  18.204  68.972  1.00  0.00    -0.226 C  
HETATM    2  C   UNL     1      -7.537  18.636  67.653  1.00  0.00    -0.243 C  
HETATM    3  C   UNL     1      -8.062  19.534  68.711  1.00  0.00    -0.357 C  
HETATM    4  C   UNL     1      -7.484  19.097  70.627  1.00  0.00     1.804 C  
HETATM    5  C   UNL     1      -7.048  20.000  69.743  1.00  0.00    -0.044 C  
HETATM    6  C   UNL     1     -12.539  18.277  68.986  1.00  0.00     9.316 C  
HETATM    7  O   UNL     1      -6.270  18.285  70.957  1.00  0.00     0.586 OA 
HETATM    8  C   UNL     1     -11.469  17.322  69.663  1.00  0.00     1.357 C  
HETATM    9  C   UNL     1      -8.715  20.807  70.252  1.00  0.00     2.556 C  
HETATM   10  C   UNL     1      -5.688  20.604  69.419  1.00  0.00    -0.394 C  
HETATM   11  C   UNL     1     -12.158  16.863  70.946  1.00  0.00     1.917 C  
HETATM   12  H   UNL     1      -6.001  18.082  71.845  1.00  0.00     0.000 HD 
HETATM   13  C   UNL     1      -9.997  19.554  70.496  1.00  0.00     1.251 C  
HETATM   14  O   UNL     1     -10.109  19.229  71.887  1.00  0.00     1.722 OA 
HETATM   15  C   UNL     1     -10.090  18.127  69.566  1.00  0.00     0.231 C  
HETATM   16  H   UNL     1     -10.782  18.572  72.016  1.00  0.00     0.000 HD 
HETATM   17  C   UNL     1      -8.696  17.287  69.575  1.00  0.00     0.620 C  
HETATM   18  F   UNL     1     -10.231  18.483  68.214  1.00  0.00    -0.335 F  
HETATM   19  C   UNL     1      -8.813  15.988  68.755  1.00  0.00    -0.227 C  
HETATM   20  C   UNL     1     -10.079  15.185  69.081  1.00  0.00    -0.245 C  
HETATM   21  C   UNL     1     -11.330  16.026  68.813  1.00  0.00    -0.380 C  
HETATM   22  C   UNL     1     -10.060  13.873  68.273  1.00  0.00    -0.241 C  
HETATM   23  C   UNL     1     -12.474  15.408  68.440  1.00  0.00     0.542 C  
HETATM   24  C   UNL     1     -13.188  14.957  69.691  1.00  0.00     0.826 C  
HETATM   25  C   UNL     1     -12.981  15.786  70.935  1.00  0.00    -0.321 C  
HETATM   26  O   UNL     1     -13.949  13.997  69.672  1.00  0.00     2.709 OA 
ENDROOT
BRANCH   4  27
HETATM   27  C   UNL     1      -7.301  19.873  72.049  1.00  0.00     1.745 C  
HETATM   28  O   UNL     1      -7.327  19.149  73.062  1.00  0.00     3.343 OA 
HETATM   29  C   UNL     1      -6.921  21.348  72.223  1.00  0.00     4.883 C  
ENDBRANCH   4  27
TORSDOF 1
ENDMDL
MODEL      131
REMARK 921   NORMALIZED FREE ENERGY PREDICTED BY IDOCK:   49.11 KCAL/MOL
REMARK 922        TOTAL FREE ENERGY PREDICTED BY IDOCK:   52.57 KCAL/MOL
REMARK 923 INTER-LIGAND FREE ENERGY PREDICTED BY IDOCK:   50.72 KCAL/MOL
REMARK 924 INTRA-LIGAND FREE ENERGY PREDICTED BY IDOCK:    1.85 KCAL/MOL
REMARK 927      BINDING AFFINITY PREDICTED BY RF-SCORE:    0.00 PKD
ROOT
HETATM    1  C   UNL     1      -6.126  11.350  70.128  1.00  0.00    -0.154 C  
HETATM    2  C   UNL     1      -5.166  12.376  69.928  1.00  0.00    -0.083 C  
HETATM    3  C   UNL     1      -6.547  12.877  70.124  1.00  0.00     0.311 C  
HETATM    4  C   UNL     1      -7.947  11.473  70.639  1.00  0.00     4.333 C  
HETATM    5  C   UNL     1      -7.265  12.366  71.363  1.00  0.00     6.261 C  
HETATM    6  C   UNL     1      -7.946  13.749  65.766  1.00  0.00     3.377 C  
HETATM    7  O   UNL     1      -7.602  10.153  71.257  1.00  0.00     0.064 OA 
HETATM    8  C   UNL     1      -7.919  12.234  66.236  1.00  0.00     0.496 C  
HETATM    9  C   UNL     1      -8.514  13.530  70.484  1.00  0.00     4.624 C  
HETATM   10  C   UNL     1      -6.689  12.378  72.772  1.00  0.00     6.799 C  
HETATM   11  C   UNL     1      -9.172  11.638  65.598  1.00  0.00    -0.150 C  
HETATM   12  H   UNL     1      -8.251   9.501  71.496  1.00  0.00     0.000 HD 
HETATM   13  C   UNL     1      -8.807  13.002  68.779  1.00  0.00     0.179 C  
HETATM   14  O   UNL     1     -10.000  12.213  68.707  1.00  0.00    -0.366 OA 
HETATM   15  C   UNL     1      -7.597  12.303  67.802  1.00  0.00    -0.131 C  
HETATM   16  H   UNL     1     -10.155  11.936  67.812  1.00  0.00     0.000 HD 
HETATM   17  C   UNL     1      -6.895  11.015  68.510  1.00  0.00    -0.064 C  
HETATM   18  F   UNL     1      -6.533  13.213  67.686  1.00  0.00    -0.107 F  
HETATM   19  C   UNL     1      -5.829  10.381  67.597  1.00  0.00    -0.044 C  
HETATM   20  C   UNL     1      -6.318  10.168  66.159  1.00  0.00    -0.087 C  
HETATM   21  C   UNL     1      -6.739  11.501  65.535  1.00  0.00     1.037 C  
HETATM   22  C   UNL     1      -5.213   9.458  65.354  1.00  0.00    -0.036 C  
HETATM   23  C   UNL     1      -6.614  11.674  64.199  1.00  0.00     3.107 C  
HETATM   24  C   UNL     1      -7.848  11.109  63.539  1.00  0.00     0.660 C  
HETATM   25  C   UNL     1      -9.132  11.153  64.333  1.00  0.00    -0.057 C  
HETATM   26  O   UNL     1      -7.815  10.693  62.387  1.00  0.00    -0.160 OA 
ENDROOT
BRANCH   4  27
HETATM   27  C   UNL     1      -9.382  11.412  71.409  1.00  0.00     9.908 C  
HETATM   28  O   UNL     1     -10.086  12.435  71.315  1.00  0.00     7.060 OA 
HETATM   29  C   UNL     1      -9.999  10.167  72.059  1.00  0.00     3.943 C  
ENDBRANCH   4  27
TORSDOF 1
ENDMDL
MODEL      132
REMARK 921   NORMALIZED FREE ENERGY PREDICTED BY IDOCK:   54.81 KCAL/MOL
REMARK 922        TOTAL FREE ENERGY PREDICTED BY IDOCK:   58.60 KCAL/MOL
REMARK 923 INTER-LIGAND FREE ENERGY PREDICTED BY IDOCK:   56.41 KCAL/MOL
REMARK 924 INTRA-LIGAND FREE ENERGY PREDICTED BY IDOCK:    2.19 KCAL/MOL
REMARK 927      BINDING AFFINITY PREDICTED BY RF-SCORE:    0.00 PKD
ROOT
HETATM    1  C   UNL     1      -9.081  15.186  69.033  1.00  0.00    -0.218 C  
HETATM    2  C   UNL     1      -8.146  14.396  68.314  1.00  0.00    -0.139 C  
HETATM    3  C   UNL     1      -7.525  15.303  69.309  1.00  0.00    -0.200 C  
HETATM    4  C   UNL     1      -8.820  16.309  70.538  1.00  0.00     2.516 C  
HETATM    5  C   UNL     1      -8.079  15.212  70.722  1.00  0.00     1.875 C  
HETATM    6  C   UNL     1      -6.084  18.869  66.680  1.00  0.00    -0.182 C  
HETATM    7  O   UNL     1     -10.223  15.859  70.802  1.00  0.00     0.222 OA 
HETATM    8  C   UNL     1      -7.632  18.786  67.014  1.00  0.00    -0.239 C  
HETATM    9  C   UNL     1      -6.709  16.555  70.789  1.00  0.00     1.790 C  
HETATM   10  C   UNL     1      -8.268  13.918  71.502  1.00  0.00     7.300 C  
HETATM   11  C   UNL     1      -8.027  20.243  67.246  1.00  0.00    -0.378 C  
HETATM   12  H   UNL     1     -10.824  16.325  71.372  1.00  0.00     0.000 HD 
HETATM   13  C   UNL     1      -7.032  17.874  69.593  1.00  0.00     0.146 C  
HETATM   14  O   UNL     1      -7.681  18.976  70.238  1.00  0.00     0.949 OA 
HETATM   15  C   UNL     1      -7.754  17.594  68.073  1.00  0.00    -0.232 C  
HETATM   16  H   UNL     1      -7.850  19.669  69.611  1.00  0.00     0.000 HD 
HETATM   17  C   UNL     1      -9.171  16.802  68.196  1.00  0.00    -0.224 C  
HETATM   18  F   UNL     1      -6.952  16.688  67.357  1.00  0.00    -0.135 F  
HETATM   19  C   UNL     1      -9.820  16.588  66.815  1.00  0.00    -0.274 C  
HETATM   20  C   UNL     1      -9.836  17.859  65.955  1.00  0.00    -0.180 C  
HETATM   21  C   UNL     1      -8.411  18.372  65.732  1.00  0.00     0.347 C  
HETATM   22  C   UNL     1     -10.575  17.562  64.637  1.00  0.00     1.696 C  
HETATM   23  C   UNL     1      -8.120  19.039  64.592  1.00  0.00     3.711 C  
HETATM   24  C   UNL     1      -8.485  20.489  64.796  1.00  0.00     1.813 C  
HETATM   25  C   UNL     1      -8.385  21.031  66.202  1.00  0.00     0.931 C  
HETATM   26  O   UNL     1      -8.786  21.205  63.848  1.00  0.00     1.927 OA 
ENDROOT
BRANCH   4  27
HETATM   27  C   UNL     1      -8.807  16.999  72.014  1.00  0.00    12.589 C  
HETATM   28  O   UNL     1      -7.897  17.826  72.211  1.00  0.00    10.753 OA 
HETATM   29  C   UNL     1      -9.902  16.860  73.079  1.00  0.00    10.243 C  
ENDBRANCH   4  27
TORSDOF 1
ENDMDL
MODEL      133
REMARK 921   NORMALIZED FREE ENERGY PREDICTED BY IDOCK:   63.14 KCAL/MOL
REMARK 922        TOTAL FREE ENERGY PREDICTED BY IDOCK:   67.42 KCAL/MOL
REMARK 923 INTER-LIGAND FREE ENERGY PREDICTED BY IDOCK:   65.81 KCAL/MOL
REMARK 924 INTRA-LIGAND FREE ENERGY PREDICTED BY IDOCK:    1.61 KCAL/MOL
REMARK 927      BINDING AFFINITY PREDICTED BY RF-SCORE:    0.00 PKD
ROOT
HETATM    1  C   UNL     1     -11.125  17.633  69.492  1.00  0.00     1.098 C  
HETATM    2  C   UNL     1     -11.406  16.361  70.054  1.00  0.00    -0.185 C  
HETATM    3  C   UNL     1     -10.028  16.841  70.315  1.00  0.00     1.053 C  
HETATM    4  C   UNL     1      -9.620  18.760  69.728  1.00  0.00     0.643 C  
HETATM    5  C   UNL     1      -9.916  18.231  70.919  1.00  0.00     3.269 C  
HETATM    6  C   UNL     1      -7.527  14.546  67.124  1.00  0.00    -0.002 C  
HETATM    7  O   UNL     1     -10.677  19.798  69.508  1.00  0.00    -0.204 OA 
HETATM    8  C   UNL     1      -8.377  15.790  66.629  1.00  0.00    -0.319 C  
HETATM    9  C   UNL     1      -8.111  17.609  70.716  1.00  0.00     5.378 C  
HETATM   10  C   UNL     1     -10.689  18.717  72.137  1.00  0.00     3.560 C  
HETATM   11  C   UNL     1      -7.468  16.461  65.602  1.00  0.00     1.838 C  
HETATM   12  H   UNL     1     -10.489  20.688  69.236  1.00  0.00     0.000 HD 
HETATM   13  C   UNL     1      -7.769  17.154  68.999  1.00  0.00    -0.164 C  
HETATM   14  O   UNL     1      -7.120  18.237  68.323  1.00  0.00    -0.232 OA 
HETATM   15  C   UNL     1      -8.938  16.456  67.972  1.00  0.00    -0.185 C  
HETATM   16  H   UNL     1      -6.939  17.998  67.422  1.00  0.00     0.000 HD 
HETATM   17  C   UNL     1     -10.302  17.341  67.892  1.00  0.00    -0.360 C  
HETATM   18  F   UNL     1      -9.380  15.253  68.550  1.00  0.00    -0.179 F  
HETATM   19  C   UNL     1     -11.330  16.709  66.936  1.00  0.00     0.516 C  
HETATM   20  C   UNL     1     -10.722  16.294  65.589  1.00  0.00    -0.297 C  
HETATM   21  C   UNL     1      -9.592  15.283  65.801  1.00  0.00    -0.359 C  
HETATM   22  C   UNL     1     -11.842  15.752  64.680  1.00  0.00    -0.071 C  
HETATM   23  C   UNL     1      -9.342  14.361  64.843  1.00  0.00     1.300 C  
HETATM   24  C   UNL     1      -8.430  14.990  63.818  1.00  0.00    14.713 C  
HETATM   25  C   UNL     1      -7.478  16.054  64.309  1.00  0.00    13.978 C  
HETATM   26  O   UNL     1      -8.425  14.604  62.656  1.00  0.00    16.887 OA 
ENDROOT
BRANCH   4  27
HETATM   27  C   UNL     1      -8.585  19.957  70.118  1.00  0.00     1.234 C  
HETATM   28  O   UNL     1      -8.305  20.052  71.328  1.00  0.00     1.541 OA 
HETATM   29  C   UNL     1      -7.803  20.827  69.125  1.00  0.00     1.354 C  
ENDBRANCH   4  27
TORSDOF 1
ENDMDL
MODEL      134
REMARK 921   NORMALIZED FREE ENERGY PREDICTED BY IDOCK:   74.11 KCAL/MOL
REMARK 922        TOTAL FREE ENERGY PREDICTED BY IDOCK:   79.03 KCAL/MOL
REMARK 923 INTER-LIGAND FREE ENERGY PREDICTED BY IDOCK:   77.16 KCAL/MOL
REMARK 924 INTRA-LIGAND FREE ENERGY PREDICTED BY IDOCK:    1.87 KCAL/MOL
REMARK 927      BINDING AFFINITY PREDICTED BY RF-SCORE:    0.00 PKD
ROOT
HETATM    1  C   UNL     1      -9.485  17.242  70.991  1.00  0.00     5.219 C  
HETATM    2  C   UNL     1     -10.172  16.180  71.633  1.00  0.00     2.590 C  
HETATM    3  C   UNL     1      -9.094  15.732  70.719  1.00  0.00     2.214 C  
HETATM    4  C   UNL     1      -7.914  17.209  69.930  1.00  0.00     1.393 C  
HETATM    5  C   UNL     1      -7.730  16.362  70.948  1.00  0.00     3.972 C  
HETATM    6  C   UNL     1     -11.444  14.536  66.878  1.00  0.00    -0.375 C  
HETATM    7  O   UNL     1      -7.771  18.566  70.546  1.00  0.00     2.113 OA 
HETATM    8  C   UNL     1     -11.224  16.083  67.148  1.00  0.00    -0.002 C  
HETATM    9  C   UNL     1      -7.503  15.160  69.468  1.00  0.00    -0.213 C  
HETATM   10  C   UNL     1      -7.027  16.453  72.296  1.00  0.00     7.024 C  
HETATM   11  C   UNL     1     -10.952  16.655  65.759  1.00  0.00     0.019 C  
HETATM   12  H   UNL     1      -7.223  19.251  70.181  1.00  0.00     0.000 HD 
HETATM   13  C   UNL     1      -8.655  15.552  68.129  1.00  0.00    -0.152 C  
HETATM   14  O   UNL     1      -8.006  16.362  67.143  1.00  0.00    -0.155 OA 
HETATM   15  C   UNL     1     -10.233  16.137  68.403  1.00  0.00    -0.240 C  
HETATM   16  H   UNL     1      -8.610  16.568  66.439  1.00  0.00     0.000 HD 
HETATM   17  C   UNL     1     -10.248  17.461  69.351  1.00  0.00    -0.119 C  
HETATM   18  F   UNL     1     -10.933  15.194  69.175  1.00  0.00    -0.221 F  
HETATM   19  C   UNL     1     -11.680  17.991  69.559  1.00  0.00     4.273 C  
HETATM   20  C   UNL     1     -12.478  18.095  68.252  1.00  0.00     5.460 C  
HETATM   21  C   UNL     1     -12.575  16.726  67.575  1.00  0.00     3.393 C  
HETATM   22  C   UNL     1     -13.858  18.708  68.556  1.00  0.00    13.298 C  
HETATM   23  C   UNL     1     -13.659  16.439  66.818  1.00  0.00     7.841 C  
HETATM   24  C   UNL     1     -13.413  16.978  65.430  1.00  0.00     9.886 C  
HETATM   25  C   UNL     1     -11.980  17.032  64.959  1.00  0.00     2.321 C  
HETATM   26  O   UNL     1     -14.345  17.296  64.701  1.00  0.00     8.198 OA 
ENDROOT
BRANCH   4  27
HETATM   27  C   UNL     1      -6.409  17.369  69.325  1.00  0.00    -0.244 C  
HETATM   28  O   UNL     1      -5.954  16.365  68.747  1.00  0.00    -0.119 OA 
HETATM   29  C   UNL     1      -5.610  18.676  69.245  1.00  0.00    -0.214 C  
ENDBRANCH   4  27
TORSDOF 1
ENDMDL
MODEL      135
REMARK 921   NORMALIZED FREE ENERGY PREDICTED BY IDOCK:   85.20 KCAL/MOL
REMARK 922        TOTAL FREE ENERGY PREDICTED BY IDOCK:   90.77 KCAL/MOL
REMARK 923 INTER-LIGAND FREE ENERGY PREDICTED BY IDOCK:   88.83 KCAL/MOL
REMARK 924 INTRA-LIGAND FREE ENERGY PREDICTED BY IDOCK:    1.93 KCAL/MOL
REMARK 927      BINDING AFFINITY PREDICTED BY RF-SCORE:    0.00 PKD
ROOT
HETATM    1  C   UNL     1     -10.154  16.647  70.713  1.00  0.00     1.818 C  
HETATM    2  C   UNL     1     -11.196  15.687  70.789  1.00  0.00    -0.396 C  
HETATM    3  C   UNL     1      -9.850  15.137  71.081  1.00  0.00     1.609 C  
HETATM    4  C   UNL     1      -8.330  16.504  71.211  1.00  0.00     6.784 C  
HETATM    5  C   UNL     1      -9.052  15.875  72.143  1.00  0.00     7.988 C  
HETATM    6  C   UNL     1      -8.678  13.111  67.053  1.00  0.00    -0.193 C  
HETATM    7  O   UNL     1      -8.552  17.959  71.488  1.00  0.00     9.008 OA 
HETATM    8  C   UNL     1      -8.573  14.691  67.134  1.00  0.00    -0.244 C  
HETATM    9  C   UNL     1      -7.927  14.432  71.560  1.00  0.00     4.517 C  
HETATM   10  C   UNL     1      -9.577  16.257  73.520  1.00  0.00    12.500 C  
HETATM   11  C   UNL     1      -7.302  15.007  66.349  1.00  0.00     1.670 C  
HETATM   12  H   UNL     1      -7.847  18.593  71.548  1.00  0.00     0.000 HD 
HETATM   13  C   UNL     1      -7.656  14.500  69.773  1.00  0.00     0.162 C  
HETATM   14  O   UNL     1      -6.409  15.146  69.489  1.00  0.00    -0.120 OA 
HETATM   15  C   UNL     1      -8.843  15.036  68.673  1.00  0.00    -0.185 C  
HETATM   16  H   UNL     1      -6.266  15.182  68.551  1.00  0.00     0.000 HD 
HETATM   17  C   UNL     1      -9.419  16.511  69.051  1.00  0.00    -0.249 C  
HETATM   18  F   UNL     1      -9.977  14.216  68.803  1.00  0.00    -0.220 F  
HETATM   19  C   UNL     1     -10.466  16.988  68.027  1.00  0.00    -0.353 C  
HETATM   20  C   UNL     1     -10.014  16.800  66.573  1.00  0.00    -0.308 C  
HETATM   21  C   UNL     1      -9.718  15.325  66.292  1.00  0.00    -0.325 C  
HETATM   22  C   UNL     1     -11.090  17.380  65.635  1.00  0.00     0.348 C  
HETATM   23  C   UNL     1      -9.903  14.840  65.042  1.00  0.00    -0.071 C  
HETATM   24  C   UNL     1      -8.654  15.123  64.244  1.00  0.00     9.372 C  
HETATM   25  C   UNL     1      -7.350  15.168  65.003  1.00  0.00    10.631 C  
HETATM   26  O   UNL     1      -8.697  15.245  63.026  1.00  0.00    15.324 OA 
ENDROOT
BRANCH   4  27
HETATM   27  C   UNL     1      -6.868  16.634  71.919  1.00  0.00     5.644 C  
HETATM   28  O   UNL     1      -6.217  15.575  72.002  1.00  0.00     1.181 OA 
HETATM   29  C   UNL     1      -6.171  17.944  72.305  1.00  0.00     2.944 C  
ENDBRANCH   4  27
TORSDOF 1
ENDMDL
MODEL      136
REMARK 921   NORMALIZED FREE ENERGY PREDICTED BY IDOCK:   94.76 KCAL/MOL
REMARK 922        TOTAL FREE ENERGY PREDICTED BY IDOCK:  100.88 KCAL/MOL
REMARK 923 INTER-LIGAND FREE ENERGY PREDICTED BY IDOCK:   99.23 KCAL/MOL
REMARK 924 INTRA-LIGAND FREE ENERGY PREDICTED BY IDOCK:    1.65 KCAL/MOL
REMARK 927      BINDING AFFINITY PREDICTED BY RF-SCORE:    0.00 PKD
ROOT
HETATM    1  C   UNL     1     -10.344  18.482  70.590  1.00  0.00     2.108 C  
HETATM    2  C   UNL     1     -11.469  17.678  70.907  1.00  0.00     2.848 C  
HETATM    3  C   UNL     1     -10.638  18.036  72.082  1.00  0.00     3.740 C  
HETATM    4  C   UNL     1      -9.127  19.376  71.737  1.00  0.00     4.716 C  
HETATM    5  C   UNL     1     -10.349  19.518  72.258  1.00  0.00     3.590 C  
HETATM    6  C   UNL     1      -8.083  14.195  72.734  1.00  0.00     8.535 C  
HETATM    7  O   UNL     1      -9.108  20.316  70.571  1.00  0.00     0.979 OA 
HETATM    8  C   UNL     1      -7.665  15.157  71.545  1.00  0.00     3.462 C  
HETATM    9  C   UNL     1      -9.463  18.640  73.718  1.00  0.00     7.014 C  
HETATM   10  C   UNL     1     -11.398  20.621  72.227  1.00  0.00    12.712 C  
HETATM   11  C   UNL     1      -6.139  15.134  71.585  1.00  0.00     0.676 C  
HETATM   12  H   UNL     1      -8.408  20.937  70.411  1.00  0.00     0.000 HD 
HETATM   13  C   UNL     1      -8.306  17.386  73.117  1.00  0.00    17.260 C  
HETATM   14  O   UNL     1      -6.979  17.922  73.069  1.00  0.00     5.793 OA 
HETATM   15  C   UNL     1      -8.596  16.447  71.723  1.00  0.00     9.284 C  
HETATM   16  H   UNL     1      -6.371  17.264  72.754  1.00  0.00     0.000 HD 
HETATM   17  C   UNL     1      -8.917  17.361  70.415  1.00  0.00     3.430 C  
HETATM   18  F   UNL     1      -9.792  15.732  71.905  1.00  0.00     1.565 F  
HETATM   19  C   UNL     1      -9.144  16.495  69.162  1.00  0.00    -0.184 C  
HETATM   20  C   UNL     1      -8.069  15.415  68.975  1.00  0.00    -0.213 C  
HETATM   21  C   UNL     1      -8.029  14.485  70.190  1.00  0.00     0.818 C  
HETATM   22  C   UNL     1      -8.340  14.663  67.658  1.00  0.00    -0.186 C  
HETATM   23  C   UNL     1      -7.656  13.196  70.023  1.00  0.00     1.679 C  
HETATM   24  C   UNL     1      -6.148  13.137  70.074  1.00  0.00    -0.113 C  
HETATM   25  C   UNL     1      -5.450  14.169  70.927  1.00  0.00    -0.162 C  
HETATM   26  O   UNL     1      -5.531  12.250  69.498  1.00  0.00    -0.067 OA 
ENDROOT
BRANCH   4  27
HETATM   27  C   UNL     1      -8.252  20.465  72.577  1.00  0.00     2.775 C  
HETATM   28  O   UNL     1      -8.883  21.113  73.433  1.00  0.00     4.843 OA 
HETATM   29  C   UNL     1      -6.727  20.616  72.532  1.00  0.00     2.329 C  
ENDBRANCH   4  27
TORSDOF 1
ENDMDL
