MODEL        1
REMARK 921   NORMALIZED FREE ENERGY PREDICTED BY IDOCK:   -6.55 KCAL/MOL
REMARK 922        TOTAL FREE ENERGY PREDICTED BY IDOCK:   -7.63 KCAL/MOL
REMARK 923 INTER-LIGAND FREE ENERGY PREDICTED BY IDOCK:   -7.32 KCAL/MOL
REMARK 924 INTRA-LIGAND FREE ENERGY PREDICTED BY IDOCK:   -0.31 KCAL/MOL
REMARK 927      BINDING AFFINITY PREDICTED BY RF-SCORE:    0.00 PKD
ROOT
HETATM    1  N   UNL     1     -11.342  16.436  70.033  1.00  0.00    -0.409 NA 
HETATM    2  CA  UNL     1     -11.675  15.101  69.439  1.00  0.00    -0.332 C  
HETATM    3  H2  UNL     1     -11.173  17.121  69.297  1.00  0.00     0.000 HD 
HETATM    4  H1  UNL     1     -12.036  16.784  70.693  1.00  0.00     0.000 HD 
HETATM    5  OXT UNL     1     -12.146  12.906  70.432  1.00  0.00    -0.361 OA 
HETATM    6  C   UNL     1     -11.925  14.098  70.578  1.00  0.00    -0.323 C  
HETATM    7  O   UNL     1     -11.880  14.707  71.791  1.00  0.00    -0.338 OA 
ENDROOT
BRANCH   2   8
HETATM    8  C   UNL     1     -10.627  14.575  68.442  1.00  0.00    -0.244 C  
BRANCH   8   9
HETATM    9  C   UNL     1     -11.101  14.457  67.010  1.00  0.00    -0.317 A  
HETATM   10  C   UNL     1     -10.996  15.549  66.134  1.00  0.00    -0.247 A  
HETATM   11  C   UNL     1     -11.477  15.435  64.833  1.00  0.00    -0.311 A  
HETATM   12  C   UNL     1     -12.053  14.246  64.393  1.00  0.00    -0.468 A  
HETATM   13  O   UNL     1     -11.413  16.476  63.949  1.00  0.00    -1.608 OA 
HETATM   14  H   UNL     1     -11.741  16.398  63.061  1.00  0.00     0.000 HD 
HETATM   15  O   UNL     1     -12.535  14.154  63.120  1.00  0.00    -1.126 OA 
HETATM   16  C   UNL     1     -12.155  13.151  65.237  1.00  0.00    -0.471 A  
HETATM   17  C   UNL     1     -11.679  13.268  66.539  1.00  0.00    -0.377 A  
HETATM   18  H   UNL     1     -12.928  13.343  62.820  1.00  0.00     0.000 HD 
HETATM   19  F   UNL     1     -11.810  12.226  67.373  1.00  0.00    -0.387 F  
ENDBRANCH   8   9
ENDBRANCH   2   8
TORSDOF 2
ENDMDL
MODEL        2
REMARK 921   NORMALIZED FREE ENERGY PREDICTED BY IDOCK:   -6.22 KCAL/MOL
REMARK 922        TOTAL FREE ENERGY PREDICTED BY IDOCK:   -7.26 KCAL/MOL
REMARK 923 INTER-LIGAND FREE ENERGY PREDICTED BY IDOCK:   -7.03 KCAL/MOL
REMARK 924 INTRA-LIGAND FREE ENERGY PREDICTED BY IDOCK:   -0.23 KCAL/MOL
REMARK 927      BINDING AFFINITY PREDICTED BY RF-SCORE:    0.00 PKD
ROOT
HETATM    1  N   UNL     1     -12.495  14.111  63.436  1.00  0.00    -1.116 NA 
HETATM    2  CA  UNL     1     -11.612  14.227  64.640  1.00  0.00    -0.408 C  
HETATM    3  H2  UNL     1     -12.811  13.149  63.316  1.00  0.00     0.000 HD 
HETATM    4  H1  UNL     1     -13.289  14.750  63.437  1.00  0.00     0.000 HD 
HETATM    5  OXT UNL     1     -10.373  16.103  65.626  1.00  0.00    -0.356 OA 
HETATM    6  C   UNL     1     -11.159  15.690  64.788  1.00  0.00    -0.412 C  
HETATM    7  O   UNL     1     -11.757  16.486  63.864  1.00  0.00    -1.148 OA 
ENDROOT
BRANCH   2   8
HETATM    8  C   UNL     1     -10.413  13.262  64.639  1.00  0.00    -0.420 C  
BRANCH   8   9
HETATM    9  C   UNL     1     -10.558  12.050  65.533  1.00  0.00    -0.313 A  
HETATM   10  C   UNL     1     -11.419  12.083  66.642  1.00  0.00    -0.411 A  
HETATM   11  C   UNL     1     -11.507  10.974  67.477  1.00  0.00    -0.185 A  
HETATM   12  C   UNL     1     -10.755   9.831  67.218  1.00  0.00    -0.227 A  
HETATM   13  O   UNL     1     -12.318  10.965  68.578  1.00  0.00    -0.807 OA 
HETATM   14  H   UNL     1     -12.378  10.208  69.148  1.00  0.00     0.000 HD 
HETATM   15  O   UNL     1     -10.838   8.757  68.055  1.00  0.00    -0.454 OA 
HETATM   16  C   UNL     1      -9.908   9.772  66.122  1.00  0.00    -0.329 A  
HETATM   17  C   UNL     1      -9.818  10.883  65.290  1.00  0.00    -0.265 A  
HETATM   18  H   UNL     1     -10.325   7.978  67.878  1.00  0.00     0.000 HD 
HETATM   19  F   UNL     1      -8.970  10.847  64.251  1.00  0.00    -0.182 F  
ENDBRANCH   8   9
ENDBRANCH   2   8
TORSDOF 2
ENDMDL
MODEL        3
REMARK 921   NORMALIZED FREE ENERGY PREDICTED BY IDOCK:   -6.08 KCAL/MOL
REMARK 922        TOTAL FREE ENERGY PREDICTED BY IDOCK:   -7.11 KCAL/MOL
REMARK 923 INTER-LIGAND FREE ENERGY PREDICTED BY IDOCK:   -6.84 KCAL/MOL
REMARK 924 INTRA-LIGAND FREE ENERGY PREDICTED BY IDOCK:   -0.27 KCAL/MOL
REMARK 927      BINDING AFFINITY PREDICTED BY RF-SCORE:    0.00 PKD
ROOT
HETATM    1  N   UNL     1     -11.424  13.837  70.320  1.00  0.00    -0.510 NA 
HETATM    2  CA  UNL     1     -11.663  13.002  69.099  1.00  0.00    -0.326 C  
HETATM    3  H2  UNL     1     -11.210  14.799  70.057  1.00  0.00     0.000 HD 
HETATM    4  H1  UNL     1     -12.186  13.814  70.997  1.00  0.00     0.000 HD 
HETATM    5  OXT UNL     1     -12.156  10.618  68.781  1.00  0.00    -0.389 OA 
HETATM    6  C   UNL     1     -11.985  11.563  69.536  1.00  0.00    -0.335 C  
HETATM    7  O   UNL     1     -12.069  11.464  70.888  1.00  0.00    -0.351 OA 
ENDROOT
BRANCH   2   8
HETATM    8  C   UNL     1     -10.513  13.038  68.076  1.00  0.00    -0.234 C  
BRANCH   8   9
HETATM    9  C   UNL     1     -10.730  13.957  66.894  1.00  0.00    -0.284 A  
HETATM   10  C   UNL     1     -10.073  15.197  66.827  1.00  0.00    -0.261 A  
HETATM   11  C   UNL     1     -10.317  16.047  65.754  1.00  0.00    -0.378 A  
HETATM   12  C   UNL     1     -11.203  15.676  64.745  1.00  0.00    -0.382 A  
HETATM   13  O   UNL     1      -9.715  17.270  65.653  1.00  0.00    -0.535 OA 
HETATM   14  H   UNL     1      -9.882  17.851  64.920  1.00  0.00     0.000 HD 
HETATM   15  O   UNL     1     -11.446  16.528  63.707  1.00  0.00    -1.615 OA 
HETATM   16  C   UNL     1     -11.853  14.453  64.785  1.00  0.00    -0.439 A  
HETATM   17  C   UNL     1     -11.611  13.606  65.860  1.00  0.00    -0.328 A  
HETATM   18  H   UNL     1     -12.050  16.275  63.018  1.00  0.00     0.000 HD 
HETATM   19  F   UNL     1     -12.267  12.437  65.925  1.00  0.00    -0.471 F  
ENDBRANCH   8   9
ENDBRANCH   2   8
TORSDOF 2
ENDMDL
MODEL        4
REMARK 921   NORMALIZED FREE ENERGY PREDICTED BY IDOCK:   -6.08 KCAL/MOL
REMARK 922        TOTAL FREE ENERGY PREDICTED BY IDOCK:   -7.10 KCAL/MOL
REMARK 923 INTER-LIGAND FREE ENERGY PREDICTED BY IDOCK:   -6.90 KCAL/MOL
REMARK 924 INTRA-LIGAND FREE ENERGY PREDICTED BY IDOCK:   -0.20 KCAL/MOL
REMARK 927      BINDING AFFINITY PREDICTED BY RF-SCORE:    0.00 PKD
ROOT
HETATM    1  N   UNL     1     -11.454  16.354  63.945  1.00  0.00    -1.618 NA 
HETATM    2  CA  UNL     1     -10.958  15.366  64.956  1.00  0.00    -0.436 C  
HETATM    3  H2  UNL     1     -10.830  17.159  63.898  1.00  0.00     0.000 HD 
HETATM    4  H1  UNL     1     -11.601  15.962  63.016  1.00  0.00     0.000 HD 
HETATM    5  OXT UNL     1     -11.841  13.224  65.767  1.00  0.00    -0.349 OA 
HETATM    6  C   UNL     1     -11.921  14.167  64.996  1.00  0.00    -0.408 C  
HETATM    7  O   UNL     1     -12.886  14.277  64.045  1.00  0.00    -0.605 OA 
ENDROOT
BRANCH   2   8
HETATM    8  C   UNL     1     -10.735  15.957  66.360  1.00  0.00    -0.256 C  
BRANCH   8   9
HETATM    9  C   UNL     1      -9.825  17.165  66.413  1.00  0.00    -0.312 A  
HETATM   10  C   UNL     1     -10.361  18.454  66.570  1.00  0.00    -0.426 A  
HETATM   11  C   UNL     1      -9.513  19.556  66.574  1.00  0.00    -0.375 A  
HETATM   12  C   UNL     1      -8.137  19.390  66.432  1.00  0.00    -0.318 A  
HETATM   13  O   UNL     1      -9.989  20.830  66.705  1.00  0.00    -0.572 OA 
HETATM   14  H   UNL     1      -9.409  21.583  66.708  1.00  0.00     0.000 HD 
HETATM   15  O   UNL     1      -7.318  20.481  66.420  1.00  0.00    -0.405 OA 
HETATM   16  C   UNL     1      -7.585  18.127  66.288  1.00  0.00    -0.299 A  
HETATM   17  C   UNL     1      -8.435  17.026  66.280  1.00  0.00    -0.269 A  
HETATM   18  H   UNL     1      -6.380  20.368  66.324  1.00  0.00     0.000 HD 
HETATM   19  F   UNL     1      -7.911  15.804  66.102  1.00  0.00    -0.252 F  
ENDBRANCH   8   9
ENDBRANCH   2   8
TORSDOF 2
ENDMDL
MODEL        5
REMARK 921   NORMALIZED FREE ENERGY PREDICTED BY IDOCK:   -6.06 KCAL/MOL
REMARK 922        TOTAL FREE ENERGY PREDICTED BY IDOCK:   -7.08 KCAL/MOL
REMARK 923 INTER-LIGAND FREE ENERGY PREDICTED BY IDOCK:   -6.81 KCAL/MOL
REMARK 924 INTRA-LIGAND FREE ENERGY PREDICTED BY IDOCK:   -0.27 KCAL/MOL
REMARK 927      BINDING AFFINITY PREDICTED BY RF-SCORE:    0.00 PKD
ROOT
HETATM    1  N   UNL     1     -11.595  13.726  70.389  1.00  0.00    -0.515 NA 
HETATM    2  CA  UNL     1     -11.816  12.905  69.155  1.00  0.00    -0.303 C  
HETATM    3  H2  UNL     1     -11.415  14.699  70.143  1.00  0.00     0.000 HD 
HETATM    4  H1  UNL     1     -12.350  13.664  71.072  1.00  0.00     0.000 HD 
HETATM    5  OXT UNL     1     -12.234  10.513  68.796  1.00  0.00    -0.286 OA 
HETATM    6  C   UNL     1     -12.087  11.448  69.567  1.00  0.00    -0.302 C  
HETATM    7  O   UNL     1     -12.156  11.322  70.918  1.00  0.00    -0.348 OA 
ENDROOT
BRANCH   2   8
HETATM    8  C   UNL     1     -10.678  12.998  68.123  1.00  0.00    -0.258 C  
BRANCH   8   9
HETATM    9  C   UNL     1     -10.927  13.947  66.971  1.00  0.00    -0.301 A  
HETATM   10  C   UNL     1     -11.563  13.496  65.803  1.00  0.00    -0.351 A  
HETATM   11  C   UNL     1     -11.745  14.372  64.738  1.00  0.00    -0.416 A  
HETATM   12  C   UNL     1     -11.307  15.691  64.824  1.00  0.00    -0.343 A  
HETATM   13  O   UNL     1     -12.343  13.975  63.574  1.00  0.00    -1.032 OA 
HETATM   14  H   UNL     1     -12.467  14.574  62.847  1.00  0.00     0.000 HD 
HETATM   15  O   UNL     1     -11.476  16.535  63.765  1.00  0.00    -1.615 OA 
HETATM   16  C   UNL     1     -10.687  16.161  65.971  1.00  0.00    -0.245 A  
HETATM   17  C   UNL     1     -10.502  15.283  67.034  1.00  0.00    -0.292 A  
HETATM   18  H   UNL     1     -11.178  17.435  63.823  1.00  0.00     0.000 HD 
HETATM   19  F   UNL     1      -9.868  15.720  68.132  1.00  0.00    -0.205 F  
ENDBRANCH   8   9
ENDBRANCH   2   8
TORSDOF 2
ENDMDL
MODEL        6
REMARK 921   NORMALIZED FREE ENERGY PREDICTED BY IDOCK:   -6.04 KCAL/MOL
REMARK 922        TOTAL FREE ENERGY PREDICTED BY IDOCK:   -7.05 KCAL/MOL
REMARK 923 INTER-LIGAND FREE ENERGY PREDICTED BY IDOCK:   -6.76 KCAL/MOL
REMARK 924 INTRA-LIGAND FREE ENERGY PREDICTED BY IDOCK:   -0.29 KCAL/MOL
REMARK 927      BINDING AFFINITY PREDICTED BY RF-SCORE:    0.00 PKD
ROOT
HETATM    1  N   UNL     1     -12.627  14.545  63.662  1.00  0.00    -0.992 NA 
HETATM    2  CA  UNL     1     -11.644  14.613  64.791  1.00  0.00    -0.418 C  
HETATM    3  H2  UNL     1     -13.085  13.634  63.643  1.00  0.00     0.000 HD 
HETATM    4  H1  UNL     1     -13.320  15.292  63.667  1.00  0.00     0.000 HD 
HETATM    5  OXT UNL     1     -10.078  16.351  65.535  1.00  0.00    -0.508 OA 
HETATM    6  C   UNL     1     -10.978  16.000  64.789  1.00  0.00    -0.356 C  
HETATM    7  O   UNL     1     -11.528  16.810  63.846  1.00  0.00    -1.116 OA 
ENDROOT
BRANCH   2   8
HETATM    8  C   UNL     1     -10.598  13.484  64.785  1.00  0.00    -0.429 C  
BRANCH   8   9
HETATM    9  C   UNL     1     -10.406  12.775  66.107  1.00  0.00    -0.283 A  
HETATM   10  C   UNL     1     -11.316  11.789  66.524  1.00  0.00    -0.370 A  
HETATM   11  C   UNL     1     -11.147  11.178  67.763  1.00  0.00    -0.285 A  
HETATM   12  C   UNL     1     -10.081  11.532  68.587  1.00  0.00    -0.207 A  
HETATM   13  O   UNL     1     -12.016  10.227  68.220  1.00  0.00    -0.730 OA 
HETATM   14  H   UNL     1     -11.901   9.809  69.065  1.00  0.00     0.000 HD 
HETATM   15  O   UNL     1      -9.938  10.936  69.806  1.00  0.00    -0.426 OA 
HETATM   16  C   UNL     1      -9.165  12.492  68.190  1.00  0.00    -0.209 A  
HETATM   17  C   UNL     1      -9.337  13.106  66.954  1.00  0.00    -0.246 A  
HETATM   18  H   UNL     1      -9.211  11.177  70.368  1.00  0.00     0.000 HD 
HETATM   19  F   UNL     1      -8.477  14.065  66.581  1.00  0.00    -0.187 F  
ENDBRANCH   8   9
ENDBRANCH   2   8
TORSDOF 2
ENDMDL
MODEL        7
REMARK 921   NORMALIZED FREE ENERGY PREDICTED BY IDOCK:   -6.03 KCAL/MOL
REMARK 922        TOTAL FREE ENERGY PREDICTED BY IDOCK:   -7.05 KCAL/MOL
REMARK 923 INTER-LIGAND FREE ENERGY PREDICTED BY IDOCK:   -6.80 KCAL/MOL
REMARK 924 INTRA-LIGAND FREE ENERGY PREDICTED BY IDOCK:   -0.25 KCAL/MOL
REMARK 927      BINDING AFFINITY PREDICTED BY RF-SCORE:    0.00 PKD
ROOT
HETATM    1  N   UNL     1      -9.268  15.304  69.822  1.00  0.00    -0.443 NA 
HETATM    2  CA  UNL     1     -10.579  15.056  69.142  1.00  0.00    -0.251 C  
HETATM    3  H2  UNL     1      -8.499  15.212  69.158  1.00  0.00     0.000 HD 
HETATM    4  H1  UNL     1      -9.212  16.198  70.309  1.00  0.00     0.000 HD 
HETATM    5  OXT UNL     1     -12.894  14.998  69.956  1.00  0.00    -0.212 OA 
HETATM    6  C   UNL     1     -11.711  15.208  70.172  1.00  0.00    -0.307 C  
HETATM    7  O   UNL     1     -11.232  15.622  71.374  1.00  0.00    -0.370 OA 
ENDROOT
BRANCH   2   8
HETATM    8  C   UNL     1     -10.663  13.707  68.405  1.00  0.00    -0.272 C  
BRANCH   8   9
HETATM    9  C   UNL     1     -11.106  13.787  66.961  1.00  0.00    -0.313 A  
HETATM   10  C   UNL     1     -10.897  14.959  66.216  1.00  0.00    -0.331 A  
HETATM   11  C   UNL     1     -11.350  15.029  64.903  1.00  0.00    -0.417 A  
HETATM   12  C   UNL     1     -12.002  13.944  64.321  1.00  0.00    -0.444 A  
HETATM   13  O   UNL     1     -11.186  16.154  64.144  1.00  0.00    -1.120 OA 
HETATM   14  H   UNL     1     -11.495  16.201  63.247  1.00  0.00     0.000 HD 
HETATM   15  O   UNL     1     -12.456  14.033  63.037  1.00  0.00    -1.101 OA 
HETATM   16  C   UNL     1     -12.208  12.774  65.033  1.00  0.00    -0.527 A  
HETATM   17  C   UNL     1     -11.758  12.707  66.347  1.00  0.00    -0.405 A  
HETATM   18  H   UNL     1     -12.900  13.293  62.639  1.00  0.00     0.000 HD 
HETATM   19  F   UNL     1     -11.989  11.591  67.055  1.00  0.00    -0.290 F  
ENDBRANCH   8   9
ENDBRANCH   2   8
TORSDOF 2
ENDMDL
MODEL        8
REMARK 921   NORMALIZED FREE ENERGY PREDICTED BY IDOCK:   -5.96 KCAL/MOL
REMARK 922        TOTAL FREE ENERGY PREDICTED BY IDOCK:   -6.97 KCAL/MOL
REMARK 923 INTER-LIGAND FREE ENERGY PREDICTED BY IDOCK:   -6.74 KCAL/MOL
REMARK 924 INTRA-LIGAND FREE ENERGY PREDICTED BY IDOCK:   -0.24 KCAL/MOL
REMARK 927      BINDING AFFINITY PREDICTED BY RF-SCORE:    0.00 PKD
ROOT
HETATM    1  N   UNL     1     -14.306  15.460  70.838  1.00  0.00    -0.853 NA 
HETATM    2  CA  UNL     1     -13.269  14.668  71.575  1.00  0.00    -0.355 C  
HETATM    3  H2  UNL     1     -14.409  15.112  69.885  1.00  0.00     0.000 HD 
HETATM    4  H1  UNL     1     -15.212  15.497  71.304  1.00  0.00     0.000 HD 
HETATM    5  OXT UNL     1     -12.337  14.843  73.839  1.00  0.00    -0.535 OA 
HETATM    6  C   UNL     1     -13.145  15.220  73.006  1.00  0.00    -0.506 C  
HETATM    7  O   UNL     1     -14.068  16.189  73.243  1.00  0.00    -0.442 OA 
ENDROOT
BRANCH   2   8
HETATM    8  C   UNL     1     -11.901  14.611  70.872  1.00  0.00    -0.372 C  
BRANCH   8   9
HETATM    9  C   UNL     1     -11.891  13.896  69.538  1.00  0.00    -0.383 A  
HETATM   10  C   UNL     1     -11.893  12.492  69.484  1.00  0.00    -0.375 A  
HETATM   11  C   UNL     1     -11.839  11.852  68.250  1.00  0.00    -0.277 A  
HETATM   12  C   UNL     1     -11.791  12.592  67.071  1.00  0.00    -0.345 A  
HETATM   13  O   UNL     1     -11.822  10.489  68.146  1.00  0.00    -0.762 OA 
HETATM   14  H   UNL     1     -11.785  10.053  67.303  1.00  0.00     0.000 HD 
HETATM   15  O   UNL     1     -11.721  11.951  65.868  1.00  0.00    -0.424 OA 
HETATM   16  C   UNL     1     -11.800  13.978  67.100  1.00  0.00    -0.444 A  
HETATM   17  C   UNL     1     -11.849  14.616  68.335  1.00  0.00    -0.295 A  
HETATM   18  H   UNL     1     -11.689  12.456  65.064  1.00  0.00     0.000 HD 
HETATM   19  F   UNL     1     -11.818  15.957  68.373  1.00  0.00    -0.367 F  
ENDBRANCH   8   9
ENDBRANCH   2   8
TORSDOF 2
ENDMDL
MODEL        9
REMARK 921   NORMALIZED FREE ENERGY PREDICTED BY IDOCK:   -5.87 KCAL/MOL
REMARK 922        TOTAL FREE ENERGY PREDICTED BY IDOCK:   -6.87 KCAL/MOL
REMARK 923 INTER-LIGAND FREE ENERGY PREDICTED BY IDOCK:   -6.61 KCAL/MOL
REMARK 924 INTRA-LIGAND FREE ENERGY PREDICTED BY IDOCK:   -0.26 KCAL/MOL
REMARK 927      BINDING AFFINITY PREDICTED BY RF-SCORE:    0.00 PKD
ROOT
HETATM    1  N   UNL     1     -12.114  10.643  68.630  1.00  0.00    -0.812 NA 
HETATM    2  CA  UNL     1     -11.295  11.052  67.444  1.00  0.00    -0.230 C  
HETATM    3  H2  UNL     1     -12.785  11.373  68.869  1.00  0.00     0.000 HD 
HETATM    4  H1  UNL     1     -12.586   9.746  68.522  1.00  0.00     0.000 HD 
HETATM    5  OXT UNL     1      -9.439   9.977  66.249  1.00  0.00    -0.172 OA 
HETATM    6  C   UNL     1     -10.300   9.926  67.114  1.00  0.00    -0.243 C  
HETATM    7  O   UNL     1     -10.501   8.842  67.907  1.00  0.00    -0.229 OA 
ENDROOT
BRANCH   2   8
HETATM    8  C   UNL     1     -10.582  12.407  67.607  1.00  0.00    -0.236 C  
BRANCH   8   9
HETATM    9  C   UNL     1     -10.945  13.454  66.578  1.00  0.00    -0.299 A  
HETATM   10  C   UNL     1     -11.604  13.090  65.392  1.00  0.00    -0.374 A  
HETATM   11  C   UNL     1     -11.891  14.061  64.439  1.00  0.00    -0.431 A  
HETATM   12  C   UNL     1     -11.537  15.390  64.654  1.00  0.00    -0.311 A  
HETATM   13  O   UNL     1     -12.515  13.751  63.262  1.00  0.00    -1.065 OA 
HETATM   14  H   UNL     1     -12.711  14.415  62.611  1.00  0.00     0.000 HD 
HETATM   15  O   UNL     1     -11.809  16.329  63.702  1.00  0.00    -1.404 OA 
HETATM   16  C   UNL     1     -10.897  15.775  65.821  1.00  0.00    -0.286 A  
HETATM   17  C   UNL     1     -10.606  14.802  66.772  1.00  0.00    -0.302 A  
HETATM   18  H   UNL     1     -11.568  17.237  63.849  1.00  0.00     0.000 HD 
HETATM   19  F   UNL     1      -9.952  15.161  67.887  1.00  0.00    -0.216 F  
ENDBRANCH   8   9
ENDBRANCH   2   8
TORSDOF 2
ENDMDL
MODEL       10
REMARK 921   NORMALIZED FREE ENERGY PREDICTED BY IDOCK:   -5.85 KCAL/MOL
REMARK 922        TOTAL FREE ENERGY PREDICTED BY IDOCK:   -6.85 KCAL/MOL
REMARK 923 INTER-LIGAND FREE ENERGY PREDICTED BY IDOCK:   -6.62 KCAL/MOL
REMARK 924 INTRA-LIGAND FREE ENERGY PREDICTED BY IDOCK:   -0.23 KCAL/MOL
REMARK 927      BINDING AFFINITY PREDICTED BY RF-SCORE:    0.00 PKD
ROOT
HETATM    1  N   UNL     1     -10.602  19.080  65.484  1.00  0.00    -0.512 NA 
HETATM    2  CA  UNL     1     -10.507  18.234  66.716  1.00  0.00    -0.365 C  
HETATM    3  H2  UNL     1     -11.054  18.563  64.730  1.00  0.00     0.000 HD 
HETATM    4  H1  UNL     1     -11.065  19.977  65.628  1.00  0.00     0.000 HD 
HETATM    5  OXT UNL     1      -9.531  18.622  68.935  1.00  0.00    -0.320 OA 
HETATM    6  C   UNL     1      -9.825  19.048  67.829  1.00  0.00    -0.336 C  
HETATM    7  O   UNL     1      -9.593  20.327  67.433  1.00  0.00    -0.385 OA 
ENDROOT
BRANCH   2   8
HETATM    8  C   UNL     1      -9.809  16.879  66.499  1.00  0.00    -0.307 C  
BRANCH   8   9
HETATM    9  C   UNL     1     -10.725  15.734  66.124  1.00  0.00    -0.293 A  
HETATM   10  C   UNL     1     -11.058  15.500  64.780  1.00  0.00    -0.421 A  
HETATM   11  C   UNL     1     -11.935  14.469  64.459  1.00  0.00    -0.468 A  
HETATM   12  C   UNL     1     -12.478  13.665  65.458  1.00  0.00    -0.503 A  
HETATM   13  O   UNL     1     -12.303  14.213  63.167  1.00  0.00    -1.125 OA 
HETATM   14  H   UNL     1     -12.902  13.509  62.948  1.00  0.00     0.000 HD 
HETATM   15  O   UNL     1     -13.351  12.669  65.130  1.00  0.00    -0.526 OA 
HETATM   16  C   UNL     1     -12.154  13.871  66.790  1.00  0.00    -0.476 A  
HETATM   17  C   UNL     1     -11.280  14.905  67.110  1.00  0.00    -0.343 A  
HETATM   18  H   UNL     1     -13.721  12.120  65.812  1.00  0.00     0.000 HD 
HETATM   19  F   UNL     1     -10.993  15.134  68.400  1.00  0.00    -0.239 F  
ENDBRANCH   8   9
ENDBRANCH   2   8
TORSDOF 2
ENDMDL
MODEL       11
REMARK 921   NORMALIZED FREE ENERGY PREDICTED BY IDOCK:   -5.83 KCAL/MOL
REMARK 922        TOTAL FREE ENERGY PREDICTED BY IDOCK:   -6.82 KCAL/MOL
REMARK 923 INTER-LIGAND FREE ENERGY PREDICTED BY IDOCK:   -6.59 KCAL/MOL
REMARK 924 INTRA-LIGAND FREE ENERGY PREDICTED BY IDOCK:   -0.23 KCAL/MOL
REMARK 927      BINDING AFFINITY PREDICTED BY RF-SCORE:    0.00 PKD
ROOT
HETATM    1  N   UNL     1     -11.345  16.652  64.051  1.00  0.00    -1.530 NA 
HETATM    2  CA  UNL     1     -10.807  15.784  65.147  1.00  0.00    -0.428 C  
HETATM    3  H2  UNL     1     -10.767  17.484  63.938  1.00  0.00     0.000 HD 
HETATM    4  H1  UNL     1     -11.459  16.173  63.158  1.00  0.00     0.000 HD 
HETATM    5  OXT UNL     1     -11.579  13.674  66.135  1.00  0.00    -0.324 OA 
HETATM    6  C   UNL     1     -11.702  14.541  65.284  1.00  0.00    -0.361 C  
HETATM    7  O   UNL     1     -12.660  14.514  64.321  1.00  0.00    -0.681 OA 
ENDROOT
BRANCH   2   8
HETATM    8  C   UNL     1     -10.634  16.507  66.496  1.00  0.00    -0.217 C  
BRANCH   8   9
HETATM    9  C   UNL     1      -9.715  17.708  66.471  1.00  0.00    -0.310 A  
HETATM   10  C   UNL     1      -8.363  17.564  66.119  1.00  0.00    -0.200 A  
HETATM   11  C   UNL     1      -7.524  18.673  66.143  1.00  0.00    -0.255 A  
HETATM   12  C   UNL     1      -8.016  19.924  66.507  1.00  0.00    -0.321 A  
HETATM   13  O   UNL     1      -6.198  18.578  65.826  1.00  0.00    -0.202 OA 
HETATM   14  H   UNL     1      -5.625  19.336  65.842  1.00  0.00     0.000 HD 
HETATM   15  O   UNL     1      -7.177  21.000  66.543  1.00  0.00    -0.519 OA 
HETATM   16  C   UNL     1      -9.348  20.093  66.846  1.00  0.00    -0.522 A  
HETATM   17  C   UNL     1     -10.186  18.982  66.825  1.00  0.00    -0.396 A  
HETATM   18  H   UNL     1      -7.512  21.854  66.790  1.00  0.00     0.000 HD 
HETATM   19  F   UNL     1     -11.468  19.130  67.191  1.00  0.00    -0.328 F  
ENDBRANCH   8   9
ENDBRANCH   2   8
TORSDOF 2
ENDMDL
MODEL       12
REMARK 921   NORMALIZED FREE ENERGY PREDICTED BY IDOCK:   -5.80 KCAL/MOL
REMARK 922        TOTAL FREE ENERGY PREDICTED BY IDOCK:   -6.80 KCAL/MOL
REMARK 923 INTER-LIGAND FREE ENERGY PREDICTED BY IDOCK:   -6.73 KCAL/MOL
REMARK 924 INTRA-LIGAND FREE ENERGY PREDICTED BY IDOCK:   -0.06 KCAL/MOL
REMARK 927      BINDING AFFINITY PREDICTED BY RF-SCORE:    0.00 PKD
ROOT
HETATM    1  N   UNL     1     -12.376  15.277  68.953  1.00  0.00    -0.604 NA 
HETATM    2  CA  UNL     1     -10.998  14.781  69.269  1.00  0.00    -0.261 C  
HETATM    3  H2  UNL     1     -13.034  14.499  68.909  1.00  0.00     0.000 HD 
HETATM    4  H1  UNL     1     -12.717  15.997  69.590  1.00  0.00     0.000 HD 
HETATM    5  OXT UNL     1      -8.831  15.911  69.493  1.00  0.00    -0.242 OA 
HETATM    6  C   UNL     1     -10.039  15.982  69.330  1.00  0.00    -0.249 C  
HETATM    7  O   UNL     1     -10.707  17.156  69.187  1.00  0.00    -0.301 OA 
ENDROOT
BRANCH   2   8
HETATM    8  C   UNL     1     -10.483  13.694  68.308  1.00  0.00    -0.253 C  
BRANCH   8   9
HETATM    9  C   UNL     1     -11.020  13.775  66.896  1.00  0.00    -0.296 A  
HETATM   10  C   UNL     1     -10.792  14.917  66.112  1.00  0.00    -0.327 A  
HETATM   11  C   UNL     1     -11.330  14.991  64.831  1.00  0.00    -0.417 A  
HETATM   12  C   UNL     1     -12.085  13.938  64.319  1.00  0.00    -0.440 A  
HETATM   13  O   UNL     1     -11.150  16.089  64.037  1.00  0.00    -1.031 OA 
HETATM   14  H   UNL     1     -11.517  16.139  63.162  1.00  0.00     0.000 HD 
HETATM   15  O   UNL     1     -12.621  14.031  63.068  1.00  0.00    -1.027 OA 
HETATM   16  C   UNL     1     -12.313  12.796  65.070  1.00  0.00    -0.559 A  
HETATM   17  C   UNL     1     -11.778  12.726  66.353  1.00  0.00    -0.403 A  
HETATM   18  H   UNL     1     -13.136  13.313  62.718  1.00  0.00     0.000 HD 
HETATM   19  F   UNL     1     -12.028  11.640  67.100  1.00  0.00    -0.322 F  
ENDBRANCH   8   9
ENDBRANCH   2   8
TORSDOF 2
ENDMDL
MODEL       13
REMARK 921   NORMALIZED FREE ENERGY PREDICTED BY IDOCK:   -5.79 KCAL/MOL
REMARK 922        TOTAL FREE ENERGY PREDICTED BY IDOCK:   -6.79 KCAL/MOL
REMARK 923 INTER-LIGAND FREE ENERGY PREDICTED BY IDOCK:   -6.50 KCAL/MOL
REMARK 924 INTRA-LIGAND FREE ENERGY PREDICTED BY IDOCK:   -0.28 KCAL/MOL
REMARK 927      BINDING AFFINITY PREDICTED BY RF-SCORE:    0.00 PKD
ROOT
HETATM    1  N   UNL     1     -11.280  16.367  70.098  1.00  0.00    -0.438 NA 
HETATM    2  CA  UNL     1     -11.851  15.065  69.627  1.00  0.00    -0.324 C  
HETATM    3  H2  UNL     1     -11.020  16.951  69.304  1.00  0.00     0.000 HD 
HETATM    4  H1  UNL     1     -11.886  16.882  70.736  1.00  0.00     0.000 HD 
HETATM    5  OXT UNL     1     -12.655  13.071  70.812  1.00  0.00    -0.314 OA 
HETATM    6  C   UNL     1     -12.232  14.215  70.852  1.00  0.00    -0.363 C  
HETATM    7  O   UNL     1     -12.049  14.906  72.007  1.00  0.00    -0.349 OA 
ENDROOT
BRANCH   2   8
HETATM    8  C   UNL     1     -10.937  14.287  68.663  1.00  0.00    -0.268 C  
BRANCH   8   9
HETATM    9  C   UNL     1     -11.361  14.311  67.211  1.00  0.00    -0.350 A  
HETATM   10  C   UNL     1     -12.092  13.243  66.665  1.00  0.00    -0.421 A  
HETATM   11  C   UNL     1     -12.436  13.264  65.317  1.00  0.00    -0.489 A  
HETATM   12  C   UNL     1     -12.067  14.336  64.509  1.00  0.00    -0.480 A  
HETATM   13  O   UNL     1     -13.132  12.240  64.737  1.00  0.00    -0.724 OA 
HETATM   14  H   UNL     1     -13.367  12.254  63.816  1.00  0.00     0.000 HD 
HETATM   15  O   UNL     1     -12.397  14.334  63.185  1.00  0.00    -1.096 OA 
HETATM   16  C   UNL     1     -11.356  15.406  65.029  1.00  0.00    -0.334 A  
HETATM   17  C   UNL     1     -11.009  15.382  66.376  1.00  0.00    -0.277 A  
HETATM   18  H   UNL     1     -12.145  15.066  62.633  1.00  0.00     0.000 HD 
HETATM   19  F   UNL     1     -10.287  16.396  66.876  1.00  0.00    -0.278 F  
ENDBRANCH   8   9
ENDBRANCH   2   8
TORSDOF 2
ENDMDL
MODEL       14
REMARK 921   NORMALIZED FREE ENERGY PREDICTED BY IDOCK:   -5.71 KCAL/MOL
REMARK 922        TOTAL FREE ENERGY PREDICTED BY IDOCK:   -6.70 KCAL/MOL
REMARK 923 INTER-LIGAND FREE ENERGY PREDICTED BY IDOCK:   -6.55 KCAL/MOL
REMARK 924 INTRA-LIGAND FREE ENERGY PREDICTED BY IDOCK:   -0.15 KCAL/MOL
REMARK 927      BINDING AFFINITY PREDICTED BY RF-SCORE:    0.00 PKD
ROOT
HETATM    1  N   UNL     1      -8.318  11.750  68.948  1.00  0.00    -0.365 NA 
HETATM    2  CA  UNL     1      -9.597  11.972  68.200  1.00  0.00    -0.200 C  
HETATM    3  H2  UNL     1      -7.616  12.434  68.666  1.00  0.00     0.000 HD 
HETATM    4  H1  UNL     1      -8.423  11.746  69.963  1.00  0.00     0.000 HD 
HETATM    5  OXT UNL     1     -11.747  10.788  68.185  1.00  0.00    -0.501 OA 
HETATM    6  C   UNL     1     -10.629  10.926  68.656  1.00  0.00    -0.195 C  
HETATM    7  O   UNL     1     -10.144  10.165  69.671  1.00  0.00    -0.218 OA 
ENDROOT
BRANCH   2   8
HETATM    8  C   UNL     1      -9.438  11.980  66.669  1.00  0.00    -0.222 C  
BRANCH   8   9
HETATM    9  C   UNL     1     -10.039  13.176  65.964  1.00  0.00    -0.286 A  
HETATM   10  C   UNL     1     -10.992  12.998  64.948  1.00  0.00    -0.329 A  
HETATM   11  C   UNL     1     -11.501  14.108  64.281  1.00  0.00    -0.272 A  
HETATM   12  C   UNL     1     -11.078  15.392  64.619  1.00  0.00    -0.347 A  
HETATM   13  O   UNL     1     -12.417  13.985  63.274  1.00  0.00    -1.139 OA 
HETATM   14  H   UNL     1     -12.765  14.743  62.819  1.00  0.00     0.000 HD 
HETATM   15  O   UNL     1     -11.573  16.470  63.945  1.00  0.00    -1.598 OA 
HETATM   16  C   UNL     1     -10.148  15.591  65.626  1.00  0.00    -0.406 A  
HETATM   17  C   UNL     1      -9.636  14.480  66.289  1.00  0.00    -0.304 A  
HETATM   18  H   UNL     1     -11.285  17.345  64.175  1.00  0.00     0.000 HD 
HETATM   19  F   UNL     1      -8.706  14.663  67.238  1.00  0.00    -0.165 F  
ENDBRANCH   8   9
ENDBRANCH   2   8
TORSDOF 2
ENDMDL
MODEL       15
REMARK 921   NORMALIZED FREE ENERGY PREDICTED BY IDOCK:   -5.71 KCAL/MOL
REMARK 922        TOTAL FREE ENERGY PREDICTED BY IDOCK:   -6.69 KCAL/MOL
REMARK 923 INTER-LIGAND FREE ENERGY PREDICTED BY IDOCK:   -6.42 KCAL/MOL
REMARK 924 INTRA-LIGAND FREE ENERGY PREDICTED BY IDOCK:   -0.27 KCAL/MOL
REMARK 927      BINDING AFFINITY PREDICTED BY RF-SCORE:    0.00 PKD
ROOT
HETATM    1  N   UNL     1     -13.085  12.467  64.923  1.00  0.00    -0.756 NA 
HETATM    2  CA  UNL     1     -12.534  13.756  65.453  1.00  0.00    -0.500 C  
HETATM    3  H2  UNL     1     -13.369  11.859  65.691  1.00  0.00     0.000 HD 
HETATM    4  H1  UNL     1     -13.850  12.582  64.258  1.00  0.00     0.000 HD 
HETATM    5  OXT UNL     1     -11.569  15.731  64.359  1.00  0.00    -0.401 OA 
HETATM    6  C   UNL     1     -12.122  14.646  64.267  1.00  0.00    -0.415 C  
HETATM    7  O   UNL     1     -12.461  14.077  63.081  1.00  0.00    -0.733 OA 
ENDROOT
BRANCH   2   8
HETATM    8  C   UNL     1     -11.380  13.582  66.457  1.00  0.00    -0.340 C  
BRANCH   8   9
HETATM    9  C   UNL     1     -11.523  14.363  67.745  1.00  0.00    -0.360 A  
HETATM   10  C   UNL     1     -11.133  15.710  67.808  1.00  0.00    -0.311 A  
HETATM   11  C   UNL     1     -11.232  16.399  69.013  1.00  0.00    -0.291 A  
HETATM   12  C   UNL     1     -11.721  15.765  70.152  1.00  0.00    -0.356 A  
HETATM   13  O   UNL     1     -10.848  17.706  69.128  1.00  0.00    -0.300 OA 
HETATM   14  H   UNL     1     -10.916  18.176  69.951  1.00  0.00     0.000 HD 
HETATM   15  O   UNL     1     -11.796  16.448  71.331  1.00  0.00    -0.639 OA 
HETATM   16  C   UNL     1     -12.123  14.439  70.110  1.00  0.00    -0.397 A  
HETATM   17  C   UNL     1     -12.019  13.751  68.906  1.00  0.00    -0.359 A  
HETATM   18  H   UNL     1     -12.130  16.015  72.108  1.00  0.00     0.000 HD 
HETATM   19  F   UNL     1     -12.370  12.456  68.868  1.00  0.00    -0.264 F  
ENDBRANCH   8   9
ENDBRANCH   2   8
TORSDOF 2
ENDMDL
MODEL       16
REMARK 921   NORMALIZED FREE ENERGY PREDICTED BY IDOCK:   -5.71 KCAL/MOL
REMARK 922        TOTAL FREE ENERGY PREDICTED BY IDOCK:   -6.69 KCAL/MOL
REMARK 923 INTER-LIGAND FREE ENERGY PREDICTED BY IDOCK:   -6.47 KCAL/MOL
REMARK 924 INTRA-LIGAND FREE ENERGY PREDICTED BY IDOCK:   -0.21 KCAL/MOL
REMARK 927      BINDING AFFINITY PREDICTED BY RF-SCORE:    0.00 PKD
ROOT
HETATM    1  N   UNL     1      -9.172  11.554  68.671  1.00  0.00    -0.315 NA 
HETATM    2  CA  UNL     1     -10.578  11.939  68.329  1.00  0.00    -0.213 C  
HETATM    3  H2  UNL     1      -8.510  12.046  68.071  1.00  0.00     0.000 HD 
HETATM    4  H1  UNL     1      -8.929  11.688  69.653  1.00  0.00     0.000 HD 
HETATM    5  OXT UNL     1     -12.761  11.216  69.187  1.00  0.00    -0.255 OA 
HETATM    6  C   UNL     1     -11.543  11.181  69.257  1.00  0.00    -0.318 C  
HETATM    7  O   UNL     1     -10.866  10.461  70.189  1.00  0.00    -0.283 OA 
ENDROOT
BRANCH   2   8
HETATM    8  C   UNL     1     -10.944  11.738  66.847  1.00  0.00    -0.333 C  
BRANCH   8   9
HETATM    9  C   UNL     1     -11.073  13.008  66.036  1.00  0.00    -0.301 A  
HETATM   10  C   UNL     1     -10.224  14.100  66.283  1.00  0.00    -0.301 A  
HETATM   11  C   UNL     1     -10.386  15.274  65.556  1.00  0.00    -0.383 A  
HETATM   12  C   UNL     1     -11.377  15.373  64.582  1.00  0.00    -0.355 A  
HETATM   13  O   UNL     1      -9.597  16.369  65.773  1.00  0.00    -0.452 OA 
HETATM   14  H   UNL     1      -9.707  17.171  65.276  1.00  0.00     0.000 HD 
HETATM   15  O   UNL     1     -11.535  16.537  63.888  1.00  0.00    -1.608 OA 
HETATM   16  C   UNL     1     -12.217  14.305  64.313  1.00  0.00    -0.451 A  
HETATM   17  C   UNL     1     -12.057  13.132  65.044  1.00  0.00    -0.415 A  
HETATM   18  H   UNL     1     -12.211  16.605  63.224  1.00  0.00     0.000 HD 
HETATM   19  F   UNL     1     -12.893  12.107  64.816  1.00  0.00    -0.491 F  
ENDBRANCH   8   9
ENDBRANCH   2   8
TORSDOF 2
ENDMDL
MODEL       17
REMARK 921   NORMALIZED FREE ENERGY PREDICTED BY IDOCK:   -5.70 KCAL/MOL
REMARK 922        TOTAL FREE ENERGY PREDICTED BY IDOCK:   -6.68 KCAL/MOL
REMARK 923 INTER-LIGAND FREE ENERGY PREDICTED BY IDOCK:   -6.52 KCAL/MOL
REMARK 924 INTRA-LIGAND FREE ENERGY PREDICTED BY IDOCK:   -0.16 KCAL/MOL
REMARK 927      BINDING AFFINITY PREDICTED BY RF-SCORE:    0.00 PKD
ROOT
HETATM    1  N   UNL     1     -13.161  14.085  65.180  1.00  0.00    -0.759 NA 
HETATM    2  CA  UNL     1     -11.818  13.843  64.561  1.00  0.00    -0.426 C  
HETATM    3  H2  UNL     1     -13.141  14.927  65.756  1.00  0.00     0.000 HD 
HETATM    4  H1  UNL     1     -13.928  14.130  64.510  1.00  0.00     0.000 HD 
HETATM    5  OXT UNL     1     -10.944  12.058  63.120  1.00  0.00    -0.341 OA 
HETATM    6  C   UNL     1     -11.889  12.571  63.700  1.00  0.00    -0.530 C  
HETATM    7  O   UNL     1     -13.154  12.078  63.650  1.00  0.00    -0.756 OA 
ENDROOT
BRANCH   2   8
HETATM    8  C   UNL     1     -10.660  13.777  65.573  1.00  0.00    -0.312 C  
BRANCH   8   9
HETATM    9  C   UNL     1     -11.060  13.430  66.990  1.00  0.00    -0.310 A  
HETATM   10  C   UNL     1     -11.471  12.126  67.314  1.00  0.00    -0.413 A  
HETATM   11  C   UNL     1     -11.876  11.836  68.613  1.00  0.00    -0.310 A  
HETATM   12  C   UNL     1     -11.870  12.826  69.593  1.00  0.00    -0.317 A  
HETATM   13  O   UNL     1     -12.300  10.588  68.972  1.00  0.00    -0.759 OA 
HETATM   14  H   UNL     1     -12.577  10.390  69.859  1.00  0.00     0.000 HD 
HETATM   15  O   UNL     1     -12.286  12.531  70.859  1.00  0.00    -0.407 OA 
HETATM   16  C   UNL     1     -11.457  14.115  69.299  1.00  0.00    -0.337 A  
HETATM   17  C   UNL     1     -11.056  14.405  67.998  1.00  0.00    -0.272 A  
HETATM   18  H   UNL     1     -12.282  13.206  71.528  1.00  0.00     0.000 HD 
HETATM   19  F   UNL     1     -10.693  15.661  67.697  1.00  0.00    -0.271 F  
ENDBRANCH   8   9
ENDBRANCH   2   8
TORSDOF 2
ENDMDL
MODEL       18
REMARK 921   NORMALIZED FREE ENERGY PREDICTED BY IDOCK:   -5.70 KCAL/MOL
REMARK 922        TOTAL FREE ENERGY PREDICTED BY IDOCK:   -6.68 KCAL/MOL
REMARK 923 INTER-LIGAND FREE ENERGY PREDICTED BY IDOCK:   -6.39 KCAL/MOL
REMARK 924 INTRA-LIGAND FREE ENERGY PREDICTED BY IDOCK:   -0.29 KCAL/MOL
REMARK 927      BINDING AFFINITY PREDICTED BY RF-SCORE:    0.00 PKD
ROOT
HETATM    1  N   UNL     1     -11.999  12.199  66.765  1.00  0.00    -0.615 NA 
HETATM    2  CA  UNL     1     -11.984  13.613  66.271  1.00  0.00    -0.423 C  
HETATM    3  H2  UNL     1     -11.595  12.143  67.700  1.00  0.00     0.000 HD 
HETATM    4  H1  UNL     1     -12.920  11.760  66.749  1.00  0.00     0.000 HD 
HETATM    5  OXT UNL     1     -12.673  14.645  64.153  1.00  0.00    -0.738 OA 
HETATM    6  C   UNL     1     -12.604  13.655  64.863  1.00  0.00    -0.336 C  
HETATM    7  O   UNL     1     -13.084  12.438  64.499  1.00  0.00    -0.823 OA 
ENDROOT
BRANCH   2   8
HETATM    8  C   UNL     1     -10.595  14.275  66.296  1.00  0.00    -0.291 C  
BRANCH   8   9
HETATM    9  C   UNL     1     -10.567  15.696  66.815  1.00  0.00    -0.307 A  
HETATM   10  C   UNL     1     -10.473  16.777  65.923  1.00  0.00    -0.311 A  
HETATM   11  C   UNL     1     -10.405  18.075  66.420  1.00  0.00    -0.379 A  
HETATM   12  C   UNL     1     -10.437  18.309  67.793  1.00  0.00    -0.410 A  
HETATM   13  O   UNL     1     -10.295  19.158  65.593  1.00  0.00    -0.511 OA 
HETATM   14  H   UNL     1     -10.249  20.043  65.933  1.00  0.00     0.000 HD 
HETATM   15  O   UNL     1     -10.353  19.585  68.267  1.00  0.00    -0.423 OA 
HETATM   16  C   UNL     1     -10.542  17.258  68.690  1.00  0.00    -0.329 A  
HETATM   17  C   UNL     1     -10.605  15.961  68.192  1.00  0.00    -0.280 A  
HETATM   18  H   UNL     1     -10.375  19.745  69.204  1.00  0.00     0.000 HD 
HETATM   19  F   UNL     1     -10.667  14.937  69.057  1.00  0.00    -0.216 F  
ENDBRANCH   8   9
ENDBRANCH   2   8
TORSDOF 2
ENDMDL
MODEL       19
REMARK 921   NORMALIZED FREE ENERGY PREDICTED BY IDOCK:   -5.70 KCAL/MOL
REMARK 922        TOTAL FREE ENERGY PREDICTED BY IDOCK:   -6.68 KCAL/MOL
REMARK 923 INTER-LIGAND FREE ENERGY PREDICTED BY IDOCK:   -6.44 KCAL/MOL
REMARK 924 INTRA-LIGAND FREE ENERGY PREDICTED BY IDOCK:   -0.24 KCAL/MOL
REMARK 927      BINDING AFFINITY PREDICTED BY RF-SCORE:    0.00 PKD
ROOT
HETATM    1  N   UNL     1     -12.516  10.727  68.818  1.00  0.00    -0.721 NA 
HETATM    2  CA  UNL     1     -11.081  10.648  68.395  1.00  0.00    -0.272 C  
HETATM    3  H2  UNL     1     -13.091  11.100  68.062  1.00  0.00     0.000 HD 
HETATM    4  H1  UNL     1     -12.901   9.846  69.156  1.00  0.00     0.000 HD 
HETATM    5  OXT UNL     1      -9.035   9.957  69.563  1.00  0.00    -0.182 OA 
HETATM    6  C   UNL     1     -10.250  10.079  69.558  1.00  0.00    -0.234 C  
HETATM    7  O   UNL     1     -11.043   9.710  70.597  1.00  0.00    -0.267 OA 
ENDROOT
BRANCH   2   8
HETATM    8  C   UNL     1     -10.500  11.978  67.884  1.00  0.00    -0.221 C  
BRANCH   8   9
HETATM    9  C   UNL     1     -11.068  12.467  66.569  1.00  0.00    -0.330 A  
HETATM   10  C   UNL     1     -10.661  11.885  65.357  1.00  0.00    -0.315 A  
HETATM   11  C   UNL     1     -11.161  12.377  64.156  1.00  0.00    -0.376 A  
HETATM   12  C   UNL     1     -12.066  13.436  64.147  1.00  0.00    -0.433 A  
HETATM   13  O   UNL     1     -10.781  11.855  62.951  1.00  0.00    -0.657 OA 
HETATM   14  H   UNL     1     -11.124  12.191  62.131  1.00  0.00     0.000 HD 
HETATM   15  O   UNL     1     -12.535  13.919  62.961  1.00  0.00    -1.099 OA 
HETATM   16  C   UNL     1     -12.491  14.017  65.331  1.00  0.00    -0.520 A  
HETATM   17  C   UNL     1     -11.986  13.527  66.532  1.00  0.00    -0.413 A  
HETATM   18  H   UNL     1     -13.153  14.641  62.955  1.00  0.00     0.000 HD 
HETATM   19  F   UNL     1     -12.363  14.112  67.679  1.00  0.00    -0.399 F  
ENDBRANCH   8   9
ENDBRANCH   2   8
TORSDOF 2
ENDMDL
MODEL       20
REMARK 921   NORMALIZED FREE ENERGY PREDICTED BY IDOCK:   -5.69 KCAL/MOL
REMARK 922        TOTAL FREE ENERGY PREDICTED BY IDOCK:   -6.66 KCAL/MOL
REMARK 923 INTER-LIGAND FREE ENERGY PREDICTED BY IDOCK:   -6.46 KCAL/MOL
REMARK 924 INTRA-LIGAND FREE ENERGY PREDICTED BY IDOCK:   -0.20 KCAL/MOL
REMARK 927      BINDING AFFINITY PREDICTED BY RF-SCORE:    0.00 PKD
ROOT
HETATM    1  N   UNL     1     -14.256  15.531  70.858  1.00  0.00    -0.829 NA 
HETATM    2  CA  UNL     1     -13.254  14.728  71.629  1.00  0.00    -0.349 C  
HETATM    3  H2  UNL     1     -14.332  15.184  69.902  1.00  0.00     0.000 HD 
HETATM    4  H1  UNL     1     -15.177  15.579  71.294  1.00  0.00     0.000 HD 
HETATM    5  OXT UNL     1     -12.395  14.892  73.923  1.00  0.00    -0.535 OA 
HETATM    6  C   UNL     1     -13.171  15.278  73.063  1.00  0.00    -0.510 C  
HETATM    7  O   UNL     1     -14.090  16.257  73.270  1.00  0.00    -0.434 OA 
ENDROOT
BRANCH   2   8
HETATM    8  C   UNL     1     -11.864  14.655  70.972  1.00  0.00    -0.379 C  
BRANCH   8   9
HETATM    9  C   UNL     1     -11.813  13.920  69.650  1.00  0.00    -0.385 A  
HETATM   10  C   UNL     1     -11.820  14.632  68.439  1.00  0.00    -0.330 A  
HETATM   11  C   UNL     1     -11.817  13.938  67.234  1.00  0.00    -0.407 A  
HETATM   12  C   UNL     1     -11.799  12.546  67.219  1.00  0.00    -0.311 A  
HETATM   13  O   UNL     1     -11.841  14.587  66.030  1.00  0.00    -0.373 OA 
HETATM   14  H   UNL     1     -11.838  14.112  65.207  1.00  0.00     0.000 HD 
HETATM   15  O   UNL     1     -11.812  11.878  66.029  1.00  0.00    -0.497 OA 
HETATM   16  C   UNL     1     -11.779  11.823  68.401  1.00  0.00    -0.389 A  
HETATM   17  C   UNL     1     -11.787  12.518  69.606  1.00  0.00    -0.314 A  
HETATM   18  H   UNL     1     -11.800  10.928  66.019  1.00  0.00     0.000 HD 
HETATM   19  F   UNL     1     -11.808  11.825  70.754  1.00  0.00    -0.420 F  
ENDBRANCH   8   9
ENDBRANCH   2   8
TORSDOF 2
ENDMDL
MODEL       21
REMARK 921   NORMALIZED FREE ENERGY PREDICTED BY IDOCK:   -5.68 KCAL/MOL
REMARK 922        TOTAL FREE ENERGY PREDICTED BY IDOCK:   -6.66 KCAL/MOL
REMARK 923 INTER-LIGAND FREE ENERGY PREDICTED BY IDOCK:   -6.47 KCAL/MOL
REMARK 924 INTRA-LIGAND FREE ENERGY PREDICTED BY IDOCK:   -0.19 KCAL/MOL
REMARK 927      BINDING AFFINITY PREDICTED BY RF-SCORE:    0.00 PKD
ROOT
HETATM    1  N   UNL     1      -9.413  14.259  65.786  1.00  0.00    -0.529 NA 
HETATM    2  CA  UNL     1     -10.598  14.588  64.931  1.00  0.00    -0.427 C  
HETATM    3  H2  UNL     1      -9.335  13.250  65.913  1.00  0.00     0.000 HD 
HETATM    4  H1  UNL     1      -8.533  14.645  65.446  1.00  0.00     0.000 HD 
HETATM    5  OXT UNL     1     -11.573  16.712  64.180  1.00  0.00    -1.102 OA 
HETATM    6  C   UNL     1     -10.680  16.115  64.759  1.00  0.00    -0.166 C  
HETATM    7  O   UNL     1      -9.615  16.733  65.332  1.00  0.00    -0.461 OA 
ENDROOT
BRANCH   2   8
HETATM    8  C   UNL     1     -11.928  14.005  65.443  1.00  0.00    -0.386 C  
BRANCH   8   9
HETATM    9  C   UNL     1     -11.868  13.370  66.815  1.00  0.00    -0.452 A  
HETATM   10  C   UNL     1     -11.792  11.974  66.951  1.00  0.00    -0.250 A  
HETATM   11  C   UNL     1     -11.781  11.407  68.221  1.00  0.00    -0.288 A  
HETATM   12  C   UNL     1     -11.837  12.212  69.356  1.00  0.00    -0.309 A  
HETATM   13  O   UNL     1     -11.727  10.053  68.403  1.00  0.00    -0.612 OA 
HETATM   14  H   UNL     1     -11.719   9.666  69.271  1.00  0.00     0.000 HD 
HETATM   15  O   UNL     1     -11.843  11.640  70.595  1.00  0.00    -0.452 OA 
HETATM   16  C   UNL     1     -11.900  13.592  69.246  1.00  0.00    -0.392 A  
HETATM   17  C   UNL     1     -11.915  14.158  67.975  1.00  0.00    -0.337 A  
HETATM   18  H   UNL     1     -11.881  12.189  71.370  1.00  0.00     0.000 HD 
HETATM   19  F   UNL     1     -12.015  15.491  67.861  1.00  0.00    -0.309 F  
ENDBRANCH   8   9
ENDBRANCH   2   8
TORSDOF 2
ENDMDL
MODEL       22
REMARK 921   NORMALIZED FREE ENERGY PREDICTED BY IDOCK:   -5.67 KCAL/MOL
REMARK 922        TOTAL FREE ENERGY PREDICTED BY IDOCK:   -6.65 KCAL/MOL
REMARK 923 INTER-LIGAND FREE ENERGY PREDICTED BY IDOCK:   -6.43 KCAL/MOL
REMARK 924 INTRA-LIGAND FREE ENERGY PREDICTED BY IDOCK:   -0.22 KCAL/MOL
REMARK 927      BINDING AFFINITY PREDICTED BY RF-SCORE:    0.00 PKD
ROOT
HETATM    1  N   UNL     1     -12.473  12.515  65.394  1.00  0.00    -0.647 NA 
HETATM    2  CA  UNL     1     -12.265  13.987  65.582  1.00  0.00    -0.442 C  
HETATM    3  H2  UNL     1     -12.456  12.035  66.293  1.00  0.00     0.000 HD 
HETATM    4  H1  UNL     1     -13.320  12.276  64.878  1.00  0.00     0.000 HD 
HETATM    5  OXT UNL     1     -12.092  15.861  64.006  1.00  0.00    -0.685 OA 
HETATM    6  C   UNL     1     -12.302  14.675  64.207  1.00  0.00    -0.349 C  
HETATM    7  O   UNL     1     -12.612  13.793  63.221  1.00  0.00    -0.830 OA 
ENDROOT
BRANCH   2   8
HETATM    8  C   UNL     1     -10.988  14.349  66.361  1.00  0.00    -0.319 C  
BRANCH   8   9
HETATM    9  C   UNL     1     -11.214  14.889  67.756  1.00  0.00    -0.329 A  
HETATM   10  C   UNL     1     -11.935  14.139  68.701  1.00  0.00    -0.373 A  
HETATM   11  C   UNL     1     -12.170  14.670  69.965  1.00  0.00    -0.333 A  
HETATM   12  C   UNL     1     -11.690  15.934  70.302  1.00  0.00    -0.340 A  
HETATM   13  O   UNL     1     -12.881  13.986  70.912  1.00  0.00    -0.331 OA 
HETATM   14  H   UNL     1     -13.041  14.349  71.775  1.00  0.00     0.000 HD 
HETATM   15  O   UNL     1     -11.943  16.449  71.540  1.00  0.00    -0.640 OA 
HETATM   16  C   UNL     1     -10.967  16.685  69.390  1.00  0.00    -0.235 A  
HETATM   17  C   UNL     1     -10.736  16.155  68.125  1.00  0.00    -0.315 A  
HETATM   18  H   UNL     1     -11.616  17.310  71.770  1.00  0.00     0.000 HD 
HETATM   19  F   UNL     1     -10.071  16.894  67.224  1.00  0.00    -0.258 F  
ENDBRANCH   8   9
ENDBRANCH   2   8
TORSDOF 2
ENDMDL
MODEL       23
REMARK 921   NORMALIZED FREE ENERGY PREDICTED BY IDOCK:   -5.65 KCAL/MOL
REMARK 922        TOTAL FREE ENERGY PREDICTED BY IDOCK:   -6.62 KCAL/MOL
REMARK 923 INTER-LIGAND FREE ENERGY PREDICTED BY IDOCK:   -6.31 KCAL/MOL
REMARK 924 INTRA-LIGAND FREE ENERGY PREDICTED BY IDOCK:   -0.31 KCAL/MOL
REMARK 927      BINDING AFFINITY PREDICTED BY RF-SCORE:    0.00 PKD
ROOT
HETATM    1  N   UNL     1      -9.251   9.235  67.495  1.00  0.00    -0.124 NA 
HETATM    2  CA  UNL     1     -10.458   9.877  68.106  1.00  0.00    -0.215 C  
HETATM    3  H2  UNL     1      -8.870   8.523  68.119  1.00  0.00     0.000 HD 
HETATM    4  H1  UNL     1      -9.410   8.845  66.566  1.00  0.00     0.000 HD 
HETATM    5  OXT UNL     1     -11.936  11.692  67.367  1.00  0.00    -0.621 OA 
HETATM    6  C   UNL     1     -11.003  10.939  67.136  1.00  0.00    -0.272 C  
HETATM    7  O   UNL     1     -10.318  10.933  65.963  1.00  0.00    -0.243 OA 
ENDROOT
BRANCH   2   8
HETATM    8  C   UNL     1     -10.218  10.463  69.509  1.00  0.00    -0.258 C  
BRANCH   8   9
HETATM    9  C   UNL     1     -11.217  10.042  70.564  1.00  0.00    -0.408 A  
HETATM   10  C   UNL     1     -11.131   8.773  71.160  1.00  0.00    -0.340 A  
HETATM   11  C   UNL     1     -12.083   8.387  72.097  1.00  0.00    -0.373 A  
HETATM   12  C   UNL     1     -13.116   9.252  72.453  1.00  0.00    -0.406 A  
HETATM   13  O   UNL     1     -12.051   7.156  72.691  1.00  0.00    -0.506 OA 
HETATM   14  H   UNL     1     -12.702   6.893  73.331  1.00  0.00     0.000 HD 
HETATM   15  O   UNL     1     -14.054   8.853  73.361  1.00  0.00    -1.256 OA 
HETATM   16  C   UNL     1     -13.214  10.513  71.887  1.00  0.00    -0.526 A  
HETATM   17  C   UNL     1     -12.263  10.896  70.947  1.00  0.00    -0.381 A  
HETATM   18  H   UNL     1     -14.758   9.443  73.604  1.00  0.00     0.000 HD 
HETATM   19  F   UNL     1     -12.374  12.100  70.366  1.00  0.00    -0.377 F  
ENDBRANCH   8   9
ENDBRANCH   2   8
TORSDOF 2
ENDMDL
MODEL       24
REMARK 921   NORMALIZED FREE ENERGY PREDICTED BY IDOCK:   -5.64 KCAL/MOL
REMARK 922        TOTAL FREE ENERGY PREDICTED BY IDOCK:   -6.61 KCAL/MOL
REMARK 923 INTER-LIGAND FREE ENERGY PREDICTED BY IDOCK:   -6.76 KCAL/MOL
REMARK 924 INTRA-LIGAND FREE ENERGY PREDICTED BY IDOCK:    0.14 KCAL/MOL
REMARK 927      BINDING AFFINITY PREDICTED BY RF-SCORE:    0.00 PKD
ROOT
HETATM    1  N   UNL     1     -12.423  14.424  63.516  1.00  0.00    -1.090 NA 
HETATM    2  CA  UNL     1     -11.509  14.580  64.693  1.00  0.00    -0.387 C  
HETATM    3  H2  UNL     1     -12.747  13.459  63.441  1.00  0.00     0.000 HD 
HETATM    4  H1  UNL     1     -13.214  15.067  63.514  1.00  0.00     0.000 HD 
HETATM    5  OXT UNL     1     -10.237  16.485  65.574  1.00  0.00    -0.525 OA 
HETATM    6  C   UNL     1     -11.046  16.044  64.773  1.00  0.00    -0.365 C  
HETATM    7  O   UNL     1     -11.663  16.809  63.835  1.00  0.00    -1.076 OA 
ENDROOT
BRANCH   2   8
HETATM    8  C   UNL     1     -10.315  13.609  64.697  1.00  0.00    -0.407 C  
BRANCH   8   9
HETATM    9  C   UNL     1     -10.482  12.384  65.569  1.00  0.00    -0.304 A  
HETATM   10  C   UNL     1     -10.012  11.133  65.138  1.00  0.00    -0.323 A  
HETATM   11  C   UNL     1     -10.212  10.011  65.935  1.00  0.00    -0.205 A  
HETATM   12  C   UNL     1     -10.869  10.120  67.158  1.00  0.00    -0.189 A  
HETATM   13  O   UNL     1      -9.789   8.769  65.549  1.00  0.00    -0.436 OA 
HETATM   14  H   UNL     1      -9.926   8.003  66.094  1.00  0.00     0.000 HD 
HETATM   15  O   UNL     1     -11.074   9.008  67.922  1.00  0.00    -0.506 OA 
HETATM   16  C   UNL     1     -11.330  11.346  67.610  1.00  0.00    -0.359 A  
HETATM   17  C   UNL     1     -11.132  12.467  66.810  1.00  0.00    -0.279 A  
HETATM   18  H   UNL     1     -11.521   9.083  68.757  1.00  0.00     0.000 HD 
HETATM   19  F   UNL     1     -11.611  13.650  67.222  1.00  0.00    -0.307 F  
ENDBRANCH   8   9
ENDBRANCH   2   8
TORSDOF 2
ENDMDL
MODEL       25
REMARK 921   NORMALIZED FREE ENERGY PREDICTED BY IDOCK:   -5.64 KCAL/MOL
REMARK 922        TOTAL FREE ENERGY PREDICTED BY IDOCK:   -6.61 KCAL/MOL
REMARK 923 INTER-LIGAND FREE ENERGY PREDICTED BY IDOCK:   -6.37 KCAL/MOL
REMARK 924 INTRA-LIGAND FREE ENERGY PREDICTED BY IDOCK:   -0.24 KCAL/MOL
REMARK 927      BINDING AFFINITY PREDICTED BY RF-SCORE:    0.00 PKD
ROOT
HETATM    1  N   UNL     1     -10.104  13.958  64.452  1.00  0.00    -0.739 NA 
HETATM    2  CA  UNL     1     -11.167  13.276  65.258  1.00  0.00    -0.295 C  
HETATM    3  H2  UNL     1      -9.313  14.209  65.045  1.00  0.00     0.000 HD 
HETATM    4  H1  UNL     1      -9.788  13.424  63.643  1.00  0.00     0.000 HD 
HETATM    5  OXT UNL     1     -13.394  12.412  64.690  1.00  0.00    -0.778 OA 
HETATM    6  C   UNL     1     -12.339  12.911  64.330  1.00  0.00    -0.398 C  
HETATM    7  O   UNL     1     -12.053  13.204  63.035  1.00  0.00    -0.442 OA 
ENDROOT
BRANCH   2   8
HETATM    8  C   UNL     1     -11.645  14.081  66.480  1.00  0.00    -0.389 C  
BRANCH   8   9
HETATM    9  C   UNL     1     -11.753  13.294  67.768  1.00  0.00    -0.398 A  
HETATM   10  C   UNL     1     -11.636  11.895  67.760  1.00  0.00    -0.393 A  
HETATM   11  C   UNL     1     -11.782  11.185  68.947  1.00  0.00    -0.337 A  
HETATM   12  C   UNL     1     -12.035  11.853  70.143  1.00  0.00    -0.332 A  
HETATM   13  O   UNL     1     -11.694   9.822  68.986  1.00  0.00    -0.455 OA 
HETATM   14  H   UNL     1     -11.793   9.337  69.798  1.00  0.00     0.000 HD 
HETATM   15  O   UNL     1     -12.192  11.142  71.298  1.00  0.00    -0.312 OA 
HETATM   16  C   UNL     1     -12.142  13.234  70.178  1.00  0.00    -0.403 A  
HETATM   17  C   UNL     1     -12.001  13.942  68.988  1.00  0.00    -0.364 A  
HETATM   18  H   UNL     1     -12.365  11.597  72.114  1.00  0.00     0.000 HD 
HETATM   19  F   UNL     1     -12.143  15.275  69.008  1.00  0.00    -0.334 F  
ENDBRANCH   8   9
ENDBRANCH   2   8
TORSDOF 2
ENDMDL
MODEL       26
REMARK 921   NORMALIZED FREE ENERGY PREDICTED BY IDOCK:   -5.62 KCAL/MOL
REMARK 922        TOTAL FREE ENERGY PREDICTED BY IDOCK:   -6.59 KCAL/MOL
REMARK 923 INTER-LIGAND FREE ENERGY PREDICTED BY IDOCK:   -6.39 KCAL/MOL
REMARK 924 INTRA-LIGAND FREE ENERGY PREDICTED BY IDOCK:   -0.20 KCAL/MOL
REMARK 927      BINDING AFFINITY PREDICTED BY RF-SCORE:    0.00 PKD
ROOT
HETATM    1  N   UNL     1     -11.103  16.340  68.246  1.00  0.00    -0.352 NA 
HETATM    2  CA  UNL     1      -9.750  16.587  67.651  1.00  0.00    -0.239 C  
HETATM    3  H2  UNL     1     -11.105  15.472  68.780  1.00  0.00     0.000 HD 
HETATM    4  H1  UNL     1     -11.455  17.110  68.815  1.00  0.00     0.000 HD 
HETATM    5  OXT UNL     1      -8.867  18.353  66.192  1.00  0.00    -0.463 OA 
HETATM    6  C   UNL     1      -9.787  17.905  66.858  1.00  0.00    -0.321 C  
HETATM    7  O   UNL     1     -10.985  18.531  66.997  1.00  0.00    -0.293 OA 
ENDROOT
BRANCH   2   8
HETATM    8  C   UNL     1      -9.217  15.426  66.793  1.00  0.00    -0.273 C  
BRANCH   8   9
HETATM    9  C   UNL     1     -10.277  14.538  66.179  1.00  0.00    -0.317 A  
HETATM   10  C   UNL     1     -10.876  14.885  64.956  1.00  0.00    -0.439 A  
HETATM   11  C   UNL     1     -11.879  14.079  64.429  1.00  0.00    -0.431 A  
HETATM   12  C   UNL     1     -12.289  12.929  65.099  1.00  0.00    -0.493 A  
HETATM   13  O   UNL     1     -12.503  14.385  63.251  1.00  0.00    -1.099 OA 
HETATM   14  H   UNL     1     -13.188  13.834  62.891  1.00  0.00     0.000 HD 
HETATM   15  O   UNL     1     -13.286  12.157  64.579  1.00  0.00    -0.724 OA 
HETATM   16  C   UNL     1     -11.704  12.561  66.300  1.00  0.00    -0.462 A  
HETATM   17  C   UNL     1     -10.704  13.370  66.829  1.00  0.00    -0.277 A  
HETATM   18  H   UNL     1     -13.565  11.372  65.036  1.00  0.00     0.000 HD 
HETATM   19  F   UNL     1     -10.161  13.041  68.011  1.00  0.00    -0.208 F  
ENDBRANCH   8   9
ENDBRANCH   2   8
TORSDOF 2
ENDMDL
MODEL       27
REMARK 921   NORMALIZED FREE ENERGY PREDICTED BY IDOCK:   -5.60 KCAL/MOL
REMARK 922        TOTAL FREE ENERGY PREDICTED BY IDOCK:   -6.57 KCAL/MOL
REMARK 923 INTER-LIGAND FREE ENERGY PREDICTED BY IDOCK:   -6.37 KCAL/MOL
REMARK 924 INTRA-LIGAND FREE ENERGY PREDICTED BY IDOCK:   -0.20 KCAL/MOL
REMARK 927      BINDING AFFINITY PREDICTED BY RF-SCORE:    0.00 PKD
ROOT
HETATM    1  N   UNL     1     -12.033  13.457  70.795  1.00  0.00    -0.517 NA 
HETATM    2  CA  UNL     1     -11.540  12.746  69.572  1.00  0.00    -0.276 C  
HETATM    3  H2  UNL     1     -11.977  12.845  71.610  1.00  0.00     0.000 HD 
HETATM    4  H1  UNL     1     -11.563  14.342  70.982  1.00  0.00     0.000 HD 
HETATM    5  OXT UNL     1     -11.383  13.404  67.212  1.00  0.00    -0.294 OA 
HETATM    6  C   UNL     1     -11.636  13.700  68.369  1.00  0.00    -0.342 C  
HETATM    7  O   UNL     1     -12.036  14.941  68.754  1.00  0.00    -0.303 OA 
ENDROOT
BRANCH   2   8
HETATM    8  C   UNL     1     -12.249  11.409  69.291  1.00  0.00    -0.271 C  
BRANCH   8   9
HETATM    9  C   UNL     1     -12.090  10.356  70.365  1.00  0.00    -0.402 A  
HETATM   10  C   UNL     1     -13.127  10.113  71.282  1.00  0.00    -0.490 A  
HETATM   11  C   UNL     1     -12.946   9.172  72.290  1.00  0.00    -0.420 A  
HETATM   12  C   UNL     1     -11.751   8.465  72.392  1.00  0.00    -0.382 A  
HETATM   13  O   UNL     1     -13.919   8.913  73.215  1.00  0.00    -1.203 OA 
HETATM   14  H   UNL     1     -13.795   8.269  73.903  1.00  0.00     0.000 HD 
HETATM   15  O   UNL     1     -11.581   7.556  73.396  1.00  0.00    -0.621 OA 
HETATM   16  C   UNL     1     -10.719   8.679  71.491  1.00  0.00    -0.352 A  
HETATM   17  C   UNL     1     -10.899   9.625  70.487  1.00  0.00    -0.309 A  
HETATM   18  H   UNL     1     -10.766   7.074  73.465  1.00  0.00     0.000 HD 
HETATM   19  F   UNL     1      -9.891   9.866  69.636  1.00  0.00    -0.187 F  
ENDBRANCH   8   9
ENDBRANCH   2   8
TORSDOF 2
ENDMDL
MODEL       28
REMARK 921   NORMALIZED FREE ENERGY PREDICTED BY IDOCK:   -5.59 KCAL/MOL
REMARK 922        TOTAL FREE ENERGY PREDICTED BY IDOCK:   -6.56 KCAL/MOL
REMARK 923 INTER-LIGAND FREE ENERGY PREDICTED BY IDOCK:   -6.34 KCAL/MOL
REMARK 924 INTRA-LIGAND FREE ENERGY PREDICTED BY IDOCK:   -0.23 KCAL/MOL
REMARK 927      BINDING AFFINITY PREDICTED BY RF-SCORE:    0.00 PKD
ROOT
HETATM    1  N   UNL     1      -9.989  13.963  64.504  1.00  0.00    -0.705 NA 
HETATM    2  CA  UNL     1     -11.194  13.552  65.293  1.00  0.00    -0.292 C  
HETATM    3  H2  UNL     1      -9.323  14.455  65.099  1.00  0.00     0.000 HD 
HETATM    4  H1  UNL     1      -9.529  13.196  64.014  1.00  0.00     0.000 HD 
HETATM    5  OXT UNL     1     -13.280  12.412  64.680  1.00  0.00    -0.822 OA 
HETATM    6  C   UNL     1     -12.170  12.811  64.363  1.00  0.00    -0.428 C  
HETATM    7  O   UNL     1     -11.639  12.640  63.125  1.00  0.00    -0.442 OA 
ENDROOT
BRANCH   2   8
HETATM    8  C   UNL     1     -11.888  14.710  66.034  1.00  0.00    -0.280 C  
BRANCH   8   9
HETATM    9  C   UNL     1     -11.658  14.749  67.528  1.00  0.00    -0.379 A  
HETATM   10  C   UNL     1     -11.922  13.619  68.320  1.00  0.00    -0.385 A  
HETATM   11  C   UNL     1     -11.745  13.688  69.698  1.00  0.00    -0.320 A  
HETATM   12  C   UNL     1     -11.302  14.866  70.296  1.00  0.00    -0.254 A  
HETATM   13  O   UNL     1     -12.005  12.621  70.511  1.00  0.00    -0.495 OA 
HETATM   14  H   UNL     1     -11.884  12.668  71.452  1.00  0.00     0.000 HD 
HETATM   15  O   UNL     1     -11.150  14.924  71.651  1.00  0.00    -0.562 OA 
HETATM   16  C   UNL     1     -11.024  15.989  69.534  1.00  0.00    -0.326 A  
HETATM   17  C   UNL     1     -11.206  15.920  68.156  1.00  0.00    -0.339 A  
HETATM   18  H   UNL     1     -10.848  15.727  72.059  1.00  0.00     0.000 HD 
HETATM   19  F   UNL     1     -10.976  17.015  67.417  1.00  0.00    -0.305 F  
ENDBRANCH   8   9
ENDBRANCH   2   8
TORSDOF 2
ENDMDL
MODEL       29
REMARK 921   NORMALIZED FREE ENERGY PREDICTED BY IDOCK:   -5.59 KCAL/MOL
REMARK 922        TOTAL FREE ENERGY PREDICTED BY IDOCK:   -6.55 KCAL/MOL
REMARK 923 INTER-LIGAND FREE ENERGY PREDICTED BY IDOCK:   -6.34 KCAL/MOL
REMARK 924 INTRA-LIGAND FREE ENERGY PREDICTED BY IDOCK:   -0.21 KCAL/MOL
REMARK 927      BINDING AFFINITY PREDICTED BY RF-SCORE:    0.00 PKD
ROOT
HETATM    1  N   UNL     1     -10.819  14.418  70.090  1.00  0.00    -0.461 NA 
HETATM    2  CA  UNL     1     -10.848  14.526  68.596  1.00  0.00    -0.251 C  
HETATM    3  H2  UNL     1     -10.881  13.442  70.378  1.00  0.00     0.000 HD 
HETATM    4  H1  UNL     1     -10.014  14.868  70.525  1.00  0.00     0.000 HD 
HETATM    5  OXT UNL     1     -10.819  16.442  67.062  1.00  0.00    -0.267 OA 
HETATM    6  C   UNL     1     -10.749  16.010  68.201  1.00  0.00    -0.311 C  
HETATM    7  O   UNL     1     -10.559  16.798  69.291  1.00  0.00    -0.319 OA 
ENDROOT
BRANCH   2   8
HETATM    8  C   UNL     1     -12.062  13.847  67.938  1.00  0.00    -0.318 C  
BRANCH   8   9
HETATM    9  C   UNL     1     -11.798  13.223  66.585  1.00  0.00    -0.447 A  
HETATM   10  C   UNL     1     -12.262  13.843  65.413  1.00  0.00    -0.463 A  
HETATM   11  C   UNL     1     -12.047  13.233  64.181  1.00  0.00    -0.432 A  
HETATM   12  C   UNL     1     -11.371  12.018  64.102  1.00  0.00    -0.382 A  
HETATM   13  O   UNL     1     -12.494  13.789  63.015  1.00  0.00    -1.068 OA 
HETATM   14  H   UNL     1     -12.347  13.372  62.174  1.00  0.00     0.000 HD 
HETATM   15  O   UNL     1     -11.182  11.422  62.889  1.00  0.00    -0.807 OA 
HETATM   16  C   UNL     1     -10.894  11.394  65.244  1.00  0.00    -0.297 A  
HETATM   17  C   UNL     1     -11.114  12.003  66.476  1.00  0.00    -0.314 A  
HETATM   18  H   UNL     1     -10.721  10.593  62.835  1.00  0.00     0.000 HD 
HETATM   19  F   UNL     1     -10.690  11.386  67.588  1.00  0.00    -0.205 F  
ENDBRANCH   8   9
ENDBRANCH   2   8
TORSDOF 2
ENDMDL
MODEL       30
REMARK 921   NORMALIZED FREE ENERGY PREDICTED BY IDOCK:   -5.56 KCAL/MOL
REMARK 922        TOTAL FREE ENERGY PREDICTED BY IDOCK:   -6.53 KCAL/MOL
REMARK 923 INTER-LIGAND FREE ENERGY PREDICTED BY IDOCK:   -6.42 KCAL/MOL
REMARK 924 INTRA-LIGAND FREE ENERGY PREDICTED BY IDOCK:   -0.11 KCAL/MOL
REMARK 927      BINDING AFFINITY PREDICTED BY RF-SCORE:    0.00 PKD
ROOT
HETATM    1  N   UNL     1      -8.718  16.107  68.233  1.00  0.00    -0.176 NA 
HETATM    2  CA  UNL     1      -9.266  14.793  68.699  1.00  0.00    -0.194 C  
HETATM    3  H2  UNL     1      -9.229  16.878  68.661  1.00  0.00     0.000 HD 
HETATM    4  H1  UNL     1      -7.715  16.217  68.381  1.00  0.00     0.000 HD 
HETATM    5  OXT UNL     1      -8.711  12.466  68.148  1.00  0.00    -0.179 OA 
HETATM    6  C   UNL     1      -8.468  13.657  68.035  1.00  0.00    -0.174 C  
HETATM    7  O   UNL     1      -7.434  14.143  67.301  1.00  0.00    -0.167 OA 
ENDROOT
BRANCH   2   8
HETATM    8  C   UNL     1     -10.780  14.625  68.476  1.00  0.00    -0.248 C  
BRANCH   8   9
HETATM    9  C   UNL     1     -11.207  14.479  67.032  1.00  0.00    -0.342 A  
HETATM   10  C   UNL     1     -11.090  15.560  66.142  1.00  0.00    -0.177 A  
HETATM   11  C   UNL     1     -11.528  15.420  64.829  1.00  0.00    -0.336 A  
HETATM   12  C   UNL     1     -12.073  14.216  64.390  1.00  0.00    -0.463 A  
HETATM   13  O   UNL     1     -11.451  16.448  63.932  1.00  0.00    -1.569 OA 
HETATM   14  H   UNL     1     -11.750  16.352  63.035  1.00  0.00     0.000 HD 
HETATM   15  O   UNL     1     -12.514  14.098  63.104  1.00  0.00    -1.126 OA 
HETATM   16  C   UNL     1     -12.187  13.133  65.247  1.00  0.00    -0.502 A  
HETATM   17  C   UNL     1     -11.753  13.276  66.561  1.00  0.00    -0.377 A  
HETATM   18  H   UNL     1     -12.886  13.277  62.804  1.00  0.00     0.000 HD 
HETATM   19  F   UNL     1     -11.896  12.244  67.406  1.00  0.00    -0.387 F  
ENDBRANCH   8   9
ENDBRANCH   2   8
TORSDOF 2
ENDMDL
MODEL       31
REMARK 921   NORMALIZED FREE ENERGY PREDICTED BY IDOCK:   -5.56 KCAL/MOL
REMARK 922        TOTAL FREE ENERGY PREDICTED BY IDOCK:   -6.52 KCAL/MOL
REMARK 923 INTER-LIGAND FREE ENERGY PREDICTED BY IDOCK:   -6.27 KCAL/MOL
REMARK 924 INTRA-LIGAND FREE ENERGY PREDICTED BY IDOCK:   -0.25 KCAL/MOL
REMARK 927      BINDING AFFINITY PREDICTED BY RF-SCORE:    0.00 PKD
ROOT
HETATM    1  N   UNL     1     -11.509  16.270  63.907  1.00  0.00    -1.539 NA 
HETATM    2  CA  UNL     1     -11.068  16.109  65.329  1.00  0.00    -0.181 C  
HETATM    3  H2  UNL     1     -11.832  15.378  63.531  1.00  0.00     0.000 HD 
HETATM    4  H1  UNL     1     -12.216  16.992  63.768  1.00  0.00     0.000 HD 
HETATM    5  OXT UNL     1     -10.102  17.668  66.961  1.00  0.00    -0.305 OA 
HETATM    6  C   UNL     1     -10.593  17.472  65.861  1.00  0.00    -0.203 C  
HETATM    7  O   UNL     1     -10.798  18.457  64.947  1.00  0.00    -0.565 OA 
ENDROOT
BRANCH   2   8
HETATM    8  C   UNL     1     -10.002  15.019  65.540  1.00  0.00    -0.390 C  
BRANCH   8   9
HETATM    9  C   UNL     1     -10.481  13.778  66.260  1.00  0.00    -0.291 A  
HETATM   10  C   UNL     1     -10.736  13.810  67.641  1.00  0.00    -0.256 A  
HETATM   11  C   UNL     1     -11.135  12.649  68.294  1.00  0.00    -0.261 A  
HETATM   12  C   UNL     1     -11.290  11.458  67.588  1.00  0.00    -0.290 A  
HETATM   13  O   UNL     1     -11.378  12.627  69.639  1.00  0.00    -0.439 OA 
HETATM   14  H   UNL     1     -11.650  11.833  70.085  1.00  0.00     0.000 HD 
HETATM   15  O   UNL     1     -11.665  10.322  68.245  1.00  0.00    -0.689 OA 
HETATM   16  C   UNL     1     -11.055  11.405  66.224  1.00  0.00    -0.281 A  
HETATM   17  C   UNL     1     -10.652  12.567  65.572  1.00  0.00    -0.275 A  
HETATM   18  H   UNL     1     -11.770   9.510  67.763  1.00  0.00     0.000 HD 
HETATM   19  F   UNL     1     -10.385  12.514  64.259  1.00  0.00    -0.307 F  
ENDBRANCH   8   9
ENDBRANCH   2   8
TORSDOF 2
ENDMDL
MODEL       32
REMARK 921   NORMALIZED FREE ENERGY PREDICTED BY IDOCK:   -5.56 KCAL/MOL
REMARK 922        TOTAL FREE ENERGY PREDICTED BY IDOCK:   -6.52 KCAL/MOL
REMARK 923 INTER-LIGAND FREE ENERGY PREDICTED BY IDOCK:   -6.44 KCAL/MOL
REMARK 924 INTRA-LIGAND FREE ENERGY PREDICTED BY IDOCK:   -0.08 KCAL/MOL
REMARK 927      BINDING AFFINITY PREDICTED BY RF-SCORE:    0.00 PKD
ROOT
HETATM    1  N   UNL     1     -11.794  16.112  63.857  1.00  0.00    -1.382 NA 
HETATM    2  CA  UNL     1     -11.159  15.014  64.653  1.00  0.00    -0.321 C  
HETATM    3  H2  UNL     1     -11.393  17.015  64.111  1.00  0.00     0.000 HD 
HETATM    4  H1  UNL     1     -11.750  15.975  62.847  1.00  0.00     0.000 HD 
HETATM    5  OXT UNL     1     -11.541  12.591  64.752  1.00  0.00    -0.314 OA 
HETATM    6  C   UNL     1     -11.786  13.671  64.239  1.00  0.00    -0.425 C  
HETATM    7  O   UNL     1     -12.655  13.830  63.207  1.00  0.00    -0.830 OA 
ENDROOT
BRANCH   2   8
HETATM    8  C   UNL     1     -11.224  15.221  66.177  1.00  0.00    -0.225 C  
BRANCH   8   9
HETATM    9  C   UNL     1     -10.405  16.378  66.706  1.00  0.00    -0.293 A  
HETATM   10  C   UNL     1      -9.323  16.883  65.965  1.00  0.00    -0.214 A  
HETATM   11  C   UNL     1      -8.556  17.918  66.487  1.00  0.00    -0.255 A  
HETATM   12  C   UNL     1      -8.856  18.462  67.734  1.00  0.00    -0.278 A  
HETATM   13  O   UNL     1      -7.483  18.431  65.811  1.00  0.00    -0.484 OA 
HETATM   14  H   UNL     1      -6.960  19.138  66.168  1.00  0.00     0.000 HD 
HETATM   15  O   UNL     1      -8.084  19.466  68.242  1.00  0.00    -0.313 OA 
HETATM   16  C   UNL     1      -9.925  17.988  68.477  1.00  0.00    -0.395 A  
HETATM   17  C   UNL     1     -10.689  16.949  67.956  1.00  0.00    -0.364 A  
HETATM   18  H   UNL     1      -8.288  19.838  69.092  1.00  0.00     0.000 HD 
HETATM   19  F   UNL     1     -11.702  16.459  68.687  1.00  0.00    -0.350 F  
ENDBRANCH   8   9
ENDBRANCH   2   8
TORSDOF 2
ENDMDL
MODEL       33
REMARK 921   NORMALIZED FREE ENERGY PREDICTED BY IDOCK:   -5.56 KCAL/MOL
REMARK 922        TOTAL FREE ENERGY PREDICTED BY IDOCK:   -6.52 KCAL/MOL
REMARK 923 INTER-LIGAND FREE ENERGY PREDICTED BY IDOCK:   -6.39 KCAL/MOL
REMARK 924 INTRA-LIGAND FREE ENERGY PREDICTED BY IDOCK:   -0.13 KCAL/MOL
REMARK 927      BINDING AFFINITY PREDICTED BY RF-SCORE:    0.00 PKD
ROOT
HETATM    1  N   UNL     1     -11.814  10.483  68.290  1.00  0.00    -0.785 NA 
HETATM    2  CA  UNL     1     -10.896  11.581  67.848  1.00  0.00    -0.210 C  
HETATM    3  H2  UNL     1     -12.733  10.593  67.861  1.00  0.00     0.000 HD 
HETATM    4  H1  UNL     1     -11.453   9.544  68.124  1.00  0.00     0.000 HD 
HETATM    5  OXT UNL     1      -8.575  12.142  68.416  1.00  0.00    -0.171 OA 
HETATM    6  C   UNL     1      -9.523  11.379  68.512  1.00  0.00    -0.183 C  
HETATM    7  O   UNL     1      -9.483  10.222  69.223  1.00  0.00    -0.198 OA 
ENDROOT
BRANCH   2   8
HETATM    8  C   UNL     1     -11.441  12.998  68.097  1.00  0.00    -0.356 C  
BRANCH   8   9
HETATM    9  C   UNL     1     -11.440  13.912  66.891  1.00  0.00    -0.370 A  
HETATM   10  C   UNL     1     -10.808  15.165  66.948  1.00  0.00    -0.317 A  
HETATM   11  C   UNL     1     -10.855  16.009  65.843  1.00  0.00    -0.207 A  
HETATM   12  C   UNL     1     -11.517  15.617  64.681  1.00  0.00    -0.303 A  
HETATM   13  O   UNL     1     -10.270  17.244  65.856  1.00  0.00    -0.477 OA 
HETATM   14  H   UNL     1     -10.302  17.820  65.101  1.00  0.00     0.000 HD 
HETATM   15  O   UNL     1     -11.569  16.463  63.611  1.00  0.00    -1.514 OA 
HETATM   16  C   UNL     1     -12.137  14.381  64.599  1.00  0.00    -0.485 A  
HETATM   17  C   UNL     1     -12.093  13.540  65.706  1.00  0.00    -0.433 A  
HETATM   18  H   UNL     1     -12.020  16.196  62.819  1.00  0.00     0.000 HD 
HETATM   19  F   UNL     1     -12.725  12.358  65.647  1.00  0.00    -0.386 F  
ENDBRANCH   8   9
ENDBRANCH   2   8
TORSDOF 2
ENDMDL
MODEL       34
REMARK 921   NORMALIZED FREE ENERGY PREDICTED BY IDOCK:   -5.54 KCAL/MOL
REMARK 922        TOTAL FREE ENERGY PREDICTED BY IDOCK:   -6.50 KCAL/MOL
REMARK 923 INTER-LIGAND FREE ENERGY PREDICTED BY IDOCK:   -6.24 KCAL/MOL
REMARK 924 INTRA-LIGAND FREE ENERGY PREDICTED BY IDOCK:   -0.26 KCAL/MOL
REMARK 927      BINDING AFFINITY PREDICTED BY RF-SCORE:    0.00 PKD
ROOT
HETATM    1  N   UNL     1     -13.138  12.228  64.014  1.00  0.00    -0.746 NA 
HETATM    2  CA  UNL     1     -12.454  12.827  65.205  1.00  0.00    -0.501 C  
HETATM    3  H2  UNL     1     -13.357  11.247  64.185  1.00  0.00     0.000 HD 
HETATM    4  H1  UNL     1     -13.972  12.733  63.714  1.00  0.00     0.000 HD 
HETATM    5  OXT UNL     1     -11.525  15.056  65.647  1.00  0.00    -0.331 OA 
HETATM    6  C   UNL     1     -12.144  14.305  64.910  1.00  0.00    -0.435 C  
HETATM    7  O   UNL     1     -12.659  14.688  63.713  1.00  0.00    -0.820 OA 
ENDROOT
BRANCH   2   8
HETATM    8  C   UNL     1     -11.195  12.066  65.659  1.00  0.00    -0.377 C  
BRANCH   8   9
HETATM    9  C   UNL     1     -11.226  11.561  67.084  1.00  0.00    -0.365 A  
HETATM   10  C   UNL     1     -11.627  12.408  68.131  1.00  0.00    -0.395 A  
HETATM   11  C   UNL     1     -11.607  11.939  69.440  1.00  0.00    -0.325 A  
HETATM   12  C   UNL     1     -11.200  10.637  69.720  1.00  0.00    -0.297 A  
HETATM   13  O   UNL     1     -11.971  12.731  70.494  1.00  0.00    -0.493 OA 
HETATM   14  H   UNL     1     -11.958  12.410  71.388  1.00  0.00     0.000 HD 
HETATM   15  O   UNL     1     -11.169  10.196  71.011  1.00  0.00    -0.339 OA 
HETATM   16  C   UNL     1     -10.812   9.780  68.702  1.00  0.00    -0.223 A  
HETATM   17  C   UNL     1     -10.828  10.252  67.393  1.00  0.00    -0.277 A  
HETATM   18  H   UNL     1     -10.892   9.307  71.201  1.00  0.00     0.000 HD 
HETATM   19  F   UNL     1     -10.415   9.440  66.407  1.00  0.00    -0.318 F  
ENDBRANCH   8   9
ENDBRANCH   2   8
TORSDOF 2
ENDMDL
MODEL       35
REMARK 921   NORMALIZED FREE ENERGY PREDICTED BY IDOCK:   -5.53 KCAL/MOL
REMARK 922        TOTAL FREE ENERGY PREDICTED BY IDOCK:   -6.49 KCAL/MOL
REMARK 923 INTER-LIGAND FREE ENERGY PREDICTED BY IDOCK:   -6.47 KCAL/MOL
REMARK 924 INTRA-LIGAND FREE ENERGY PREDICTED BY IDOCK:   -0.03 KCAL/MOL
REMARK 927      BINDING AFFINITY PREDICTED BY RF-SCORE:    0.00 PKD
ROOT
HETATM    1  N   UNL     1      -9.366  14.812  66.079  1.00  0.00    -0.475 NA 
HETATM    2  CA  UNL     1     -10.471  14.828  65.067  1.00  0.00    -0.416 C  
HETATM    3  H2  UNL     1      -9.099  13.853  66.301  1.00  0.00     0.000 HD 
HETATM    4  H1  UNL     1      -8.547  15.357  65.812  1.00  0.00     0.000 HD 
HETATM    5  OXT UNL     1     -11.755  16.645  64.029  1.00  0.00    -1.143 OA 
HETATM    6  C   UNL     1     -10.842  16.288  64.758  1.00  0.00    -0.224 C  
HETATM    7  O   UNL     1     -10.011  17.154  65.395  1.00  0.00    -0.547 OA 
ENDROOT
BRANCH   2   8
HETATM    8  C   UNL     1     -11.707  14.004  65.470  1.00  0.00    -0.353 C  
BRANCH   8   9
HETATM    9  C   UNL     1     -11.564  13.210  66.750  1.00  0.00    -0.414 A  
HETATM   10  C   UNL     1     -11.728  13.835  67.997  1.00  0.00    -0.390 A  
HETATM   11  C   UNL     1     -11.551  13.098  69.163  1.00  0.00    -0.316 A  
HETATM   12  C   UNL     1     -11.219  11.746  69.103  1.00  0.00    -0.264 A  
HETATM   13  O   UNL     1     -11.682  13.665  70.400  1.00  0.00    -0.481 OA 
HETATM   14  H   UNL     1     -11.561  13.162  71.197  1.00  0.00     0.000 HD 
HETATM   15  O   UNL     1     -11.032  11.040  70.255  1.00  0.00    -0.467 OA 
HETATM   16  C   UNL     1     -11.065  11.107  67.883  1.00  0.00    -0.331 A  
HETATM   17  C   UNL     1     -11.238  11.846  66.718  1.00  0.00    -0.327 A  
HETATM   18  H   UNL     1     -10.806  10.118  70.214  1.00  0.00     0.000 HD 
HETATM   19  F   UNL     1     -11.051  11.242  65.534  1.00  0.00    -0.319 F  
ENDBRANCH   8   9
ENDBRANCH   2   8
TORSDOF 2
ENDMDL
MODEL       36
REMARK 921   NORMALIZED FREE ENERGY PREDICTED BY IDOCK:   -5.43 KCAL/MOL
REMARK 922        TOTAL FREE ENERGY PREDICTED BY IDOCK:   -6.38 KCAL/MOL
REMARK 923 INTER-LIGAND FREE ENERGY PREDICTED BY IDOCK:   -6.20 KCAL/MOL
REMARK 924 INTRA-LIGAND FREE ENERGY PREDICTED BY IDOCK:   -0.18 KCAL/MOL
REMARK 927      BINDING AFFINITY PREDICTED BY RF-SCORE:    0.00 PKD
ROOT
HETATM    1  N   UNL     1      -8.915  11.090  69.107  1.00  0.00    -0.377 NA 
HETATM    2  CA  UNL     1     -10.222  11.240  68.390  1.00  0.00    -0.195 C  
HETATM    3  H2  UNL     1      -8.145  11.397  68.512  1.00  0.00     0.000 HD 
HETATM    4  H1  UNL     1      -8.877  11.562  70.010  1.00  0.00     0.000 HD 
HETATM    5  OXT UNL     1     -12.534  10.697  69.010  1.00  0.00    -0.311 OA 
HETATM    6  C   UNL     1     -11.355  10.772  69.319  1.00  0.00    -0.286 C  
HETATM    7  O   UNL     1     -10.884  10.454  70.552  1.00  0.00    -0.276 OA 
ENDROOT
BRANCH   2   8
HETATM    8  C   UNL     1     -10.278  10.529  67.026  1.00  0.00    -0.275 C  
BRANCH   8   9
HETATM    9  C   UNL     1     -10.846  11.353  65.892  1.00  0.00    -0.292 A  
HETATM   10  C   UNL     1     -11.754  12.393  66.152  1.00  0.00    -0.460 A  
HETATM   11  C   UNL     1     -12.299  13.111  65.093  1.00  0.00    -0.473 A  
HETATM   12  C   UNL     1     -11.945  12.813  63.780  1.00  0.00    -0.510 A  
HETATM   13  O   UNL     1     -13.200  14.120  65.296  1.00  0.00    -0.760 OA 
HETATM   14  H   UNL     1     -13.571  14.611  64.572  1.00  0.00     0.000 HD 
HETATM   15  O   UNL     1     -12.500  13.515  62.750  1.00  0.00    -0.829 OA 
HETATM   16  C   UNL     1     -11.042  11.800  63.500  1.00  0.00    -0.503 A  
HETATM   17  C   UNL     1     -10.501  11.079  64.560  1.00  0.00    -0.342 A  
HETATM   18  H   UNL     1     -12.258  13.312  61.854  1.00  0.00     0.000 HD 
HETATM   19  F   UNL     1      -9.657  10.071  64.294  1.00  0.00    -0.309 F  
ENDBRANCH   8   9
ENDBRANCH   2   8
TORSDOF 2
ENDMDL
MODEL       37
REMARK 921   NORMALIZED FREE ENERGY PREDICTED BY IDOCK:   -5.41 KCAL/MOL
REMARK 922        TOTAL FREE ENERGY PREDICTED BY IDOCK:   -6.35 KCAL/MOL
REMARK 923 INTER-LIGAND FREE ENERGY PREDICTED BY IDOCK:   -6.11 KCAL/MOL
REMARK 924 INTRA-LIGAND FREE ENERGY PREDICTED BY IDOCK:   -0.24 KCAL/MOL
REMARK 927      BINDING AFFINITY PREDICTED BY RF-SCORE:    0.00 PKD
ROOT
HETATM    1  N   UNL     1      -9.500  15.595  65.543  1.00  0.00    -0.295 NA 
HETATM    2  CA  UNL     1     -10.554  14.629  65.100  1.00  0.00    -0.421 C  
HETATM    3  H2  UNL     1      -8.760  15.109  66.050  1.00  0.00     0.000 HD 
HETATM    4  H1  UNL     1      -9.105  16.157  64.790  1.00  0.00     0.000 HD 
HETATM    5  OXT UNL     1     -12.683  14.913  63.910  1.00  0.00    -0.789 OA 
HETATM    6  C   UNL     1     -11.647  15.398  64.338  1.00  0.00    -0.264 C  
HETATM    7  O   UNL     1     -11.314  16.706  64.184  1.00  0.00    -1.141 OA 
ENDROOT
BRANCH   2   8
HETATM    8  C   UNL     1     -11.150  13.780  66.237  1.00  0.00    -0.302 C  
BRANCH   8   9
HETATM    9  C   UNL     1     -10.811  12.306  66.188  1.00  0.00    -0.314 A  
HETATM   10  C   UNL     1     -10.293  11.733  65.015  1.00  0.00    -0.325 A  
HETATM   11  C   UNL     1     -10.028  10.369  64.975  1.00  0.00    -0.330 A  
HETATM   12  C   UNL     1     -10.265   9.569  66.091  1.00  0.00    -0.202 A  
HETATM   13  O   UNL     1      -9.540   9.763  63.851  1.00  0.00    -0.404 OA 
HETATM   14  H   UNL     1      -9.359   8.830  63.824  1.00  0.00     0.000 HD 
HETATM   15  O   UNL     1     -10.016   8.228  66.032  1.00  0.00    -0.467 OA 
HETATM   16  C   UNL     1     -10.764  10.114  67.263  1.00  0.00    -0.316 A  
HETATM   17  C   UNL     1     -11.033  11.479  67.300  1.00  0.00    -0.271 A  
HETATM   18  H   UNL     1     -10.178   7.683  66.793  1.00  0.00     0.000 HD 
HETATM   19  F   UNL     1     -11.554  12.007  68.418  1.00  0.00    -0.268 F  
ENDBRANCH   8   9
ENDBRANCH   2   8
TORSDOF 2
ENDMDL
MODEL       38
REMARK 921   NORMALIZED FREE ENERGY PREDICTED BY IDOCK:   -5.39 KCAL/MOL
REMARK 922        TOTAL FREE ENERGY PREDICTED BY IDOCK:   -6.33 KCAL/MOL
REMARK 923 INTER-LIGAND FREE ENERGY PREDICTED BY IDOCK:   -6.12 KCAL/MOL
REMARK 924 INTRA-LIGAND FREE ENERGY PREDICTED BY IDOCK:   -0.21 KCAL/MOL
REMARK 927      BINDING AFFINITY PREDICTED BY RF-SCORE:    0.00 PKD
ROOT
HETATM    1  N   UNL     1     -13.270  14.089  65.105  1.00  0.00    -0.680 NA 
HETATM    2  CA  UNL     1     -11.865  13.974  64.597  1.00  0.00    -0.417 C  
HETATM    3  H2  UNL     1     -13.383  14.943  65.651  1.00  0.00     0.000 HD 
HETATM    4  H1  UNL     1     -13.983  14.034  64.378  1.00  0.00     0.000 HD 
HETATM    5  OXT UNL     1     -10.702  12.254  63.287  1.00  0.00    -0.427 OA 
HETATM    6  C   UNL     1     -11.737  12.679  63.777  1.00  0.00    -0.491 C  
HETATM    7  O   UNL     1     -12.936  12.054  63.649  1.00  0.00    -0.747 OA 
ENDROOT
BRANCH   2   8
HETATM    8  C   UNL     1     -10.789  14.057  65.694  1.00  0.00    -0.295 C  
BRANCH   8   9
HETATM    9  C   UNL     1     -11.276  13.777  67.099  1.00  0.00    -0.327 A  
HETATM   10  C   UNL     1     -11.685  14.830  67.934  1.00  0.00    -0.367 A  
HETATM   11  C   UNL     1     -12.089  14.557  69.236  1.00  0.00    -0.290 A  
HETATM   12  C   UNL     1     -12.098  13.249  69.715  1.00  0.00    -0.290 A  
HETATM   13  O   UNL     1     -12.479  15.550  70.092  1.00  0.00    -0.461 OA 
HETATM   14  H   UNL     1     -12.755  15.363  70.981  1.00  0.00     0.000 HD 
HETATM   15  O   UNL     1     -12.481  12.998  71.001  1.00  0.00    -0.368 OA 
HETATM   16  C   UNL     1     -11.711  12.194  68.905  1.00  0.00    -0.381 A  
HETATM   17  C   UNL     1     -11.302  12.468  67.604  1.00  0.00    -0.306 A  
HETATM   18  H   UNL     1     -12.487  12.106  71.327  1.00  0.00     0.000 HD 
HETATM   19  F   UNL     1     -10.889  11.456  66.827  1.00  0.00    -0.271 F  
ENDBRANCH   8   9
ENDBRANCH   2   8
TORSDOF 2
ENDMDL
MODEL       39
REMARK 921   NORMALIZED FREE ENERGY PREDICTED BY IDOCK:   -5.38 KCAL/MOL
REMARK 922        TOTAL FREE ENERGY PREDICTED BY IDOCK:   -6.32 KCAL/MOL
REMARK 923 INTER-LIGAND FREE ENERGY PREDICTED BY IDOCK:   -6.01 KCAL/MOL
REMARK 924 INTRA-LIGAND FREE ENERGY PREDICTED BY IDOCK:   -0.31 KCAL/MOL
REMARK 927      BINDING AFFINITY PREDICTED BY RF-SCORE:    0.00 PKD
ROOT
HETATM    1  N   UNL     1     -10.000  16.309  67.928  1.00  0.00    -0.238 NA 
HETATM    2  CA  UNL     1     -10.316  15.858  66.535  1.00  0.00    -0.300 C  
HETATM    3  H2  UNL     1      -9.778  15.509  68.520  1.00  0.00     0.000 HD 
HETATM    4  H1  UNL     1      -9.260  17.009  67.982  1.00  0.00     0.000 HD 
HETATM    5  OXT UNL     1     -11.011  17.060  64.510  1.00  0.00    -1.031 OA 
HETATM    6  C   UNL     1     -10.641  17.090  65.673  1.00  0.00    -0.197 C  
HETATM    7  O   UNL     1     -10.454  18.242  66.369  1.00  0.00    -0.384 OA 
ENDROOT
BRANCH   2   8
HETATM    8  C   UNL     1     -11.432  14.801  66.452  1.00  0.00    -0.319 C  
BRANCH   8   9
HETATM    9  C   UNL     1     -11.170  13.660  65.494  1.00  0.00    -0.301 A  
HETATM   10  C   UNL     1     -10.244  12.655  65.819  1.00  0.00    -0.288 A  
HETATM   11  C   UNL     1      -9.985  11.637  64.907  1.00  0.00    -0.255 A  
HETATM   12  C   UNL     1     -10.642  11.604  63.679  1.00  0.00    -0.433 A  
HETATM   13  O   UNL     1      -9.080  10.647  65.171  1.00  0.00    -0.185 OA 
HETATM   14  H   UNL     1      -8.903   9.952  64.548  1.00  0.00     0.000 HD 
HETATM   15  O   UNL     1     -10.365  10.609  62.787  1.00  0.00    -0.738 OA 
HETATM   16  C   UNL     1     -11.568  12.577  63.342  1.00  0.00    -0.547 A  
HETATM   17  C   UNL     1     -11.823  13.597  64.253  1.00  0.00    -0.425 A  
HETATM   18  H   UNL     1     -10.813  10.586  61.949  1.00  0.00     0.000 HD 
HETATM   19  F   UNL     1     -12.689  14.565  63.917  1.00  0.00    -0.373 F  
ENDBRANCH   8   9
ENDBRANCH   2   8
TORSDOF 2
ENDMDL
MODEL       40
REMARK 921   NORMALIZED FREE ENERGY PREDICTED BY IDOCK:   -5.37 KCAL/MOL
REMARK 922        TOTAL FREE ENERGY PREDICTED BY IDOCK:   -6.31 KCAL/MOL
REMARK 923 INTER-LIGAND FREE ENERGY PREDICTED BY IDOCK:   -6.03 KCAL/MOL
REMARK 924 INTRA-LIGAND FREE ENERGY PREDICTED BY IDOCK:   -0.28 KCAL/MOL
REMARK 927      BINDING AFFINITY PREDICTED BY RF-SCORE:    0.00 PKD
ROOT
HETATM    1  N   UNL     1      -9.560  13.878  67.363  1.00  0.00    -0.229 NA 
HETATM    2  CA  UNL     1     -10.664  13.389  68.249  1.00  0.00    -0.258 C  
HETATM    3  H2  UNL     1      -9.183  14.758  67.716  1.00  0.00     0.000 HD 
HETATM    4  H1  UNL     1      -8.811  13.202  67.218  1.00  0.00     0.000 HD 
HETATM    5  OXT UNL     1     -12.155  11.441  68.136  1.00  0.00    -0.623 OA 
HETATM    6  C   UNL     1     -11.203  12.062  67.688  1.00  0.00    -0.282 C  
HETATM    7  O   UNL     1     -10.474  11.646  66.620  1.00  0.00    -0.218 OA 
ENDROOT
BRANCH   2   8
HETATM    8  C   UNL     1     -11.796  14.410  68.469  1.00  0.00    -0.369 C  
BRANCH   8   9
HETATM    9  C   UNL     1     -12.129  14.702  69.916  1.00  0.00    -0.385 A  
HETATM   10  C   UNL     1     -13.012  13.871  70.625  1.00  0.00    -0.219 A  
HETATM   11  C   UNL     1     -13.340  14.180  71.941  1.00  0.00    -0.393 A  
HETATM   12  C   UNL     1     -12.794  15.301  72.561  1.00  0.00    -0.374 A  
HETATM   13  O   UNL     1     -14.208  13.411  72.666  1.00  0.00    -0.747 OA 
HETATM   14  H   UNL     1     -14.431  13.623  73.564  1.00  0.00     0.000 HD 
HETATM   15  O   UNL     1     -13.138  15.602  73.847  1.00  0.00    -0.667 OA 
HETATM   16  C   UNL     1     -11.912  16.128  71.885  1.00  0.00    -0.583 A  
HETATM   17  C   UNL     1     -11.588  15.820  70.568  1.00  0.00    -0.375 A  
HETATM   18  H   UNL     1     -12.766  16.366  74.270  1.00  0.00     0.000 HD 
HETATM   19  F   UNL     1     -10.765  16.639  69.894  1.00  0.00    -0.306 F  
ENDBRANCH   8   9
ENDBRANCH   2   8
TORSDOF 2
ENDMDL
MODEL       41
REMARK 921   NORMALIZED FREE ENERGY PREDICTED BY IDOCK:   -5.36 KCAL/MOL
REMARK 922        TOTAL FREE ENERGY PREDICTED BY IDOCK:   -6.30 KCAL/MOL
REMARK 923 INTER-LIGAND FREE ENERGY PREDICTED BY IDOCK:   -6.06 KCAL/MOL
REMARK 924 INTRA-LIGAND FREE ENERGY PREDICTED BY IDOCK:   -0.24 KCAL/MOL
REMARK 927      BINDING AFFINITY PREDICTED BY RF-SCORE:    0.00 PKD
ROOT
HETATM    1  N   UNL     1     -10.945   9.258  71.091  1.00  0.00    -0.309 NA 
HETATM    2  CA  UNL     1     -12.192   9.822  71.700  1.00  0.00    -0.404 C  
HETATM    3  H2  UNL     1     -10.344  10.008  70.750  1.00  0.00     0.000 HD 
HETATM    4  H1  UNL     1     -10.423   8.636  71.708  1.00  0.00     0.000 HD 
HETATM    5  OXT UNL     1     -14.184   8.781  72.686  1.00  0.00    -0.527 OA 
HETATM    6  C   UNL     1     -13.068   8.663  72.205  1.00  0.00    -0.383 C  
HETATM    7  O   UNL     1     -12.438   7.469  72.059  1.00  0.00    -0.299 OA 
ENDROOT
BRANCH   2   8
HETATM    8  C   UNL     1     -12.979  10.762  70.770  1.00  0.00    -0.348 C  
BRANCH   8   9
HETATM    9  C   UNL     1     -12.761  12.240  71.010  1.00  0.00    -0.319 A  
HETATM   10  C   UNL     1     -13.365  12.880  72.104  1.00  0.00    -0.615 A  
HETATM   11  C   UNL     1     -13.187  14.248  72.284  1.00  0.00    -0.417 A  
HETATM   12  C   UNL     1     -12.410  14.984  71.393  1.00  0.00    -0.332 A  
HETATM   13  O   UNL     1     -13.769  14.918  73.324  1.00  0.00    -0.558 OA 
HETATM   14  H   UNL     1     -13.647  15.853  73.447  1.00  0.00     0.000 HD 
HETATM   15  O   UNL     1     -12.259  16.328  71.572  1.00  0.00    -0.607 OA 
HETATM   16  C   UNL     1     -11.795  14.371  70.313  1.00  0.00    -0.382 A  
HETATM   17  C   UNL     1     -11.977  13.004  70.131  1.00  0.00    -0.303 A  
HETATM   18  H   UNL     1     -11.729  16.830  70.964  1.00  0.00     0.000 HD 
HETATM   19  F   UNL     1     -11.417  12.412  69.066  1.00  0.00    -0.260 F  
ENDBRANCH   8   9
ENDBRANCH   2   8
TORSDOF 2
ENDMDL
MODEL       42
REMARK 921   NORMALIZED FREE ENERGY PREDICTED BY IDOCK:   -5.36 KCAL/MOL
REMARK 922        TOTAL FREE ENERGY PREDICTED BY IDOCK:   -6.30 KCAL/MOL
REMARK 923 INTER-LIGAND FREE ENERGY PREDICTED BY IDOCK:   -6.16 KCAL/MOL
REMARK 924 INTRA-LIGAND FREE ENERGY PREDICTED BY IDOCK:   -0.14 KCAL/MOL
REMARK 927      BINDING AFFINITY PREDICTED BY RF-SCORE:    0.00 PKD
ROOT
HETATM    1  N   UNL     1     -12.053  10.966  68.522  1.00  0.00    -0.812 NA 
HETATM    2  CA  UNL     1     -11.422  12.320  68.634  1.00  0.00    -0.307 C  
HETATM    3  H2  UNL     1     -11.719  10.484  67.687  1.00  0.00     0.000 HD 
HETATM    4  H1  UNL     1     -11.928  10.378  69.346  1.00  0.00     0.000 HD 
HETATM    5  OXT UNL     1     -11.686  14.154  70.244  1.00  0.00    -0.280 OA 
HETATM    6  C   UNL     1     -11.947  13.011  69.904  1.00  0.00    -0.311 C  
HETATM    7  O   UNL     1     -12.745  12.180  70.624  1.00  0.00    -0.193 OA 
ENDROOT
BRANCH   2   8
HETATM    8  C   UNL     1     -11.610  13.207  67.390  1.00  0.00    -0.403 C  
BRANCH   8   9
HETATM    9  C   UNL     1     -11.258  12.553  66.072  1.00  0.00    -0.354 A  
HETATM   10  C   UNL     1     -12.241  12.361  65.087  1.00  0.00    -0.449 A  
HETATM   11  C   UNL     1     -11.908  11.719  63.899  1.00  0.00    -0.349 A  
HETATM   12  C   UNL     1     -10.608  11.273  63.676  1.00  0.00    -0.388 A  
HETATM   13  O   UNL     1     -12.834  11.493  62.919  1.00  0.00    -0.901 OA 
HETATM   14  H   UNL     1     -12.607  11.055  62.108  1.00  0.00     0.000 HD 
HETATM   15  O   UNL     1     -10.299  10.629  62.513  1.00  0.00    -0.751 OA 
HETATM   16  C   UNL     1      -9.619  11.463  64.628  1.00  0.00    -0.228 A  
HETATM   17  C   UNL     1      -9.954  12.101  65.818  1.00  0.00    -0.249 A  
HETATM   18  H   UNL     1      -9.412  10.325  62.361  1.00  0.00     0.000 HD 
HETATM   19  F   UNL     1      -9.011  12.253  66.760  1.00  0.00    -0.189 F  
ENDBRANCH   8   9
ENDBRANCH   2   8
TORSDOF 2
ENDMDL
MODEL       43
REMARK 921   NORMALIZED FREE ENERGY PREDICTED BY IDOCK:   -5.34 KCAL/MOL
REMARK 922        TOTAL FREE ENERGY PREDICTED BY IDOCK:   -6.27 KCAL/MOL
REMARK 923 INTER-LIGAND FREE ENERGY PREDICTED BY IDOCK:   -5.96 KCAL/MOL
REMARK 924 INTRA-LIGAND FREE ENERGY PREDICTED BY IDOCK:   -0.32 KCAL/MOL
REMARK 927      BINDING AFFINITY PREDICTED BY RF-SCORE:    0.00 PKD
ROOT
HETATM    1  N   UNL     1     -11.378   9.679  68.985  1.00  0.00    -0.460 NA 
HETATM    2  CA  UNL     1     -10.953   9.730  67.550  1.00  0.00    -0.138 C  
HETATM    3  H2  UNL     1     -11.919  10.509  69.227  1.00  0.00     0.000 HD 
HETATM    4  H1  UNL     1     -11.889   8.834  69.240  1.00  0.00     0.000 HD 
HETATM    5  OXT UNL     1      -9.593   8.233  66.159  1.00  0.00    -0.209 OA 
HETATM    6  C   UNL     1     -10.145   8.463  67.224  1.00  0.00    -0.253 C  
HETATM    7  O   UNL     1     -10.125   7.605  68.277  1.00  0.00    -0.174 OA 
ENDROOT
BRANCH   2   8
HETATM    8  C   UNL     1     -10.182  11.006  67.165  1.00  0.00    -0.243 C  
BRANCH   8   9
HETATM    9  C   UNL     1     -10.804  11.826  66.057  1.00  0.00    -0.343 A  
HETATM   10  C   UNL     1     -11.902  12.662  66.319  1.00  0.00    -0.471 A  
HETATM   11  C   UNL     1     -12.488  13.375  65.279  1.00  0.00    -0.483 A  
HETATM   12  C   UNL     1     -11.989  13.272  63.982  1.00  0.00    -0.465 A  
HETATM   13  O   UNL     1     -13.569  14.187  65.482  1.00  0.00    -0.685 OA 
HETATM   14  H   UNL     1     -13.968  14.675  64.771  1.00  0.00     0.000 HD 
HETATM   15  O   UNL     1     -12.584  13.965  62.968  1.00  0.00    -1.030 OA 
HETATM   16  C   UNL     1     -10.900  12.464  63.702  1.00  0.00    -0.509 A  
HETATM   17  C   UNL     1     -10.318  11.747  64.743  1.00  0.00    -0.288 A  
HETATM   18  H   UNL     1     -12.244  13.895  62.084  1.00  0.00     0.000 HD 
HETATM   19  F   UNL     1      -9.287  10.932  64.472  1.00  0.00    -0.205 F  
ENDBRANCH   8   9
ENDBRANCH   2   8
TORSDOF 2
ENDMDL
MODEL       44
REMARK 921   NORMALIZED FREE ENERGY PREDICTED BY IDOCK:   -5.28 KCAL/MOL
REMARK 922        TOTAL FREE ENERGY PREDICTED BY IDOCK:   -6.21 KCAL/MOL
REMARK 923 INTER-LIGAND FREE ENERGY PREDICTED BY IDOCK:   -5.95 KCAL/MOL
REMARK 924 INTRA-LIGAND FREE ENERGY PREDICTED BY IDOCK:   -0.26 KCAL/MOL
REMARK 927      BINDING AFFINITY PREDICTED BY RF-SCORE:    0.00 PKD
ROOT
HETATM    1  N   UNL     1     -11.823  12.140  66.469  1.00  0.00    -0.615 NA 
HETATM    2  CA  UNL     1     -11.851  13.187  67.540  1.00  0.00    -0.360 C  
HETATM    3  H2  UNL     1     -12.144  11.245  66.837  1.00  0.00     0.000 HD 
HETATM    4  H1  UNL     1     -12.345  12.388  65.629  1.00  0.00     0.000 HD 
HETATM    5  OXT UNL     1     -11.199  15.554  67.576  1.00  0.00    -0.322 OA 
HETATM    6  C   UNL     1     -11.365  14.521  66.947  1.00  0.00    -0.348 C  
HETATM    7  O   UNL     1     -11.146  14.415  65.610  1.00  0.00    -0.306 OA 
ENDROOT
BRANCH   2   8
HETATM    8  C   UNL     1     -11.063  12.813  68.809  1.00  0.00    -0.303 C  
BRANCH   8   9
HETATM    9  C   UNL     1     -11.846  12.045  69.851  1.00  0.00    -0.405 A  
HETATM   10  C   UNL     1     -12.524  12.724  70.876  1.00  0.00    -0.373 A  
HETATM   11  C   UNL     1     -13.202  11.999  71.850  1.00  0.00    -0.364 A  
HETATM   12  C   UNL     1     -13.220  10.607  71.812  1.00  0.00    -0.421 A  
HETATM   13  O   UNL     1     -13.861  12.615  72.878  1.00  0.00    -0.628 OA 
HETATM   14  H   UNL     1     -14.325  12.119  73.542  1.00  0.00     0.000 HD 
HETATM   15  O   UNL     1     -13.875   9.908  72.783  1.00  0.00    -0.624 OA 
HETATM   16  C   UNL     1     -12.569   9.916  70.803  1.00  0.00    -0.324 A  
HETATM   17  C   UNL     1     -11.887  10.642  69.832  1.00  0.00    -0.315 A  
HETATM   18  H   UNL     1     -13.888   8.958  72.757  1.00  0.00     0.000 HD 
HETATM   19  F   UNL     1     -11.221   9.979  68.874  1.00  0.00    -0.250 F  
ENDBRANCH   8   9
ENDBRANCH   2   8
TORSDOF 2
ENDMDL
MODEL       45
REMARK 921   NORMALIZED FREE ENERGY PREDICTED BY IDOCK:   -5.25 KCAL/MOL
REMARK 922        TOTAL FREE ENERGY PREDICTED BY IDOCK:   -6.18 KCAL/MOL
REMARK 923 INTER-LIGAND FREE ENERGY PREDICTED BY IDOCK:   -5.97 KCAL/MOL
REMARK 924 INTRA-LIGAND FREE ENERGY PREDICTED BY IDOCK:   -0.21 KCAL/MOL
REMARK 927      BINDING AFFINITY PREDICTED BY RF-SCORE:    0.00 PKD
ROOT
HETATM    1  N   UNL     1      -9.588  10.996  66.001  1.00  0.00    -0.206 NA 
HETATM    2  CA  UNL     1     -10.295  11.186  67.308  1.00  0.00    -0.208 C  
HETATM    3  H2  UNL     1      -9.421  11.896  65.551  1.00  0.00     0.000 HD 
HETATM    4  H1  UNL     1      -8.720  10.465  66.069  1.00  0.00     0.000 HD 
HETATM    5  OXT UNL     1     -11.142   9.611  68.990  1.00  0.00    -0.177 OA 
HETATM    6  C   UNL     1     -10.526   9.810  67.955  1.00  0.00    -0.239 C  
HETATM    7  O   UNL     1      -9.942   8.820  67.230  1.00  0.00    -0.183 OA 
ENDROOT
BRANCH   2   8
HETATM    8  C   UNL     1     -11.605  11.988  67.205  1.00  0.00    -0.383 C  
BRANCH   8   9
HETATM    9  C   UNL     1     -11.564  13.174  66.266  1.00  0.00    -0.399 A  
HETATM   10  C   UNL     1     -10.866  14.340  66.621  1.00  0.00    -0.301 A  
HETATM   11  C   UNL     1     -10.875  15.435  65.764  1.00  0.00    -0.343 A  
HETATM   12  C   UNL     1     -11.564  15.381  64.555  1.00  0.00    -0.296 A  
HETATM   13  O   UNL     1     -10.225  16.597  66.074  1.00  0.00    -0.328 OA 
HETATM   14  H   UNL     1     -10.232  17.345  65.488  1.00  0.00     0.000 HD 
HETATM   15  O   UNL     1     -11.579  16.468  63.731  1.00  0.00    -1.617 OA 
HETATM   16  C   UNL     1     -12.250  14.237  64.178  1.00  0.00    -0.410 A  
HETATM   17  C   UNL     1     -12.243  13.144  65.039  1.00  0.00    -0.440 A  
HETATM   18  H   UNL     1     -12.049  16.432  62.906  1.00  0.00     0.000 HD 
HETATM   19  F   UNL     1     -12.937  12.047  64.699  1.00  0.00    -0.436 F  
ENDBRANCH   8   9
ENDBRANCH   2   8
TORSDOF 2
ENDMDL
MODEL       46
REMARK 921   NORMALIZED FREE ENERGY PREDICTED BY IDOCK:   -5.19 KCAL/MOL
REMARK 922        TOTAL FREE ENERGY PREDICTED BY IDOCK:   -6.11 KCAL/MOL
REMARK 923 INTER-LIGAND FREE ENERGY PREDICTED BY IDOCK:   -6.14 KCAL/MOL
REMARK 924 INTRA-LIGAND FREE ENERGY PREDICTED BY IDOCK:    0.03 KCAL/MOL
REMARK 927      BINDING AFFINITY PREDICTED BY RF-SCORE:    0.00 PKD
ROOT
HETATM    1  N   UNL     1      -8.325  11.205  69.085  1.00  0.00    -0.366 NA 
HETATM    2  CA  UNL     1      -9.474  11.594  68.207  1.00  0.00    -0.191 C  
HETATM    3  H2  UNL     1      -7.475  11.689  68.796  1.00  0.00     0.000 HD 
HETATM    4  H1  UNL     1      -8.494  11.346  70.081  1.00  0.00     0.000 HD 
HETATM    5  OXT UNL     1     -11.824  10.887  68.125  1.00  0.00    -0.564 OA 
HETATM    6  C   UNL     1     -10.735  10.847  68.676  1.00  0.00    -0.203 C  
HETATM    7  O   UNL     1     -10.493  10.131  69.805  1.00  0.00    -0.232 OA 
ENDROOT
BRANCH   2   8
HETATM    8  C   UNL     1      -9.219  11.382  66.704  1.00  0.00    -0.191 C  
BRANCH   8   9
HETATM    9  C   UNL     1     -10.163  12.119  65.779  1.00  0.00    -0.282 A  
HETATM   10  C   UNL     1     -10.938  11.413  64.843  1.00  0.00    -0.284 A  
HETATM   11  C   UNL     1     -11.768  12.111  63.972  1.00  0.00    -0.430 A  
HETATM   12  C   UNL     1     -11.841  13.501  64.026  1.00  0.00    -0.427 A  
HETATM   13  O   UNL     1     -12.527  11.471  63.033  1.00  0.00    -0.982 OA 
HETATM   14  H   UNL     1     -13.094  11.948  62.438  1.00  0.00     0.000 HD 
HETATM   15  O   UNL     1     -12.647  14.174  63.154  1.00  0.00    -1.058 OA 
HETATM   16  C   UNL     1     -11.096  14.217  64.949  1.00  0.00    -0.389 A  
HETATM   17  C   UNL     1     -10.263  13.518  65.817  1.00  0.00    -0.297 A  
HETATM   18  H   UNL     1     -12.698  15.122  63.191  1.00  0.00     0.000 HD 
HETATM   19  F   UNL     1      -9.508  14.207  66.686  1.00  0.00    -0.245 F  
ENDBRANCH   8   9
ENDBRANCH   2   8
TORSDOF 2
ENDMDL
MODEL       47
REMARK 921   NORMALIZED FREE ENERGY PREDICTED BY IDOCK:   -5.19 KCAL/MOL
REMARK 922        TOTAL FREE ENERGY PREDICTED BY IDOCK:   -6.11 KCAL/MOL
REMARK 923 INTER-LIGAND FREE ENERGY PREDICTED BY IDOCK:   -5.83 KCAL/MOL
REMARK 924 INTRA-LIGAND FREE ENERGY PREDICTED BY IDOCK:   -0.28 KCAL/MOL
REMARK 927      BINDING AFFINITY PREDICTED BY RF-SCORE:    0.00 PKD
ROOT
HETATM    1  N   UNL     1     -14.204   8.984  72.834  1.00  0.00    -1.127 NA 
HETATM    2  CA  UNL     1     -13.349   8.910  71.605  1.00  0.00    -0.365 C  
HETATM    3  H2  UNL     1     -14.455   9.951  73.035  1.00  0.00     0.000 HD 
HETATM    4  H1  UNL     1     -15.038   8.399  72.797  1.00  0.00     0.000 HD 
HETATM    5  OXT UNL     1     -12.250   7.044  70.449  1.00  0.00    -0.239 OA 
HETATM    6  C   UNL     1     -12.995   7.438  71.333  1.00  0.00    -0.356 C  
HETATM    7  O   UNL     1     -13.628   6.608  72.203  1.00  0.00    -0.088 OA 
ENDROOT
BRANCH   2   8
HETATM    8  C   UNL     1     -12.090   9.793  71.659  1.00  0.00    -0.475 C  
BRANCH   8   9
HETATM    9  C   UNL     1     -12.140  11.041  70.805  1.00  0.00    -0.467 A  
HETATM   10  C   UNL     1     -11.601  11.036  69.507  1.00  0.00    -0.384 A  
HETATM   11  C   UNL     1     -11.618  12.205  68.752  1.00  0.00    -0.327 A  
HETATM   12  C   UNL     1     -12.169  13.374  69.270  1.00  0.00    -0.176 A  
HETATM   13  O   UNL     1     -11.090  12.254  67.492  1.00  0.00    -0.247 OA 
HETATM   14  H   UNL     1     -11.102  13.052  66.976  1.00  0.00     0.000 HD 
HETATM   15  O   UNL     1     -12.163  14.517  68.525  1.00  0.00    -0.571 OA 
HETATM   16  C   UNL     1     -12.717  13.398  70.543  1.00  0.00    -0.194 A  
HETATM   17  C   UNL     1     -12.696  12.230  71.299  1.00  0.00    -0.251 A  
HETATM   18  H   UNL     1     -12.539  15.315  68.878  1.00  0.00     0.000 HD 
HETATM   19  F   UNL     1     -13.188  12.257  72.546  1.00  0.00    -0.561 F  
ENDBRANCH   8   9
ENDBRANCH   2   8
TORSDOF 2
ENDMDL
MODEL       48
REMARK 921   NORMALIZED FREE ENERGY PREDICTED BY IDOCK:   -5.18 KCAL/MOL
REMARK 922        TOTAL FREE ENERGY PREDICTED BY IDOCK:   -6.10 KCAL/MOL
REMARK 923 INTER-LIGAND FREE ENERGY PREDICTED BY IDOCK:   -5.83 KCAL/MOL
REMARK 924 INTRA-LIGAND FREE ENERGY PREDICTED BY IDOCK:   -0.27 KCAL/MOL
REMARK 927      BINDING AFFINITY PREDICTED BY RF-SCORE:    0.00 PKD
ROOT
HETATM    1  N   UNL     1      -9.056   8.958  67.245  1.00  0.00    -0.133 NA 
HETATM    2  CA  UNL     1     -10.260   9.528  67.930  1.00  0.00    -0.205 C  
HETATM    3  H2  UNL     1      -8.639   8.220  67.812  1.00  0.00     0.000 HD 
HETATM    4  H1  UNL     1      -9.234   8.623  66.299  1.00  0.00     0.000 HD 
HETATM    5  OXT UNL     1     -11.806  11.344  67.348  1.00  0.00    -0.609 OA 
HETATM    6  C   UNL     1     -10.862  10.632  67.044  1.00  0.00    -0.238 C  
HETATM    7  O   UNL     1     -10.213  10.718  65.854  1.00  0.00    -0.248 OA 
ENDROOT
BRANCH   2   8
HETATM    8  C   UNL     1      -9.992  10.034  69.359  1.00  0.00    -0.239 C  
BRANCH   8   9
HETATM    9  C   UNL     1     -11.077   9.724  70.367  1.00  0.00    -0.367 A  
HETATM   10  C   UNL     1     -11.920  10.743  70.841  1.00  0.00    -0.438 A  
HETATM   11  C   UNL     1     -12.884  10.448  71.800  1.00  0.00    -0.456 A  
HETATM   12  C   UNL     1     -13.023   9.150  72.287  1.00  0.00    -0.420 A  
HETATM   13  O   UNL     1     -13.716  11.409  72.304  1.00  0.00    -0.444 OA 
HETATM   14  H   UNL     1     -14.374  11.207  72.959  1.00  0.00     0.000 HD 
HETATM   15  O   UNL     1     -13.961   8.879  73.240  1.00  0.00    -1.203 OA 
HETATM   16  C   UNL     1     -12.210   8.127  71.825  1.00  0.00    -0.358 A  
HETATM   17  C   UNL     1     -11.244   8.425  70.870  1.00  0.00    -0.262 A  
HETATM   18  H   UNL     1     -14.056   7.994  73.572  1.00  0.00     0.000 HD 
HETATM   19  F   UNL     1     -10.428   7.448  70.447  1.00  0.00    -0.208 F  
ENDBRANCH   8   9
ENDBRANCH   2   8
TORSDOF 2
ENDMDL
MODEL       49
REMARK 921   NORMALIZED FREE ENERGY PREDICTED BY IDOCK:   -5.18 KCAL/MOL
REMARK 922        TOTAL FREE ENERGY PREDICTED BY IDOCK:   -6.10 KCAL/MOL
REMARK 923 INTER-LIGAND FREE ENERGY PREDICTED BY IDOCK:   -6.05 KCAL/MOL
REMARK 924 INTRA-LIGAND FREE ENERGY PREDICTED BY IDOCK:   -0.04 KCAL/MOL
REMARK 927      BINDING AFFINITY PREDICTED BY RF-SCORE:    0.00 PKD
ROOT
HETATM    1  N   UNL     1      -8.755  20.057  66.313  1.00  0.00    -0.499 NA 
HETATM    2  CA  UNL     1      -8.092  19.005  67.149  1.00  0.00    -0.264 C  
HETATM    3  H2  UNL     1      -9.475  20.539  66.851  1.00  0.00     0.000 HD 
HETATM    4  H1  UNL     1      -8.110  20.729  65.899  1.00  0.00     0.000 HD 
HETATM    5  OXT UNL     1      -6.343  17.351  66.668  1.00  0.00    -0.173 OA 
HETATM    6  C   UNL     1      -7.013  18.305  66.305  1.00  0.00    -0.249 C  
HETATM    7  O   UNL     1      -6.883  18.890  65.086  1.00  0.00    -0.496 OA 
ENDROOT
BRANCH   2   8
HETATM    8  C   UNL     1      -9.066  17.990  67.775  1.00  0.00    -0.262 C  
BRANCH   8   9
HETATM    9  C   UNL     1      -9.586  16.928  66.831  1.00  0.00    -0.262 A  
HETATM   10  C   UNL     1     -10.363  17.285  65.716  1.00  0.00    -0.245 A  
HETATM   11  C   UNL     1     -10.868  16.291  64.884  1.00  0.00    -0.296 A  
HETATM   12  C   UNL     1     -10.604  14.949  65.144  1.00  0.00    -0.428 A  
HETATM   13  O   UNL     1     -11.644  16.588  63.798  1.00  0.00    -1.617 OA 
HETATM   14  H   UNL     1     -11.988  15.909  63.230  1.00  0.00     0.000 HD 
HETATM   15  O   UNL     1     -11.120  13.984  64.329  1.00  0.00    -0.569 OA 
HETATM   16  C   UNL     1      -9.829  14.574  66.231  1.00  0.00    -0.322 A  
HETATM   17  C   UNL     1      -9.328  15.569  67.065  1.00  0.00    -0.224 A  
HETATM   18  H   UNL     1     -10.939  13.068  64.506  1.00  0.00     0.000 HD 
HETATM   19  F   UNL     1      -8.611  15.212  68.141  1.00  0.00    -0.147 F  
ENDBRANCH   8   9
ENDBRANCH   2   8
TORSDOF 2
ENDMDL
MODEL       50
REMARK 921   NORMALIZED FREE ENERGY PREDICTED BY IDOCK:   -5.17 KCAL/MOL
REMARK 922        TOTAL FREE ENERGY PREDICTED BY IDOCK:   -6.09 KCAL/MOL
REMARK 923 INTER-LIGAND FREE ENERGY PREDICTED BY IDOCK:   -5.89 KCAL/MOL
REMARK 924 INTRA-LIGAND FREE ENERGY PREDICTED BY IDOCK:   -0.20 KCAL/MOL
REMARK 927      BINDING AFFINITY PREDICTED BY RF-SCORE:    0.00 PKD
ROOT
HETATM    1  N   UNL     1     -11.557  11.766  65.762  1.00  0.00    -0.332 NA 
HETATM    2  CA  UNL     1     -12.514  12.727  65.126  1.00  0.00    -0.501 C  
HETATM    3  H2  UNL     1     -11.806  11.609  66.739  1.00  0.00     0.000 HD 
HETATM    4  H1  UNL     1     -11.469  10.877  65.270  1.00  0.00     0.000 HD 
HETATM    5  OXT UNL     1     -12.641  13.714  62.881  1.00  0.00    -0.621 OA 
HETATM    6  C   UNL     1     -12.110  12.934  63.656  1.00  0.00    -0.535 C  
HETATM    7  O   UNL     1     -11.076  12.123  63.310  1.00  0.00    -0.410 OA 
ENDROOT
BRANCH   2   8
HETATM    8  C   UNL     1     -12.648  14.069  65.869  1.00  0.00    -0.484 C  
BRANCH   8   9
HETATM    9  C   UNL     1     -11.613  14.317  66.944  1.00  0.00    -0.405 A  
HETATM   10  C   UNL     1     -11.945  14.166  68.300  1.00  0.00    -0.367 A  
HETATM   11  C   UNL     1     -10.993  14.441  69.276  1.00  0.00    -0.255 A  
HETATM   12  C   UNL     1      -9.712  14.856  68.918  1.00  0.00    -0.223 A  
HETATM   13  O   UNL     1     -11.274  14.326  70.609  1.00  0.00    -0.509 OA 
HETATM   14  H   UNL     1     -10.623  14.513  71.275  1.00  0.00     0.000 HD 
HETATM   15  O   UNL     1      -8.793  15.138  69.886  1.00  0.00    -0.433 OA 
HETATM   16  C   UNL     1      -9.359  14.999  67.586  1.00  0.00    -0.194 A  
HETATM   17  C   UNL     1     -10.314  14.729  66.611  1.00  0.00    -0.273 A  
HETATM   18  H   UNL     1      -7.919  15.421  69.642  1.00  0.00     0.000 HD 
HETATM   19  F   UNL     1      -9.990  14.904  65.321  1.00  0.00    -0.346 F  
ENDBRANCH   8   9
ENDBRANCH   2   8
TORSDOF 2
ENDMDL
MODEL       51
REMARK 921   NORMALIZED FREE ENERGY PREDICTED BY IDOCK:   -5.17 KCAL/MOL
REMARK 922        TOTAL FREE ENERGY PREDICTED BY IDOCK:   -6.08 KCAL/MOL
REMARK 923 INTER-LIGAND FREE ENERGY PREDICTED BY IDOCK:   -5.87 KCAL/MOL
REMARK 924 INTRA-LIGAND FREE ENERGY PREDICTED BY IDOCK:   -0.21 KCAL/MOL
REMARK 927      BINDING AFFINITY PREDICTED BY RF-SCORE:    0.00 PKD
ROOT
HETATM    1  N   UNL     1     -13.390  14.067  65.432  1.00  0.00    -0.624 NA 
HETATM    2  CA  UNL     1     -11.952  13.951  65.031  1.00  0.00    -0.390 C  
HETATM    3  H2  UNL     1     -13.511  14.816  66.114  1.00  0.00     0.000 HD 
HETATM    4  H1  UNL     1     -14.033  14.190  64.650  1.00  0.00     0.000 HD 
HETATM    5  OXT UNL     1     -10.758  12.417  63.531  1.00  0.00    -0.442 OA 
HETATM    6  C   UNL     1     -11.812  12.816  64.002  1.00  0.00    -0.435 C  
HETATM    7  O   UNL     1     -13.024  12.305  63.662  1.00  0.00    -0.777 OA 
ENDROOT
BRANCH   2   8
HETATM    8  C   UNL     1     -10.981  13.767  66.211  1.00  0.00    -0.297 C  
BRANCH   8   9
HETATM    9  C   UNL     1     -10.782  14.990  67.080  1.00  0.00    -0.304 A  
HETATM   10  C   UNL     1     -11.487  15.127  68.287  1.00  0.00    -0.350 A  
HETATM   11  C   UNL     1     -11.324  16.277  69.051  1.00  0.00    -0.301 A  
HETATM   12  C   UNL     1     -10.463  17.289  68.632  1.00  0.00    -0.356 A  
HETATM   13  O   UNL     1     -12.001  16.464  70.224  1.00  0.00    -0.339 OA 
HETATM   14  H   UNL     1     -11.889  17.250  70.746  1.00  0.00     0.000 HD 
HETATM   15  O   UNL     1     -10.325  18.420  69.384  1.00  0.00    -0.418 OA 
HETATM   16  C   UNL     1      -9.748  17.170  67.451  1.00  0.00    -0.253 A  
HETATM   17  C   UNL     1      -9.916  16.020  66.685  1.00  0.00    -0.267 A  
HETATM   18  H   UNL     1      -9.738  19.110  69.098  1.00  0.00     0.000 HD 
HETATM   19  F   UNL     1      -9.257  15.916  65.521  1.00  0.00    -0.322 F  
ENDBRANCH   8   9
ENDBRANCH   2   8
TORSDOF 2
ENDMDL
MODEL       52
REMARK 921   NORMALIZED FREE ENERGY PREDICTED BY IDOCK:   -5.14 KCAL/MOL
REMARK 922        TOTAL FREE ENERGY PREDICTED BY IDOCK:   -6.06 KCAL/MOL
REMARK 923 INTER-LIGAND FREE ENERGY PREDICTED BY IDOCK:   -5.80 KCAL/MOL
REMARK 924 INTRA-LIGAND FREE ENERGY PREDICTED BY IDOCK:   -0.26 KCAL/MOL
REMARK 927      BINDING AFFINITY PREDICTED BY RF-SCORE:    0.00 PKD
ROOT
HETATM    1  N   UNL     1      -8.707  17.631  68.129  1.00  0.00    -0.257 NA 
HETATM    2  CA  UNL     1      -9.712  16.917  67.277  1.00  0.00    -0.251 C  
HETATM    3  H2  UNL     1      -8.513  17.096  68.976  1.00  0.00     0.000 HD 
HETATM    4  H1  UNL     1      -7.839  17.861  67.646  1.00  0.00     0.000 HD 
HETATM    5  OXT UNL     1     -10.797  17.484  65.150  1.00  0.00    -0.642 OA 
HETATM    6  C   UNL     1      -9.975  17.751  66.012  1.00  0.00    -0.209 C  
HETATM    7  O   UNL     1      -9.161  18.838  65.959  1.00  0.00    -0.476 OA 
ENDROOT
BRANCH   2   8
HETATM    8  C   UNL     1     -11.022  16.568  68.006  1.00  0.00    -0.320 C  
BRANCH   8   9
HETATM    9  C   UNL     1     -11.331  15.091  68.106  1.00  0.00    -0.343 A  
HETATM   10  C   UNL     1     -11.573  14.334  66.947  1.00  0.00    -0.405 A  
HETATM   11  C   UNL     1     -11.898  12.987  67.062  1.00  0.00    -0.377 A  
HETATM   12  C   UNL     1     -11.978  12.382  68.314  1.00  0.00    -0.214 A  
HETATM   13  O   UNL     1     -12.159  12.214  65.965  1.00  0.00    -0.612 OA 
HETATM   14  H   UNL     1     -12.381  11.293  66.043  1.00  0.00     0.000 HD 
HETATM   15  O   UNL     1     -12.315  11.063  68.412  1.00  0.00    -0.762 OA 
HETATM   16  C   UNL     1     -11.732  13.106  69.470  1.00  0.00    -0.382 A  
HETATM   17  C   UNL     1     -11.411  14.455  69.354  1.00  0.00    -0.288 A  
HETATM   18  H   UNL     1     -12.369  10.650  69.266  1.00  0.00     0.000 HD 
HETATM   19  F   UNL     1     -11.210  15.171  70.470  1.00  0.00    -0.257 F  
ENDBRANCH   8   9
ENDBRANCH   2   8
TORSDOF 2
ENDMDL
MODEL       53
REMARK 921   NORMALIZED FREE ENERGY PREDICTED BY IDOCK:   -5.13 KCAL/MOL
REMARK 922        TOTAL FREE ENERGY PREDICTED BY IDOCK:   -6.04 KCAL/MOL
REMARK 923 INTER-LIGAND FREE ENERGY PREDICTED BY IDOCK:   -6.00 KCAL/MOL
REMARK 924 INTRA-LIGAND FREE ENERGY PREDICTED BY IDOCK:   -0.04 KCAL/MOL
REMARK 927      BINDING AFFINITY PREDICTED BY RF-SCORE:    0.00 PKD
ROOT
HETATM    1  N   UNL     1     -12.109  12.405  66.248  1.00  0.00    -0.630 NA 
HETATM    2  CA  UNL     1     -11.372  13.343  67.154  1.00  0.00    -0.315 C  
HETATM    3  H2  UNL     1     -12.856  11.931  66.756  1.00  0.00     0.000 HD 
HETATM    4  H1  UNL     1     -12.475  12.843  65.403  1.00  0.00     0.000 HD 
HETATM    5  OXT UNL     1      -9.431  14.807  66.817  1.00  0.00    -0.230 OA 
HETATM    6  C   UNL     1     -10.259  14.039  66.353  1.00  0.00    -0.291 C  
HETATM    7  O   UNL     1     -10.312  13.701  65.038  1.00  0.00    -0.353 OA 
ENDROOT
BRANCH   2   8
HETATM    8  C   UNL     1     -10.820  12.682  68.431  1.00  0.00    -0.268 C  
BRANCH   8   9
HETATM    9  C   UNL     1     -11.697  12.813  69.656  1.00  0.00    -0.372 A  
HETATM   10  C   UNL     1     -12.056  11.677  70.400  1.00  0.00    -0.462 A  
HETATM   11  C   UNL     1     -12.898  11.812  71.498  1.00  0.00    -0.345 A  
HETATM   12  C   UNL     1     -13.381  13.065  71.870  1.00  0.00    -0.446 A  
HETATM   13  O   UNL     1     -13.289  10.734  72.242  1.00  0.00    -0.623 OA 
HETATM   14  H   UNL     1     -13.865  10.827  72.993  1.00  0.00     0.000 HD 
HETATM   15  O   UNL     1     -14.221  13.180  72.939  1.00  0.00    -0.610 OA 
HETATM   16  C   UNL     1     -13.031  14.201  71.158  1.00  0.00    -0.419 A  
HETATM   17  C   UNL     1     -12.192  14.064  70.057  1.00  0.00    -0.352 A  
HETATM   18  H   UNL     1     -14.550  14.034  73.193  1.00  0.00     0.000 HD 
HETATM   19  F   UNL     1     -11.880  15.154  69.340  1.00  0.00    -0.288 F  
ENDBRANCH   8   9
ENDBRANCH   2   8
TORSDOF 2
ENDMDL
MODEL       54
REMARK 921   NORMALIZED FREE ENERGY PREDICTED BY IDOCK:   -5.11 KCAL/MOL
REMARK 922        TOTAL FREE ENERGY PREDICTED BY IDOCK:   -6.03 KCAL/MOL
REMARK 923 INTER-LIGAND FREE ENERGY PREDICTED BY IDOCK:   -5.82 KCAL/MOL
REMARK 924 INTRA-LIGAND FREE ENERGY PREDICTED BY IDOCK:   -0.21 KCAL/MOL
REMARK 927      BINDING AFFINITY PREDICTED BY RF-SCORE:    0.00 PKD
ROOT
HETATM    1  N   UNL     1      -8.586  11.568  68.095  1.00  0.00    -0.149 NA 
HETATM    2  CA  UNL     1      -9.933  10.914  68.122  1.00  0.00    -0.174 C  
HETATM    3  H2  UNL     1      -8.538  12.254  67.341  1.00  0.00     0.000 HD 
HETATM    4  H1  UNL     1      -8.310  11.992  68.980  1.00  0.00     0.000 HD 
HETATM    5  OXT UNL     1     -10.896   9.137  69.516  1.00  0.00    -0.231 OA 
HETATM    6  C   UNL     1      -9.967   9.891  69.271  1.00  0.00    -0.207 C  
HETATM    7  O   UNL     1      -8.824   9.934  70.003  1.00  0.00    -0.207 OA 
ENDROOT
BRANCH   2   8
HETATM    8  C   UNL     1     -10.351  10.275  66.785  1.00  0.00    -0.288 C  
BRANCH   8   9
HETATM    9  C   UNL     1     -10.876  11.239  65.745  1.00  0.00    -0.257 A  
HETATM   10  C   UNL     1     -11.741  12.283  66.114  1.00  0.00    -0.440 A  
HETATM   11  C   UNL     1     -12.248  13.134  65.138  1.00  0.00    -0.450 A  
HETATM   12  C   UNL     1     -11.900  12.963  63.800  1.00  0.00    -0.504 A  
HETATM   13  O   UNL     1     -13.107  14.152  65.446  1.00  0.00    -0.743 OA 
HETATM   14  H   UNL     1     -13.453  14.733  64.779  1.00  0.00     0.000 HD 
HETATM   15  O   UNL     1     -12.418  13.795  62.851  1.00  0.00    -1.009 OA 
HETATM   16  C   UNL     1     -11.038  11.948  63.414  1.00  0.00    -0.463 A  
HETATM   17  C   UNL     1     -10.535  11.095  64.391  1.00  0.00    -0.353 A  
HETATM   18  H   UNL     1     -12.180  13.679  61.938  1.00  0.00     0.000 HD 
HETATM   19  F   UNL     1      -9.732  10.087  64.020  1.00  0.00    -0.341 F  
ENDBRANCH   8   9
ENDBRANCH   2   8
TORSDOF 2
ENDMDL
MODEL       55
REMARK 921   NORMALIZED FREE ENERGY PREDICTED BY IDOCK:   -5.09 KCAL/MOL
REMARK 922        TOTAL FREE ENERGY PREDICTED BY IDOCK:   -6.00 KCAL/MOL
REMARK 923 INTER-LIGAND FREE ENERGY PREDICTED BY IDOCK:   -5.75 KCAL/MOL
REMARK 924 INTRA-LIGAND FREE ENERGY PREDICTED BY IDOCK:   -0.25 KCAL/MOL
REMARK 927      BINDING AFFINITY PREDICTED BY RF-SCORE:    0.00 PKD
ROOT
HETATM    1  N   UNL     1     -11.431  16.234  63.893  1.00  0.00    -1.539 NA 
HETATM    2  CA  UNL     1     -11.284  15.085  64.843  1.00  0.00    -0.416 C  
HETATM    3  H2  UNL     1     -10.899  17.040  64.223  1.00  0.00     0.000 HD 
HETATM    4  H1  UNL     1     -11.184  16.014  62.929  1.00  0.00     0.000 HD 
HETATM    5  OXT UNL     1     -12.245  12.826  64.888  1.00  0.00    -0.410 OA 
HETATM    6  C   UNL     1     -12.096  13.892  64.310  1.00  0.00    -0.440 C  
HETATM    7  O   UNL     1     -12.632  14.164  63.092  1.00  0.00    -0.686 OA 
ENDROOT
BRANCH   2   8
HETATM    8  C   UNL     1     -11.657  15.418  66.299  1.00  0.00     0.107 C  
BRANCH   8   9
HETATM    9  C   UNL     1     -10.528  15.296  67.298  1.00  0.00    -0.275 A  
HETATM   10  C   UNL     1      -9.846  14.078  67.457  1.00  0.00    -0.236 A  
HETATM   11  C   UNL     1      -8.840  13.974  68.411  1.00  0.00    -0.180 A  
HETATM   12  C   UNL     1      -8.499  15.068  69.203  1.00  0.00    -0.192 A  
HETATM   13  O   UNL     1      -8.160  12.805  68.616  1.00  0.00    -0.282 OA 
HETATM   14  H   UNL     1      -7.473  12.734  69.267  1.00  0.00     0.000 HD 
HETATM   15  O   UNL     1      -7.521  14.946  70.147  1.00  0.00    -0.323 OA 
HETATM   16  C   UNL     1      -9.149  16.282  69.055  1.00  0.00    -0.255 A  
HETATM   17  C   UNL     1     -10.159  16.384  68.103  1.00  0.00    -0.251 A  
HETATM   18  H   UNL     1      -7.288  15.692  70.687  1.00  0.00     0.000 HD 
HETATM   19  F   UNL     1     -10.820  17.545  67.982  1.00  0.00    -0.371 F  
ENDBRANCH   8   9
ENDBRANCH   2   8
TORSDOF 2
ENDMDL
MODEL       56
REMARK 921   NORMALIZED FREE ENERGY PREDICTED BY IDOCK:   -5.09 KCAL/MOL
REMARK 922        TOTAL FREE ENERGY PREDICTED BY IDOCK:   -6.00 KCAL/MOL
REMARK 923 INTER-LIGAND FREE ENERGY PREDICTED BY IDOCK:   -5.77 KCAL/MOL
REMARK 924 INTRA-LIGAND FREE ENERGY PREDICTED BY IDOCK:   -0.24 KCAL/MOL
REMARK 927      BINDING AFFINITY PREDICTED BY RF-SCORE:    0.00 PKD
ROOT
HETATM    1  N   UNL     1     -12.304  13.951  69.664  1.00  0.00    -0.346 NA 
HETATM    2  CA  UNL     1     -11.459  13.789  68.438  1.00  0.00    -0.316 C  
HETATM    3  H2  UNL     1     -13.151  13.388  69.591  1.00  0.00     0.000 HD 
HETATM    4  H1  UNL     1     -11.816  13.749  70.537  1.00  0.00     0.000 HD 
HETATM    5  OXT UNL     1      -9.335  14.797  67.731  1.00  0.00    -0.194 OA 
HETATM    6  C   UNL     1     -10.193  14.649  68.588  1.00  0.00    -0.244 C  
HETATM    7  O   UNL     1     -10.132  15.229  69.814  1.00  0.00    -0.255 OA 
ENDROOT
BRANCH   2   8
HETATM    8  C   UNL     1     -12.196  14.094  67.121  1.00  0.00    -0.348 C  
BRANCH   8   9
HETATM    9  C   UNL     1     -11.813  13.216  65.949  1.00  0.00    -0.453 A  
HETATM   10  C   UNL     1     -11.118  12.013  66.158  1.00  0.00    -0.367 A  
HETATM   11  C   UNL     1     -10.736  11.241  65.066  1.00  0.00    -0.256 A  
HETATM   12  C   UNL     1     -11.044  11.648  63.770  1.00  0.00    -0.420 A  
HETATM   13  O   UNL     1     -10.044  10.072  65.218  1.00  0.00    -0.321 OA 
HETATM   14  H   UNL     1      -9.783   9.545  64.472  1.00  0.00     0.000 HD 
HETATM   15  O   UNL     1     -10.648  10.889  62.707  1.00  0.00    -0.780 OA 
HETATM   16  C   UNL     1     -11.739  12.824  63.541  1.00  0.00    -0.597 A  
HETATM   17  C   UNL     1     -12.116  13.598  64.634  1.00  0.00    -0.412 A  
HETATM   18  H   UNL     1     -10.858  11.166  61.823  1.00  0.00     0.000 HD 
HETATM   19  F   UNL     1     -12.754  14.758  64.417  1.00  0.00    -0.459 F  
ENDBRANCH   8   9
ENDBRANCH   2   8
TORSDOF 2
ENDMDL
MODEL       57
REMARK 921   NORMALIZED FREE ENERGY PREDICTED BY IDOCK:   -5.08 KCAL/MOL
REMARK 922        TOTAL FREE ENERGY PREDICTED BY IDOCK:   -5.98 KCAL/MOL
REMARK 923 INTER-LIGAND FREE ENERGY PREDICTED BY IDOCK:   -6.09 KCAL/MOL
REMARK 924 INTRA-LIGAND FREE ENERGY PREDICTED BY IDOCK:    0.10 KCAL/MOL
REMARK 927      BINDING AFFINITY PREDICTED BY RF-SCORE:    0.00 PKD
ROOT
HETATM    1  N   UNL     1     -13.353   8.737  72.923  1.00  0.00    -0.837 NA 
HETATM    2  CA  UNL     1     -12.876   8.656  71.505  1.00  0.00    -0.319 C  
HETATM    3  H2  UNL     1     -13.605   9.697  73.160  1.00  0.00     0.000 HD 
HETATM    4  H1  UNL     1     -14.119   8.102  73.142  1.00  0.00     0.000 HD 
HETATM    5  OXT UNL     1     -12.017   6.807  70.138  1.00  0.00    -0.328 OA 
HETATM    6  C   UNL     1     -12.508   7.197  71.185  1.00  0.00    -0.359 C  
HETATM    7  O   UNL     1     -12.810   6.374  72.223  1.00  0.00    -0.138 OA 
ENDROOT
BRANCH   2   8
HETATM    8  C   UNL     1     -11.719   9.616  71.173  1.00  0.00    -0.450 C  
BRANCH   8   9
HETATM    9  C   UNL     1     -12.111  11.068  71.010  1.00  0.00    -0.406 A  
HETATM   10  C   UNL     1     -12.942  11.691  71.955  1.00  0.00    -0.442 A  
HETATM   11  C   UNL     1     -13.327  13.014  71.765  1.00  0.00    -0.378 A  
HETATM   12  C   UNL     1     -12.889  13.726  70.651  1.00  0.00    -0.192 A  
HETATM   13  O   UNL     1     -14.148  13.658  72.648  1.00  0.00    -0.746 OA 
HETATM   14  H   UNL     1     -14.411  14.562  72.519  1.00  0.00     0.000 HD 
HETATM   15  O   UNL     1     -13.289  15.018  70.469  1.00  0.00    -0.639 OA 
HETATM   16  C   UNL     1     -12.059  13.135  69.712  1.00  0.00    -0.336 A  
HETATM   17  C   UNL     1     -11.678  11.810  69.900  1.00  0.00    -0.323 A  
HETATM   18  H   UNL     1     -12.990  15.503  69.709  1.00  0.00     0.000 HD 
HETATM   19  F   UNL     1     -10.907  11.219  68.975  1.00  0.00    -0.194 F  
ENDBRANCH   8   9
ENDBRANCH   2   8
TORSDOF 2
ENDMDL
MODEL       58
REMARK 921   NORMALIZED FREE ENERGY PREDICTED BY IDOCK:   -5.06 KCAL/MOL
REMARK 922        TOTAL FREE ENERGY PREDICTED BY IDOCK:   -5.97 KCAL/MOL
REMARK 923 INTER-LIGAND FREE ENERGY PREDICTED BY IDOCK:   -5.80 KCAL/MOL
REMARK 924 INTRA-LIGAND FREE ENERGY PREDICTED BY IDOCK:   -0.17 KCAL/MOL
REMARK 927      BINDING AFFINITY PREDICTED BY RF-SCORE:    0.00 PKD
ROOT
HETATM    1  N   UNL     1     -11.834  12.791  67.701  1.00  0.00    -0.359 NA 
HETATM    2  CA  UNL     1     -11.005  12.384  68.881  1.00  0.00    -0.223 C  
HETATM    3  H2  UNL     1     -12.485  13.532  67.961  1.00  0.00     0.000 HD 
HETATM    4  H1  UNL     1     -11.290  13.065  66.884  1.00  0.00     0.000 HD 
HETATM    5  OXT UNL     1      -9.275  10.671  69.193  1.00  0.00    -0.188 OA 
HETATM    6  C   UNL     1     -10.036  11.271  68.449  1.00  0.00    -0.197 C  
HETATM    7  O   UNL     1     -10.118  11.035  67.114  1.00  0.00    -0.184 OA 
ENDROOT
BRANCH   2   8
HETATM    8  C   UNL     1     -11.826  11.971  70.116  1.00  0.00    -0.383 C  
BRANCH   8   9
HETATM    9  C   UNL     1     -12.326  13.114  70.971  1.00  0.00    -0.355 A  
HETATM   10  C   UNL     1     -11.804  14.408  70.806  1.00  0.00    -0.349 A  
HETATM   11  C   UNL     1     -12.244  15.437  71.631  1.00  0.00    -0.375 A  
HETATM   12  C   UNL     1     -13.202  15.197  72.613  1.00  0.00    -0.437 A  
HETATM   13  O   UNL     1     -11.753  16.709  71.520  1.00  0.00    -0.641 OA 
HETATM   14  H   UNL     1     -12.055  17.412  72.083  1.00  0.00     0.000 HD 
HETATM   15  O   UNL     1     -13.613  16.213  73.426  1.00  0.00    -0.769 OA 
HETATM   16  C   UNL     1     -13.740  13.931  72.786  1.00  0.00    -0.413 A  
HETATM   17  C   UNL     1     -13.295  12.901  71.963  1.00  0.00    -0.482 A  
HETATM   18  H   UNL     1     -14.266  16.048  74.096  1.00  0.00     0.000 HD 
HETATM   19  F   UNL     1     -13.782  11.666  72.151  1.00  0.00    -0.445 F  
ENDBRANCH   8   9
ENDBRANCH   2   8
TORSDOF 2
ENDMDL
MODEL       59
REMARK 921   NORMALIZED FREE ENERGY PREDICTED BY IDOCK:   -5.05 KCAL/MOL
REMARK 922        TOTAL FREE ENERGY PREDICTED BY IDOCK:   -5.96 KCAL/MOL
REMARK 923 INTER-LIGAND FREE ENERGY PREDICTED BY IDOCK:   -5.72 KCAL/MOL
REMARK 924 INTRA-LIGAND FREE ENERGY PREDICTED BY IDOCK:   -0.24 KCAL/MOL
REMARK 927      BINDING AFFINITY PREDICTED BY RF-SCORE:    0.00 PKD
ROOT
HETATM    1  N   UNL     1      -7.473  10.276  70.317  1.00  0.00    -0.405 NA 
HETATM    2  CA  UNL     1      -8.620   9.507  69.736  1.00  0.00    -0.192 C  
HETATM    3  H2  UNL     1      -7.732  10.675  71.219  1.00  0.00     0.000 HD 
HETATM    4  H1  UNL     1      -6.610   9.739  70.399  1.00  0.00     0.000 HD 
HETATM    5  OXT UNL     1      -8.917   8.301  67.619  1.00  0.00    -0.135 OA 
HETATM    6  C   UNL     1      -8.191   8.919  68.382  1.00  0.00    -0.117 C  
HETATM    7  O   UNL     1      -6.878   9.162  68.132  1.00  0.00    -0.067 OA 
ENDROOT
BRANCH   2   8
HETATM    8  C   UNL     1      -9.924  10.316  69.613  1.00  0.00    -0.240 C  
BRANCH   8   9
HETATM    9  C   UNL     1     -11.004   9.955  70.608  1.00  0.00    -0.405 A  
HETATM   10  C   UNL     1     -10.944   8.743  71.316  1.00  0.00    -0.345 A  
HETATM   11  C   UNL     1     -11.969   8.409  72.195  1.00  0.00    -0.374 A  
HETATM   12  C   UNL     1     -13.048   9.269  72.383  1.00  0.00    -0.406 A  
HETATM   13  O   UNL     1     -11.963   7.233  72.893  1.00  0.00    -0.541 OA 
HETATM   14  H   UNL     1     -12.663   7.005  73.493  1.00  0.00     0.000 HD 
HETATM   15  O   UNL     1     -14.055   8.920  73.236  1.00  0.00    -1.211 OA 
HETATM   16  C   UNL     1     -13.123  10.475  71.705  1.00  0.00    -0.570 A  
HETATM   17  C   UNL     1     -12.099  10.806  70.823  1.00  0.00    -0.372 A  
HETATM   18  H   UNL     1     -14.791   9.506  73.365  1.00  0.00     0.000 HD 
HETATM   19  F   UNL     1     -12.184  11.954  70.133  1.00  0.00    -0.341 F  
ENDBRANCH   8   9
ENDBRANCH   2   8
TORSDOF 2
ENDMDL
MODEL       60
REMARK 921   NORMALIZED FREE ENERGY PREDICTED BY IDOCK:   -5.01 KCAL/MOL
REMARK 922        TOTAL FREE ENERGY PREDICTED BY IDOCK:   -5.90 KCAL/MOL
REMARK 923 INTER-LIGAND FREE ENERGY PREDICTED BY IDOCK:   -5.62 KCAL/MOL
REMARK 924 INTRA-LIGAND FREE ENERGY PREDICTED BY IDOCK:   -0.29 KCAL/MOL
REMARK 927      BINDING AFFINITY PREDICTED BY RF-SCORE:    0.00 PKD
ROOT
HETATM    1  N   UNL     1      -9.966   9.976  69.045  1.00  0.00    -0.185 NA 
HETATM    2  CA  UNL     1     -10.920  11.123  69.176  1.00  0.00    -0.242 C  
HETATM    3  H2  UNL     1      -9.451  10.039  68.167  1.00  0.00     0.000 HD 
HETATM    4  H1  UNL     1      -9.322   9.878  69.829  1.00  0.00     0.000 HD 
HETATM    5  OXT UNL     1     -12.574  11.730  70.886  1.00  0.00    -0.349 OA 
HETATM    6  C   UNL     1     -11.673  10.995  70.512  1.00  0.00    -0.318 C  
HETATM    7  O   UNL     1     -11.202   9.954  71.246  1.00  0.00    -0.361 OA 
ENDROOT
BRANCH   2   8
HETATM    8  C   UNL     1     -11.893  11.273  67.992  1.00  0.00    -0.244 C  
BRANCH   8   9
HETATM    9  C   UNL     1     -11.586  12.413  67.046  1.00  0.00    -0.434 A  
HETATM   10  C   UNL     1     -11.025  12.159  65.783  1.00  0.00    -0.338 A  
HETATM   11  C   UNL     1     -10.710  13.223  64.944  1.00  0.00    -0.351 A  
HETATM   12  C   UNL     1     -10.954  14.535  65.343  1.00  0.00    -0.342 A  
HETATM   13  O   UNL     1     -10.147  13.026  63.714  1.00  0.00    -0.710 OA 
HETATM   14  H   UNL     1      -9.932  13.753  63.141  1.00  0.00     0.000 HD 
HETATM   15  O   UNL     1     -10.624  15.569  64.517  1.00  0.00    -0.642 OA 
HETATM   16  C   UNL     1     -11.518  14.808  66.579  1.00  0.00    -0.328 A  
HETATM   17  C   UNL     1     -11.828  13.744  67.419  1.00  0.00    -0.396 A  
HETATM   18  H   UNL     1     -10.790  16.464  64.789  1.00  0.00     0.000 HD 
HETATM   19  F   UNL     1     -12.338  14.003  68.633  1.00  0.00    -0.378 F  
ENDBRANCH   8   9
ENDBRANCH   2   8
TORSDOF 2
ENDMDL
MODEL       61
REMARK 921   NORMALIZED FREE ENERGY PREDICTED BY IDOCK:   -5.00 KCAL/MOL
REMARK 922        TOTAL FREE ENERGY PREDICTED BY IDOCK:   -5.90 KCAL/MOL
REMARK 923 INTER-LIGAND FREE ENERGY PREDICTED BY IDOCK:   -5.79 KCAL/MOL
REMARK 924 INTRA-LIGAND FREE ENERGY PREDICTED BY IDOCK:   -0.10 KCAL/MOL
REMARK 927      BINDING AFFINITY PREDICTED BY RF-SCORE:    0.00 PKD
ROOT
HETATM    1  N   UNL     1      -9.585   9.740  70.802  1.00  0.00    -0.308 NA 
HETATM    2  CA  UNL     1     -11.048   9.782  71.119  1.00  0.00    -0.344 C  
HETATM    3  H2  UNL     1      -9.213  10.685  70.705  1.00  0.00     0.000 HD 
HETATM    4  H1  UNL     1      -9.028   9.206  71.469  1.00  0.00     0.000 HD 
HETATM    5  OXT UNL     1     -12.734   8.028  71.445  1.00  0.00    -0.316 OA 
HETATM    6  C   UNL     1     -11.569   8.342  71.262  1.00  0.00    -0.281 C  
HETATM    7  O   UNL     1     -10.557   7.440  71.168  1.00  0.00    -0.220 OA 
ENDROOT
BRANCH   2   8
HETATM    8  C   UNL     1     -11.888  10.590  70.113  1.00  0.00    -0.404 C  
BRANCH   8   9
HETATM    9  C   UNL     1     -12.399  11.920  70.621  1.00  0.00    -0.405 A  
HETATM   10  C   UNL     1     -12.120  13.105  69.918  1.00  0.00    -0.357 A  
HETATM   11  C   UNL     1     -12.561  14.323  70.423  1.00  0.00    -0.343 A  
HETATM   12  C   UNL     1     -13.282  14.377  71.614  1.00  0.00    -0.350 A  
HETATM   13  O   UNL     1     -12.299  15.504  69.785  1.00  0.00    -0.496 OA 
HETATM   14  H   UNL     1     -12.601  16.336  70.130  1.00  0.00     0.000 HD 
HETATM   15  O   UNL     1     -13.694  15.581  72.106  1.00  0.00    -0.458 OA 
HETATM   16  C   UNL     1     -13.579  13.220  72.317  1.00  0.00    -0.703 A  
HETATM   17  C   UNL     1     -13.133  12.002  71.813  1.00  0.00    -0.355 A  
HETATM   18  H   UNL     1     -14.186  15.618  72.918  1.00  0.00     0.000 HD 
HETATM   19  F   UNL     1     -13.383  10.883  72.509  1.00  0.00    -0.455 F  
ENDBRANCH   8   9
ENDBRANCH   2   8
TORSDOF 2
ENDMDL
MODEL       62
REMARK 921   NORMALIZED FREE ENERGY PREDICTED BY IDOCK:   -5.00 KCAL/MOL
REMARK 922        TOTAL FREE ENERGY PREDICTED BY IDOCK:   -5.90 KCAL/MOL
REMARK 923 INTER-LIGAND FREE ENERGY PREDICTED BY IDOCK:   -5.69 KCAL/MOL
REMARK 924 INTRA-LIGAND FREE ENERGY PREDICTED BY IDOCK:   -0.21 KCAL/MOL
REMARK 927      BINDING AFFINITY PREDICTED BY RF-SCORE:    0.00 PKD
ROOT
HETATM    1  N   UNL     1      -8.235  15.732  66.827  1.00  0.00    -0.249 NA 
HETATM    2  CA  UNL     1      -9.700  15.657  67.127  1.00  0.00    -0.223 C  
HETATM    3  H2  UNL     1      -7.998  15.117  66.048  1.00  0.00     0.000 HD 
HETATM    4  H1  UNL     1      -7.892  16.676  66.652  1.00  0.00     0.000 HD 
HETATM    5  OXT UNL     1     -11.107  16.713  68.840  1.00  0.00    -0.308 OA 
HETATM    6  C   UNL     1     -10.017  16.598  68.302  1.00  0.00    -0.261 C  
HETATM    7  O   UNL     1      -8.920  17.309  68.674  1.00  0.00    -0.269 OA 
ENDROOT
BRANCH   2   8
HETATM    8  C   UNL     1     -10.218  14.231  67.390  1.00  0.00    -0.247 C  
BRANCH   8   9
HETATM    9  C   UNL     1     -10.602  13.446  66.155  1.00  0.00    -0.294 A  
HETATM   10  C   UNL     1     -11.408  14.029  65.164  1.00  0.00    -0.328 A  
HETATM   11  C   UNL     1     -11.786  13.277  64.056  1.00  0.00    -0.455 A  
HETATM   12  C   UNL     1     -11.366  11.956  63.920  1.00  0.00    -0.428 A  
HETATM   13  O   UNL     1     -12.584  13.795  63.074  1.00  0.00    -1.005 OA 
HETATM   14  H   UNL     1     -12.842  13.281  62.317  1.00  0.00     0.000 HD 
HETATM   15  O   UNL     1     -11.759  11.225  62.837  1.00  0.00    -0.842 OA 
HETATM   16  C   UNL     1     -10.561  11.365  64.880  1.00  0.00    -0.368 A  
HETATM   17  C   UNL     1     -10.187  12.116  65.990  1.00  0.00    -0.237 A  
HETATM   18  H   UNL     1     -11.473  10.324  62.744  1.00  0.00     0.000 HD 
HETATM   19  F   UNL     1      -9.440  11.537  66.942  1.00  0.00    -0.173 F  
ENDBRANCH   8   9
ENDBRANCH   2   8
TORSDOF 2
ENDMDL
MODEL       63
REMARK 921   NORMALIZED FREE ENERGY PREDICTED BY IDOCK:   -4.97 KCAL/MOL
REMARK 922        TOTAL FREE ENERGY PREDICTED BY IDOCK:   -5.86 KCAL/MOL
REMARK 923 INTER-LIGAND FREE ENERGY PREDICTED BY IDOCK:   -5.62 KCAL/MOL
REMARK 924 INTRA-LIGAND FREE ENERGY PREDICTED BY IDOCK:   -0.24 KCAL/MOL
REMARK 927      BINDING AFFINITY PREDICTED BY RF-SCORE:    0.00 PKD
ROOT
HETATM    1  N   UNL     1     -12.042  12.547  66.555  1.00  0.00    -0.585 NA 
HETATM    2  CA  UNL     1     -11.903  13.646  65.547  1.00  0.00    -0.362 C  
HETATM    3  H2  UNL     1     -11.598  12.811  67.434  1.00  0.00     0.000 HD 
HETATM    4  H1  UNL     1     -13.004  12.248  66.717  1.00  0.00     0.000 HD 
HETATM    5  OXT UNL     1     -12.587  13.851  63.198  1.00  0.00    -0.775 OA 
HETATM    6  C   UNL     1     -12.587  13.212  64.239  1.00  0.00    -0.209 C  
HETATM    7  O   UNL     1     -13.212  12.015  64.382  1.00  0.00    -0.669 OA 
ENDROOT
BRANCH   2   8
HETATM    8  C   UNL     1     -10.452  14.098  65.303  1.00  0.00    -0.402 C  
BRANCH   8   9
HETATM    9  C   UNL     1     -10.068  15.412  65.947  1.00  0.00    -0.370 A  
HETATM   10  C   UNL     1     -10.588  16.623  65.459  1.00  0.00    -0.273 A  
HETATM   11  C   UNL     1     -10.191  17.824  66.036  1.00  0.00    -0.293 A  
HETATM   12  C   UNL     1      -9.288  17.835  67.097  1.00  0.00    -0.264 A  
HETATM   13  O   UNL     1     -10.655  19.028  65.585  1.00  0.00    -0.554 OA 
HETATM   14  H   UNL     1     -10.384  19.848  65.980  1.00  0.00     0.000 HD 
HETATM   15  O   UNL     1      -8.894  19.022  67.643  1.00  0.00    -0.284 OA 
HETATM   16  C   UNL     1      -8.772  16.652  67.603  1.00  0.00    -0.206 A  
HETATM   17  C   UNL     1      -9.167  15.452  67.021  1.00  0.00    -0.225 A  
HETATM   18  H   UNL     1      -8.278  19.029  68.367  1.00  0.00     0.000 HD 
HETATM   19  F   UNL     1      -8.641  14.306  67.480  1.00  0.00    -0.155 F  
ENDBRANCH   8   9
ENDBRANCH   2   8
TORSDOF 2
ENDMDL
MODEL       64
REMARK 921   NORMALIZED FREE ENERGY PREDICTED BY IDOCK:   -4.96 KCAL/MOL
REMARK 922        TOTAL FREE ENERGY PREDICTED BY IDOCK:   -5.85 KCAL/MOL
REMARK 923 INTER-LIGAND FREE ENERGY PREDICTED BY IDOCK:   -5.61 KCAL/MOL
REMARK 924 INTRA-LIGAND FREE ENERGY PREDICTED BY IDOCK:   -0.24 KCAL/MOL
REMARK 927      BINDING AFFINITY PREDICTED BY RF-SCORE:    0.00 PKD
ROOT
HETATM    1  N   UNL     1     -10.747  12.169  66.030  1.00  0.00    -0.264 NA 
HETATM    2  CA  UNL     1     -11.976  12.792  65.442  1.00  0.00    -0.436 C  
HETATM    3  H2  UNL     1     -10.871  12.011  67.030  1.00  0.00     0.000 HD 
HETATM    4  H1  UNL     1     -10.452  11.310  65.567  1.00  0.00     0.000 HD 
HETATM    5  OXT UNL     1     -12.533  13.567  63.180  1.00  0.00    -0.759 OA 
HETATM    6  C   UNL     1     -11.752  13.011  63.936  1.00  0.00    -0.468 C  
HETATM    7  O   UNL     1     -10.562  12.493  63.533  1.00  0.00    -0.432 OA 
ENDROOT
BRANCH   2   8
HETATM    8  C   UNL     1     -12.422  14.089  66.141  1.00  0.00    -0.467 C  
BRANCH   8   9
HETATM    9  C   UNL     1     -11.320  14.860  66.835  1.00  0.00    -0.338 A  
HETATM   10  C   UNL     1     -11.084  14.683  68.208  1.00  0.00    -0.283 A  
HETATM   11  C   UNL     1     -10.095  15.432  68.837  1.00  0.00    -0.219 A  
HETATM   12  C   UNL     1      -9.335  16.349  68.115  1.00  0.00    -0.209 A  
HETATM   13  O   UNL     1      -9.840  15.308  70.175  1.00  0.00    -0.476 OA 
HETATM   14  H   UNL     1      -9.165  15.820  70.604  1.00  0.00     0.000 HD 
HETATM   15  O   UNL     1      -8.380  17.089  68.749  1.00  0.00    -0.251 OA 
HETATM   16  C   UNL     1      -9.542  16.531  66.757  1.00  0.00    -0.268 A  
HETATM   17  C   UNL     1     -10.535  15.784  66.130  1.00  0.00    -0.317 A  
HETATM   18  H   UNL     1      -7.861  17.714  68.257  1.00  0.00     0.000 HD 
HETATM   19  F   UNL     1     -10.767  15.984  64.824  1.00  0.00    -0.425 F  
ENDBRANCH   8   9
ENDBRANCH   2   8
TORSDOF 2
ENDMDL
MODEL       65
REMARK 921   NORMALIZED FREE ENERGY PREDICTED BY IDOCK:   -4.93 KCAL/MOL
REMARK 922        TOTAL FREE ENERGY PREDICTED BY IDOCK:   -5.82 KCAL/MOL
REMARK 923 INTER-LIGAND FREE ENERGY PREDICTED BY IDOCK:   -5.60 KCAL/MOL
REMARK 924 INTRA-LIGAND FREE ENERGY PREDICTED BY IDOCK:   -0.22 KCAL/MOL
REMARK 927      BINDING AFFINITY PREDICTED BY RF-SCORE:    0.00 PKD
ROOT
HETATM    1  N   UNL     1     -12.471  14.822  63.638  1.00  0.00    -1.051 NA 
HETATM    2  CA  UNL     1     -11.587  14.148  64.642  1.00  0.00    -0.406 C  
HETATM    3  H2  UNL     1     -12.404  15.836  63.728  1.00  0.00     0.000 HD 
HETATM    4  H1  UNL     1     -12.301  14.538  62.674  1.00  0.00     0.000 HD 
HETATM    5  OXT UNL     1     -11.179  11.788  65.184  1.00  0.00    -0.302 OA 
HETATM    6  C   UNL     1     -11.713  12.624  64.472  1.00  0.00    -0.359 C  
HETATM    7  O   UNL     1     -12.497  12.309  63.408  1.00  0.00    -0.598 OA 
ENDROOT
BRANCH   2   8
HETATM    8  C   UNL     1     -11.842  14.577  66.098  1.00  0.00    -0.344 C  
BRANCH   8   9
HETATM    9  C   UNL     1     -10.682  15.268  66.780  1.00  0.00    -0.313 A  
HETATM   10  C   UNL     1     -10.052  14.676  67.887  1.00  0.00    -0.225 A  
HETATM   11  C   UNL     1      -9.015  15.347  68.527  1.00  0.00    -0.192 A  
HETATM   12  C   UNL     1      -8.594  16.595  68.075  1.00  0.00    -0.193 A  
HETATM   13  O   UNL     1      -8.383  14.820  69.619  1.00  0.00    -0.417 OA 
HETATM   14  H   UNL     1      -7.675  15.278  70.056  1.00  0.00     0.000 HD 
HETATM   15  O   UNL     1      -7.587  17.249  68.723  1.00  0.00    -0.247 OA 
HETATM   16  C   UNL     1      -9.193  17.193  66.977  1.00  0.00    -0.251 A  
HETATM   17  C   UNL     1     -10.233  16.523  66.340  1.00  0.00    -0.316 A  
HETATM   18  H   UNL     1      -7.300  18.101  68.415  1.00  0.00     0.000 HD 
HETATM   19  F   UNL     1     -10.844  17.113  65.302  1.00  0.00    -0.387 F  
ENDBRANCH   8   9
ENDBRANCH   2   8
TORSDOF 2
ENDMDL
MODEL       66
REMARK 921   NORMALIZED FREE ENERGY PREDICTED BY IDOCK:   -4.93 KCAL/MOL
REMARK 922        TOTAL FREE ENERGY PREDICTED BY IDOCK:   -5.81 KCAL/MOL
REMARK 923 INTER-LIGAND FREE ENERGY PREDICTED BY IDOCK:   -5.81 KCAL/MOL
REMARK 924 INTRA-LIGAND FREE ENERGY PREDICTED BY IDOCK:   -0.00 KCAL/MOL
REMARK 927      BINDING AFFINITY PREDICTED BY RF-SCORE:    0.00 PKD
ROOT
HETATM    1  N   UNL     1     -12.990  12.576  64.519  1.00  0.00    -0.823 NA 
HETATM    2  CA  UNL     1     -11.915  13.307  65.263  1.00  0.00    -0.388 C  
HETATM    3  H2  UNL     1     -13.112  11.637  64.899  1.00  0.00     0.000 HD 
HETATM    4  H1  UNL     1     -13.884  13.066  64.489  1.00  0.00     0.000 HD 
HETATM    5  OXT UNL     1     -10.924  15.537  64.996  1.00  0.00    -0.402 OA 
HETATM    6  C   UNL     1     -11.764  14.716  64.664  1.00  0.00    -0.426 C  
HETATM    7  O   UNL     1     -12.702  14.949  63.710  1.00  0.00    -0.754 OA 
ENDROOT
BRANCH   2   8
HETATM    8  C   UNL     1     -10.566  12.566  65.311  1.00  0.00    -0.319 C  
BRANCH   8   9
HETATM    9  C   UNL     1     -10.534  11.340  66.196  1.00  0.00    -0.305 A  
HETATM   10  C   UNL     1     -10.070  10.112  65.695  1.00  0.00    -0.324 A  
HETATM   11  C   UNL     1     -10.088   8.986  66.511  1.00  0.00    -0.283 A  
HETATM   12  C   UNL     1     -10.555   9.069  67.821  1.00  0.00    -0.214 A  
HETATM   13  O   UNL     1      -9.664   7.766  66.063  1.00  0.00    -0.440 OA 
HETATM   14  H   UNL     1      -9.677   6.997  66.621  1.00  0.00     0.000 HD 
HETATM   15  O   UNL     1     -10.583   7.952  68.605  1.00  0.00    -0.298 OA 
HETATM   16  C   UNL     1     -11.006  10.272  68.340  1.00  0.00    -0.308 A  
HETATM   17  C   UNL     1     -10.991  11.397  67.521  1.00  0.00    -0.260 A  
HETATM   18  H   UNL     1     -10.901   8.009  69.498  1.00  0.00     0.000 HD 
HETATM   19  F   UNL     1     -11.462  12.556  68.004  1.00  0.00    -0.267 F  
ENDBRANCH   8   9
ENDBRANCH   2   8
TORSDOF 2
ENDMDL
MODEL       67
REMARK 921   NORMALIZED FREE ENERGY PREDICTED BY IDOCK:   -4.93 KCAL/MOL
REMARK 922        TOTAL FREE ENERGY PREDICTED BY IDOCK:   -5.81 KCAL/MOL
REMARK 923 INTER-LIGAND FREE ENERGY PREDICTED BY IDOCK:   -5.59 KCAL/MOL
REMARK 924 INTRA-LIGAND FREE ENERGY PREDICTED BY IDOCK:   -0.22 KCAL/MOL
REMARK 927      BINDING AFFINITY PREDICTED BY RF-SCORE:    0.00 PKD
ROOT
HETATM    1  N   UNL     1     -13.704   7.474  71.792  1.00  0.00    -0.480 NA 
HETATM    2  CA  UNL     1     -12.682   8.540  71.538  1.00  0.00    -0.313 C  
HETATM    3  H2  UNL     1     -14.599   7.732  71.376  1.00  0.00     0.000 HD 
HETATM    4  H1  UNL     1     -13.423   6.544  71.483  1.00  0.00     0.000 HD 
HETATM    5  OXT UNL     1     -10.335   8.793  72.211  1.00  0.00    -0.325 OA 
HETATM    6  C   UNL     1     -11.348   8.113  72.175  1.00  0.00    -0.336 C  
HETATM    7  O   UNL     1     -11.428   6.861  72.695  1.00  0.00    -0.259 OA 
ENDROOT
BRANCH   2   8
HETATM    8  C   UNL     1     -13.106   9.945  72.003  1.00  0.00    -0.545 C  
BRANCH   8   9
HETATM    9  C   UNL     1     -12.687  11.079  71.094  1.00  0.00    -0.521 A  
HETATM   10  C   UNL     1     -12.083  10.812  69.854  1.00  0.00    -0.410 A  
HETATM   11  C   UNL     1     -11.665  11.869  69.052  1.00  0.00    -0.331 A  
HETATM   12  C   UNL     1     -11.848  13.186  69.464  1.00  0.00    -0.322 A  
HETATM   13  O   UNL     1     -11.056  11.659  67.846  1.00  0.00    -0.214 OA 
HETATM   14  H   UNL     1     -10.771  12.381  67.297  1.00  0.00     0.000 HD 
HETATM   15  O   UNL     1     -11.418  14.212  68.674  1.00  0.00    -0.263 OA 
HETATM   16  C   UNL     1     -12.453  13.473  70.677  1.00  0.00    -0.405 A  
HETATM   17  C   UNL     1     -12.867  12.416  71.481  1.00  0.00    -0.274 A  
HETATM   18  H   UNL     1     -11.543  15.111  68.955  1.00  0.00     0.000 HD 
HETATM   19  F   UNL     1     -13.417  12.686  72.675  1.00  0.00    -0.593 F  
ENDBRANCH   8   9
ENDBRANCH   2   8
TORSDOF 2
ENDMDL
MODEL       68
REMARK 921   NORMALIZED FREE ENERGY PREDICTED BY IDOCK:   -4.92 KCAL/MOL
REMARK 922        TOTAL FREE ENERGY PREDICTED BY IDOCK:   -5.81 KCAL/MOL
REMARK 923 INTER-LIGAND FREE ENERGY PREDICTED BY IDOCK:   -5.61 KCAL/MOL
REMARK 924 INTRA-LIGAND FREE ENERGY PREDICTED BY IDOCK:   -0.20 KCAL/MOL
REMARK 927      BINDING AFFINITY PREDICTED BY RF-SCORE:    0.00 PKD
ROOT
HETATM    1  N   UNL     1     -11.064  11.898  66.092  1.00  0.00    -0.316 NA 
HETATM    2  CA  UNL     1     -12.203  12.551  65.371  1.00  0.00    -0.412 C  
HETATM    3  H2  UNL     1     -11.329  11.674  67.051  1.00  0.00     0.000 HD 
HETATM    4  H1  UNL     1     -10.692  11.072  65.623  1.00  0.00     0.000 HD 
HETATM    5  OXT UNL     1     -12.437  13.469  63.107  1.00  0.00    -0.759 OA 
HETATM    6  C   UNL     1     -11.766  12.869  63.931  1.00  0.00    -0.460 C  
HETATM    7  O   UNL     1     -10.523  12.385  63.675  1.00  0.00    -0.425 OA 
ENDROOT
BRANCH   2   8
HETATM    8  C   UNL     1     -12.765  13.797  66.079  1.00  0.00    -0.407 C  
BRANCH   8   9
HETATM    9  C   UNL     1     -11.738  14.659  66.780  1.00  0.00    -0.355 A  
HETATM   10  C   UNL     1     -10.849  15.453  66.037  1.00  0.00    -0.315 A  
HETATM   11  C   UNL     1      -9.884  16.206  66.697  1.00  0.00    -0.249 A  
HETATM   12  C   UNL     1      -9.798  16.184  68.087  1.00  0.00    -0.227 A  
HETATM   13  O   UNL     1      -8.985  16.980  66.016  1.00  0.00    -0.470 OA 
HETATM   14  H   UNL     1      -8.326  17.494  66.467  1.00  0.00     0.000 HD 
HETATM   15  O   UNL     1      -8.835  16.915  68.720  1.00  0.00    -0.261 OA 
HETATM   16  C   UNL     1     -10.672  15.418  68.841  1.00  0.00    -0.244 A  
HETATM   17  C   UNL     1     -11.634  14.662  68.179  1.00  0.00    -0.335 A  
HETATM   18  H   UNL     1      -8.776  16.900  69.668  1.00  0.00     0.000 HD 
HETATM   19  F   UNL     1     -12.458  13.887  68.900  1.00  0.00    -0.375 F  
ENDBRANCH   8   9
ENDBRANCH   2   8
TORSDOF 2
ENDMDL
MODEL       69
REMARK 921   NORMALIZED FREE ENERGY PREDICTED BY IDOCK:   -4.92 KCAL/MOL
REMARK 922        TOTAL FREE ENERGY PREDICTED BY IDOCK:   -5.81 KCAL/MOL
REMARK 923 INTER-LIGAND FREE ENERGY PREDICTED BY IDOCK:   -5.55 KCAL/MOL
REMARK 924 INTRA-LIGAND FREE ENERGY PREDICTED BY IDOCK:   -0.26 KCAL/MOL
REMARK 927      BINDING AFFINITY PREDICTED BY RF-SCORE:    0.00 PKD
ROOT
HETATM    1  N   UNL     1      -8.273  18.508  68.450  1.00  0.00    -0.320 NA 
HETATM    2  CA  UNL     1      -9.264  18.033  67.431  1.00  0.00    -0.253 C  
HETATM    3  H2  UNL     1      -8.033  17.753  69.093  1.00  0.00     0.000 HD 
HETATM    4  H1  UNL     1      -7.428  18.917  68.051  1.00  0.00     0.000 HD 
HETATM    5  OXT UNL     1     -10.426  19.159  65.585  1.00  0.00    -0.534 OA 
HETATM    6  C   UNL     1      -9.596  19.196  66.480  1.00  0.00    -0.355 C  
HETATM    7  O   UNL     1      -8.835  20.288  66.751  1.00  0.00    -0.317 OA 
ENDROOT
BRANCH   2   8
HETATM    8  C   UNL     1     -10.538  17.414  68.033  1.00  0.00    -0.389 C  
BRANCH   8   9
HETATM    9  C   UNL     1     -10.809  15.980  67.634  1.00  0.00    -0.311 A  
HETATM   10  C   UNL     1     -10.242  15.447  66.464  1.00  0.00    -0.287 A  
HETATM   11  C   UNL     1     -10.536  14.140  66.091  1.00  0.00    -0.293 A  
HETATM   12  C   UNL     1     -11.383  13.355  66.871  1.00  0.00    -0.323 A  
HETATM   13  O   UNL     1     -10.023  13.583  64.953  1.00  0.00    -0.565 OA 
HETATM   14  H   UNL     1     -10.224  12.691  64.698  1.00  0.00     0.000 HD 
HETATM   15  O   UNL     1     -11.677  12.080  66.484  1.00  0.00    -0.523 OA 
HETATM   16  C   UNL     1     -11.944  13.856  68.035  1.00  0.00    -0.390 A  
HETATM   17  C   UNL     1     -11.652  15.165  68.405  1.00  0.00    -0.337 A  
HETATM   18  H   UNL     1     -12.254  11.545  67.016  1.00  0.00     0.000 HD 
HETATM   19  F   UNL     1     -12.223  15.669  69.509  1.00  0.00    -0.349 F  
ENDBRANCH   8   9
ENDBRANCH   2   8
TORSDOF 2
ENDMDL
MODEL       70
REMARK 921   NORMALIZED FREE ENERGY PREDICTED BY IDOCK:   -4.91 KCAL/MOL
REMARK 922        TOTAL FREE ENERGY PREDICTED BY IDOCK:   -5.79 KCAL/MOL
REMARK 923 INTER-LIGAND FREE ENERGY PREDICTED BY IDOCK:   -5.50 KCAL/MOL
REMARK 924 INTRA-LIGAND FREE ENERGY PREDICTED BY IDOCK:   -0.29 KCAL/MOL
REMARK 927      BINDING AFFINITY PREDICTED BY RF-SCORE:    0.00 PKD
ROOT
HETATM    1  N   UNL     1     -14.111   9.062  72.812  1.00  0.00    -1.035 NA 
HETATM    2  CA  UNL     1     -13.232   8.888  71.611  1.00  0.00    -0.362 C  
HETATM    3  H2  UNL     1     -14.321  10.049  72.960  1.00  0.00     0.000 HD 
HETATM    4  H1  UNL     1     -14.971   8.515  72.783  1.00  0.00     0.000 HD 
HETATM    5  OXT UNL     1     -12.196   6.918  70.576  1.00  0.00    -0.340 OA 
HETATM    6  C   UNL     1     -12.941   7.390  71.420  1.00  0.00    -0.356 C  
HETATM    7  O   UNL     1     -13.633   6.635  72.312  1.00  0.00     0.002 OA 
ENDROOT
BRANCH   2   8
HETATM    8  C   UNL     1     -11.934   9.714  71.655  1.00  0.00    -0.470 C  
BRANCH   8   9
HETATM    9  C   UNL     1     -11.881  10.884  70.698  1.00  0.00    -0.453 A  
HETATM   10  C   UNL     1     -12.413  12.131  71.067  1.00  0.00    -0.369 A  
HETATM   11  C   UNL     1     -12.394  13.183  70.158  1.00  0.00    -0.213 A  
HETATM   12  C   UNL     1     -11.847  13.011  68.888  1.00  0.00    -0.316 A  
HETATM   13  O   UNL     1     -12.914  14.409  70.465  1.00  0.00    -0.410 OA 
HETATM   14  H   UNL     1     -12.901  15.128  69.844  1.00  0.00     0.000 HD 
HETATM   15  O   UNL     1     -11.850  14.048  68.000  1.00  0.00    -0.338 OA 
HETATM   16  C   UNL     1     -11.306  11.794  68.506  1.00  0.00    -0.328 A  
HETATM   17  C   UNL     1     -11.329  10.741  69.416  1.00  0.00    -0.285 A  
HETATM   18  H   UNL     1     -11.477  13.931  67.135  1.00  0.00     0.000 HD 
HETATM   19  F   UNL     1     -10.843   9.549  69.039  1.00  0.00    -0.228 F  
ENDBRANCH   8   9
ENDBRANCH   2   8
TORSDOF 2
ENDMDL
MODEL       71
REMARK 921   NORMALIZED FREE ENERGY PREDICTED BY IDOCK:   -4.90 KCAL/MOL
REMARK 922        TOTAL FREE ENERGY PREDICTED BY IDOCK:   -5.79 KCAL/MOL
REMARK 923 INTER-LIGAND FREE ENERGY PREDICTED BY IDOCK:   -5.56 KCAL/MOL
REMARK 924 INTRA-LIGAND FREE ENERGY PREDICTED BY IDOCK:   -0.23 KCAL/MOL
REMARK 927      BINDING AFFINITY PREDICTED BY RF-SCORE:    0.00 PKD
ROOT
HETATM    1  N   UNL     1     -10.281  15.125  70.095  1.00  0.00    -0.509 NA 
HETATM    2  CA  UNL     1     -11.138  14.219  69.264  1.00  0.00    -0.265 C  
HETATM    3  H2  UNL     1     -10.049  14.680  70.983  1.00  0.00     0.000 HD 
HETATM    4  H1  UNL     1      -9.435  15.446  69.625  1.00  0.00     0.000 HD 
HETATM    5  OXT UNL     1     -12.202  14.483  67.068  1.00  0.00    -0.362 OA 
HETATM    6  C   UNL     1     -11.463  14.922  67.935  1.00  0.00    -0.340 C  
HETATM    7  O   UNL     1     -10.810  16.109  67.832  1.00  0.00    -0.320 OA 
ENDROOT
BRANCH   2   8
HETATM    8  C   UNL     1     -12.415  13.734  69.973  1.00  0.00    -0.301 C  
BRANCH   8   9
HETATM    9  C   UNL     1     -12.384  12.297  70.446  1.00  0.00    -0.309 A  
HETATM   10  C   UNL     1     -11.722  11.313  69.692  1.00  0.00    -0.420 A  
HETATM   11  C   UNL     1     -11.741   9.990  70.120  1.00  0.00    -0.215 A  
HETATM   12  C   UNL     1     -12.404   9.636  71.293  1.00  0.00    -0.360 A  
HETATM   13  O   UNL     1     -11.127   8.996  69.411  1.00  0.00    -0.418 OA 
HETATM   14  H   UNL     1     -11.140   8.092  69.704  1.00  0.00     0.000 HD 
HETATM   15  O   UNL     1     -12.428   8.331  71.692  1.00  0.00    -0.299 OA 
HETATM   16  C   UNL     1     -13.053  10.591  72.059  1.00  0.00    -0.511 A  
HETATM   17  C   UNL     1     -13.037  11.913  71.627  1.00  0.00    -0.328 A  
HETATM   18  H   UNL     1     -12.880   8.089  72.492  1.00  0.00     0.000 HD 
HETATM   19  F   UNL     1     -13.696  12.836  72.343  1.00  0.00    -0.603 F  
ENDBRANCH   8   9
ENDBRANCH   2   8
TORSDOF 2
ENDMDL
MODEL       72
REMARK 921   NORMALIZED FREE ENERGY PREDICTED BY IDOCK:   -4.89 KCAL/MOL
REMARK 922        TOTAL FREE ENERGY PREDICTED BY IDOCK:   -5.78 KCAL/MOL
REMARK 923 INTER-LIGAND FREE ENERGY PREDICTED BY IDOCK:   -5.63 KCAL/MOL
REMARK 924 INTRA-LIGAND FREE ENERGY PREDICTED BY IDOCK:   -0.15 KCAL/MOL
REMARK 927      BINDING AFFINITY PREDICTED BY RF-SCORE:    0.00 PKD
ROOT
HETATM    1  N   UNL     1     -11.948  12.886  70.459  1.00  0.00    -0.533 NA 
HETATM    2  CA  UNL     1     -12.233  14.215  71.088  1.00  0.00    -0.358 C  
HETATM    3  H2  UNL     1     -11.267  12.986  69.707  1.00  0.00     0.000 HD 
HETATM    4  H1  UNL     1     -11.647  12.168  71.118  1.00  0.00     0.000 HD 
HETATM    5  OXT UNL     1     -13.757  14.920  72.879  1.00  0.00    -0.462 OA 
HETATM    6  C   UNL     1     -13.259  14.022  72.218  1.00  0.00    -0.464 C  
HETATM    7  O   UNL     1     -13.544  12.708  72.407  1.00  0.00    -0.550 OA 
ENDROOT
BRANCH   2   8
HETATM    8  C   UNL     1     -12.686  15.299  70.093  1.00  0.00    -0.278 C  
BRANCH   8   9
HETATM    9  C   UNL     1     -11.672  15.664  69.031  1.00  0.00    -0.408 A  
HETATM   10  C   UNL     1     -10.757  16.708  69.250  1.00  0.00    -0.337 A  
HETATM   11  C   UNL     1      -9.860  17.057  68.245  1.00  0.00    -0.278 A  
HETATM   12  C   UNL     1      -9.860  16.377  67.030  1.00  0.00    -0.251 A  
HETATM   13  O   UNL     1      -8.963  18.077  68.404  1.00  0.00    -0.269 OA 
HETATM   14  H   UNL     1      -8.351  18.315  67.718  1.00  0.00     0.000 HD 
HETATM   15  O   UNL     1      -8.986  16.742  66.047  1.00  0.00    -0.437 OA 
HETATM   16  C   UNL     1     -10.745  15.337  66.797  1.00  0.00    -0.313 A  
HETATM   17  C   UNL     1     -11.644  14.991  67.801  1.00  0.00    -0.319 A  
HETATM   18  H   UNL     1      -8.985  16.278  65.218  1.00  0.00     0.000 HD 
HETATM   19  F   UNL     1     -12.530  14.012  67.567  1.00  0.00    -0.373 F  
ENDBRANCH   8   9
ENDBRANCH   2   8
TORSDOF 2
ENDMDL
MODEL       73
REMARK 921   NORMALIZED FREE ENERGY PREDICTED BY IDOCK:   -4.89 KCAL/MOL
REMARK 922        TOTAL FREE ENERGY PREDICTED BY IDOCK:   -5.78 KCAL/MOL
REMARK 923 INTER-LIGAND FREE ENERGY PREDICTED BY IDOCK:   -5.67 KCAL/MOL
REMARK 924 INTRA-LIGAND FREE ENERGY PREDICTED BY IDOCK:   -0.11 KCAL/MOL
REMARK 927      BINDING AFFINITY PREDICTED BY RF-SCORE:    0.00 PKD
ROOT
HETATM    1  N   UNL     1      -9.066  12.552  67.637  1.00  0.00    -0.179 NA 
HETATM    2  CA  UNL     1      -9.925  11.685  68.505  1.00  0.00    -0.194 C  
HETATM    3  H2  UNL     1      -9.553  13.417  67.404  1.00  0.00     0.000 HD 
HETATM    4  H1  UNL     1      -8.147  12.756  68.030  1.00  0.00     0.000 HD 
HETATM    5  OXT UNL     1      -9.603   9.448  69.465  1.00  0.00    -0.163 OA 
HETATM    6  C   UNL     1      -9.155  10.395  68.838  1.00  0.00    -0.173 C  
HETATM    7  O   UNL     1      -7.887  10.437  68.351  1.00  0.00    -0.098 OA 
ENDROOT
BRANCH   2   8
HETATM    8  C   UNL     1     -11.312  11.378  67.914  1.00  0.00    -0.371 C  
BRANCH   8   9
HETATM    9  C   UNL     1     -11.640  12.103  66.627  1.00  0.00    -0.416 A  
HETATM   10  C   UNL     1     -11.401  11.493  65.385  1.00  0.00    -0.147 A  
HETATM   11  C   UNL     1     -11.669  12.192  64.213  1.00  0.00    -0.373 A  
HETATM   12  C   UNL     1     -12.177  13.487  64.262  1.00  0.00    -0.396 A  
HETATM   13  O   UNL     1     -11.437  11.646  62.981  1.00  0.00    -0.779 OA 
HETATM   14  H   UNL     1     -11.620  12.124  62.180  1.00  0.00     0.000 HD 
HETATM   15  O   UNL     1     -12.419  14.168  63.104  1.00  0.00    -1.126 OA 
HETATM   16  C   UNL     1     -12.432  14.105  65.476  1.00  0.00    -0.495 A  
HETATM   17  C   UNL     1     -12.160  13.406  66.648  1.00  0.00    -0.373 A  
HETATM   18  H   UNL     1     -12.766  15.051  63.138  1.00  0.00     0.000 HD 
HETATM   19  F   UNL     1     -12.367  14.012  67.827  1.00  0.00    -0.385 F  
ENDBRANCH   8   9
ENDBRANCH   2   8
TORSDOF 2
ENDMDL
MODEL       74
REMARK 921   NORMALIZED FREE ENERGY PREDICTED BY IDOCK:   -4.86 KCAL/MOL
REMARK 922        TOTAL FREE ENERGY PREDICTED BY IDOCK:   -5.75 KCAL/MOL
REMARK 923 INTER-LIGAND FREE ENERGY PREDICTED BY IDOCK:   -5.50 KCAL/MOL
REMARK 924 INTRA-LIGAND FREE ENERGY PREDICTED BY IDOCK:   -0.24 KCAL/MOL
REMARK 927      BINDING AFFINITY PREDICTED BY RF-SCORE:    0.00 PKD
ROOT
HETATM    1  N   UNL     1      -9.579  16.349  67.799  1.00  0.00    -0.230 NA 
HETATM    2  CA  UNL     1     -10.290  15.511  66.781  1.00  0.00    -0.288 C  
HETATM    3  H2  UNL     1      -9.440  15.821  68.661  1.00  0.00     0.000 HD 
HETATM    4  H1  UNL     1      -8.696  16.741  67.474  1.00  0.00     0.000 HD 
HETATM    5  OXT UNL     1     -11.086  15.971  64.505  1.00  0.00    -0.572 OA 
HETATM    6  C   UNL     1     -10.478  16.339  65.498  1.00  0.00    -0.362 C  
HETATM    7  O   UNL     1      -9.866  17.547  65.596  1.00  0.00    -0.543 OA 
ENDROOT
BRANCH   2   8
HETATM    8  C   UNL     1     -11.623  14.919  67.271  1.00  0.00    -0.337 C  
BRANCH   8   9
HETATM    9  C   UNL     1     -11.577  13.457  67.659  1.00  0.00    -0.377 A  
HETATM   10  C   UNL     1     -11.719  13.072  69.002  1.00  0.00    -0.376 A  
HETATM   11  C   UNL     1     -11.631  11.727  69.345  1.00  0.00    -0.322 A  
HETATM   12  C   UNL     1     -11.408  10.761  68.366  1.00  0.00    -0.302 A  
HETATM   13  O   UNL     1     -11.745  11.305  70.640  1.00  0.00    -0.410 OA 
HETATM   14  H   UNL     1     -11.685  10.386  70.874  1.00  0.00     0.000 HD 
HETATM   15  O   UNL     1     -11.307   9.446  68.719  1.00  0.00    -0.455 OA 
HETATM   16  C   UNL     1     -11.277  11.116  67.033  1.00  0.00    -0.291 A  
HETATM   17  C   UNL     1     -11.361  12.463  66.693  1.00  0.00    -0.339 A  
HETATM   18  H   UNL     1     -11.155   8.787  68.051  1.00  0.00     0.000 HD 
HETATM   19  F   UNL     1     -11.195  12.818  65.410  1.00  0.00    -0.299 F  
ENDBRANCH   8   9
ENDBRANCH   2   8
TORSDOF 2
ENDMDL
MODEL       75
REMARK 921   NORMALIZED FREE ENERGY PREDICTED BY IDOCK:   -4.85 KCAL/MOL
REMARK 922        TOTAL FREE ENERGY PREDICTED BY IDOCK:   -5.74 KCAL/MOL
REMARK 923 INTER-LIGAND FREE ENERGY PREDICTED BY IDOCK:   -5.55 KCAL/MOL
REMARK 924 INTRA-LIGAND FREE ENERGY PREDICTED BY IDOCK:   -0.18 KCAL/MOL
REMARK 927      BINDING AFFINITY PREDICTED BY RF-SCORE:    0.00 PKD
ROOT
HETATM    1  N   UNL     1     -11.118  16.400  68.724  1.00  0.00    -0.342 NA 
HETATM    2  CA  UNL     1      -9.709  16.614  68.265  1.00  0.00    -0.244 C  
HETATM    3  H2  UNL     1     -11.241  15.447  69.066  1.00  0.00     0.000 HD 
HETATM    4  H1  UNL     1     -11.437  17.073  69.422  1.00  0.00     0.000 HD 
HETATM    5  OXT UNL     1      -8.559  18.531  67.251  1.00  0.00    -0.257 OA 
HETATM    6  C   UNL     1      -9.563  18.060  67.761  1.00  0.00    -0.278 C  
HETATM    7  O   UNL     1     -10.703  18.771  67.964  1.00  0.00    -0.336 OA 
ENDROOT
BRANCH   2   8
HETATM    8  C   UNL     1      -9.228  15.599  67.213  1.00  0.00    -0.214 C  
BRANCH   8   9
HETATM    9  C   UNL     1     -10.313  14.742  66.599  1.00  0.00    -0.273 A  
HETATM   10  C   UNL     1     -10.614  13.480  67.138  1.00  0.00    -0.264 A  
HETATM   11  C   UNL     1     -11.586  12.689  66.534  1.00  0.00    -0.381 A  
HETATM   12  C   UNL     1     -12.265  13.141  65.405  1.00  0.00    -0.461 A  
HETATM   13  O   UNL     1     -11.901  11.447  67.011  1.00  0.00    -0.530 OA 
HETATM   14  H   UNL     1     -12.565  10.907  66.599  1.00  0.00     0.000 HD 
HETATM   15  O   UNL     1     -13.204  12.347  64.813  1.00  0.00    -0.784 OA 
HETATM   16  C   UNL     1     -11.993  14.387  64.864  1.00  0.00    -0.430 A  
HETATM   17  C   UNL     1     -11.018  15.176  65.466  1.00  0.00    -0.365 A  
HETATM   18  H   UNL     1     -13.668  12.655  64.043  1.00  0.00     0.000 HD 
HETATM   19  F   UNL     1     -10.722  16.366  64.924  1.00  0.00    -0.393 F  
ENDBRANCH   8   9
ENDBRANCH   2   8
TORSDOF 2
ENDMDL
MODEL       76
REMARK 921   NORMALIZED FREE ENERGY PREDICTED BY IDOCK:   -4.83 KCAL/MOL
REMARK 922        TOTAL FREE ENERGY PREDICTED BY IDOCK:   -5.70 KCAL/MOL
REMARK 923 INTER-LIGAND FREE ENERGY PREDICTED BY IDOCK:   -5.39 KCAL/MOL
REMARK 924 INTRA-LIGAND FREE ENERGY PREDICTED BY IDOCK:   -0.31 KCAL/MOL
REMARK 927      BINDING AFFINITY PREDICTED BY RF-SCORE:    0.00 PKD
ROOT
HETATM    1  N   UNL     1      -7.929  10.595  69.741  1.00  0.00    -0.370 NA 
HETATM    2  CA  UNL     1      -8.662   9.298  69.894  1.00  0.00    -0.180 C  
HETATM    3  H2  UNL     1      -8.468  11.360  70.147  1.00  0.00     0.000 HD 
HETATM    4  H1  UNL     1      -6.982  10.587  70.121  1.00  0.00     0.000 HD 
HETATM    5  OXT UNL     1      -8.164   7.006  69.171  1.00  0.00    -0.119 OA 
HETATM    6  C   UNL     1      -7.816   8.172  69.276  1.00  0.00    -0.110 C  
HETATM    7  O   UNL     1      -6.608   8.633  68.860  1.00  0.00    -0.051 OA 
ENDROOT
BRANCH   2   8
HETATM    8  C   UNL     1     -10.091   9.311  69.322  1.00  0.00    -0.201 C  
BRANCH   8   9
HETATM    9  C   UNL     1     -11.198   9.243  70.351  1.00  0.00    -0.290 A  
HETATM   10  C   UNL     1     -11.828  10.416  70.798  1.00  0.00    -0.466 A  
HETATM   11  C   UNL     1     -12.814  10.337  71.776  1.00  0.00    -0.460 A  
HETATM   12  C   UNL     1     -13.186   9.105  72.308  1.00  0.00    -0.461 A  
HETATM   13  O   UNL     1     -13.442  11.453  72.256  1.00  0.00    -0.601 OA 
HETATM   14  H   UNL     1     -14.116  11.399  72.923  1.00  0.00     0.000 HD 
HETATM   15  O   UNL     1     -14.143   9.044  73.279  1.00  0.00    -1.218 OA 
HETATM   16  C   UNL     1     -12.587   7.934  71.873  1.00  0.00    -0.348 A  
HETATM   17  C   UNL     1     -11.598   8.014  70.899  1.00  0.00    -0.269 A  
HETATM   18  H   UNL     1     -14.397   8.204  73.642  1.00  0.00     0.000 HD 
HETATM   19  F   UNL     1     -10.986   6.888  70.502  1.00  0.00    -0.251 F  
ENDBRANCH   8   9
ENDBRANCH   2   8
TORSDOF 2
ENDMDL
MODEL       77
REMARK 921   NORMALIZED FREE ENERGY PREDICTED BY IDOCK:   -4.81 KCAL/MOL
REMARK 922        TOTAL FREE ENERGY PREDICTED BY IDOCK:   -5.69 KCAL/MOL
REMARK 923 INTER-LIGAND FREE ENERGY PREDICTED BY IDOCK:   -5.45 KCAL/MOL
REMARK 924 INTRA-LIGAND FREE ENERGY PREDICTED BY IDOCK:   -0.24 KCAL/MOL
REMARK 927      BINDING AFFINITY PREDICTED BY RF-SCORE:    0.00 PKD
ROOT
HETATM    1  N   UNL     1     -12.184  16.448  71.880  1.00  0.00    -0.589 NA 
HETATM    2  CA  UNL     1     -12.758  15.183  71.320  1.00  0.00    -0.369 C  
HETATM    3  H2  UNL     1     -11.669  16.956  71.161  1.00  0.00     0.000 HD 
HETATM    4  H1  UNL     1     -12.872  17.058  72.323  1.00  0.00     0.000 HD 
HETATM    5  OXT UNL     1     -14.052  13.352  72.320  1.00  0.00    -0.519 OA 
HETATM    6  C   UNL     1     -13.529  14.450  72.431  1.00  0.00    -0.462 C  
HETATM    7  O   UNL     1     -13.570  15.186  73.571  1.00  0.00    -0.342 OA 
ENDROOT
BRANCH   2   8
HETATM    8  C   UNL     1     -11.721  14.263  70.650  1.00  0.00    -0.287 C  
BRANCH   8   9
HETATM    9  C   UNL     1     -11.563  14.448  69.157  1.00  0.00    -0.344 A  
HETATM   10  C   UNL     1     -12.191  13.568  68.261  1.00  0.00    -0.148 A  
HETATM   11  C   UNL     1     -11.999  13.728  66.892  1.00  0.00    -0.421 A  
HETATM   12  C   UNL     1     -11.195  14.756  66.406  1.00  0.00    -0.342 A  
HETATM   13  O   UNL     1     -12.576  12.886  65.982  1.00  0.00    -0.467 OA 
HETATM   14  H   UNL     1     -12.445  12.996  65.047  1.00  0.00     0.000 HD 
HETATM   15  O   UNL     1     -11.002  14.891  65.062  1.00  0.00    -0.370 OA 
HETATM   16  C   UNL     1     -10.575  15.643  67.271  1.00  0.00    -0.305 A  
HETATM   17  C   UNL     1     -10.765  15.479  68.640  1.00  0.00    -0.252 A  
HETATM   18  H   UNL     1     -10.454  15.592  64.730  1.00  0.00     0.000 HD 
HETATM   19  F   UNL     1     -10.136  16.310  69.485  1.00  0.00    -0.230 F  
ENDBRANCH   8   9
ENDBRANCH   2   8
TORSDOF 2
ENDMDL
MODEL       78
REMARK 921   NORMALIZED FREE ENERGY PREDICTED BY IDOCK:   -4.81 KCAL/MOL
REMARK 922        TOTAL FREE ENERGY PREDICTED BY IDOCK:   -5.69 KCAL/MOL
REMARK 923 INTER-LIGAND FREE ENERGY PREDICTED BY IDOCK:   -5.41 KCAL/MOL
REMARK 924 INTRA-LIGAND FREE ENERGY PREDICTED BY IDOCK:   -0.28 KCAL/MOL
REMARK 927      BINDING AFFINITY PREDICTED BY RF-SCORE:    0.00 PKD
ROOT
HETATM    1  N   UNL     1     -10.798  11.315  66.332  1.00  0.00    -0.270 NA 
HETATM    2  CA  UNL     1     -11.426  12.167  67.391  1.00  0.00    -0.345 C  
HETATM    3  H2  UNL     1     -10.743  10.344  66.641  1.00  0.00     0.000 HD 
HETATM    4  H1  UNL     1     -11.254  11.374  65.422  1.00  0.00     0.000 HD 
HETATM    5  OXT UNL     1     -11.883  14.575  67.540  1.00  0.00    -0.378 OA 
HETATM    6  C   UNL     1     -11.493  13.619  66.887  1.00  0.00    -0.345 C  
HETATM    7  O   UNL     1     -11.069  13.715  65.601  1.00  0.00    -0.293 OA 
ENDROOT
BRANCH   2   8
HETATM    8  C   UNL     1     -10.737  12.077  68.765  1.00  0.00    -0.252 C  
BRANCH   8   9
HETATM    9  C   UNL     1     -11.557  11.424  69.856  1.00  0.00    -0.402 A  
HETATM   10  C   UNL     1     -11.718  10.029  69.887  1.00  0.00    -0.190 A  
HETATM   11  C   UNL     1     -12.510   9.450  70.873  1.00  0.00    -0.166 A  
HETATM   12  C   UNL     1     -13.138  10.242  71.832  1.00  0.00    -0.463 A  
HETATM   13  O   UNL     1     -12.712   8.099  70.934  1.00  0.00    -0.508 OA 
HETATM   14  H   UNL     1     -13.253   7.705  71.607  1.00  0.00     0.000 HD 
HETATM   15  O   UNL     1     -13.926   9.663  72.783  1.00  0.00    -0.716 OA 
HETATM   16  C   UNL     1     -12.983  11.619  71.828  1.00  0.00    -0.483 A  
HETATM   17  C   UNL     1     -12.194  12.197  70.839  1.00  0.00    -0.211 A  
HETATM   18  H   UNL     1     -14.354  10.203  73.437  1.00  0.00     0.000 HD 
HETATM   19  F   UNL     1     -12.072  13.533  70.805  1.00  0.00    -0.385 F  
ENDBRANCH   8   9
ENDBRANCH   2   8
TORSDOF 2
ENDMDL
MODEL       79
REMARK 921   NORMALIZED FREE ENERGY PREDICTED BY IDOCK:   -4.81 KCAL/MOL
REMARK 922        TOTAL FREE ENERGY PREDICTED BY IDOCK:   -5.68 KCAL/MOL
REMARK 923 INTER-LIGAND FREE ENERGY PREDICTED BY IDOCK:   -5.45 KCAL/MOL
REMARK 924 INTRA-LIGAND FREE ENERGY PREDICTED BY IDOCK:   -0.23 KCAL/MOL
REMARK 927      BINDING AFFINITY PREDICTED BY RF-SCORE:    0.00 PKD
ROOT
HETATM    1  N   UNL     1      -9.659  15.131  69.509  1.00  0.00    -0.388 NA 
HETATM    2  CA  UNL     1     -10.164  13.996  68.671  1.00  0.00    -0.233 C  
HETATM    3  H2  UNL     1      -9.941  15.009  70.482  1.00  0.00     0.000 HD 
HETATM    4  H1  UNL     1      -8.652  15.280  69.446  1.00  0.00     0.000 HD 
HETATM    5  OXT UNL     1     -10.026  13.508  66.269  1.00  0.00    -0.285 OA 
HETATM    6  C   UNL     1      -9.716  14.214  67.216  1.00  0.00    -0.236 C  
HETATM    7  O   UNL     1      -8.908  15.300  67.105  1.00  0.00    -0.186 OA 
ENDROOT
BRANCH   2   8
HETATM    8  C   UNL     1     -11.684  13.770  68.766  1.00  0.00    -0.391 C  
BRANCH   8   9
HETATM    9  C   UNL     1     -12.124  12.783  69.824  1.00  0.00    -0.305 A  
HETATM   10  C   UNL     1     -11.918  11.406  69.643  1.00  0.00    -0.416 A  
HETATM   11  C   UNL     1     -12.369  10.510  70.607  1.00  0.00    -0.356 A  
HETATM   12  C   UNL     1     -13.015  10.970  71.752  1.00  0.00    -0.438 A  
HETATM   13  O   UNL     1     -12.207   9.160  70.467  1.00  0.00    -0.480 OA 
HETATM   14  H   UNL     1     -12.514   8.549  71.126  1.00  0.00     0.000 HD 
HETATM   15  O   UNL     1     -13.467  10.079  72.682  1.00  0.00    -0.591 OA 
HETATM   16  C   UNL     1     -13.219  12.325  71.958  1.00  0.00    -0.508 A  
HETATM   17  C   UNL     1     -12.772  13.219  70.990  1.00  0.00    -0.293 A  
HETATM   18  H   UNL     1     -13.908  10.392  73.463  1.00  0.00     0.000 HD 
HETATM   19  F   UNL     1     -13.001  14.529  71.164  1.00  0.00    -0.347 F  
ENDBRANCH   8   9
ENDBRANCH   2   8
TORSDOF 2
ENDMDL
MODEL       80
REMARK 921   NORMALIZED FREE ENERGY PREDICTED BY IDOCK:   -4.80 KCAL/MOL
REMARK 922        TOTAL FREE ENERGY PREDICTED BY IDOCK:   -5.68 KCAL/MOL
REMARK 923 INTER-LIGAND FREE ENERGY PREDICTED BY IDOCK:   -5.43 KCAL/MOL
REMARK 924 INTRA-LIGAND FREE ENERGY PREDICTED BY IDOCK:   -0.25 KCAL/MOL
REMARK 927      BINDING AFFINITY PREDICTED BY RF-SCORE:    0.00 PKD
ROOT
HETATM    1  N   UNL     1     -11.563  15.847  68.619  1.00  0.00    -0.395 NA 
HETATM    2  CA  UNL     1     -10.838  15.563  67.339  1.00  0.00    -0.312 C  
HETATM    3  H2  UNL     1     -11.896  14.979  69.040  1.00  0.00     0.000 HD 
HETATM    4  H1  UNL     1     -11.022  16.386  69.295  1.00  0.00     0.000 HD 
HETATM    5  OXT UNL     1      -9.788  17.016  65.661  1.00  0.00    -0.547 OA 
HETATM    6  C   UNL     1     -10.349  16.893  66.739  1.00  0.00    -0.298 C  
HETATM    7  O   UNL     1     -10.610  17.935  67.570  1.00  0.00    -0.388 OA 
ENDROOT
BRANCH   2   8
HETATM    8  C   UNL     1     -11.654  14.749  66.319  1.00  0.00    -0.298 C  
BRANCH   8   9
HETATM    9  C   UNL     1     -11.267  13.291  66.200  1.00  0.00    -0.317 A  
HETATM   10  C   UNL     1     -11.651  12.370  67.188  1.00  0.00    -0.435 A  
HETATM   11  C   UNL     1     -11.249  11.042  67.083  1.00  0.00    -0.217 A  
HETATM   12  C   UNL     1     -10.477  10.620  66.003  1.00  0.00    -0.183 A  
HETATM   13  O   UNL     1     -11.584  10.112  68.028  1.00  0.00    -0.665 OA 
HETATM   14  H   UNL     1     -11.309   9.206  67.956  1.00  0.00     0.000 HD 
HETATM   15  O   UNL     1     -10.076   9.318  65.922  1.00  0.00    -0.342 OA 
HETATM   16  C   UNL     1     -10.096  11.509  65.011  1.00  0.00    -0.315 A  
HETATM   17  C   UNL     1     -10.495  12.837  65.119  1.00  0.00    -0.300 A  
HETATM   18  H   UNL     1      -9.549   9.030  65.186  1.00  0.00     0.000 HD 
HETATM   19  F   UNL     1     -10.097  13.712  64.183  1.00  0.00    -0.418 F  
ENDBRANCH   8   9
ENDBRANCH   2   8
TORSDOF 2
ENDMDL
MODEL       81
REMARK 921   NORMALIZED FREE ENERGY PREDICTED BY IDOCK:   -4.79 KCAL/MOL
REMARK 922        TOTAL FREE ENERGY PREDICTED BY IDOCK:   -5.67 KCAL/MOL
REMARK 923 INTER-LIGAND FREE ENERGY PREDICTED BY IDOCK:   -5.39 KCAL/MOL
REMARK 924 INTRA-LIGAND FREE ENERGY PREDICTED BY IDOCK:   -0.27 KCAL/MOL
REMARK 927      BINDING AFFINITY PREDICTED BY RF-SCORE:    0.00 PKD
ROOT
HETATM    1  N   UNL     1     -10.742  16.609  67.938  1.00  0.00    -0.346 NA 
HETATM    2  CA  UNL     1     -10.694  15.291  67.228  1.00  0.00    -0.311 C  
HETATM    3  H2  UNL     1     -10.918  16.472  68.934  1.00  0.00     0.000 HD 
HETATM    4  H1  UNL     1      -9.915  17.189  67.799  1.00  0.00     0.000 HD 
HETATM    5  OXT UNL     1     -10.399  14.677  64.870  1.00  0.00    -0.411 OA 
HETATM    6  C   UNL     1     -10.424  15.539  65.735  1.00  0.00    -0.361 C  
HETATM    7  O   UNL     1     -10.201  16.856  65.485  1.00  0.00    -0.580 OA 
ENDROOT
BRANCH   2   8
HETATM    8  C   UNL     1     -11.942  14.415  67.439  1.00  0.00    -0.407 C  
BRANCH   8   9
HETATM    9  C   UNL     1     -11.671  13.019  67.957  1.00  0.00    -0.397 A  
HETATM   10  C   UNL     1     -11.189  12.021  67.095  1.00  0.00    -0.374 A  
HETATM   11  C   UNL     1     -10.986  10.733  67.579  1.00  0.00    -0.312 A  
HETATM   12  C   UNL     1     -11.252  10.429  68.912  1.00  0.00    -0.235 A  
HETATM   13  O   UNL     1     -10.535   9.724  66.774  1.00  0.00    -0.231 OA 
HETATM   14  H   UNL     1     -10.397   8.844  67.106  1.00  0.00     0.000 HD 
HETATM   15  O   UNL     1     -11.065   9.157  69.370  1.00  0.00    -0.406 OA 
HETATM   16  C   UNL     1     -11.716  11.400  69.784  1.00  0.00    -0.418 A  
HETATM   17  C   UNL     1     -11.922  12.687  69.297  1.00  0.00    -0.246 A  
HETATM   18  H   UNL     1     -11.246   8.949  70.279  1.00  0.00     0.000 HD 
HETATM   19  F   UNL     1     -12.410  13.623  70.125  1.00  0.00    -0.358 F  
ENDBRANCH   8   9
ENDBRANCH   2   8
TORSDOF 2
ENDMDL
MODEL       82
REMARK 921   NORMALIZED FREE ENERGY PREDICTED BY IDOCK:   -4.79 KCAL/MOL
REMARK 922        TOTAL FREE ENERGY PREDICTED BY IDOCK:   -5.66 KCAL/MOL
REMARK 923 INTER-LIGAND FREE ENERGY PREDICTED BY IDOCK:   -5.41 KCAL/MOL
REMARK 924 INTRA-LIGAND FREE ENERGY PREDICTED BY IDOCK:   -0.25 KCAL/MOL
REMARK 927      BINDING AFFINITY PREDICTED BY RF-SCORE:    0.00 PKD
ROOT
HETATM    1  N   UNL     1      -9.928  18.731  66.064  1.00  0.00    -0.523 NA 
HETATM    2  CA  UNL     1      -9.636  17.393  66.671  1.00  0.00    -0.274 C  
HETATM    3  H2  UNL     1     -10.878  19.026  66.290  1.00  0.00     0.000 HD 
HETATM    4  H1  UNL     1      -9.260  19.458  66.315  1.00  0.00     0.000 HD 
HETATM    5  OXT UNL     1      -7.676  15.917  66.589  1.00  0.00    -0.234 OA 
HETATM    6  C   UNL     1      -8.197  16.986  66.311  1.00  0.00    -0.287 C  
HETATM    7  O   UNL     1      -7.556  17.979  65.641  1.00  0.00    -0.545 OA 
ENDROOT
BRANCH   2   8
HETATM    8  C   UNL     1     -10.646  16.294  66.292  1.00  0.00    -0.256 C  
BRANCH   8   9
HETATM    9  C   UNL     1     -11.004  15.335  67.405  1.00  0.00    -0.321 A  
HETATM   10  C   UNL     1     -10.744  15.669  68.744  1.00  0.00    -0.250 A  
HETATM   11  C   UNL     1     -11.040  14.757  69.751  1.00  0.00    -0.258 A  
HETATM   12  C   UNL     1     -11.599  13.519  69.442  1.00  0.00    -0.312 A  
HETATM   13  O   UNL     1     -10.789  15.030  71.067  1.00  0.00    -0.545 OA 
HETATM   14  H   UNL     1     -10.992  14.406  71.754  1.00  0.00     0.000 HD 
HETATM   15  O   UNL     1     -11.869  12.627  70.438  1.00  0.00    -0.516 OA 
HETATM   16  C   UNL     1     -11.875  13.172  68.129  1.00  0.00    -0.386 A  
HETATM   17  C   UNL     1     -11.574  14.084  67.123  1.00  0.00    -0.372 A  
HETATM   18  H   UNL     1     -12.250  11.782  70.227  1.00  0.00     0.000 HD 
HETATM   19  F   UNL     1     -11.803  13.740  65.846  1.00  0.00    -0.328 F  
ENDBRANCH   8   9
ENDBRANCH   2   8
TORSDOF 2
ENDMDL
MODEL       83
REMARK 921   NORMALIZED FREE ENERGY PREDICTED BY IDOCK:   -4.79 KCAL/MOL
REMARK 922        TOTAL FREE ENERGY PREDICTED BY IDOCK:   -5.66 KCAL/MOL
REMARK 923 INTER-LIGAND FREE ENERGY PREDICTED BY IDOCK:   -5.41 KCAL/MOL
REMARK 924 INTRA-LIGAND FREE ENERGY PREDICTED BY IDOCK:   -0.25 KCAL/MOL
REMARK 927      BINDING AFFINITY PREDICTED BY RF-SCORE:    0.00 PKD
ROOT
HETATM    1  N   UNL     1     -12.074  12.424  66.249  1.00  0.00    -0.630 NA 
HETATM    2  CA  UNL     1     -11.436  13.644  66.839  1.00  0.00    -0.345 C  
HETATM    3  H2  UNL     1     -12.665  11.962  66.940  1.00  0.00     0.000 HD 
HETATM    4  H1  UNL     1     -12.598  12.600  65.392  1.00  0.00     0.000 HD 
HETATM    5  OXT UNL     1      -9.844  15.288  65.950  1.00  0.00    -0.303 OA 
HETATM    6  C   UNL     1     -10.558  14.314  65.768  1.00  0.00    -0.309 C  
HETATM    7  O   UNL     1     -10.679  13.689  64.568  1.00  0.00    -0.399 OA 
ENDROOT
BRANCH   2   8
HETATM    8  C   UNL     1     -10.645  13.380  68.133  1.00  0.00    -0.255 C  
BRANCH   8   9
HETATM    9  C   UNL     1     -11.424  13.574  69.415  1.00  0.00    -0.340 A  
HETATM   10  C   UNL     1     -11.322  14.776  70.135  1.00  0.00    -0.291 A  
HETATM   11  C   UNL     1     -12.012  14.919  71.334  1.00  0.00    -0.345 A  
HETATM   12  C   UNL     1     -12.806  13.884  71.822  1.00  0.00    -0.335 A  
HETATM   13  O   UNL     1     -11.930  16.063  72.079  1.00  0.00    -0.453 OA 
HETATM   14  H   UNL     1     -12.402  16.161  72.898  1.00  0.00     0.000 HD 
HETATM   15  O   UNL     1     -13.463  14.032  73.009  1.00  0.00    -0.655 OA 
HETATM   16  C   UNL     1     -12.930  12.694  71.123  1.00  0.00    -0.239 A  
HETATM   17  C   UNL     1     -12.237  12.550  69.926  1.00  0.00    -0.163 A  
HETATM   18  H   UNL     1     -14.005  13.327  73.342  1.00  0.00     0.000 HD 
HETATM   19  F   UNL     1     -12.321  11.387  69.264  1.00  0.00    -0.348 F  
ENDBRANCH   8   9
ENDBRANCH   2   8
TORSDOF 2
ENDMDL
MODEL       84
REMARK 921   NORMALIZED FREE ENERGY PREDICTED BY IDOCK:   -4.70 KCAL/MOL
REMARK 922        TOTAL FREE ENERGY PREDICTED BY IDOCK:   -5.56 KCAL/MOL
REMARK 923 INTER-LIGAND FREE ENERGY PREDICTED BY IDOCK:   -5.34 KCAL/MOL
REMARK 924 INTRA-LIGAND FREE ENERGY PREDICTED BY IDOCK:   -0.22 KCAL/MOL
REMARK 927      BINDING AFFINITY PREDICTED BY RF-SCORE:    0.00 PKD
ROOT
HETATM    1  N   UNL     1     -10.999  19.259  67.279  1.00  0.00    -0.445 NA 
HETATM    2  CA  UNL     1     -10.402  17.945  67.679  1.00  0.00    -0.381 C  
HETATM    3  H2  UNL     1     -11.894  19.117  66.812  1.00  0.00     0.000 HD 
HETATM    4  H1  UNL     1     -11.099  19.923  68.047  1.00  0.00     0.000 HD 
HETATM    5  OXT UNL     1      -8.286  17.336  68.764  1.00  0.00    -0.263 OA 
HETATM    6  C   UNL     1      -9.058  18.201  68.383  1.00  0.00    -0.307 C  
HETATM    7  O   UNL     1      -8.830  19.531  68.542  1.00  0.00    -0.350 OA 
ENDROOT
BRANCH   2   8
HETATM    8  C   UNL     1     -10.251  16.942  66.521  1.00  0.00    -0.320 C  
BRANCH   8   9
HETATM    9  C   UNL     1     -10.764  15.547  66.804  1.00  0.00    -0.305 A  
HETATM   10  C   UNL     1     -10.902  15.094  68.127  1.00  0.00    -0.266 A  
HETATM   11  C   UNL     1     -11.335  13.794  68.366  1.00  0.00    -0.293 A  
HETATM   12  C   UNL     1     -11.638  12.943  67.306  1.00  0.00    -0.360 A  
HETATM   13  O   UNL     1     -11.468  13.302  69.635  1.00  0.00    -0.385 OA 
HETATM   14  H   UNL     1     -11.763  12.414  69.798  1.00  0.00     0.000 HD 
HETATM   15  O   UNL     1     -12.045  11.664  67.556  1.00  0.00    -0.611 OA 
HETATM   16  C   UNL     1     -11.521  13.372  65.994  1.00  0.00    -0.351 A  
HETATM   17  C   UNL     1     -11.084  14.671  65.756  1.00  0.00    -0.331 A  
HETATM   18  H   UNL     1     -12.252  11.083  66.833  1.00  0.00     0.000 HD 
HETATM   19  F   UNL     1     -10.930  15.081  64.488  1.00  0.00    -0.367 F  
ENDBRANCH   8   9
ENDBRANCH   2   8
TORSDOF 2
ENDMDL
MODEL       85
REMARK 921   NORMALIZED FREE ENERGY PREDICTED BY IDOCK:   -4.62 KCAL/MOL
REMARK 922        TOTAL FREE ENERGY PREDICTED BY IDOCK:   -5.48 KCAL/MOL
REMARK 923 INTER-LIGAND FREE ENERGY PREDICTED BY IDOCK:   -5.67 KCAL/MOL
REMARK 924 INTRA-LIGAND FREE ENERGY PREDICTED BY IDOCK:    0.20 KCAL/MOL
REMARK 927      BINDING AFFINITY PREDICTED BY RF-SCORE:    0.00 PKD
ROOT
HETATM    1  N   UNL     1      -9.861  15.153  70.120  1.00  0.00    -0.483 NA 
HETATM    2  CA  UNL     1     -11.224  15.723  69.877  1.00  0.00    -0.334 C  
HETATM    3  H2  UNL     1      -9.288  15.227  69.280  1.00  0.00     0.000 HD 
HETATM    4  H1  UNL     1      -9.375  15.559  70.920  1.00  0.00     0.000 HD 
HETATM    5  OXT UNL     1     -13.232  15.899  71.278  1.00  0.00    -0.503 OA 
HETATM    6  C   UNL     1     -12.055  15.596  71.165  1.00  0.00    -0.404 C  
HETATM    7  O   UNL     1     -11.307  15.107  72.188  1.00  0.00    -0.419 OA 
ENDROOT
BRANCH   2   8
HETATM    8  C   UNL     1     -11.958  15.110  68.670  1.00  0.00    -0.270 C  
BRANCH   8   9
HETATM    9  C   UNL     1     -11.831  13.609  68.532  1.00  0.00    -0.406 A  
HETATM   10  C   UNL     1     -11.975  12.777  69.654  1.00  0.00    -0.354 A  
HETATM   11  C   UNL     1     -11.813  11.402  69.515  1.00  0.00    -0.357 A  
HETATM   12  C   UNL     1     -11.517  10.846  68.273  1.00  0.00    -0.305 A  
HETATM   13  O   UNL     1     -11.925  10.553  70.581  1.00  0.00    -0.297 OA 
HETATM   14  H   UNL     1     -11.815   9.615  70.486  1.00  0.00     0.000 HD 
HETATM   15  O   UNL     1     -11.343   9.498  68.155  1.00  0.00    -0.510 OA 
HETATM   16  C   UNL     1     -11.383  11.647  67.150  1.00  0.00    -0.373 A  
HETATM   17  C   UNL     1     -11.541  13.022  67.291  1.00  0.00    -0.356 A  
HETATM   18  H   UNL     1     -11.142   9.119  67.308  1.00  0.00     0.000 HD 
HETATM   19  F   UNL     1     -11.373  13.807  66.216  1.00  0.00    -0.303 F  
ENDBRANCH   8   9
ENDBRANCH   2   8
TORSDOF 2
ENDMDL
MODEL       86
REMARK 921   NORMALIZED FREE ENERGY PREDICTED BY IDOCK:   -4.62 KCAL/MOL
REMARK 922        TOTAL FREE ENERGY PREDICTED BY IDOCK:   -5.47 KCAL/MOL
REMARK 923 INTER-LIGAND FREE ENERGY PREDICTED BY IDOCK:   -5.23 KCAL/MOL
REMARK 924 INTRA-LIGAND FREE ENERGY PREDICTED BY IDOCK:   -0.25 KCAL/MOL
REMARK 927      BINDING AFFINITY PREDICTED BY RF-SCORE:    0.00 PKD
ROOT
HETATM    1  N   UNL     1      -9.644   9.137  65.267  1.00  0.00    -0.459 NA 
HETATM    2  CA  UNL     1     -10.049  10.566  65.072  1.00  0.00    -0.321 C  
HETATM    3  H2  UNL     1      -9.742   8.869  66.246  1.00  0.00     0.000 HD 
HETATM    4  H1  UNL     1     -10.137   8.477  64.666  1.00  0.00     0.000 HD 
HETATM    5  OXT UNL     1     -10.069  12.040  63.109  1.00  0.00    -0.414 OA 
HETATM    6  C   UNL     1      -9.892  10.930  63.585  1.00  0.00    -0.351 C  
HETATM    7  O   UNL     1      -9.535   9.847  62.847  1.00  0.00    -0.276 OA 
ENDROOT
BRANCH   2   8
HETATM    8  C   UNL     1      -9.306  11.562  65.979  1.00  0.00    -0.239 C  
BRANCH   8   9
HETATM    9  C   UNL     1     -10.190  12.413  66.864  1.00  0.00    -0.238 A  
HETATM   10  C   UNL     1     -10.530  11.982  68.157  1.00  0.00    -0.218 A  
HETATM   11  C   UNL     1     -11.379  12.757  68.939  1.00  0.00    -0.296 A  
HETATM   12  C   UNL     1     -11.887  13.960  68.454  1.00  0.00    -0.374 A  
HETATM   13  O   UNL     1     -11.752  12.370  70.196  1.00  0.00    -0.489 OA 
HETATM   14  H   UNL     1     -12.332  12.900  70.731  1.00  0.00     0.000 HD 
HETATM   15  O   UNL     1     -12.733  14.702  69.226  1.00  0.00    -0.554 OA 
HETATM   16  C   UNL     1     -11.556  14.411  67.187  1.00  0.00    -0.406 A  
HETATM   17  C   UNL     1     -10.710  13.632  66.403  1.00  0.00    -0.281 A  
HETATM   18  H   UNL     1     -13.079  15.522  68.895  1.00  0.00     0.000 HD 
HETATM   19  F   UNL     1     -10.416  14.044  65.160  1.00  0.00    -0.310 F  
ENDBRANCH   8   9
ENDBRANCH   2   8
TORSDOF 2
ENDMDL
MODEL       87
REMARK 921   NORMALIZED FREE ENERGY PREDICTED BY IDOCK:   -4.61 KCAL/MOL
REMARK 922        TOTAL FREE ENERGY PREDICTED BY IDOCK:   -5.47 KCAL/MOL
REMARK 923 INTER-LIGAND FREE ENERGY PREDICTED BY IDOCK:   -5.20 KCAL/MOL
REMARK 924 INTRA-LIGAND FREE ENERGY PREDICTED BY IDOCK:   -0.27 KCAL/MOL
REMARK 927      BINDING AFFINITY PREDICTED BY RF-SCORE:    0.00 PKD
ROOT
HETATM    1  N   UNL     1     -12.364  13.773  67.153  1.00  0.00    -0.442 NA 
HETATM    2  CA  UNL     1     -11.844  13.504  68.532  1.00  0.00    -0.362 C  
HETATM    3  H2  UNL     1     -12.778  12.929  66.757  1.00  0.00     0.000 HD 
HETATM    4  H1  UNL     1     -13.020  14.551  67.098  1.00  0.00     0.000 HD 
HETATM    5  OXT UNL     1     -10.657  14.898  70.167  1.00  0.00    -0.159 OA 
HETATM    6  C   UNL     1     -11.232  14.798  69.094  1.00  0.00    -0.271 C  
HETATM    7  O   UNL     1     -11.419  15.842  68.246  1.00  0.00    -0.363 OA 
ENDROOT
BRANCH   2   8
HETATM    8  C   UNL     1     -10.854  12.328  68.615  1.00  0.00    -0.268 C  
BRANCH   8   9
HETATM    9  C   UNL     1     -11.181  11.282  69.657  1.00  0.00    -0.321 A  
HETATM   10  C   UNL     1     -12.278  11.452  70.517  1.00  0.00    -0.478 A  
HETATM   11  C   UNL     1     -12.538  10.500  71.498  1.00  0.00    -0.424 A  
HETATM   12  C   UNL     1     -11.722   9.379  71.628  1.00  0.00    -0.398 A  
HETATM   13  O   UNL     1     -13.583  10.631  72.369  1.00  0.00    -0.565 OA 
HETATM   14  H   UNL     1     -13.760   9.980  73.038  1.00  0.00     0.000 HD 
HETATM   15  O   UNL     1     -11.978   8.462  72.606  1.00  0.00    -0.418 OA 
HETATM   16  C   UNL     1     -10.641   9.184  70.784  1.00  0.00    -0.324 A  
HETATM   17  C   UNL     1     -10.380  10.139  69.806  1.00  0.00    -0.259 A  
HETATM   18  H   UNL     1     -11.422   7.697  72.695  1.00  0.00     0.000 HD 
HETATM   19  F   UNL     1      -9.312   9.977  69.011  1.00  0.00    -0.146 F  
ENDBRANCH   8   9
ENDBRANCH   2   8
TORSDOF 2
ENDMDL
MODEL       88
REMARK 921   NORMALIZED FREE ENERGY PREDICTED BY IDOCK:   -4.61 KCAL/MOL
REMARK 922        TOTAL FREE ENERGY PREDICTED BY IDOCK:   -5.46 KCAL/MOL
REMARK 923 INTER-LIGAND FREE ENERGY PREDICTED BY IDOCK:   -5.25 KCAL/MOL
REMARK 924 INTRA-LIGAND FREE ENERGY PREDICTED BY IDOCK:   -0.21 KCAL/MOL
REMARK 927      BINDING AFFINITY PREDICTED BY RF-SCORE:    0.00 PKD
ROOT
HETATM    1  N   UNL     1     -11.116   8.657  67.723  1.00  0.00    -0.408 NA 
HETATM    2  CA  UNL     1      -9.806   8.231  68.312  1.00  0.00    -0.172 C  
HETATM    3  H2  UNL     1     -11.249   9.661  67.837  1.00  0.00     0.000 HD 
HETATM    4  H1  UNL     1     -11.242   8.390  66.747  1.00  0.00     0.000 HD 
HETATM    5  OXT UNL     1      -8.717   6.044  68.548  1.00  0.00    -0.111 OA 
HETATM    6  C   UNL     1      -9.641   6.714  68.116  1.00  0.00    -0.120 C  
HETATM    7  O   UNL     1     -10.661   6.197  67.382  1.00  0.00    -0.209 OA 
ENDROOT
BRANCH   2   8
HETATM    8  C   UNL     1      -9.616   8.635  69.785  1.00  0.00    -0.171 C  
BRANCH   8   9
HETATM    9  C   UNL     1     -10.887   8.713  70.602  1.00  0.00    -0.265 A  
HETATM   10  C   UNL     1     -11.477   9.956  70.884  1.00  0.00    -0.456 A  
HETATM   11  C   UNL     1     -12.621  10.011  71.673  1.00  0.00    -0.427 A  
HETATM   12  C   UNL     1     -13.189   8.843  72.178  1.00  0.00    -0.429 A  
HETATM   13  O   UNL     1     -13.221  11.198  71.989  1.00  0.00    -0.500 OA 
HETATM   14  H   UNL     1     -14.003  11.235  72.528  1.00  0.00     0.000 HD 
HETATM   15  O   UNL     1     -14.302   8.913  72.964  1.00  0.00    -1.115 OA 
HETATM   16  C   UNL     1     -12.631   7.605  71.902  1.00  0.00    -0.332 A  
HETATM   17  C   UNL     1     -11.484   7.552  71.117  1.00  0.00    -0.273 A  
HETATM   18  H   UNL     1     -14.690   8.117  73.308  1.00  0.00     0.000 HD 
HETATM   19  F   UNL     1     -10.917   6.360  70.879  1.00  0.00    -0.268 F  
ENDBRANCH   8   9
ENDBRANCH   2   8
TORSDOF 2
ENDMDL
MODEL       89
REMARK 921   NORMALIZED FREE ENERGY PREDICTED BY IDOCK:   -4.60 KCAL/MOL
REMARK 922        TOTAL FREE ENERGY PREDICTED BY IDOCK:   -5.45 KCAL/MOL
REMARK 923 INTER-LIGAND FREE ENERGY PREDICTED BY IDOCK:   -5.15 KCAL/MOL
REMARK 924 INTRA-LIGAND FREE ENERGY PREDICTED BY IDOCK:   -0.30 KCAL/MOL
REMARK 927      BINDING AFFINITY PREDICTED BY RF-SCORE:    0.00 PKD
ROOT
HETATM    1  N   UNL     1      -9.953  16.288  68.658  1.00  0.00    -0.224 NA 
HETATM    2  CA  UNL     1     -10.221  14.865  68.272  1.00  0.00    -0.225 C  
HETATM    3  H2  UNL     1     -10.385  16.501  69.557  1.00  0.00     0.000 HD 
HETATM    4  H1  UNL     1      -8.965  16.538  68.669  1.00  0.00     0.000 HD 
HETATM    5  OXT UNL     1      -9.643  13.539  66.289  1.00  0.00    -0.272 OA 
HETATM    6  C   UNL     1      -9.552  14.583  66.916  1.00  0.00    -0.250 C  
HETATM    7  O   UNL     1      -8.823  15.648  66.493  1.00  0.00    -0.259 OA 
ENDROOT
BRANCH   2   8
HETATM    8  C   UNL     1     -11.713  14.486  68.256  1.00  0.00    -0.368 C  
BRANCH   8   9
HETATM    9  C   UNL     1     -12.143  13.513  69.331  1.00  0.00    -0.340 A  
HETATM   10  C   UNL     1     -12.773  13.975  70.498  1.00  0.00    -0.347 A  
HETATM   11  C   UNL     1     -13.122  13.069  71.495  1.00  0.00    -0.310 A  
HETATM   12  C   UNL     1     -12.859  11.710  71.340  1.00  0.00    -0.356 A  
HETATM   13  O   UNL     1     -13.721  13.473  72.656  1.00  0.00    -0.681 OA 
HETATM   14  H   UNL     1     -13.960  12.854  73.336  1.00  0.00     0.000 HD 
HETATM   15  O   UNL     1     -13.193  10.836  72.333  1.00  0.00    -0.576 OA 
HETATM   16  C   UNL     1     -12.250  11.231  70.191  1.00  0.00    -0.410 A  
HETATM   17  C   UNL     1     -11.897  12.138  69.197  1.00  0.00    -0.305 A  
HETATM   18  H   UNL     1     -13.014   9.909  72.227  1.00  0.00     0.000 HD 
HETATM   19  F   UNL     1     -11.271  11.686  68.100  1.00  0.00    -0.233 F  
ENDBRANCH   8   9
ENDBRANCH   2   8
TORSDOF 2
ENDMDL
MODEL       90
REMARK 921   NORMALIZED FREE ENERGY PREDICTED BY IDOCK:   -4.60 KCAL/MOL
REMARK 922        TOTAL FREE ENERGY PREDICTED BY IDOCK:   -5.45 KCAL/MOL
REMARK 923 INTER-LIGAND FREE ENERGY PREDICTED BY IDOCK:   -5.54 KCAL/MOL
REMARK 924 INTRA-LIGAND FREE ENERGY PREDICTED BY IDOCK:    0.09 KCAL/MOL
REMARK 927      BINDING AFFINITY PREDICTED BY RF-SCORE:    0.00 PKD
ROOT
HETATM    1  N   UNL     1      -9.772  11.883  65.318  1.00  0.00    -0.336 NA 
HETATM    2  CA  UNL     1     -11.260  11.806  65.166  1.00  0.00    -0.250 C  
HETATM    3  H2  UNL     1      -9.512  11.855  66.304  1.00  0.00     0.000 HD 
HETATM    4  H1  UNL     1      -9.261  11.172  64.795  1.00  0.00     0.000 HD 
HETATM    5  OXT UNL     1     -12.741  11.878  63.210  1.00  0.00    -0.654 OA 
HETATM    6  C   UNL     1     -11.610  11.848  63.669  1.00  0.00    -0.464 C  
HETATM    7  O   UNL     1     -10.491  11.836  62.899  1.00  0.00    -0.236 OA 
ENDROOT
BRANCH   2   8
HETATM    8  C   UNL     1     -12.031  12.879  65.957  1.00  0.00    -0.505 C  
BRANCH   8   9
HETATM    9  C   UNL     1     -11.430  14.267  65.916  1.00  0.00    -0.335 A  
HETATM   10  C   UNL     1     -10.716  14.767  67.017  1.00  0.00    -0.300 A  
HETATM   11  C   UNL     1     -10.208  16.061  66.978  1.00  0.00    -0.282 A  
HETATM   12  C   UNL     1     -10.395  16.860  65.853  1.00  0.00    -0.315 A  
HETATM   13  O   UNL     1      -9.522  16.597  68.032  1.00  0.00    -0.219 OA 
HETATM   14  H   UNL     1      -9.175  17.481  68.004  1.00  0.00     0.000 HD 
HETATM   15  O   UNL     1      -9.906  18.134  65.835  1.00  0.00    -0.537 OA 
HETATM   16  C   UNL     1     -11.086  16.384  64.750  1.00  0.00    -0.246 A  
HETATM   17  C   UNL     1     -11.597  15.091  64.792  1.00  0.00    -0.395 A  
HETATM   18  H   UNL     1     -10.034  18.679  65.067  1.00  0.00     0.000 HD 
HETATM   19  F   UNL     1     -12.300  14.638  63.744  1.00  0.00    -0.467 F  
ENDBRANCH   8   9
ENDBRANCH   2   8
TORSDOF 2
ENDMDL
MODEL       91
REMARK 921   NORMALIZED FREE ENERGY PREDICTED BY IDOCK:   -4.60 KCAL/MOL
REMARK 922        TOTAL FREE ENERGY PREDICTED BY IDOCK:   -5.45 KCAL/MOL
REMARK 923 INTER-LIGAND FREE ENERGY PREDICTED BY IDOCK:   -5.31 KCAL/MOL
REMARK 924 INTRA-LIGAND FREE ENERGY PREDICTED BY IDOCK:   -0.14 KCAL/MOL
REMARK 927      BINDING AFFINITY PREDICTED BY RF-SCORE:    0.00 PKD
ROOT
HETATM    1  N   UNL     1      -9.916  16.947  69.087  1.00  0.00    -0.262 NA 
HETATM    2  CA  UNL     1     -10.090  16.056  67.895  1.00  0.00    -0.241 C  
HETATM    3  H2  UNL     1     -10.156  16.448  69.943  1.00  0.00     0.000 HD 
HETATM    4  H1  UNL     1      -8.989  17.364  69.165  1.00  0.00     0.000 HD 
HETATM    5  OXT UNL     1      -9.820  16.427  65.483  1.00  0.00    -0.522 OA 
HETATM    6  C   UNL     1      -9.716  16.843  66.627  1.00  0.00    -0.271 C  
HETATM    7  O   UNL     1      -9.238  18.077  66.934  1.00  0.00    -0.255 OA 
ENDROOT
BRANCH   2   8
HETATM    8  C   UNL     1     -11.489  15.426  67.777  1.00  0.00    -0.284 C  
BRANCH   8   9
HETATM    9  C   UNL     1     -11.736  14.231  68.671  1.00  0.00    -0.380 A  
HETATM   10  C   UNL     1     -11.608  12.926  68.167  1.00  0.00    -0.378 A  
HETATM   11  C   UNL     1     -11.881  11.840  68.992  1.00  0.00    -0.317 A  
HETATM   12  C   UNL     1     -12.272  12.038  70.314  1.00  0.00    -0.266 A  
HETATM   13  O   UNL     1     -11.788  10.553  68.542  1.00  0.00    -0.682 OA 
HETATM   14  H   UNL     1     -11.975   9.811  69.106  1.00  0.00     0.000 HD 
HETATM   15  O   UNL     1     -12.553  10.964  71.108  1.00  0.00    -0.368 OA 
HETATM   16  C   UNL     1     -12.393  13.315  70.837  1.00  0.00    -0.413 A  
HETATM   17  C   UNL     1     -12.124  14.401  70.009  1.00  0.00    -0.343 A  
HETATM   18  H   UNL     1     -12.820  11.098  72.010  1.00  0.00     0.000 HD 
HETATM   19  F   UNL     1     -12.277  15.641  70.496  1.00  0.00    -0.323 F  
ENDBRANCH   8   9
ENDBRANCH   2   8
TORSDOF 2
ENDMDL
MODEL       92
REMARK 921   NORMALIZED FREE ENERGY PREDICTED BY IDOCK:   -4.58 KCAL/MOL
REMARK 922        TOTAL FREE ENERGY PREDICTED BY IDOCK:   -5.43 KCAL/MOL
REMARK 923 INTER-LIGAND FREE ENERGY PREDICTED BY IDOCK:   -5.19 KCAL/MOL
REMARK 924 INTRA-LIGAND FREE ENERGY PREDICTED BY IDOCK:   -0.24 KCAL/MOL
REMARK 927      BINDING AFFINITY PREDICTED BY RF-SCORE:    0.00 PKD
ROOT
HETATM    1  N   UNL     1      -9.263  11.801  66.316  1.00  0.00    -0.220 NA 
HETATM    2  CA  UNL     1     -10.355  12.269  67.229  1.00  0.00    -0.214 C  
HETATM    3  H2  UNL     1      -8.667  12.582  66.043  1.00  0.00     0.000 HD 
HETATM    4  H1  UNL     1      -8.701  11.038  66.694  1.00  0.00     0.000 HD 
HETATM    5  OXT UNL     1     -12.245  11.120  68.294  1.00  0.00    -0.613 OA 
HETATM    6  C   UNL     1     -11.228  11.064  67.620  1.00  0.00    -0.305 C  
HETATM    7  O   UNL     1     -10.721   9.905  67.125  1.00  0.00    -0.253 OA 
ENDROOT
BRANCH   2   8
HETATM    8  C   UNL     1     -11.203  13.420  66.660  1.00  0.00    -0.330 C  
BRANCH   8   9
HETATM    9  C   UNL     1     -10.959  14.774  67.289  1.00  0.00    -0.318 A  
HETATM   10  C   UNL     1     -11.312  15.011  68.628  1.00  0.00    -0.311 A  
HETATM   11  C   UNL     1     -11.119  16.275  69.176  1.00  0.00    -0.322 A  
HETATM   12  C   UNL     1     -10.573  17.302  68.411  1.00  0.00    -0.368 A  
HETATM   13  O   UNL     1     -11.464  16.558  70.469  1.00  0.00    -0.512 OA 
HETATM   14  H   UNL     1     -11.332  17.421  70.843  1.00  0.00     0.000 HD 
HETATM   15  O   UNL     1     -10.406  18.542  68.958  1.00  0.00    -0.478 OA 
HETATM   16  C   UNL     1     -10.206  17.088  67.092  1.00  0.00    -0.306 A  
HETATM   17  C   UNL     1     -10.403  15.825  66.544  1.00  0.00    -0.294 A  
HETATM   18  H   UNL     1     -10.033  19.243  68.436  1.00  0.00     0.000 HD 
HETATM   19  F   UNL     1     -10.087  15.622  65.256  1.00  0.00    -0.351 F  
ENDBRANCH   8   9
ENDBRANCH   2   8
TORSDOF 2
ENDMDL
MODEL       93
REMARK 921   NORMALIZED FREE ENERGY PREDICTED BY IDOCK:   -4.58 KCAL/MOL
REMARK 922        TOTAL FREE ENERGY PREDICTED BY IDOCK:   -5.43 KCAL/MOL
REMARK 923 INTER-LIGAND FREE ENERGY PREDICTED BY IDOCK:   -5.12 KCAL/MOL
REMARK 924 INTRA-LIGAND FREE ENERGY PREDICTED BY IDOCK:   -0.30 KCAL/MOL
REMARK 927      BINDING AFFINITY PREDICTED BY RF-SCORE:    0.00 PKD
ROOT
HETATM    1  N   UNL     1     -10.433  12.474  69.293  1.00  0.00    -0.422 NA 
HETATM    2  CA  UNL     1     -10.815  13.076  67.976  1.00  0.00    -0.242 C  
HETATM    3  H2  UNL     1      -9.975  13.168  69.883  1.00  0.00     0.000 HD 
HETATM    4  H1  UNL     1     -11.207  12.037  69.793  1.00  0.00     0.000 HD 
HETATM    5  OXT UNL     1     -11.871  12.149  65.963  1.00  0.00    -0.522 OA 
HETATM    6  C   UNL     1     -11.505  12.002  67.118  1.00  0.00    -0.335 C  
HETATM    7  O   UNL     1     -11.673  10.847  67.814  1.00  0.00    -0.569 OA 
ENDROOT
BRANCH   2   8
HETATM    8  C   UNL     1      -9.647  13.737  67.222  1.00  0.00    -0.237 C  
BRANCH   8   9
HETATM    9  C   UNL     1      -9.824  15.209  66.921  1.00  0.00    -0.243 A  
HETATM   10  C   UNL     1      -9.695  16.165  67.943  1.00  0.00    -0.225 A  
HETATM   11  C   UNL     1      -9.903  17.510  67.656  1.00  0.00    -0.291 A  
HETATM   12  C   UNL     1     -10.231  17.915  66.364  1.00  0.00    -0.372 A  
HETATM   13  O   UNL     1      -9.806  18.474  68.620  1.00  0.00    -0.355 OA 
HETATM   14  H   UNL     1      -9.948  19.393  68.423  1.00  0.00     0.000 HD 
HETATM   15  O   UNL     1     -10.449  19.236  66.101  1.00  0.00    -0.444 OA 
HETATM   16  C   UNL     1     -10.351  16.991  65.339  1.00  0.00    -0.084 A  
HETATM   17  C   UNL     1     -10.147  15.646  65.628  1.00  0.00    -0.365 A  
HETATM   18  H   UNL     1     -10.672  19.513  65.220  1.00  0.00     0.000 HD 
HETATM   19  F   UNL     1     -10.301  14.742  64.648  1.00  0.00    -0.418 F  
ENDBRANCH   8   9
ENDBRANCH   2   8
TORSDOF 2
ENDMDL
MODEL       94
REMARK 921   NORMALIZED FREE ENERGY PREDICTED BY IDOCK:   -4.54 KCAL/MOL
REMARK 922        TOTAL FREE ENERGY PREDICTED BY IDOCK:   -5.39 KCAL/MOL
REMARK 923 INTER-LIGAND FREE ENERGY PREDICTED BY IDOCK:   -5.11 KCAL/MOL
REMARK 924 INTRA-LIGAND FREE ENERGY PREDICTED BY IDOCK:   -0.28 KCAL/MOL
REMARK 927      BINDING AFFINITY PREDICTED BY RF-SCORE:    0.00 PKD
ROOT
HETATM    1  N   UNL     1     -13.399   8.652  72.644  1.00  0.00    -0.657 NA 
HETATM    2  CA  UNL     1     -12.663   8.619  71.339  1.00  0.00    -0.276 C  
HETATM    3  H2  UNL     1     -13.705   9.601  72.857  1.00  0.00     0.000 HD 
HETATM    4  H1  UNL     1     -14.184   8.004  72.697  1.00  0.00     0.000 HD 
HETATM    5  OXT UNL     1     -11.537   6.820  70.106  1.00  0.00    -0.354 OA 
HETATM    6  C   UNL     1     -12.222   7.173  71.053  1.00  0.00    -0.343 C  
HETATM    7  O   UNL     1     -12.701   6.316  71.991  1.00  0.00    -0.226 OA 
ENDROOT
BRANCH   2   8
HETATM    8  C   UNL     1     -11.478   9.598  71.259  1.00  0.00    -0.463 C  
BRANCH   8   9
HETATM    9  C   UNL     1     -11.462  10.493  70.039  1.00  0.00    -0.393 A  
HETATM   10  C   UNL     1     -10.901  10.042  68.833  1.00  0.00    -0.250 A  
HETATM   11  C   UNL     1     -10.857  10.895  67.735  1.00  0.00    -0.259 A  
HETATM   12  C   UNL     1     -11.371  12.187  67.821  1.00  0.00    -0.307 A  
HETATM   13  O   UNL     1     -10.305  10.508  66.545  1.00  0.00    -0.233 OA 
HETATM   14  H   UNL     1     -10.276  11.090  65.795  1.00  0.00     0.000 HD 
HETATM   15  O   UNL     1     -11.305  13.018  66.740  1.00  0.00    -0.297 OA 
HETATM   16  C   UNL     1     -11.940  12.648  68.997  1.00  0.00    -0.282 A  
HETATM   17  C   UNL     1     -11.979  11.796  70.096  1.00  0.00    -0.339 A  
HETATM   18  H   UNL     1     -11.655  13.899  66.799  1.00  0.00     0.000 HD 
HETATM   19  F   UNL     1     -12.493  12.250  71.249  1.00  0.00    -0.432 F  
ENDBRANCH   8   9
ENDBRANCH   2   8
TORSDOF 2
ENDMDL
MODEL       95
REMARK 921   NORMALIZED FREE ENERGY PREDICTED BY IDOCK:   -4.53 KCAL/MOL
REMARK 922        TOTAL FREE ENERGY PREDICTED BY IDOCK:   -5.37 KCAL/MOL
REMARK 923 INTER-LIGAND FREE ENERGY PREDICTED BY IDOCK:   -5.27 KCAL/MOL
REMARK 924 INTRA-LIGAND FREE ENERGY PREDICTED BY IDOCK:   -0.10 KCAL/MOL
REMARK 927      BINDING AFFINITY PREDICTED BY RF-SCORE:    0.00 PKD
ROOT
HETATM    1  N   UNL     1     -10.382  12.645  68.981  1.00  0.00    -0.436 NA 
HETATM    2  CA  UNL     1     -10.056  14.100  68.837  1.00  0.00    -0.150 C  
HETATM    3  H2  UNL     1      -9.555  12.075  68.804  1.00  0.00     0.000 HD 
HETATM    4  H1  UNL     1     -10.800  12.397  69.878  1.00  0.00     0.000 HD 
HETATM    5  OXT UNL     1     -11.414  16.138  69.008  1.00  0.00    -0.347 OA 
HETATM    6  C   UNL     1     -11.324  14.925  69.115  1.00  0.00    -0.292 C  
HETATM    7  O   UNL     1     -12.352  14.131  69.512  1.00  0.00    -0.328 OA 
ENDROOT
BRANCH   2   8
HETATM    8  C   UNL     1      -9.424  14.474  67.484  1.00  0.00    -0.203 C  
BRANCH   8   9
HETATM    9  C   UNL     1     -10.273  14.168  66.269  1.00  0.00    -0.301 A  
HETATM   10  C   UNL     1     -10.339  12.861  65.759  1.00  0.00    -0.297 A  
HETATM   11  C   UNL     1     -11.090  12.607  64.616  1.00  0.00    -0.313 A  
HETATM   12  C   UNL     1     -11.781  13.636  63.980  1.00  0.00    -0.364 A  
HETATM   13  O   UNL     1     -11.171  11.356  64.071  1.00  0.00    -0.368 OA 
HETATM   14  H   UNL     1     -11.685  11.182  63.291  1.00  0.00     0.000 HD 
HETATM   15  O   UNL     1     -12.500  13.376  62.850  1.00  0.00    -0.828 OA 
HETATM   16  C   UNL     1     -11.739  14.930  64.473  1.00  0.00    -0.388 A  
HETATM   17  C   UNL     1     -10.984  15.184  65.614  1.00  0.00    -0.355 A  
HETATM   18  H   UNL     1     -12.971  14.077  62.416  1.00  0.00     0.000 HD 
HETATM   19  F   UNL     1     -10.908  16.441  66.074  1.00  0.00    -0.299 F  
ENDBRANCH   8   9
ENDBRANCH   2   8
TORSDOF 2
ENDMDL
MODEL       96
REMARK 921   NORMALIZED FREE ENERGY PREDICTED BY IDOCK:   -4.52 KCAL/MOL
REMARK 922        TOTAL FREE ENERGY PREDICTED BY IDOCK:   -5.36 KCAL/MOL
REMARK 923 INTER-LIGAND FREE ENERGY PREDICTED BY IDOCK:   -5.21 KCAL/MOL
REMARK 924 INTRA-LIGAND FREE ENERGY PREDICTED BY IDOCK:   -0.15 KCAL/MOL
REMARK 927      BINDING AFFINITY PREDICTED BY RF-SCORE:    0.00 PKD
ROOT
HETATM    1  N   UNL     1     -10.800  17.454  65.275  1.00  0.00    -0.547 NA 
HETATM    2  CA  UNL     1      -9.857  17.057  66.369  1.00  0.00    -0.299 C  
HETATM    3  H2  UNL     1     -11.470  16.707  65.093  1.00  0.00     0.000 HD 
HETATM    4  H1  UNL     1     -11.285  18.335  65.441  1.00  0.00     0.000 HD 
HETATM    5  OXT UNL     1      -7.925  18.173  67.391  1.00  0.00    -0.222 OA 
HETATM    6  C   UNL     1      -8.867  18.208  66.616  1.00  0.00    -0.275 C  
HETATM    7  O   UNL     1      -9.176  19.294  65.862  1.00  0.00    -0.424 OA 
ENDROOT
BRANCH   2   8
HETATM    8  C   UNL     1      -9.125  15.726  66.119  1.00  0.00    -0.377 C  
BRANCH   8   9
HETATM    9  C   UNL     1      -9.887  14.484  66.526  1.00  0.00    -0.297 A  
HETATM   10  C   UNL     1     -10.969  14.027  65.755  1.00  0.00    -0.294 A  
HETATM   11  C   UNL     1     -11.684  12.909  66.169  1.00  0.00    -0.396 A  
HETATM   12  C   UNL     1     -11.332  12.235  67.336  1.00  0.00    -0.325 A  
HETATM   13  O   UNL     1     -12.756  12.437  65.462  1.00  0.00    -0.530 OA 
HETATM   14  H   UNL     1     -13.244  11.673  65.745  1.00  0.00     0.000 HD 
HETATM   15  O   UNL     1     -12.053  11.149  67.739  1.00  0.00    -0.626 OA 
HETATM   16  C   UNL     1     -10.260  12.660  68.105  1.00  0.00    -0.240 A  
HETATM   17  C   UNL     1      -9.548  13.782  67.693  1.00  0.00    -0.219 A  
HETATM   18  H   UNL     1     -11.812  10.689  68.535  1.00  0.00     0.000 HD 
HETATM   19  F   UNL     1      -8.535  14.222  68.454  1.00  0.00    -0.141 F  
ENDBRANCH   8   9
ENDBRANCH   2   8
TORSDOF 2
ENDMDL
MODEL       97
REMARK 921   NORMALIZED FREE ENERGY PREDICTED BY IDOCK:   -4.51 KCAL/MOL
REMARK 922        TOTAL FREE ENERGY PREDICTED BY IDOCK:   -5.35 KCAL/MOL
REMARK 923 INTER-LIGAND FREE ENERGY PREDICTED BY IDOCK:   -5.11 KCAL/MOL
REMARK 924 INTRA-LIGAND FREE ENERGY PREDICTED BY IDOCK:   -0.25 KCAL/MOL
REMARK 927      BINDING AFFINITY PREDICTED BY RF-SCORE:    0.00 PKD
ROOT
HETATM    1  N   UNL     1     -14.385   8.723  72.890  1.00  0.00    -1.104 NA 
HETATM    2  CA  UNL     1     -13.357   8.539  71.817  1.00  0.00    -0.367 C  
HETATM    3  H2  UNL     1     -14.507   9.713  73.103  1.00  0.00     0.000 HD 
HETATM    4  H1  UNL     1     -15.285   8.289  72.685  1.00  0.00     0.000 HD 
HETATM    5  OXT UNL     1     -12.395   6.547  70.752  1.00  0.00    -0.284 OA 
HETATM    6  C   UNL     1     -13.205   7.037  71.523  1.00  0.00    -0.317 C  
HETATM    7  O   UNL     1     -14.104   6.303  72.229  1.00  0.00    -0.003 OA 
ENDROOT
BRANCH   2   8
HETATM    8  C   UNL     1     -11.998   9.194  72.126  1.00  0.00    -0.364 C  
BRANCH   8   9
HETATM    9  C   UNL     1     -11.283   9.791  70.933  1.00  0.00    -0.429 A  
HETATM   10  C   UNL     1     -12.004  10.475  69.940  1.00  0.00    -0.339 A  
HETATM   11  C   UNL     1     -11.335  10.979  68.830  1.00  0.00    -0.283 A  
HETATM   12  C   UNL     1      -9.958  10.817  68.700  1.00  0.00    -0.182 A  
HETATM   13  O   UNL     1     -11.995  11.636  67.829  1.00  0.00    -0.608 OA 
HETATM   14  H   UNL     1     -11.538  11.981  67.071  1.00  0.00     0.000 HD 
HETATM   15  O   UNL     1      -9.317  11.302  67.597  1.00  0.00    -0.156 OA 
HETATM   16  C   UNL     1      -9.225  10.156  69.673  1.00  0.00    -0.206 A  
HETATM   17  C   UNL     1      -9.896   9.648  70.781  1.00  0.00    -0.154 A  
HETATM   18  H   UNL     1      -8.378  11.191  67.508  1.00  0.00     0.000 HD 
HETATM   19  F   UNL     1      -9.199   8.974  71.707  1.00  0.00    -0.313 F  
ENDBRANCH   8   9
ENDBRANCH   2   8
TORSDOF 2
ENDMDL
MODEL       98
REMARK 921   NORMALIZED FREE ENERGY PREDICTED BY IDOCK:   -4.51 KCAL/MOL
REMARK 922        TOTAL FREE ENERGY PREDICTED BY IDOCK:   -5.35 KCAL/MOL
REMARK 923 INTER-LIGAND FREE ENERGY PREDICTED BY IDOCK:   -5.12 KCAL/MOL
REMARK 924 INTRA-LIGAND FREE ENERGY PREDICTED BY IDOCK:   -0.23 KCAL/MOL
REMARK 927      BINDING AFFINITY PREDICTED BY RF-SCORE:    0.00 PKD
ROOT
HETATM    1  N   UNL     1      -9.250  11.800  66.303  1.00  0.00    -0.220 NA 
HETATM    2  CA  UNL     1     -10.351  12.353  67.155  1.00  0.00    -0.219 C  
HETATM    3  H2  UNL     1      -8.658  12.553  65.952  1.00  0.00     0.000 HD 
HETATM    4  H1  UNL     1      -8.684  11.087  66.763  1.00  0.00     0.000 HD 
HETATM    5  OXT UNL     1     -12.238  11.307  68.326  1.00  0.00    -0.611 OA 
HETATM    6  C   UNL     1     -11.217  11.189  67.667  1.00  0.00    -0.297 C  
HETATM    7  O   UNL     1     -10.696   9.988  67.303  1.00  0.00    -0.262 OA 
ENDROOT
BRANCH   2   8
HETATM    8  C   UNL     1     -11.205  13.429  66.461  1.00  0.00    -0.327 C  
BRANCH   8   9
HETATM    9  C   UNL     1     -10.972  14.845  66.938  1.00  0.00    -0.327 A  
HETATM   10  C   UNL     1     -10.405  15.802  66.080  1.00  0.00    -0.356 A  
HETATM   11  C   UNL     1     -10.158  17.087  66.550  1.00  0.00    -0.314 A  
HETATM   12  C   UNL     1     -10.475  17.434  67.862  1.00  0.00    -0.383 A  
HETATM   13  O   UNL     1      -9.592  18.047  65.758  1.00  0.00    -0.505 OA 
HETATM   14  H   UNL     1      -9.424  18.925  66.080  1.00  0.00     0.000 HD 
HETATM   15  O   UNL     1     -10.211  18.694  68.315  1.00  0.00    -0.367 OA 
HETATM   16  C   UNL     1     -11.046  16.510  68.722  1.00  0.00    -0.309 A  
HETATM   17  C   UNL     1     -11.288  15.224  68.252  1.00  0.00    -0.336 A  
HETATM   18  H   UNL     1     -10.427  18.930  69.209  1.00  0.00     0.000 HD 
HETATM   19  F   UNL     1     -11.804  14.313  69.092  1.00  0.00    -0.288 F  
ENDBRANCH   8   9
ENDBRANCH   2   8
TORSDOF 2
ENDMDL
MODEL       99
REMARK 921   NORMALIZED FREE ENERGY PREDICTED BY IDOCK:   -4.48 KCAL/MOL
REMARK 922        TOTAL FREE ENERGY PREDICTED BY IDOCK:   -5.31 KCAL/MOL
REMARK 923 INTER-LIGAND FREE ENERGY PREDICTED BY IDOCK:   -5.06 KCAL/MOL
REMARK 924 INTRA-LIGAND FREE ENERGY PREDICTED BY IDOCK:   -0.25 KCAL/MOL
REMARK 927      BINDING AFFINITY PREDICTED BY RF-SCORE:    0.00 PKD
ROOT
HETATM    1  N   UNL     1     -12.031  12.421  70.566  1.00  0.00    -0.520 NA 
HETATM    2  CA  UNL     1     -12.095  13.917  70.558  1.00  0.00    -0.356 C  
HETATM    3  H2  UNL     1     -11.483  12.083  69.775  1.00  0.00     0.000 HD 
HETATM    4  H1  UNL     1     -11.681  12.022  71.437  1.00  0.00     0.000 HD 
HETATM    5  OXT UNL     1     -13.228  15.545  72.004  1.00  0.00    -0.399 OA 
HETATM    6  C   UNL     1     -12.924  14.387  71.765  1.00  0.00    -0.345 C  
HETATM    7  O   UNL     1     -13.279  13.342  72.557  1.00  0.00    -0.485 OA 
ENDROOT
BRANCH   2   8
HETATM    8  C   UNL     1     -12.621  14.519  69.242  1.00  0.00     0.090 C  
BRANCH   8   9
HETATM    9  C   UNL     1     -11.558  15.033  68.297  1.00  0.00    -0.355 A  
HETATM   10  C   UNL     1     -11.271  14.344  67.106  1.00  0.00    -0.337 A  
HETATM   11  C   UNL     1     -10.261  14.808  66.271  1.00  0.00    -0.298 A  
HETATM   12  C   UNL     1      -9.538  15.952  66.602  1.00  0.00    -0.246 A  
HETATM   13  O   UNL     1      -9.933  14.163  65.111  1.00  0.00    -0.529 OA 
HETATM   14  H   UNL     1      -9.243  14.480  64.540  1.00  0.00     0.000 HD 
HETATM   15  O   UNL     1      -8.538  16.386  65.781  1.00  0.00    -0.398 OA 
HETATM   16  C   UNL     1      -9.812  16.654  67.764  1.00  0.00    -0.252 A  
HETATM   17  C   UNL     1     -10.820  16.187  68.602  1.00  0.00    -0.311 A  
HETATM   18  H   UNL     1      -8.045  17.167  66.006  1.00  0.00     0.000 HD 
HETATM   19  F   UNL     1     -11.065  16.838  69.748  1.00  0.00    -0.323 F  
ENDBRANCH   8   9
ENDBRANCH   2   8
TORSDOF 2
ENDMDL
MODEL      100
REMARK 921   NORMALIZED FREE ENERGY PREDICTED BY IDOCK:   -4.47 KCAL/MOL
REMARK 922        TOTAL FREE ENERGY PREDICTED BY IDOCK:   -5.31 KCAL/MOL
REMARK 923 INTER-LIGAND FREE ENERGY PREDICTED BY IDOCK:   -5.11 KCAL/MOL
REMARK 924 INTRA-LIGAND FREE ENERGY PREDICTED BY IDOCK:   -0.21 KCAL/MOL
REMARK 927      BINDING AFFINITY PREDICTED BY RF-SCORE:    0.00 PKD
ROOT
HETATM    1  N   UNL     1     -11.659   6.681  69.543  1.00  0.00    -0.640 NA 
HETATM    2  CA  UNL     1     -10.858   7.141  70.722  1.00  0.00    -0.244 C  
HETATM    3  H2  UNL     1     -11.049   6.498  68.747  1.00  0.00     0.000 HD 
HETATM    4  H1  UNL     1     -12.253   5.874  69.730  1.00  0.00     0.000 HD 
HETATM    5  OXT UNL     1     -11.483   7.858  72.985  1.00  0.00    -0.383 OA 
HETATM    6  C   UNL     1     -11.811   7.403  71.901  1.00  0.00    -0.297 C  
HETATM    7  O   UNL     1     -13.087   7.052  71.591  1.00  0.00    -0.377 OA 
ENDROOT
BRANCH   2   8
HETATM    8  C   UNL     1      -9.961   8.360  70.439  1.00  0.00    -0.199 C  
BRANCH   8   9
HETATM    9  C   UNL     1     -10.526   9.362  69.457  1.00  0.00    -0.229 A  
HETATM   10  C   UNL     1     -10.182   9.297  68.097  1.00  0.00    -0.246 A  
HETATM   11  C   UNL     1     -10.677  10.253  67.216  1.00  0.00    -0.263 A  
HETATM   12  C   UNL     1     -11.515  11.268  67.672  1.00  0.00    -0.264 A  
HETATM   13  O   UNL     1     -10.356  10.242  65.887  1.00  0.00    -0.237 OA 
HETATM   14  H   UNL     1     -10.694  10.895  65.286  1.00  0.00     0.000 HD 
HETATM   15  O   UNL     1     -11.979  12.209  66.799  1.00  0.00    -0.606 OA 
HETATM   16  C   UNL     1     -11.877  11.344  69.007  1.00  0.00    -0.415 A  
HETATM   17  C   UNL     1     -11.378  10.390  69.887  1.00  0.00    -0.302 A  
HETATM   18  H   UNL     1     -12.551  12.901  67.110  1.00  0.00     0.000 HD 
HETATM   19  F   UNL     1     -11.693  10.481  71.188  1.00  0.00    -0.402 F  
ENDBRANCH   8   9
ENDBRANCH   2   8
TORSDOF 2
ENDMDL
MODEL      101
REMARK 921   NORMALIZED FREE ENERGY PREDICTED BY IDOCK:   -4.46 KCAL/MOL
REMARK 922        TOTAL FREE ENERGY PREDICTED BY IDOCK:   -5.30 KCAL/MOL
REMARK 923 INTER-LIGAND FREE ENERGY PREDICTED BY IDOCK:   -5.04 KCAL/MOL
REMARK 924 INTRA-LIGAND FREE ENERGY PREDICTED BY IDOCK:   -0.26 KCAL/MOL
REMARK 927      BINDING AFFINITY PREDICTED BY RF-SCORE:    0.00 PKD
ROOT
HETATM    1  N   UNL     1     -10.352  10.161  69.260  1.00  0.00    -0.208 NA 
HETATM    2  CA  UNL     1     -11.232  11.054  70.080  1.00  0.00    -0.224 C  
HETATM    3  H2  UNL     1      -9.775  10.713  68.626  1.00  0.00     0.000 HD 
HETATM    4  H1  UNL     1      -9.771   9.528  69.810  1.00  0.00     0.000 HD 
HETATM    5  OXT UNL     1     -12.953  10.602  71.771  1.00  0.00    -0.438 OA 
HETATM    6  C   UNL     1     -12.081  10.186  71.024  1.00  0.00    -0.377 C  
HETATM    7  O   UNL     1     -11.734   8.876  70.936  1.00  0.00    -0.282 OA 
ENDROOT
BRANCH   2   8
HETATM    8  C   UNL     1     -12.108  12.010  69.250  1.00  0.00    -0.249 C  
BRANCH   8   9
HETATM    9  C   UNL     1     -11.723  13.471  69.329  1.00  0.00    -0.382 A  
HETATM   10  C   UNL     1     -12.101  14.248  70.436  1.00  0.00    -0.409 A  
HETATM   11  C   UNL     1     -11.775  15.600  70.470  1.00  0.00    -0.366 A  
HETATM   12  C   UNL     1     -11.071  16.185  69.420  1.00  0.00    -0.335 A  
HETATM   13  O   UNL     1     -12.136  16.401  71.517  1.00  0.00    -0.627 OA 
HETATM   14  H   UNL     1     -11.913  17.324  71.541  1.00  0.00     0.000 HD 
HETATM   15  O   UNL     1     -10.773  17.516  69.459  1.00  0.00    -0.371 OA 
HETATM   16  C   UNL     1     -10.677  15.435  68.324  1.00  0.00    -0.260 A  
HETATM   17  C   UNL     1     -11.008  14.084  68.289  1.00  0.00    -0.255 A  
HETATM   18  H   UNL     1     -10.293  17.915  68.743  1.00  0.00     0.000 HD 
HETATM   19  F   UNL     1     -10.664  13.360  67.212  1.00  0.00    -0.252 F  
ENDBRANCH   8   9
ENDBRANCH   2   8
TORSDOF 2
ENDMDL
MODEL      102
REMARK 921   NORMALIZED FREE ENERGY PREDICTED BY IDOCK:   -4.45 KCAL/MOL
REMARK 922        TOTAL FREE ENERGY PREDICTED BY IDOCK:   -5.28 KCAL/MOL
REMARK 923 INTER-LIGAND FREE ENERGY PREDICTED BY IDOCK:   -5.04 KCAL/MOL
REMARK 924 INTRA-LIGAND FREE ENERGY PREDICTED BY IDOCK:   -0.25 KCAL/MOL
REMARK 927      BINDING AFFINITY PREDICTED BY RF-SCORE:    0.00 PKD
ROOT
HETATM    1  N   UNL     1     -10.437  19.018  68.205  1.00  0.00    -0.385 NA 
HETATM    2  CA  UNL     1      -9.629  18.324  67.152  1.00  0.00    -0.281 C  
HETATM    3  H2  UNL     1     -11.145  18.388  68.584  1.00  0.00     0.000 HD 
HETATM    4  H1  UNL     1      -9.882  19.423  68.958  1.00  0.00     0.000 HD 
HETATM    5  OXT UNL     1      -7.804  19.071  65.690  1.00  0.00    -0.457 OA 
HETATM    6  C   UNL     1      -8.573  19.303  66.609  1.00  0.00    -0.322 C  
HETATM    7  O   UNL     1      -8.589  20.476  67.294  1.00  0.00    -0.344 OA 
ENDROOT
BRANCH   2   8
HETATM    8  C   UNL     1     -10.467  17.711  66.016  1.00  0.00    -0.278 C  
BRANCH   8   9
HETATM    9  C   UNL     1     -10.379  16.206  65.889  1.00  0.00    -0.384 A  
HETATM   10  C   UNL     1      -9.609  15.459  66.795  1.00  0.00    -0.257 A  
HETATM   11  C   UNL     1      -9.506  14.081  66.637  1.00  0.00    -0.287 A  
HETATM   12  C   UNL     1     -10.166  13.437  65.593  1.00  0.00    -0.292 A  
HETATM   13  O   UNL     1      -8.754  13.314  67.483  1.00  0.00    -0.178 OA 
HETATM   14  H   UNL     1      -8.684  12.373  67.375  1.00  0.00     0.000 HD 
HETATM   15  O   UNL     1     -10.042  12.087  65.440  1.00  0.00    -0.247 OA 
HETATM   16  C   UNL     1     -10.941  14.152  64.695  1.00  0.00    -0.393 A  
HETATM   17  C   UNL     1     -11.039  15.531  64.851  1.00  0.00    -0.416 A  
HETATM   18  H   UNL     1     -10.492  11.648  64.728  1.00  0.00     0.000 HD 
HETATM   19  F   UNL     1     -11.756  16.235  63.961  1.00  0.00    -0.514 F  
ENDBRANCH   8   9
ENDBRANCH   2   8
TORSDOF 2
ENDMDL
MODEL      103
REMARK 921   NORMALIZED FREE ENERGY PREDICTED BY IDOCK:   -4.43 KCAL/MOL
REMARK 922        TOTAL FREE ENERGY PREDICTED BY IDOCK:   -5.27 KCAL/MOL
REMARK 923 INTER-LIGAND FREE ENERGY PREDICTED BY IDOCK:   -5.01 KCAL/MOL
REMARK 924 INTRA-LIGAND FREE ENERGY PREDICTED BY IDOCK:   -0.26 KCAL/MOL
REMARK 927      BINDING AFFINITY PREDICTED BY RF-SCORE:    0.00 PKD
ROOT
HETATM    1  N   UNL     1     -11.589  10.850  67.606  1.00  0.00    -0.563 NA 
HETATM    2  CA  UNL     1     -11.444  12.192  68.257  1.00  0.00    -0.305 C  
HETATM    3  H2  UNL     1     -11.255  10.883  66.643  1.00  0.00     0.000 HD 
HETATM    4  H1  UNL     1     -11.138  10.089  68.114  1.00  0.00     0.000 HD 
HETATM    5  OXT UNL     1     -12.041  13.039  70.482  1.00  0.00    -0.355 OA 
HETATM    6  C   UNL     1     -11.954  12.101  69.705  1.00  0.00    -0.302 C  
HETATM    7  O   UNL     1     -12.292  10.826  70.030  1.00  0.00    -0.320 OA 
ENDROOT
BRANCH   2   8
HETATM    8  C   UNL     1     -12.124  13.341  67.490  1.00  0.00    -0.312 C  
BRANCH   8   9
HETATM    9  C   UNL     1     -11.200  14.446  67.031  1.00  0.00    -0.336 A  
HETATM   10  C   UNL     1     -10.204  14.944  67.888  1.00  0.00    -0.228 A  
HETATM   11  C   UNL     1      -9.392  15.990  67.464  1.00  0.00    -0.217 A  
HETATM   12  C   UNL     1      -9.553  16.542  66.196  1.00  0.00    -0.315 A  
HETATM   13  O   UNL     1      -8.421  16.519  68.269  1.00  0.00    -0.186 OA 
HETATM   14  H   UNL     1      -7.866  17.233  67.979  1.00  0.00     0.000 HD 
HETATM   15  O   UNL     1      -8.760  17.579  65.799  1.00  0.00    -0.514 OA 
HETATM   16  C   UNL     1     -10.521  16.059  65.329  1.00  0.00    -0.384 A  
HETATM   17  C   UNL     1     -11.336  15.016  65.756  1.00  0.00    -0.279 A  
HETATM   18  H   UNL     1      -8.870  17.956  64.934  1.00  0.00     0.000 HD 
HETATM   19  F   UNL     1     -12.300  14.570  64.937  1.00  0.00    -0.395 F  
ENDBRANCH   8   9
ENDBRANCH   2   8
TORSDOF 2
ENDMDL
MODEL      104
REMARK 921   NORMALIZED FREE ENERGY PREDICTED BY IDOCK:   -4.43 KCAL/MOL
REMARK 922        TOTAL FREE ENERGY PREDICTED BY IDOCK:   -5.26 KCAL/MOL
REMARK 923 INTER-LIGAND FREE ENERGY PREDICTED BY IDOCK:   -5.18 KCAL/MOL
REMARK 924 INTRA-LIGAND FREE ENERGY PREDICTED BY IDOCK:   -0.08 KCAL/MOL
REMARK 927      BINDING AFFINITY PREDICTED BY RF-SCORE:    0.00 PKD
ROOT
HETATM    1  N   UNL     1     -11.963  12.714  68.639  1.00  0.00    -0.282 NA 
HETATM    2  CA  UNL     1     -11.830  11.530  67.732  1.00  0.00    -0.154 C  
HETATM    3  H2  UNL     1     -12.422  13.485  68.154  1.00  0.00     0.000 HD 
HETATM    4  H1  UNL     1     -12.438  12.515  69.520  1.00  0.00     0.000 HD 
HETATM    5  OXT UNL     1     -10.816   9.313  68.023  1.00  0.00    -0.203 OA 
HETATM    6  C   UNL     1     -11.139  10.390  68.500  1.00  0.00    -0.266 C  
HETATM    7  O   UNL     1     -10.936  10.723  69.801  1.00  0.00    -0.252 OA 
ENDROOT
BRANCH   2   8
HETATM    8  C   UNL     1     -11.115  11.830  66.403  1.00  0.00    -0.360 C  
BRANCH   8   9
HETATM    9  C   UNL     1     -10.559  13.231  66.272  1.00  0.00    -0.294 A  
HETATM   10  C   UNL     1     -11.155  14.155  65.398  1.00  0.00    -0.321 A  
HETATM   11  C   UNL     1     -10.604  15.424  65.258  1.00  0.00    -0.428 A  
HETATM   12  C   UNL     1      -9.472  15.788  65.984  1.00  0.00    -0.357 A  
HETATM   13  O   UNL     1     -11.138  16.351  64.407  1.00  0.00    -1.052 OA 
HETATM   14  H   UNL     1     -10.761  17.219  64.313  1.00  0.00     0.000 HD 
HETATM   15  O   UNL     1      -8.932  17.031  65.825  1.00  0.00    -0.526 OA 
HETATM   16  C   UNL     1      -8.874  14.897  66.861  1.00  0.00    -0.284 A  
HETATM   17  C   UNL     1      -9.424  13.626  66.996  1.00  0.00    -0.252 A  
HETATM   18  H   UNL     1      -8.160  17.279  66.320  1.00  0.00     0.000 HD 
HETATM   19  F   UNL     1      -8.827  12.746  67.814  1.00  0.00    -0.154 F  
ENDBRANCH   8   9
ENDBRANCH   2   8
TORSDOF 2
ENDMDL
MODEL      105
REMARK 921   NORMALIZED FREE ENERGY PREDICTED BY IDOCK:   -4.42 KCAL/MOL
REMARK 922        TOTAL FREE ENERGY PREDICTED BY IDOCK:   -5.25 KCAL/MOL
REMARK 923 INTER-LIGAND FREE ENERGY PREDICTED BY IDOCK:   -5.01 KCAL/MOL
REMARK 924 INTRA-LIGAND FREE ENERGY PREDICTED BY IDOCK:   -0.25 KCAL/MOL
REMARK 927      BINDING AFFINITY PREDICTED BY RF-SCORE:    0.00 PKD
ROOT
HETATM    1  N   UNL     1     -10.630  19.464  66.201  1.00  0.00    -0.480 NA 
HETATM    2  CA  UNL     1      -9.954  18.574  67.198  1.00  0.00    -0.336 C  
HETATM    3  H2  UNL     1     -11.481  19.025  65.850  1.00  0.00     0.000 HD 
HETATM    4  H1  UNL     1     -10.829  20.402  66.547  1.00  0.00     0.000 HD 
HETATM    5  OXT UNL     1      -7.865  18.779  68.470  1.00  0.00    -0.315 OA 
HETATM    6  C   UNL     1      -8.680  19.270  67.705  1.00  0.00    -0.306 C  
HETATM    7  O   UNL     1      -8.570  20.527  67.200  1.00  0.00    -0.335 OA 
ENDROOT
BRANCH   2   8
HETATM    8  C   UNL     1      -9.654  17.157  66.677  1.00  0.00    -0.279 C  
BRANCH   8   9
HETATM    9  C   UNL     1     -10.165  16.028  67.544  1.00  0.00    -0.275 A  
HETATM   10  C   UNL     1     -11.300  16.208  68.352  1.00  0.00    -0.345 A  
HETATM   11  C   UNL     1     -11.730  15.173  69.175  1.00  0.00    -0.325 A  
HETATM   12  C   UNL     1     -11.047  13.959  69.200  1.00  0.00    -0.245 A  
HETATM   13  O   UNL     1     -12.818  15.307  69.991  1.00  0.00    -0.616 OA 
HETATM   14  H   UNL     1     -13.111  14.600  70.554  1.00  0.00     0.000 HD 
HETATM   15  O   UNL     1     -11.470  12.958  70.025  1.00  0.00    -0.506 OA 
HETATM   16  C   UNL     1      -9.932  13.755  68.403  1.00  0.00    -0.229 A  
HETATM   17  C   UNL     1      -9.501  14.792  67.583  1.00  0.00    -0.204 A  
HETATM   18  H   UNL     1     -11.005  12.130  70.042  1.00  0.00     0.000 HD 
HETATM   19  F   UNL     1      -8.399  14.615  66.839  1.00  0.00    -0.214 F  
ENDBRANCH   8   9
ENDBRANCH   2   8
TORSDOF 2
ENDMDL
MODEL      106
REMARK 921   NORMALIZED FREE ENERGY PREDICTED BY IDOCK:   -4.40 KCAL/MOL
REMARK 922        TOTAL FREE ENERGY PREDICTED BY IDOCK:   -5.23 KCAL/MOL
REMARK 923 INTER-LIGAND FREE ENERGY PREDICTED BY IDOCK:   -4.97 KCAL/MOL
REMARK 924 INTRA-LIGAND FREE ENERGY PREDICTED BY IDOCK:   -0.26 KCAL/MOL
REMARK 927      BINDING AFFINITY PREDICTED BY RF-SCORE:    0.00 PKD
ROOT
HETATM    1  N   UNL     1      -8.691  14.062  69.142  1.00  0.00    -0.357 NA 
HETATM    2  CA  UNL     1      -8.968  14.416  67.714  1.00  0.00    -0.192 C  
HETATM    3  H2  UNL     1      -9.072  13.142  69.362  1.00  0.00     0.000 HD 
HETATM    4  H1  UNL     1      -7.705  14.109  69.401  1.00  0.00     0.000 HD 
HETATM    5  OXT UNL     1      -8.493  16.415  66.370  1.00  0.00    -0.271 OA 
HETATM    6  C   UNL     1      -8.375  15.805  67.421  1.00  0.00    -0.168 C  
HETATM    7  O   UNL     1      -7.681  16.280  68.488  1.00  0.00    -0.170 OA 
ENDROOT
BRANCH   2   8
HETATM    8  C   UNL     1     -10.455  14.343  67.323  1.00  0.00    -0.269 C  
BRANCH   8   9
HETATM    9  C   UNL     1     -10.769  13.452  66.142  1.00  0.00    -0.288 A  
HETATM   10  C   UNL     1      -9.757  12.686  65.539  1.00  0.00    -0.110 A  
HETATM   11  C   UNL     1     -10.056  11.905  64.427  1.00  0.00    -0.279 A  
HETATM   12  C   UNL     1     -11.350  11.872  63.913  1.00  0.00    -0.428 A  
HETATM   13  O   UNL     1      -9.101  11.157  63.796  1.00  0.00    -0.342 OA 
HETATM   14  H   UNL     1      -9.305  10.624  63.037  1.00  0.00     0.000 HD 
HETATM   15  O   UNL     1     -11.624  11.115  62.811  1.00  0.00    -0.640 OA 
HETATM   16  C   UNL     1     -12.366  12.610  64.498  1.00  0.00    -0.537 A  
HETATM   17  C   UNL     1     -12.065  13.394  65.608  1.00  0.00    -0.434 A  
HETATM   18  H   UNL     1     -12.507  11.092  62.460  1.00  0.00     0.000 HD 
HETATM   19  F   UNL     1     -13.035  14.141  66.155  1.00  0.00    -0.483 F  
ENDBRANCH   8   9
ENDBRANCH   2   8
TORSDOF 2
ENDMDL
MODEL      107
REMARK 921   NORMALIZED FREE ENERGY PREDICTED BY IDOCK:   -4.39 KCAL/MOL
REMARK 922        TOTAL FREE ENERGY PREDICTED BY IDOCK:   -5.22 KCAL/MOL
REMARK 923 INTER-LIGAND FREE ENERGY PREDICTED BY IDOCK:   -4.91 KCAL/MOL
REMARK 924 INTRA-LIGAND FREE ENERGY PREDICTED BY IDOCK:   -0.31 KCAL/MOL
REMARK 927      BINDING AFFINITY PREDICTED BY RF-SCORE:    0.00 PKD
ROOT
HETATM    1  N   UNL     1     -10.216   9.691  68.804  1.00  0.00    -0.189 NA 
HETATM    2  CA  UNL     1     -10.961  10.391  69.899  1.00  0.00    -0.305 C  
HETATM    3  H2  UNL     1      -9.894  10.362  68.107  1.00  0.00     0.000 HD 
HETATM    4  H1  UNL     1      -9.440   9.116  69.129  1.00  0.00     0.000 HD 
HETATM    5  OXT UNL     1     -12.122   9.583  71.906  1.00  0.00    -0.371 OA 
HETATM    6  C   UNL     1     -11.425   9.348  70.931  1.00  0.00    -0.316 C  
HETATM    7  O   UNL     1     -10.952   8.111  70.630  1.00  0.00    -0.237 OA 
ENDROOT
BRANCH   2   8
HETATM    8  C   UNL     1     -12.133  11.261  69.409  1.00  0.00    -0.384 C  
BRANCH   8   9
HETATM    9  C   UNL     1     -11.948  12.752  69.589  1.00  0.00    -0.354 A  
HETATM   10  C   UNL     1     -11.403  13.531  68.555  1.00  0.00    -0.327 A  
HETATM   11  C   UNL     1     -11.201  14.893  68.754  1.00  0.00    -0.275 A  
HETATM   12  C   UNL     1     -11.541  15.489  69.966  1.00  0.00    -0.341 A  
HETATM   13  O   UNL     1     -10.658  15.689  67.784  1.00  0.00    -0.267 OA 
HETATM   14  H   UNL     1     -10.520  16.619  67.920  1.00  0.00     0.000 HD 
HETATM   15  O   UNL     1     -11.322  16.823  70.153  1.00  0.00    -0.401 OA 
HETATM   16  C   UNL     1     -12.091  14.742  70.995  1.00  0.00    -0.391 A  
HETATM   17  C   UNL     1     -12.289  13.379  70.796  1.00  0.00    -0.354 A  
HETATM   18  H   UNL     1     -11.554  17.230  70.979  1.00  0.00     0.000 HD 
HETATM   19  F   UNL     1     -12.784  12.643  71.803  1.00  0.00    -0.395 F  
ENDBRANCH   8   9
ENDBRANCH   2   8
TORSDOF 2
ENDMDL
MODEL      108
REMARK 921   NORMALIZED FREE ENERGY PREDICTED BY IDOCK:   -4.37 KCAL/MOL
REMARK 922        TOTAL FREE ENERGY PREDICTED BY IDOCK:   -5.20 KCAL/MOL
REMARK 923 INTER-LIGAND FREE ENERGY PREDICTED BY IDOCK:   -4.88 KCAL/MOL
REMARK 924 INTRA-LIGAND FREE ENERGY PREDICTED BY IDOCK:   -0.32 KCAL/MOL
REMARK 927      BINDING AFFINITY PREDICTED BY RF-SCORE:    0.00 PKD
ROOT
HETATM    1  N   UNL     1     -10.699  16.458  65.005  1.00  0.00    -0.681 NA 
HETATM    2  CA  UNL     1     -10.900  15.006  65.314  1.00  0.00    -0.386 C  
HETATM    3  H2  UNL     1      -9.853  16.804  65.456  1.00  0.00     0.000 HD 
HETATM    4  H1  UNL     1     -10.687  16.675  64.009  1.00  0.00     0.000 HD 
HETATM    5  OXT UNL     1     -12.666  13.405  64.725  1.00  0.00    -0.641 OA 
HETATM    6  C   UNL     1     -12.182  14.520  64.615  1.00  0.00    -0.460 C  
HETATM    7  O   UNL     1     -12.718  15.495  63.835  1.00  0.00    -0.665 OA 
ENDROOT
BRANCH   2   8
HETATM    8  C   UNL     1     -10.918  14.677  66.817  1.00  0.00    -0.323 C  
BRANCH   8   9
HETATM    9  C   UNL     1     -10.003  13.550  67.243  1.00  0.00    -0.236 A  
HETATM   10  C   UNL     1      -8.613  13.747  67.306  1.00  0.00    -0.221 A  
HETATM   11  C   UNL     1      -7.784  12.687  67.657  1.00  0.00    -0.155 A  
HETATM   12  C   UNL     1      -8.322  11.436  67.953  1.00  0.00    -0.137 A  
HETATM   13  O   UNL     1      -6.425  12.825  67.715  1.00  0.00    -0.102 OA 
HETATM   14  H   UNL     1      -5.859  12.100  67.955  1.00  0.00     0.000 HD 
HETATM   15  O   UNL     1      -7.495  10.401  68.279  1.00  0.00    -0.086 OA 
HETATM   16  C   UNL     1      -9.690  11.222  67.909  1.00  0.00    -0.185 A  
HETATM   17  C   UNL     1     -10.518  12.282  67.553  1.00  0.00    -0.213 A  
HETATM   18  H   UNL     1      -7.861   9.548  68.482  1.00  0.00     0.000 HD 
HETATM   19  F   UNL     1     -11.840  12.072  67.470  1.00  0.00    -0.384 F  
ENDBRANCH   8   9
ENDBRANCH   2   8
TORSDOF 2
ENDMDL
MODEL      109
REMARK 921   NORMALIZED FREE ENERGY PREDICTED BY IDOCK:   -4.36 KCAL/MOL
REMARK 922        TOTAL FREE ENERGY PREDICTED BY IDOCK:   -5.18 KCAL/MOL
REMARK 923 INTER-LIGAND FREE ENERGY PREDICTED BY IDOCK:   -5.21 KCAL/MOL
REMARK 924 INTRA-LIGAND FREE ENERGY PREDICTED BY IDOCK:    0.03 KCAL/MOL
REMARK 927      BINDING AFFINITY PREDICTED BY RF-SCORE:    0.00 PKD
ROOT
HETATM    1  N   UNL     1      -9.903  12.709  66.377  1.00  0.00    -0.254 NA 
HETATM    2  CA  UNL     1     -10.863  13.856  66.292  1.00  0.00    -0.290 C  
HETATM    3  H2  UNL     1      -9.020  13.012  66.788  1.00  0.00     0.000 HD 
HETATM    4  H1  UNL     1     -10.267  11.896  66.874  1.00  0.00     0.000 HD 
HETATM    5  OXT UNL     1     -13.139  14.063  65.397  1.00  0.00    -0.763 OA 
HETATM    6  C   UNL     1     -12.180  13.359  65.672  1.00  0.00    -0.463 C  
HETATM    7  O   UNL     1     -12.155  12.016  65.470  1.00  0.00    -0.479 OA 
ENDROOT
BRANCH   2   8
HETATM    8  C   UNL     1     -10.313  15.084  65.542  1.00  0.00    -0.397 C  
BRANCH   8   9
HETATM    9  C   UNL     1      -9.695  16.151  66.418  1.00  0.00    -0.308 A  
HETATM   10  C   UNL     1      -8.441  16.697  66.097  1.00  0.00    -0.308 A  
HETATM   11  C   UNL     1      -7.870  17.647  66.938  1.00  0.00    -0.224 A  
HETATM   12  C   UNL     1      -8.534  18.064  68.089  1.00  0.00    -0.269 A  
HETATM   13  O   UNL     1      -6.644  18.194  66.677  1.00  0.00    -0.175 OA 
HETATM   14  H   UNL     1      -6.254  18.843  67.251  1.00  0.00     0.000 HD 
HETATM   15  O   UNL     1      -7.953  18.984  68.913  1.00  0.00    -0.337 OA 
HETATM   16  C   UNL     1      -9.777  17.548  68.419  1.00  0.00    -0.316 A  
HETATM   17  C   UNL     1     -10.345  16.595  67.579  1.00  0.00    -0.294 A  
HETATM   18  H   UNL     1      -8.406  19.268  69.698  1.00  0.00     0.000 HD 
HETATM   19  F   UNL     1     -11.530  16.062  67.913  1.00  0.00    -0.329 F  
ENDBRANCH   8   9
ENDBRANCH   2   8
TORSDOF 2
ENDMDL
MODEL      110
REMARK 921   NORMALIZED FREE ENERGY PREDICTED BY IDOCK:   -4.36 KCAL/MOL
REMARK 922        TOTAL FREE ENERGY PREDICTED BY IDOCK:   -5.18 KCAL/MOL
REMARK 923 INTER-LIGAND FREE ENERGY PREDICTED BY IDOCK:   -5.29 KCAL/MOL
REMARK 924 INTRA-LIGAND FREE ENERGY PREDICTED BY IDOCK:    0.12 KCAL/MOL
REMARK 927      BINDING AFFINITY PREDICTED BY RF-SCORE:    0.00 PKD
ROOT
HETATM    1  N   UNL     1     -10.114  17.408  65.558  1.00  0.00    -0.579 NA 
HETATM    2  CA  UNL     1      -9.610  16.170  66.234  1.00  0.00    -0.306 C  
HETATM    3  H2  UNL     1     -11.123  17.351  65.414  1.00  0.00     0.000 HD 
HETATM    4  H1  UNL     1      -9.872  18.274  66.038  1.00  0.00     0.000 HD 
HETATM    5  OXT UNL     1      -7.365  15.426  66.891  1.00  0.00    -0.152 OA 
HETATM    6  C   UNL     1      -8.091  16.296  66.436  1.00  0.00    -0.299 C  
HETATM    7  O   UNL     1      -7.641  17.518  66.049  1.00  0.00    -0.414 OA 
ENDROOT
BRANCH   2   8
HETATM    8  C   UNL     1      -9.977  14.862  65.509  1.00  0.00    -0.392 C  
BRANCH   8   9
HETATM    9  C   UNL     1     -10.548  13.774  66.392  1.00  0.00    -0.284 A  
HETATM   10  C   UNL     1     -10.219  12.427  66.164  1.00  0.00    -0.262 A  
HETATM   11  C   UNL     1     -10.788  11.437  66.959  1.00  0.00    -0.282 A  
HETATM   12  C   UNL     1     -11.673  11.772  67.981  1.00  0.00    -0.293 A  
HETATM   13  O   UNL     1     -10.512  10.112  66.765  1.00  0.00    -0.232 OA 
HETATM   14  H   UNL     1     -10.900   9.436  67.308  1.00  0.00     0.000 HD 
HETATM   15  O   UNL     1     -12.237  10.789  68.741  1.00  0.00    -0.783 OA 
HETATM   16  C   UNL     1     -12.003  13.094  68.231  1.00  0.00    -0.328 A  
HETATM   17  C   UNL     1     -11.437  14.083  67.433  1.00  0.00    -0.348 A  
HETATM   18  H   UNL     1     -12.840  11.016  69.438  1.00  0.00     0.000 HD 
HETATM   19  F   UNL     1     -11.782  15.362  67.644  1.00  0.00    -0.340 F  
ENDBRANCH   8   9
ENDBRANCH   2   8
TORSDOF 2
ENDMDL
MODEL      111
REMARK 921   NORMALIZED FREE ENERGY PREDICTED BY IDOCK:   -4.34 KCAL/MOL
REMARK 922        TOTAL FREE ENERGY PREDICTED BY IDOCK:   -5.17 KCAL/MOL
REMARK 923 INTER-LIGAND FREE ENERGY PREDICTED BY IDOCK:   -4.88 KCAL/MOL
REMARK 924 INTRA-LIGAND FREE ENERGY PREDICTED BY IDOCK:   -0.29 KCAL/MOL
REMARK 927      BINDING AFFINITY PREDICTED BY RF-SCORE:    0.00 PKD
ROOT
HETATM    1  N   UNL     1      -9.907  11.385  67.155  1.00  0.00    -0.189 NA 
HETATM    2  CA  UNL     1     -10.413  11.613  68.546  1.00  0.00    -0.217 C  
HETATM    3  H2  UNL     1      -9.889  12.262  66.634  1.00  0.00     0.000 HD 
HETATM    4  H1  UNL     1      -8.997  10.927  67.112  1.00  0.00     0.000 HD 
HETATM    5  OXT UNL     1     -10.847  10.102  70.431  1.00  0.00    -0.292 OA 
HETATM    6  C   UNL     1     -10.421  10.272  69.300  1.00  0.00    -0.228 C  
HETATM    7  O   UNL     1      -9.877   9.281  68.548  1.00  0.00    -0.151 OA 
ENDROOT
BRANCH   2   8
HETATM    8  C   UNL     1     -11.786  12.306  68.612  1.00  0.00    -0.354 C  
BRANCH   8   9
HETATM    9  C   UNL     1     -11.893  13.434  69.615  1.00  0.00    -0.394 A  
HETATM   10  C   UNL     1     -12.425  13.201  70.894  1.00  0.00    -0.407 A  
HETATM   11  C   UNL     1     -12.555  14.259  71.788  1.00  0.00    -0.337 A  
HETATM   12  C   UNL     1     -12.155  15.543  71.427  1.00  0.00    -0.393 A  
HETATM   13  O   UNL     1     -13.083  14.085  73.037  1.00  0.00    -0.500 OA 
HETATM   14  H   UNL     1     -13.172  14.807  73.647  1.00  0.00     0.000 HD 
HETATM   15  O   UNL     1     -12.304  16.574  72.308  1.00  0.00    -0.503 OA 
HETATM   16  C   UNL     1     -11.616  15.794  70.175  1.00  0.00    -0.364 A  
HETATM   17  C   UNL     1     -11.491  14.736  69.281  1.00  0.00    -0.296 A  
HETATM   18  H   UNL     1     -12.031  17.451  72.062  1.00  0.00     0.000 HD 
HETATM   19  F   UNL     1     -11.006  14.978  68.054  1.00  0.00    -0.252 F  
ENDBRANCH   8   9
ENDBRANCH   2   8
TORSDOF 2
ENDMDL
MODEL      112
REMARK 921   NORMALIZED FREE ENERGY PREDICTED BY IDOCK:   -4.34 KCAL/MOL
REMARK 922        TOTAL FREE ENERGY PREDICTED BY IDOCK:   -5.16 KCAL/MOL
REMARK 923 INTER-LIGAND FREE ENERGY PREDICTED BY IDOCK:   -4.91 KCAL/MOL
REMARK 924 INTRA-LIGAND FREE ENERGY PREDICTED BY IDOCK:   -0.25 KCAL/MOL
REMARK 927      BINDING AFFINITY PREDICTED BY RF-SCORE:    0.00 PKD
ROOT
HETATM    1  N   UNL     1     -10.423   8.436  67.380  1.00  0.00    -0.328 NA 
HETATM    2  CA  UNL     1      -9.179   9.101  67.882  1.00  0.00    -0.133 C  
HETATM    3  H2  UNL     1     -10.338   8.223  66.386  1.00  0.00     0.000 HD 
HETATM    4  H1  UNL     1     -10.689   7.601  67.901  1.00  0.00     0.000 HD 
HETATM    5  OXT UNL     1      -8.540  10.007  70.073  1.00  0.00    -0.190 OA 
HETATM    6  C   UNL     1      -9.345   9.402  69.381  1.00  0.00    -0.169 C  
HETATM    7  O   UNL     1     -10.511   8.897  69.860  1.00  0.00    -0.203 OA 
ENDROOT
BRANCH   2   8
HETATM    8  C   UNL     1      -8.776  10.361  67.094  1.00  0.00    -0.130 C  
BRANCH   8   9
HETATM    9  C   UNL     1      -9.904  11.052  66.361  1.00  0.00    -0.252 A  
HETATM   10  C   UNL     1     -10.131  10.795  64.999  1.00  0.00    -0.377 A  
HETATM   11  C   UNL     1     -11.146  11.472  64.331  1.00  0.00    -0.291 A  
HETATM   12  C   UNL     1     -11.942  12.396  65.004  1.00  0.00    -0.402 A  
HETATM   13  O   UNL     1     -11.393  11.269  63.002  1.00  0.00    -0.847 OA 
HETATM   14  H   UNL     1     -12.087  11.731  62.546  1.00  0.00     0.000 HD 
HETATM   15  O   UNL     1     -12.923  13.065  64.332  1.00  0.00    -0.686 OA 
HETATM   16  C   UNL     1     -11.745  12.656  66.350  1.00  0.00    -0.466 A  
HETATM   17  C   UNL     1     -10.726  11.982  67.016  1.00  0.00    -0.242 A  
HETATM   18  H   UNL     1     -13.467  13.695  64.791  1.00  0.00     0.000 HD 
HETATM   19  F   UNL     1     -10.504  12.258  68.310  1.00  0.00    -0.198 F  
ENDBRANCH   8   9
ENDBRANCH   2   8
TORSDOF 2
ENDMDL
MODEL      113
REMARK 921   NORMALIZED FREE ENERGY PREDICTED BY IDOCK:   -4.31 KCAL/MOL
REMARK 922        TOTAL FREE ENERGY PREDICTED BY IDOCK:   -5.12 KCAL/MOL
REMARK 923 INTER-LIGAND FREE ENERGY PREDICTED BY IDOCK:   -4.99 KCAL/MOL
REMARK 924 INTRA-LIGAND FREE ENERGY PREDICTED BY IDOCK:   -0.13 KCAL/MOL
REMARK 927      BINDING AFFINITY PREDICTED BY RF-SCORE:    0.00 PKD
ROOT
HETATM    1  N   UNL     1     -10.103  15.177  70.013  1.00  0.00    -0.493 NA 
HETATM    2  CA  UNL     1     -11.499  15.659  69.763  1.00  0.00    -0.342 C  
HETATM    3  H2  UNL     1      -9.546  15.238  69.160  1.00  0.00     0.000 HD 
HETATM    4  H1  UNL     1      -9.629  15.651  70.782  1.00  0.00     0.000 HD 
HETATM    5  OXT UNL     1     -13.493  15.800  71.187  1.00  0.00    -0.575 OA 
HETATM    6  C   UNL     1     -12.303  15.556  71.070  1.00  0.00    -0.416 C  
HETATM    7  O   UNL     1     -11.515  15.162  72.105  1.00  0.00    -0.420 OA 
ENDROOT
BRANCH   2   8
HETATM    8  C   UNL     1     -12.214  14.945  68.602  1.00  0.00    -0.101 C  
BRANCH   8   9
HETATM    9  C   UNL     1     -11.470  13.767  68.013  1.00  0.00    -0.344 A  
HETATM   10  C   UNL     1     -10.868  13.866  66.747  1.00  0.00    -0.286 A  
HETATM   11  C   UNL     1     -10.226  12.758  66.204  1.00  0.00    -0.275 A  
HETATM   12  C   UNL     1     -10.169  11.557  66.907  1.00  0.00    -0.217 A  
HETATM   13  O   UNL     1      -9.641  12.800  64.969  1.00  0.00    -0.483 OA 
HETATM   14  H   UNL     1      -9.202  12.044  64.598  1.00  0.00     0.000 HD 
HETATM   15  O   UNL     1      -9.550  10.474  66.353  1.00  0.00    -0.167 OA 
HETATM   16  C   UNL     1     -10.746  11.441  68.161  1.00  0.00    -0.241 A  
HETATM   17  C   UNL     1     -11.392  12.548  68.702  1.00  0.00    -0.288 A  
HETATM   18  H   UNL     1      -9.512   9.655  66.833  1.00  0.00     0.000 HD 
HETATM   19  F   UNL     1     -11.986  12.430  69.899  1.00  0.00    -0.348 F  
ENDBRANCH   8   9
ENDBRANCH   2   8
TORSDOF 2
ENDMDL
MODEL      114
REMARK 921   NORMALIZED FREE ENERGY PREDICTED BY IDOCK:   -4.28 KCAL/MOL
REMARK 922        TOTAL FREE ENERGY PREDICTED BY IDOCK:   -5.10 KCAL/MOL
REMARK 923 INTER-LIGAND FREE ENERGY PREDICTED BY IDOCK:   -4.85 KCAL/MOL
REMARK 924 INTRA-LIGAND FREE ENERGY PREDICTED BY IDOCK:   -0.25 KCAL/MOL
REMARK 927      BINDING AFFINITY PREDICTED BY RF-SCORE:    0.00 PKD
ROOT
HETATM    1  N   UNL     1      -8.530  12.819  68.145  1.00  0.00    -0.172 NA 
HETATM    2  CA  UNL     1      -9.861  12.203  68.450  1.00  0.00    -0.200 C  
HETATM    3  H2  UNL     1      -8.374  13.638  68.732  1.00  0.00     0.000 HD 
HETATM    4  H1  UNL     1      -7.745  12.173  68.218  1.00  0.00     0.000 HD 
HETATM    5  OXT UNL     1     -11.071  10.291  67.498  1.00  0.00    -0.311 OA 
HETATM    6  C   UNL     1     -10.058  10.972  67.549  1.00  0.00    -0.180 C  
HETATM    7  O   UNL     1      -8.948  10.718  66.810  1.00  0.00    -0.144 OA 
ENDROOT
BRANCH   2   8
HETATM    8  C   UNL     1     -11.047  13.178  68.341  1.00  0.00    -0.298 C  
BRANCH   8   9
HETATM    9  C   UNL     1     -11.687  13.567  69.655  1.00  0.00    -0.378 A  
HETATM   10  C   UNL     1     -11.542  14.869  70.160  1.00  0.00    -0.333 A  
HETATM   11  C   UNL     1     -12.101  15.195  71.391  1.00  0.00    -0.338 A  
HETATM   12  C   UNL     1     -12.808  14.243  72.122  1.00  0.00    -0.344 A  
HETATM   13  O   UNL     1     -11.972  16.445  71.932  1.00  0.00    -0.622 OA 
HETATM   14  H   UNL     1     -12.354  16.667  72.773  1.00  0.00     0.000 HD 
HETATM   15  O   UNL     1     -13.336  14.573  73.337  1.00  0.00    -0.562 OA 
HETATM   16  C   UNL     1     -12.973  12.956  71.638  1.00  0.00    -0.410 A  
HETATM   17  C   UNL     1     -12.410  12.629  70.409  1.00  0.00    -0.237 A  
HETATM   18  H   UNL     1     -13.818  13.923  73.835  1.00  0.00     0.000 HD 
HETATM   19  F   UNL     1     -12.533  11.374  69.952  1.00  0.00    -0.321 F  
ENDBRANCH   8   9
ENDBRANCH   2   8
TORSDOF 2
ENDMDL
MODEL      115
REMARK 921   NORMALIZED FREE ENERGY PREDICTED BY IDOCK:   -4.24 KCAL/MOL
REMARK 922        TOTAL FREE ENERGY PREDICTED BY IDOCK:   -5.05 KCAL/MOL
REMARK 923 INTER-LIGAND FREE ENERGY PREDICTED BY IDOCK:   -4.78 KCAL/MOL
REMARK 924 INTRA-LIGAND FREE ENERGY PREDICTED BY IDOCK:   -0.28 KCAL/MOL
REMARK 927      BINDING AFFINITY PREDICTED BY RF-SCORE:    0.00 PKD
ROOT
HETATM    1  N   UNL     1      -9.449   8.686  65.383  1.00  0.00    -0.436 NA 
HETATM    2  CA  UNL     1      -9.503   9.576  66.587  1.00  0.00    -0.170 C  
HETATM    3  H2  UNL     1     -10.105   9.008  64.672  1.00  0.00     0.000 HD 
HETATM    4  H1  UNL     1      -8.516   8.579  64.985  1.00  0.00     0.000 HD 
HETATM    5  OXT UNL     1      -8.352   9.520  68.755  1.00  0.00    -0.113 OA 
HETATM    6  C   UNL     1      -8.499   9.061  67.633  1.00  0.00    -0.117 C  
HETATM    7  O   UNL     1      -7.773   8.020  67.149  1.00  0.00    -0.098 OA 
ENDROOT
BRANCH   2   8
HETATM    8  C   UNL     1     -10.911   9.740  67.188  1.00  0.00    -0.207 C  
BRANCH   8   9
HETATM    9  C   UNL     1     -11.273  11.147  67.609  1.00  0.00    -0.364 A  
HETATM   10  C   UNL     1     -11.356  11.483  68.970  1.00  0.00    -0.339 A  
HETATM   11  C   UNL     1     -11.733  12.770  69.338  1.00  0.00    -0.319 A  
HETATM   12  C   UNL     1     -12.021  13.728  68.369  1.00  0.00    -0.360 A  
HETATM   13  O   UNL     1     -11.844  13.140  70.650  1.00  0.00    -0.524 OA 
HETATM   14  H   UNL     1     -12.101  14.020  70.901  1.00  0.00     0.000 HD 
HETATM   15  O   UNL     1     -12.406  14.982  68.745  1.00  0.00    -0.587 OA 
HETATM   16  C   UNL     1     -11.934  13.422  67.020  1.00  0.00    -0.429 A  
HETATM   17  C   UNL     1     -11.561  12.133  66.653  1.00  0.00    -0.350 A  
HETATM   18  H   UNL     1     -12.602  15.635  68.084  1.00  0.00     0.000 HD 
HETATM   19  F   UNL     1     -11.514  11.818  65.350  1.00  0.00    -0.364 F  
ENDBRANCH   8   9
ENDBRANCH   2   8
TORSDOF 2
ENDMDL
MODEL      116
REMARK 921   NORMALIZED FREE ENERGY PREDICTED BY IDOCK:   -4.24 KCAL/MOL
REMARK 922        TOTAL FREE ENERGY PREDICTED BY IDOCK:   -5.05 KCAL/MOL
REMARK 923 INTER-LIGAND FREE ENERGY PREDICTED BY IDOCK:   -4.87 KCAL/MOL
REMARK 924 INTRA-LIGAND FREE ENERGY PREDICTED BY IDOCK:   -0.18 KCAL/MOL
REMARK 927      BINDING AFFINITY PREDICTED BY RF-SCORE:    0.00 PKD
ROOT
HETATM    1  N   UNL     1     -10.316   9.543  70.687  1.00  0.00    -0.284 NA 
HETATM    2  CA  UNL     1     -11.612  10.258  70.919  1.00  0.00    -0.365 C  
HETATM    3  H2  UNL     1      -9.720  10.080  70.057  1.00  0.00     0.000 HD 
HETATM    4  H1  UNL     1      -9.811   9.307  71.541  1.00  0.00     0.000 HD 
HETATM    5  OXT UNL     1     -13.624   9.688  72.205  1.00  0.00    -0.426 OA 
HETATM    6  C   UNL     1     -12.479   9.420  71.874  1.00  0.00    -0.390 C  
HETATM    7  O   UNL     1     -11.806   8.330  72.324  1.00  0.00    -0.340 OA 
ENDROOT
BRANCH   2   8
HETATM    8  C   UNL     1     -12.374  10.615  69.630  1.00  0.00    -0.209 C  
BRANCH   8   9
HETATM    9  C   UNL     1     -11.570  11.366  68.592  1.00  0.00    -0.384 A  
HETATM   10  C   UNL     1     -11.451  12.764  68.658  1.00  0.00    -0.341 A  
HETATM   11  C   UNL     1     -10.744  13.442  67.671  1.00  0.00    -0.247 A  
HETATM   12  C   UNL     1     -10.149  12.744  66.622  1.00  0.00    -0.243 A  
HETATM   13  O   UNL     1     -10.616  14.803  67.683  1.00  0.00    -0.256 OA 
HETATM   14  H   UNL     1     -10.132  15.265  67.008  1.00  0.00     0.000 HD 
HETATM   15  O   UNL     1      -9.472  13.424  65.651  1.00  0.00    -0.485 OA 
HETATM   16  C   UNL     1     -10.243  11.364  66.543  1.00  0.00    -0.259 A  
HETATM   17  C   UNL     1     -10.954  10.688  67.529  1.00  0.00    -0.310 A  
HETATM   18  H   UNL     1      -9.066  12.948  64.936  1.00  0.00     0.000 HD 
HETATM   19  F   UNL     1     -11.083   9.356  67.437  1.00  0.00    -0.330 F  
ENDBRANCH   8   9
ENDBRANCH   2   8
TORSDOF 2
ENDMDL
MODEL      117
REMARK 921   NORMALIZED FREE ENERGY PREDICTED BY IDOCK:   -4.24 KCAL/MOL
REMARK 922        TOTAL FREE ENERGY PREDICTED BY IDOCK:   -5.05 KCAL/MOL
REMARK 923 INTER-LIGAND FREE ENERGY PREDICTED BY IDOCK:   -4.85 KCAL/MOL
REMARK 924 INTRA-LIGAND FREE ENERGY PREDICTED BY IDOCK:   -0.20 KCAL/MOL
REMARK 927      BINDING AFFINITY PREDICTED BY RF-SCORE:    0.00 PKD
ROOT
HETATM    1  N   UNL     1     -10.828  15.606  64.655  1.00  0.00    -0.725 NA 
HETATM    2  CA  UNL     1     -10.998  14.276  65.324  1.00  0.00    -0.343 C  
HETATM    3  H2  UNL     1     -10.017  16.095  65.034  1.00  0.00     0.000 HD 
HETATM    4  H1  UNL     1     -10.772  15.557  63.638  1.00  0.00     0.000 HD 
HETATM    5  OXT UNL     1     -12.679  12.502  65.103  1.00  0.00    -0.659 OA 
HETATM    6  C   UNL     1     -12.226  13.570  64.724  1.00  0.00    -0.409 C  
HETATM    7  O   UNL     1     -12.752  14.284  63.696  1.00  0.00    -0.783 OA 
ENDROOT
BRANCH   2   8
HETATM    8  C   UNL     1     -11.081  14.349  66.859  1.00  0.00    -0.325 C  
BRANCH   8   9
HETATM    9  C   UNL     1      -9.786  14.691  67.561  1.00  0.00    -0.210 A  
HETATM   10  C   UNL     1      -9.499  16.019  67.920  1.00  0.00    -0.210 A  
HETATM   11  C   UNL     1      -8.284  16.321  68.525  1.00  0.00    -0.195 A  
HETATM   12  C   UNL     1      -7.354  15.316  68.784  1.00  0.00    -0.131 A  
HETATM   13  O   UNL     1      -7.953  17.600  68.877  1.00  0.00    -0.262 OA 
HETATM   14  H   UNL     1      -7.123  17.805  69.291  1.00  0.00     0.000 HD 
HETATM   15  O   UNL     1      -6.159  15.630  69.363  1.00  0.00    -0.117 OA 
HETATM   16  C   UNL     1      -7.620  13.998  68.450  1.00  0.00    -0.129 A  
HETATM   17  C   UNL     1      -8.834  13.699  67.840  1.00  0.00    -0.188 A  
HETATM   18  H   UNL     1      -5.524  14.945  69.540  1.00  0.00     0.000 HD 
HETATM   19  F   UNL     1      -9.082  12.431  67.478  1.00  0.00    -0.163 F  
ENDBRANCH   8   9
ENDBRANCH   2   8
TORSDOF 2
ENDMDL
MODEL      118
REMARK 921   NORMALIZED FREE ENERGY PREDICTED BY IDOCK:   -4.22 KCAL/MOL
REMARK 922        TOTAL FREE ENERGY PREDICTED BY IDOCK:   -5.03 KCAL/MOL
REMARK 923 INTER-LIGAND FREE ENERGY PREDICTED BY IDOCK:   -4.79 KCAL/MOL
REMARK 924 INTRA-LIGAND FREE ENERGY PREDICTED BY IDOCK:   -0.25 KCAL/MOL
REMARK 927      BINDING AFFINITY PREDICTED BY RF-SCORE:    0.00 PKD
ROOT
HETATM    1  N   UNL     1     -12.255  12.100  63.922  1.00  0.00    -0.475 NA 
HETATM    2  CA  UNL     1     -11.802  12.244  65.342  1.00  0.00    -0.360 C  
HETATM    3  H2  UNL     1     -11.948  11.206  63.538  1.00  0.00     0.000 HD 
HETATM    4  H1  UNL     1     -13.260  12.218  63.790  1.00  0.00     0.000 HD 
HETATM    5  OXT UNL     1     -12.020  14.054  66.986  1.00  0.00    -0.403 OA 
HETATM    6  C   UNL     1     -12.286  13.600  65.884  1.00  0.00    -0.471 C  
HETATM    7  O   UNL     1     -13.070  14.242  64.980  1.00  0.00    -0.682 OA 
ENDROOT
BRANCH   2   8
HETATM    8  C   UNL     1     -10.286  12.065  65.541  1.00  0.00    -0.290 C  
BRANCH   8   9
HETATM    9  C   UNL     1      -9.881  11.374  66.825  1.00  0.00    -0.232 A  
HETATM   10  C   UNL     1     -10.705  10.390  67.394  1.00  0.00    -0.338 A  
HETATM   11  C   UNL     1     -10.337   9.796  68.597  1.00  0.00    -0.201 A  
HETATM   12  C   UNL     1      -9.156  10.166  69.236  1.00  0.00    -0.198 A  
HETATM   13  O   UNL     1     -11.115   8.846  69.198  1.00  0.00    -0.429 OA 
HETATM   14  H   UNL     1     -10.863   8.441  70.020  1.00  0.00     0.000 HD 
HETATM   15  O   UNL     1      -8.816   9.588  70.424  1.00  0.00    -0.229 OA 
HETATM   16  C   UNL     1      -8.322  11.127  68.687  1.00  0.00    -0.154 A  
HETATM   17  C   UNL     1      -8.693  11.722  67.486  1.00  0.00    -0.159 A  
HETATM   18  H   UNL     1      -8.011   9.840  70.860  1.00  0.00     0.000 HD 
HETATM   19  F   UNL     1      -7.910  12.681  66.969  1.00  0.00    -0.165 F  
ENDBRANCH   8   9
ENDBRANCH   2   8
TORSDOF 2
ENDMDL
MODEL      119
REMARK 921   NORMALIZED FREE ENERGY PREDICTED BY IDOCK:   -4.22 KCAL/MOL
REMARK 922        TOTAL FREE ENERGY PREDICTED BY IDOCK:   -5.03 KCAL/MOL
REMARK 923 INTER-LIGAND FREE ENERGY PREDICTED BY IDOCK:   -4.74 KCAL/MOL
REMARK 924 INTRA-LIGAND FREE ENERGY PREDICTED BY IDOCK:   -0.29 KCAL/MOL
REMARK 927      BINDING AFFINITY PREDICTED BY RF-SCORE:    0.00 PKD
ROOT
HETATM    1  N   UNL     1      -8.882  12.286  68.775  1.00  0.00    -0.380 NA 
HETATM    2  CA  UNL     1      -9.839  13.073  67.933  1.00  0.00    -0.224 C  
HETATM    3  H2  UNL     1      -8.078  12.859  69.032  1.00  0.00     0.000 HD 
HETATM    4  H1  UNL     1      -9.302  11.868  69.605  1.00  0.00     0.000 HD 
HETATM    5  OXT UNL     1     -11.955  12.496  66.832  1.00  0.00    -0.507 OA 
HETATM    6  C   UNL     1     -11.036  12.178  67.570  1.00  0.00    -0.257 C  
HETATM    7  O   UNL     1     -10.955  10.971  68.187  1.00  0.00    -0.208 OA 
ENDROOT
BRANCH   2   8
HETATM    8  C   UNL     1      -9.205  13.704  66.680  1.00  0.00    -0.225 C  
BRANCH   8   9
HETATM    9  C   UNL     1      -9.599  15.140  66.411  1.00  0.00    -0.309 A  
HETATM   10  C   UNL     1     -10.472  15.453  65.356  1.00  0.00    -0.426 A  
HETATM   11  C   UNL     1     -10.789  16.782  65.097  1.00  0.00    -0.138 A  
HETATM   12  C   UNL     1     -10.253  17.802  65.879  1.00  0.00    -0.225 A  
HETATM   13  O   UNL     1     -11.619  17.137  64.071  1.00  0.00    -0.698 OA 
HETATM   14  H   UNL     1     -11.836  18.045  63.894  1.00  0.00     0.000 HD 
HETATM   15  O   UNL     1     -10.559  19.103  65.602  1.00  0.00    -0.523 OA 
HETATM   16  C   UNL     1      -9.399  17.516  66.932  1.00  0.00    -0.275 A  
HETATM   17  C   UNL     1      -9.080  16.187  67.188  1.00  0.00    -0.203 A  
HETATM   18  H   UNL     1     -10.194  19.799  66.136  1.00  0.00     0.000 HD 
HETATM   19  F   UNL     1      -8.223  15.905  68.181  1.00  0.00    -0.143 F  
ENDBRANCH   8   9
ENDBRANCH   2   8
TORSDOF 2
ENDMDL
MODEL      120
REMARK 921   NORMALIZED FREE ENERGY PREDICTED BY IDOCK:   -4.21 KCAL/MOL
REMARK 922        TOTAL FREE ENERGY PREDICTED BY IDOCK:   -5.01 KCAL/MOL
REMARK 923 INTER-LIGAND FREE ENERGY PREDICTED BY IDOCK:   -5.46 KCAL/MOL
REMARK 924 INTRA-LIGAND FREE ENERGY PREDICTED BY IDOCK:    0.45 KCAL/MOL
REMARK 927      BINDING AFFINITY PREDICTED BY RF-SCORE:    0.00 PKD
ROOT
HETATM    1  N   UNL     1      -9.312  14.312  69.437  1.00  0.00    -0.330 NA 
HETATM    2  CA  UNL     1      -8.725  14.062  68.082  1.00  0.00    -0.180 C  
HETATM    3  H2  UNL     1     -10.310  14.100  69.438  1.00  0.00     0.000 HD 
HETATM    4  H1  UNL     1      -8.842  13.817  70.194  1.00  0.00     0.000 HD 
HETATM    5  OXT UNL     1      -6.469  14.361  67.162  1.00  0.00    -0.208 OA 
HETATM    6  C   UNL     1      -7.222  14.389  68.123  1.00  0.00    -0.128 C  
HETATM    7  O   UNL     1      -6.820  14.709  69.380  1.00  0.00    -0.138 OA 
ENDROOT
BRANCH   2   8
HETATM    8  C   UNL     1      -9.435  14.809  66.939  1.00  0.00    -0.253 C  
BRANCH   8   9
HETATM    9  C   UNL     1     -10.066  13.926  65.885  1.00  0.00    -0.331 A  
HETATM   10  C   UNL     1     -10.962  14.465  64.948  1.00  0.00    -0.416 A  
HETATM   11  C   UNL     1     -11.565  13.630  64.013  1.00  0.00    -0.317 A  
HETATM   12  C   UNL     1     -11.281  12.266  63.996  1.00  0.00    -0.392 A  
HETATM   13  O   UNL     1     -12.457  14.105  63.093  1.00  0.00    -1.126 OA 
HETATM   14  H   UNL     1     -12.868  13.534  62.454  1.00  0.00     0.000 HD 
HETATM   15  O   UNL     1     -11.893  11.455  63.084  1.00  0.00    -0.887 OA 
HETATM   16  C   UNL     1     -10.391  11.714  64.903  1.00  0.00    -0.331 A  
HETATM   17  C   UNL     1      -9.792  12.550  65.840  1.00  0.00    -0.247 A  
HETATM   18  H   UNL     1     -11.699  10.525  63.072  1.00  0.00     0.000 HD 
HETATM   19  F   UNL     1      -8.959  12.016  66.746  1.00  0.00    -0.175 F  
ENDBRANCH   8   9
ENDBRANCH   2   8
TORSDOF 2
ENDMDL
MODEL      121
REMARK 921   NORMALIZED FREE ENERGY PREDICTED BY IDOCK:   -4.20 KCAL/MOL
REMARK 922        TOTAL FREE ENERGY PREDICTED BY IDOCK:   -5.00 KCAL/MOL
REMARK 923 INTER-LIGAND FREE ENERGY PREDICTED BY IDOCK:   -4.91 KCAL/MOL
REMARK 924 INTRA-LIGAND FREE ENERGY PREDICTED BY IDOCK:   -0.10 KCAL/MOL
REMARK 927      BINDING AFFINITY PREDICTED BY RF-SCORE:    0.00 PKD
ROOT
HETATM    1  N   UNL     1     -11.895  12.478  70.299  1.00  0.00    -0.538 NA 
HETATM    2  CA  UNL     1     -12.221  11.041  70.032  1.00  0.00    -0.343 C  
HETATM    3  H2  UNL     1     -11.346  12.868  69.533  1.00  0.00     0.000 HD 
HETATM    4  H1  UNL     1     -12.709  13.063  70.488  1.00  0.00     0.000 HD 
HETATM    5  OXT UNL     1     -13.414   9.333  71.331  1.00  0.00    -0.362 OA 
HETATM    6  C   UNL     1     -13.051  10.492  71.205  1.00  0.00    -0.383 C  
HETATM    7  O   UNL     1     -13.348  11.470  72.100  1.00  0.00    -0.477 OA 
ENDROOT
BRANCH   2   8
HETATM    8  C   UNL     1     -10.993  10.157  69.747  1.00  0.00    -0.325 C  
BRANCH   8   9
HETATM    9  C   UNL     1     -10.605  10.043  68.289  1.00  0.00    -0.264 A  
HETATM   10  C   UNL     1     -10.839  11.109  67.405  1.00  0.00    -0.317 A  
HETATM   11  C   UNL     1     -10.514  10.970  66.059  1.00  0.00    -0.245 A  
HETATM   12  C   UNL     1      -9.954   9.786  65.585  1.00  0.00    -0.282 A  
HETATM   13  O   UNL     1     -10.739  11.973  65.157  1.00  0.00    -0.270 OA 
HETATM   14  H   UNL     1     -10.518  11.877  64.238  1.00  0.00     0.000 HD 
HETATM   15  O   UNL     1      -9.657   9.657  64.260  1.00  0.00    -0.417 OA 
HETATM   16  C   UNL     1      -9.704   8.726  66.442  1.00  0.00    -0.335 A  
HETATM   17  C   UNL     1     -10.033   8.865  67.786  1.00  0.00    -0.192 A  
HETATM   18  H   UNL     1      -9.275   8.850  63.936  1.00  0.00     0.000 HD 
HETATM   19  F   UNL     1      -9.830   7.829  68.614  1.00  0.00    -0.156 F  
ENDBRANCH   8   9
ENDBRANCH   2   8
TORSDOF 2
ENDMDL
MODEL      122
REMARK 921   NORMALIZED FREE ENERGY PREDICTED BY IDOCK:   -4.19 KCAL/MOL
REMARK 922        TOTAL FREE ENERGY PREDICTED BY IDOCK:   -5.00 KCAL/MOL
REMARK 923 INTER-LIGAND FREE ENERGY PREDICTED BY IDOCK:   -4.74 KCAL/MOL
REMARK 924 INTRA-LIGAND FREE ENERGY PREDICTED BY IDOCK:   -0.26 KCAL/MOL
REMARK 927      BINDING AFFINITY PREDICTED BY RF-SCORE:    0.00 PKD
ROOT
HETATM    1  N   UNL     1     -10.487   5.772  67.981  1.00  0.00    -0.219 NA 
HETATM    2  CA  UNL     1     -10.256   6.642  69.178  1.00  0.00    -0.179 C  
HETATM    3  H2  UNL     1     -11.413   5.941  67.590  1.00  0.00     0.000 HD 
HETATM    4  H1  UNL     1      -9.773   5.859  67.257  1.00  0.00     0.000 HD 
HETATM    5  OXT UNL     1      -8.383   6.851  70.751  1.00  0.00    -0.124 OA 
HETATM    6  C   UNL     1      -8.850   6.360  69.735  1.00  0.00    -0.142 C  
HETATM    7  O   UNL     1      -8.170   5.491  68.943  1.00  0.00    -0.097 OA 
ENDROOT
BRANCH   2   8
HETATM    8  C   UNL     1     -11.333   6.511  70.270  1.00  0.00    -0.456 C  
BRANCH   8   9
HETATM    9  C   UNL     1     -11.896   7.819  70.781  1.00  0.00    -0.205 A  
HETATM   10  C   UNL     1     -11.335   9.042  70.378  1.00  0.00    -0.242 A  
HETATM   11  C   UNL     1     -11.838  10.232  70.892  1.00  0.00    -0.377 A  
HETATM   12  C   UNL     1     -12.898  10.220  71.796  1.00  0.00    -0.460 A  
HETATM   13  O   UNL     1     -11.314  11.445  70.543  1.00  0.00    -0.447 OA 
HETATM   14  H   UNL     1     -11.658  12.258  70.894  1.00  0.00     0.000 HD 
HETATM   15  O   UNL     1     -13.370  11.394  72.305  1.00  0.00    -0.629 OA 
HETATM   16  C   UNL     1     -13.475   9.026  72.199  1.00  0.00    -0.514 A  
HETATM   17  C   UNL     1     -12.967   7.836  71.687  1.00  0.00    -0.345 A  
HETATM   18  H   UNL     1     -14.093  11.386  72.922  1.00  0.00     0.000 HD 
HETATM   19  F   UNL     1     -13.495   6.675  72.103  1.00  0.00    -0.300 F  
ENDBRANCH   8   9
ENDBRANCH   2   8
TORSDOF 2
ENDMDL
MODEL      123
REMARK 921   NORMALIZED FREE ENERGY PREDICTED BY IDOCK:   -4.19 KCAL/MOL
REMARK 922        TOTAL FREE ENERGY PREDICTED BY IDOCK:   -5.00 KCAL/MOL
REMARK 923 INTER-LIGAND FREE ENERGY PREDICTED BY IDOCK:   -4.77 KCAL/MOL
REMARK 924 INTRA-LIGAND FREE ENERGY PREDICTED BY IDOCK:   -0.23 KCAL/MOL
REMARK 927      BINDING AFFINITY PREDICTED BY RF-SCORE:    0.00 PKD
ROOT
HETATM    1  N   UNL     1      -9.634  12.263  65.036  1.00  0.00    -0.457 NA 
HETATM    2  CA  UNL     1     -10.889  12.530  65.809  1.00  0.00    -0.276 C  
HETATM    3  H2  UNL     1      -8.900  11.919  65.655  1.00  0.00     0.000 HD 
HETATM    4  H1  UNL     1      -9.757  11.633  64.245  1.00  0.00     0.000 HD 
HETATM    5  OXT UNL     1     -13.085  13.420  65.167  1.00  0.00    -0.724 OA 
HETATM    6  C   UNL     1     -11.970  13.042  64.842  1.00  0.00    -0.396 C  
HETATM    7  O   UNL     1     -11.535  13.015  63.556  1.00  0.00    -0.446 OA 
ENDROOT
BRANCH   2   8
HETATM    8  C   UNL     1     -10.704  13.481  67.005  1.00  0.00    -0.278 C  
BRANCH   8   9
HETATM    9  C   UNL     1      -9.583  14.487  66.861  1.00  0.00    -0.258 A  
HETATM   10  C   UNL     1      -8.304  14.205  67.370  1.00  0.00    -0.210 A  
HETATM   11  C   UNL     1      -7.297  15.159  67.267  1.00  0.00    -0.181 A  
HETATM   12  C   UNL     1      -7.546  16.387  66.658  1.00  0.00    -0.253 A  
HETATM   13  O   UNL     1      -6.043  14.938  67.763  1.00  0.00    -0.149 OA 
HETATM   14  H   UNL     1      -5.355  15.590  67.692  1.00  0.00     0.000 HD 
HETATM   15  O   UNL     1      -6.554  17.320  66.579  1.00  0.00    -0.205 OA 
HETATM   16  C   UNL     1      -8.796  16.682  66.138  1.00  0.00    -0.323 A  
HETATM   17  C   UNL     1      -9.803  15.728  66.246  1.00  0.00    -0.297 A  
HETATM   18  H   UNL     1      -6.723  18.157  66.163  1.00  0.00     0.000 HD 
HETATM   19  F   UNL     1     -11.026  16.022  65.780  1.00  0.00    -0.314 F  
ENDBRANCH   8   9
ENDBRANCH   2   8
TORSDOF 2
ENDMDL
MODEL      124
REMARK 921   NORMALIZED FREE ENERGY PREDICTED BY IDOCK:   -4.18 KCAL/MOL
REMARK 922        TOTAL FREE ENERGY PREDICTED BY IDOCK:   -4.98 KCAL/MOL
REMARK 923 INTER-LIGAND FREE ENERGY PREDICTED BY IDOCK:   -4.84 KCAL/MOL
REMARK 924 INTRA-LIGAND FREE ENERGY PREDICTED BY IDOCK:   -0.13 KCAL/MOL
REMARK 927      BINDING AFFINITY PREDICTED BY RF-SCORE:    0.00 PKD
ROOT
HETATM    1  N   UNL     1     -10.488   7.886  73.248  1.00  0.00    -0.293 NA 
HETATM    2  CA  UNL     1     -11.221   6.774  72.563  1.00  0.00    -0.268 C  
HETATM    3  H2  UNL     1     -11.146   8.530  73.687  1.00  0.00     0.000 HD 
HETATM    4  H1  UNL     1      -9.791   7.573  73.924  1.00  0.00     0.000 HD 
HETATM    5  OXT UNL     1     -10.469   4.859  71.223  1.00  0.00    -0.185 OA 
HETATM    6  C   UNL     1     -10.196   5.824  71.918  1.00  0.00    -0.200 C  
HETATM    7  O   UNL     1      -8.924   6.187  72.229  1.00  0.00    -0.138 OA 
ENDROOT
BRANCH   2   8
HETATM    8  C   UNL     1     -12.273   7.245  71.543  1.00  0.00    -0.387 C  
BRANCH   8   9
HETATM    9  C   UNL     1     -12.250   8.725  71.230  1.00  0.00    -0.332 A  
HETATM   10  C   UNL     1     -11.397   9.229  70.234  1.00  0.00    -0.238 A  
HETATM   11  C   UNL     1     -11.358  10.597  69.990  1.00  0.00    -0.324 A  
HETATM   12  C   UNL     1     -12.162  11.470  70.720  1.00  0.00    -0.363 A  
HETATM   13  O   UNL     1     -10.531  11.136  69.043  1.00  0.00    -0.207 OA 
HETATM   14  H   UNL     1     -10.505  12.071  68.876  1.00  0.00     0.000 HD 
HETATM   15  O   UNL     1     -12.101  12.812  70.481  1.00  0.00    -0.442 OA 
HETATM   16  C   UNL     1     -13.020  10.994  71.698  1.00  0.00    -0.561 A  
HETATM   17  C   UNL     1     -13.055   9.625  71.945  1.00  0.00    -0.436 A  
HETATM   18  H   UNL     1     -12.650  13.407  70.978  1.00  0.00     0.000 HD 
HETATM   19  F   UNL     1     -13.854   9.162  72.918  1.00  0.00    -0.469 F  
ENDBRANCH   8   9
ENDBRANCH   2   8
TORSDOF 2
ENDMDL
MODEL      125
REMARK 921   NORMALIZED FREE ENERGY PREDICTED BY IDOCK:   -4.10 KCAL/MOL
REMARK 922        TOTAL FREE ENERGY PREDICTED BY IDOCK:   -4.89 KCAL/MOL
REMARK 923 INTER-LIGAND FREE ENERGY PREDICTED BY IDOCK:   -4.68 KCAL/MOL
REMARK 924 INTRA-LIGAND FREE ENERGY PREDICTED BY IDOCK:   -0.21 KCAL/MOL
REMARK 927      BINDING AFFINITY PREDICTED BY RF-SCORE:    0.00 PKD
ROOT
HETATM    1  N   UNL     1      -9.924   6.350  73.530  1.00  0.00    -0.186 NA 
HETATM    2  CA  UNL     1      -9.817   5.715  72.178  1.00  0.00    -0.158 C  
HETATM    3  H2  UNL     1     -10.867   6.240  73.902  1.00  0.00     0.000 HD 
HETATM    4  H1  UNL     1      -9.234   6.017  74.203  1.00  0.00     0.000 HD 
HETATM    5  OXT UNL     1      -7.988   5.561  70.548  1.00  0.00    -0.098 OA 
HETATM    6  C   UNL     1      -8.383   5.899  71.653  1.00  0.00    -0.127 C  
HETATM    7  O   UNL     1      -7.587   6.484  72.586  1.00  0.00    -0.099 OA 
ENDROOT
BRANCH   2   8
HETATM    8  C   UNL     1     -10.859   6.217  71.161  1.00  0.00    -0.328 C  
BRANCH   8   9
HETATM    9  C   UNL     1     -11.459   7.571  71.468  1.00  0.00    -0.293 A  
HETATM   10  C   UNL     1     -12.650   7.672  72.206  1.00  0.00    -0.146 A  
HETATM   11  C   UNL     1     -13.210   8.923  72.441  1.00  0.00    -0.430 A  
HETATM   12  C   UNL     1     -12.595  10.075  71.956  1.00  0.00    -0.290 A  
HETATM   13  O   UNL     1     -14.376   9.070  73.138  1.00  0.00    -1.136 OA 
HETATM   14  H   UNL     1     -14.758   9.925  73.299  1.00  0.00     0.000 HD 
HETATM   15  O   UNL     1     -13.165  11.295  72.180  1.00  0.00    -0.579 OA 
HETATM   16  C   UNL     1     -11.414  10.001  71.236  1.00  0.00    -0.390 A  
HETATM   17  C   UNL     1     -10.857   8.748  70.998  1.00  0.00    -0.260 A  
HETATM   18  H   UNL     1     -12.745  12.081  71.849  1.00  0.00     0.000 HD 
HETATM   19  F   UNL     1      -9.735   8.666  70.268  1.00  0.00    -0.163 F  
ENDBRANCH   8   9
ENDBRANCH   2   8
TORSDOF 2
ENDMDL
MODEL      126
REMARK 921   NORMALIZED FREE ENERGY PREDICTED BY IDOCK:   -4.10 KCAL/MOL
REMARK 922        TOTAL FREE ENERGY PREDICTED BY IDOCK:   -4.89 KCAL/MOL
REMARK 923 INTER-LIGAND FREE ENERGY PREDICTED BY IDOCK:   -4.72 KCAL/MOL
REMARK 924 INTRA-LIGAND FREE ENERGY PREDICTED BY IDOCK:   -0.18 KCAL/MOL
REMARK 927      BINDING AFFINITY PREDICTED BY RF-SCORE:    0.00 PKD
ROOT
HETATM    1  N   UNL     1     -10.319  18.351  65.872  1.00  0.00    -0.601 NA 
HETATM    2  CA  UNL     1      -9.993  19.417  66.872  1.00  0.00    -0.369 C  
HETATM    3  H2  UNL     1     -11.254  17.979  66.039  1.00  0.00     0.000 HD 
HETATM    4  H1  UNL     1     -10.221  18.645  64.901  1.00  0.00     0.000 HD 
HETATM    5  OXT UNL     1      -7.988  20.777  67.265  1.00  0.00    -0.329 OA 
HETATM    6  C   UNL     1      -8.580  19.953  66.586  1.00  0.00    -0.337 C  
HETATM    7  O   UNL     1      -8.061  19.399  65.460  1.00  0.00    -0.344 OA 
ENDROOT
BRANCH   2   8
HETATM    8  C   UNL     1     -10.143  18.974  68.339  1.00  0.00    -0.471 C  
BRANCH   8   9
HETATM    9  C   UNL     1      -9.539  17.627  68.670  1.00  0.00    -0.307 A  
HETATM   10  C   UNL     1      -8.158  17.501  68.892  1.00  0.00    -0.168 A  
HETATM   11  C   UNL     1      -7.615  16.247  69.153  1.00  0.00    -0.227 A  
HETATM   12  C   UNL     1      -8.430  15.119  69.202  1.00  0.00    -0.220 A  
HETATM   13  O   UNL     1      -6.274  16.072  69.357  1.00  0.00    -0.138 OA 
HETATM   14  H   UNL     1      -5.904  15.215  69.536  1.00  0.00     0.000 HD 
HETATM   15  O   UNL     1      -7.882  13.893  69.443  1.00  0.00    -0.335 OA 
HETATM   16  C   UNL     1      -9.797  15.221  68.999  1.00  0.00    -0.230 A  
HETATM   17  C   UNL     1     -10.338  16.475  68.734  1.00  0.00    -0.286 A  
HETATM   18  H   UNL     1      -8.438  13.124  69.477  1.00  0.00     0.000 HD 
HETATM   19  F   UNL     1     -11.655  16.576  68.497  1.00  0.00    -0.353 F  
ENDBRANCH   8   9
ENDBRANCH   2   8
TORSDOF 2
ENDMDL
MODEL      127
REMARK 921   NORMALIZED FREE ENERGY PREDICTED BY IDOCK:   -4.07 KCAL/MOL
REMARK 922        TOTAL FREE ENERGY PREDICTED BY IDOCK:   -4.86 KCAL/MOL
REMARK 923 INTER-LIGAND FREE ENERGY PREDICTED BY IDOCK:   -4.78 KCAL/MOL
REMARK 924 INTRA-LIGAND FREE ENERGY PREDICTED BY IDOCK:   -0.08 KCAL/MOL
REMARK 927      BINDING AFFINITY PREDICTED BY RF-SCORE:    0.00 PKD
ROOT
HETATM    1  N   UNL     1      -8.786   8.531  68.878  1.00  0.00    -0.131 NA 
HETATM    2  CA  UNL     1      -9.342   7.202  68.467  1.00  0.00    -0.136 C  
HETATM    3  H2  UNL     1      -8.016   8.408  69.536  1.00  0.00     0.000 HD 
HETATM    4  H1  UNL     1      -8.497   9.122  68.098  1.00  0.00     0.000 HD 
HETATM    5  OXT UNL     1     -11.206   6.554  67.007  1.00  0.00    -0.397 OA 
HETATM    6  C   UNL     1     -10.495   7.430  67.474  1.00  0.00    -0.268 C  
HETATM    7  O   UNL     1     -10.625   8.746  67.162  1.00  0.00    -0.291 OA 
ENDROOT
BRANCH   2   8
HETATM    8  C   UNL     1      -9.778   6.310  69.643  1.00  0.00    -0.175 C  
BRANCH   8   9
HETATM    9  C   UNL     1     -10.772   6.938  70.596  1.00  0.00    -0.267 A  
HETATM   10  C   UNL     1     -12.152   6.789  70.384  1.00  0.00    -0.270 A  
HETATM   11  C   UNL     1     -13.051   7.409  71.245  1.00  0.00    -0.296 A  
HETATM   12  C   UNL     1     -12.592   8.170  72.318  1.00  0.00    -0.273 A  
HETATM   13  O   UNL     1     -14.403   7.308  71.069  1.00  0.00    -0.557 OA 
HETATM   14  H   UNL     1     -15.017   7.731  71.658  1.00  0.00     0.000 HD 
HETATM   15  O   UNL     1     -13.485   8.787  73.145  1.00  0.00    -0.953 OA 
HETATM   16  C   UNL     1     -11.235   8.320  72.553  1.00  0.00    -0.446 A  
HETATM   17  C   UNL     1     -10.337   7.703  71.689  1.00  0.00    -0.189 A  
HETATM   18  H   UNL     1     -13.173   9.305  73.877  1.00  0.00     0.000 HD 
HETATM   19  F   UNL     1      -9.022   7.877  71.887  1.00  0.00    -0.131 F  
ENDBRANCH   8   9
ENDBRANCH   2   8
TORSDOF 2
ENDMDL
MODEL      128
REMARK 921   NORMALIZED FREE ENERGY PREDICTED BY IDOCK:   -4.06 KCAL/MOL
REMARK 922        TOTAL FREE ENERGY PREDICTED BY IDOCK:   -4.85 KCAL/MOL
REMARK 923 INTER-LIGAND FREE ENERGY PREDICTED BY IDOCK:   -4.77 KCAL/MOL
REMARK 924 INTRA-LIGAND FREE ENERGY PREDICTED BY IDOCK:   -0.08 KCAL/MOL
REMARK 927      BINDING AFFINITY PREDICTED BY RF-SCORE:    0.00 PKD
ROOT
HETATM    1  N   UNL     1     -10.355   8.818  68.658  1.00  0.00    -0.207 NA 
HETATM    2  CA  UNL     1     -10.764  10.149  68.105  1.00  0.00    -0.244 C  
HETATM    3  H2  UNL     1     -10.729   8.691  69.598  1.00  0.00     0.000 HD 
HETATM    4  H1  UNL     1     -10.603   8.026  68.065  1.00  0.00     0.000 HD 
HETATM    5  OXT UNL     1     -10.273  11.300  65.993  1.00  0.00    -0.231 OA 
HETATM    6  C   UNL     1     -10.184  10.300  66.688  1.00  0.00    -0.233 C  
HETATM    7  O   UNL     1      -9.558   9.163  66.287  1.00  0.00    -0.211 OA 
ENDROOT
BRANCH   2   8
HETATM    8  C   UNL     1     -10.390  11.345  68.999  1.00  0.00    -0.166 C  
BRANCH   8   9
HETATM    9  C   UNL     1     -11.423  11.723  70.037  1.00  0.00    -0.234 A  
HETATM   10  C   UNL     1     -11.988  10.742  70.869  1.00  0.00    -0.438 A  
HETATM   11  C   UNL     1     -12.968  11.102  71.789  1.00  0.00    -0.421 A  
HETATM   12  C   UNL     1     -13.387  12.427  71.894  1.00  0.00    -0.349 A  
HETATM   13  O   UNL     1     -13.560  10.181  72.608  1.00  0.00    -0.587 OA 
HETATM   14  H   UNL     1     -14.229  10.428  73.235  1.00  0.00     0.000 HD 
HETATM   15  O   UNL     1     -14.361  12.762  72.788  1.00  0.00    -0.568 OA 
HETATM   16  C   UNL     1     -12.835  13.412  71.092  1.00  0.00    -0.372 A  
HETATM   17  C   UNL     1     -11.858  13.050  70.170  1.00  0.00    -0.252 A  
HETATM   18  H   UNL     1     -14.647  13.666  72.860  1.00  0.00     0.000 HD 
HETATM   19  F   UNL     1     -11.348  13.993  69.363  1.00  0.00    -0.260 F  
ENDBRANCH   8   9
ENDBRANCH   2   8
TORSDOF 2
ENDMDL
MODEL      129
REMARK 921   NORMALIZED FREE ENERGY PREDICTED BY IDOCK:   -4.03 KCAL/MOL
REMARK 922        TOTAL FREE ENERGY PREDICTED BY IDOCK:   -4.82 KCAL/MOL
REMARK 923 INTER-LIGAND FREE ENERGY PREDICTED BY IDOCK:   -4.67 KCAL/MOL
REMARK 924 INTRA-LIGAND FREE ENERGY PREDICTED BY IDOCK:   -0.14 KCAL/MOL
REMARK 927      BINDING AFFINITY PREDICTED BY RF-SCORE:    0.00 PKD
ROOT
HETATM    1  N   UNL     1     -12.073  10.632  69.303  1.00  0.00    -0.592 NA 
HETATM    2  CA  UNL     1     -11.891  11.804  70.219  1.00  0.00    -0.295 C  
HETATM    3  H2  UNL     1     -11.514  10.750  68.458  1.00  0.00     0.000 HD 
HETATM    4  H1  UNL     1     -11.878   9.730  69.736  1.00  0.00     0.000 HD 
HETATM    5  OXT UNL     1     -12.877  12.393  72.388  1.00  0.00    -0.110 OA 
HETATM    6  C   UNL     1     -12.745  11.588  71.480  1.00  0.00    -0.334 C  
HETATM    7  O   UNL     1     -13.339  10.367  71.470  1.00  0.00    -0.361 OA 
ENDROOT
BRANCH   2   8
HETATM    8  C   UNL     1     -12.184  13.167  69.565  1.00  0.00    -0.214 C  
BRANCH   8   9
HETATM    9  C   UNL     1     -11.721  13.308  68.132  1.00  0.00    -0.397 A  
HETATM   10  C   UNL     1     -12.615  13.095  67.070  1.00  0.00     0.399 A  
HETATM   11  C   UNL     1     -12.160  13.187  65.759  1.00  0.00    -0.447 A  
HETATM   12  C   UNL     1     -10.828  13.495  65.492  1.00  0.00    -0.288 A  
HETATM   13  O   UNL     1     -12.988  12.971  64.693  1.00  0.00    -0.720 OA 
HETATM   14  H   UNL     1     -12.677  13.034  63.797  1.00  0.00     0.000 HD 
HETATM   15  O   UNL     1     -10.392  13.565  64.201  1.00  0.00    -0.604 OA 
HETATM   16  C   UNL     1      -9.931  13.721  66.524  1.00  0.00    -0.290 A  
HETATM   17  C   UNL     1     -10.386  13.624  67.835  1.00  0.00    -0.249 A  
HETATM   18  H   UNL     1      -9.483  13.776  64.019  1.00  0.00     0.000 HD 
HETATM   19  F   UNL     1      -9.514  13.803  68.838  1.00  0.00    -0.171 F  
ENDBRANCH   8   9
ENDBRANCH   2   8
TORSDOF 2
ENDMDL
MODEL      130
REMARK 921   NORMALIZED FREE ENERGY PREDICTED BY IDOCK:   -4.03 KCAL/MOL
REMARK 922        TOTAL FREE ENERGY PREDICTED BY IDOCK:   -4.82 KCAL/MOL
REMARK 923 INTER-LIGAND FREE ENERGY PREDICTED BY IDOCK:   -4.62 KCAL/MOL
REMARK 924 INTRA-LIGAND FREE ENERGY PREDICTED BY IDOCK:   -0.20 KCAL/MOL
REMARK 927      BINDING AFFINITY PREDICTED BY RF-SCORE:    0.00 PKD
ROOT
HETATM    1  N   UNL     1     -10.242  16.505  65.487  1.00  0.00    -0.578 NA 
HETATM    2  CA  UNL     1     -10.302  16.632  66.979  1.00  0.00    -0.301 C  
HETATM    3  H2  UNL     1     -11.183  16.471  65.095  1.00  0.00     0.000 HD 
HETATM    4  H1  UNL     1      -9.691  17.230  65.028  1.00  0.00     0.000 HD 
HETATM    5  OXT UNL     1      -8.568  16.712  68.715  1.00  0.00    -0.245 OA 
HETATM    6  C   UNL     1      -8.867  16.685  67.532  1.00  0.00    -0.196 C  
HETATM    7  O   UNL     1      -7.952  16.709  66.528  1.00  0.00    -0.247 OA 
ENDROOT
BRANCH   2   8
HETATM    8  C   UNL     1     -11.134  15.538  67.672  1.00  0.00    -0.311 C  
BRANCH   8   9
HETATM    9  C   UNL     1     -10.935  14.138  67.134  1.00  0.00    -0.304 A  
HETATM   10  C   UNL     1      -9.812  13.383  67.512  1.00  0.00    -0.227 A  
HETATM   11  C   UNL     1      -9.624  12.114  66.974  1.00  0.00    -0.205 A  
HETATM   12  C   UNL     1     -10.543  11.586  66.070  1.00  0.00    -0.261 A  
HETATM   13  O   UNL     1      -8.538  11.349  67.297  1.00  0.00    -0.139 OA 
HETATM   14  H   UNL     1      -8.411  10.482  66.929  1.00  0.00     0.000 HD 
HETATM   15  O   UNL     1     -10.337  10.347  65.537  1.00  0.00    -0.264 OA 
HETATM   16  C   UNL     1     -11.664  12.308  65.693  1.00  0.00    -0.440 A  
HETATM   17  C   UNL     1     -11.849  13.578  66.228  1.00  0.00    -0.392 A  
HETATM   18  H   UNL     1     -10.964   9.986  64.921  1.00  0.00     0.000 HD 
HETATM   19  F   UNL     1     -12.911  14.298  65.837  1.00  0.00    -0.511 F  
ENDBRANCH   8   9
ENDBRANCH   2   8
TORSDOF 2
ENDMDL
MODEL      131
REMARK 921   NORMALIZED FREE ENERGY PREDICTED BY IDOCK:   -4.03 KCAL/MOL
REMARK 922        TOTAL FREE ENERGY PREDICTED BY IDOCK:   -4.81 KCAL/MOL
REMARK 923 INTER-LIGAND FREE ENERGY PREDICTED BY IDOCK:   -4.61 KCAL/MOL
REMARK 924 INTRA-LIGAND FREE ENERGY PREDICTED BY IDOCK:   -0.20 KCAL/MOL
REMARK 927      BINDING AFFINITY PREDICTED BY RF-SCORE:    0.00 PKD
ROOT
HETATM    1  N   UNL     1     -10.886  11.307  64.648  1.00  0.00    -0.299 NA 
HETATM    2  CA  UNL     1     -11.675  12.121  65.627  1.00  0.00    -0.323 C  
HETATM    3  H2  UNL     1     -10.319  10.613  65.135  1.00  0.00     0.000 HD 
HETATM    4  H1  UNL     1     -11.451  10.861  63.925  1.00  0.00     0.000 HD 
HETATM    5  OXT UNL     1     -13.215  14.014  65.363  1.00  0.00    -0.761 OA 
HETATM    6  C   UNL     1     -12.518  13.150  64.855  1.00  0.00    -0.433 C  
HETATM    7  O   UNL     1     -12.402  12.976  63.512  1.00  0.00    -0.654 OA 
ENDROOT
BRANCH   2   8
HETATM    8  C   UNL     1     -10.823  12.794  66.718  1.00  0.00    -0.289 C  
BRANCH   8   9
HETATM    9  C   UNL     1     -10.259  11.858  67.765  1.00  0.00    -0.211 A  
HETATM   10  C   UNL     1      -8.891  11.535  67.768  1.00  0.00    -0.153 A  
HETATM   11  C   UNL     1      -8.399  10.640  68.712  1.00  0.00    -0.144 A  
HETATM   12  C   UNL     1      -9.249  10.067  69.655  1.00  0.00    -0.215 A  
HETATM   13  O   UNL     1      -7.080  10.282  68.744  1.00  0.00    -0.067 OA 
HETATM   14  H   UNL     1      -6.744   9.670  69.389  1.00  0.00     0.000 HD 
HETATM   15  O   UNL     1      -8.755   9.176  70.563  1.00  0.00    -0.181 OA 
HETATM   16  C   UNL     1     -10.599  10.379  69.677  1.00  0.00    -0.289 A  
HETATM   17  C   UNL     1     -11.091  11.272  68.731  1.00  0.00    -0.233 A  
HETATM   18  H   UNL     1      -9.335   8.786  71.207  1.00  0.00     0.000 HD 
HETATM   19  F   UNL     1     -12.403  11.549  68.722  1.00  0.00    -0.355 F  
ENDBRANCH   8   9
ENDBRANCH   2   8
TORSDOF 2
ENDMDL
MODEL      132
REMARK 921   NORMALIZED FREE ENERGY PREDICTED BY IDOCK:   -4.01 KCAL/MOL
REMARK 922        TOTAL FREE ENERGY PREDICTED BY IDOCK:   -4.79 KCAL/MOL
REMARK 923 INTER-LIGAND FREE ENERGY PREDICTED BY IDOCK:   -4.55 KCAL/MOL
REMARK 924 INTRA-LIGAND FREE ENERGY PREDICTED BY IDOCK:   -0.24 KCAL/MOL
REMARK 927      BINDING AFFINITY PREDICTED BY RF-SCORE:    0.00 PKD
ROOT
HETATM    1  N   UNL     1     -13.534   9.057  72.966  1.00  0.00    -0.936 NA 
HETATM    2  CA  UNL     1     -12.441   8.506  72.102  1.00  0.00    -0.379 C  
HETATM    3  H2  UNL     1     -13.183   9.826  73.537  1.00  0.00     0.000 HD 
HETATM    4  H1  UNL     1     -14.366   9.345  72.452  1.00  0.00     0.000 HD 
HETATM    5  OXT UNL     1     -12.358   6.646  70.502  1.00  0.00    -0.314 OA 
HETATM    6  C   UNL     1     -13.008   7.354  71.255  1.00  0.00    -0.310 C  
HETATM    7  O   UNL     1     -14.347   7.219  71.439  1.00  0.00    -0.431 OA 
ENDROOT
BRANCH   2   8
HETATM    8  C   UNL     1     -11.183   8.072  72.876  1.00  0.00    -0.389 C  
BRANCH   8   9
HETATM    9  C   UNL     1      -9.867   8.453  72.234  1.00  0.00    -0.383 A  
HETATM   10  C   UNL     1      -9.845   9.158  71.020  1.00  0.00    -0.366 A  
HETATM   11  C   UNL     1      -8.625   9.461  70.423  1.00  0.00    -0.230 A  
HETATM   12  C   UNL     1      -7.429   9.077  71.024  1.00  0.00    -0.114 A  
HETATM   13  O   UNL     1      -8.553  10.131  69.233  1.00  0.00    -0.151 OA 
HETATM   14  H   UNL     1      -7.720  10.338  68.826  1.00  0.00     0.000 HD 
HETATM   15  O   UNL     1      -6.240   9.366  70.418  1.00  0.00    -0.048 OA 
HETATM   16  C   UNL     1      -7.427   8.391  72.228  1.00  0.00    -0.140 A  
HETATM   17  C   UNL     1      -8.647   8.084  72.821  1.00  0.00    -0.192 A  
HETATM   18  H   UNL     1      -5.424   9.104  70.828  1.00  0.00     0.000 HD 
HETATM   19  F   UNL     1      -8.653   7.386  73.966  1.00  0.00    -0.169 F  
ENDBRANCH   8   9
ENDBRANCH   2   8
TORSDOF 2
ENDMDL
MODEL      133
REMARK 921   NORMALIZED FREE ENERGY PREDICTED BY IDOCK:   -4.01 KCAL/MOL
REMARK 922        TOTAL FREE ENERGY PREDICTED BY IDOCK:   -4.79 KCAL/MOL
REMARK 923 INTER-LIGAND FREE ENERGY PREDICTED BY IDOCK:   -4.72 KCAL/MOL
REMARK 924 INTRA-LIGAND FREE ENERGY PREDICTED BY IDOCK:   -0.07 KCAL/MOL
REMARK 927      BINDING AFFINITY PREDICTED BY RF-SCORE:    0.00 PKD
ROOT
HETATM    1  N   UNL     1      -8.678  15.551  69.443  1.00  0.00    -0.258 NA 
HETATM    2  CA  UNL     1      -9.973  15.951  68.806  1.00  0.00    -0.220 C  
HETATM    3  H2  UNL     1      -8.660  15.834  70.423  1.00  0.00     0.000 HD 
HETATM    4  H1  UNL     1      -8.459  14.559  69.355  1.00  0.00     0.000 HD 
HETATM    5  OXT UNL     1     -10.839  15.745  66.518  1.00  0.00    -0.304 OA 
HETATM    6  C   UNL     1      -9.963  15.505  67.333  1.00  0.00    -0.234 C  
HETATM    7  O   UNL     1      -8.846  14.788  67.043  1.00  0.00    -0.211 OA 
ENDROOT
BRANCH   2   8
HETATM    8  C   UNL     1     -10.305  17.448  68.939  1.00  0.00    -0.340 C  
BRANCH   8   9
HETATM    9  C   UNL     1      -9.377  18.384  68.197  1.00  0.00    -0.331 A  
HETATM   10  C   UNL     1      -8.024  18.481  68.560  1.00  0.00    -0.346 A  
HETATM   11  C   UNL     1      -7.195  19.378  67.894  1.00  0.00    -0.256 A  
HETATM   12  C   UNL     1      -7.696  20.175  66.868  1.00  0.00    -0.304 A  
HETATM   13  O   UNL     1      -5.876  19.520  68.224  1.00  0.00    -0.210 OA 
HETATM   14  H   UNL     1      -5.311  20.133  67.769  1.00  0.00     0.000 HD 
HETATM   15  O   UNL     1      -6.876  21.063  66.235  1.00  0.00    -0.476 OA 
HETATM   16  C   UNL     1      -9.025  20.088  66.484  1.00  0.00    -0.431 A  
HETATM   17  C   UNL     1      -9.853  19.193  67.154  1.00  0.00    -0.338 A  
HETATM   18  H   UNL     1      -7.217  21.607  65.534  1.00  0.00     0.000 HD 
HETATM   19  F   UNL     1     -11.150  19.132  66.815  1.00  0.00    -0.462 F  
ENDBRANCH   8   9
ENDBRANCH   2   8
TORSDOF 2
ENDMDL
MODEL      134
REMARK 921   NORMALIZED FREE ENERGY PREDICTED BY IDOCK:   -3.99 KCAL/MOL
REMARK 922        TOTAL FREE ENERGY PREDICTED BY IDOCK:   -4.77 KCAL/MOL
REMARK 923 INTER-LIGAND FREE ENERGY PREDICTED BY IDOCK:   -4.45 KCAL/MOL
REMARK 924 INTRA-LIGAND FREE ENERGY PREDICTED BY IDOCK:   -0.31 KCAL/MOL
REMARK 927      BINDING AFFINITY PREDICTED BY RF-SCORE:    0.00 PKD
ROOT
HETATM    1  N   UNL     1     -11.134  14.709  67.409  1.00  0.00    -0.315 NA 
HETATM    2  CA  UNL     1     -11.319  13.479  68.244  1.00  0.00    -0.294 C  
HETATM    3  H2  UNL     1     -10.716  14.471  66.510  1.00  0.00     0.000 HD 
HETATM    4  H1  UNL     1     -11.985  15.254  67.274  1.00  0.00     0.000 HD 
HETATM    5  OXT UNL     1     -12.165  13.121  70.520  1.00  0.00    -0.357 OA 
HETATM    6  C   UNL     1     -11.952  13.879  69.587  1.00  0.00    -0.342 C  
HETATM    7  O   UNL     1     -12.264  15.201  69.612  1.00  0.00    -0.302 OA 
ENDROOT
BRANCH   2   8
HETATM    8  C   UNL     1     -10.034  12.656  68.448  1.00  0.00    -0.210 C  
BRANCH   8   9
HETATM    9  C   UNL     1     -10.070  11.253  67.885  1.00  0.00    -0.195 A  
HETATM   10  C   UNL     1      -9.788  11.022  66.529  1.00  0.00    -0.241 A  
HETATM   11  C   UNL     1      -9.868   9.730  66.020  1.00  0.00    -0.274 A  
HETATM   12  C   UNL     1     -10.220   8.665  66.846  1.00  0.00    -0.296 A  
HETATM   13  O   UNL     1      -9.620   9.458  64.704  1.00  0.00    -0.435 OA 
HETATM   14  H   UNL     1      -9.675   8.575  64.357  1.00  0.00     0.000 HD 
HETATM   15  O   UNL     1     -10.312   7.405  66.330  1.00  0.00    -0.460 OA 
HETATM   16  C   UNL     1     -10.491   8.867  68.190  1.00  0.00    -0.254 A  
HETATM   17  C   UNL     1     -10.414  10.161  68.697  1.00  0.00    -0.202 A  
HETATM   18  H   UNL     1     -10.551   6.678  66.893  1.00  0.00     0.000 HD 
HETATM   19  F   UNL     1     -10.714  10.370  69.987  1.00  0.00    -0.276 F  
ENDBRANCH   8   9
ENDBRANCH   2   8
TORSDOF 2
ENDMDL
MODEL      135
REMARK 921   NORMALIZED FREE ENERGY PREDICTED BY IDOCK:   -3.98 KCAL/MOL
REMARK 922        TOTAL FREE ENERGY PREDICTED BY IDOCK:   -4.76 KCAL/MOL
REMARK 923 INTER-LIGAND FREE ENERGY PREDICTED BY IDOCK:   -4.71 KCAL/MOL
REMARK 924 INTRA-LIGAND FREE ENERGY PREDICTED BY IDOCK:   -0.05 KCAL/MOL
REMARK 927      BINDING AFFINITY PREDICTED BY RF-SCORE:    0.00 PKD
ROOT
HETATM    1  N   UNL     1      -9.971  19.260  65.869  1.00  0.00    -0.468 NA 
HETATM    2  CA  UNL     1      -9.031  19.584  66.989  1.00  0.00    -0.308 C  
HETATM    3  H2  UNL     1     -10.906  19.614  66.074  1.00  0.00     0.000 HD 
HETATM    4  H1  UNL     1      -9.660  19.585  64.954  1.00  0.00     0.000 HD 
HETATM    5  OXT UNL     1      -6.661  19.072  67.377  1.00  0.00    -0.201 OA 
HETATM    6  C   UNL     1      -7.635  19.039  66.641  1.00  0.00    -0.243 C  
HETATM    7  O   UNL     1      -7.609  18.513  65.389  1.00  0.00    -0.444 OA 
ENDROOT
BRANCH   2   8
HETATM    8  C   UNL     1      -9.501  19.093  68.370  1.00  0.00    -0.425 C  
BRANCH   8   9
HETATM    9  C   UNL     1      -9.660  17.595  68.502  1.00  0.00    -0.315 A  
HETATM   10  C   UNL     1     -10.827  16.959  68.045  1.00  0.00    -0.338 A  
HETATM   11  C   UNL     1     -10.973  15.587  68.214  1.00  0.00    -0.305 A  
HETATM   12  C   UNL     1      -9.970  14.838  68.826  1.00  0.00    -0.234 A  
HETATM   13  O   UNL     1     -12.097  14.927  67.802  1.00  0.00    -0.537 OA 
HETATM   14  H   UNL     1     -12.197  13.989  67.917  1.00  0.00     0.000 HD 
HETATM   15  O   UNL     1     -10.135  13.495  69.001  1.00  0.00    -0.420 OA 
HETATM   16  C   UNL     1      -8.806  15.442  69.274  1.00  0.00    -0.258 A  
HETATM   17  C   UNL     1      -8.663  16.815  69.108  1.00  0.00    -0.092 A  
HETATM   18  H   UNL     1      -9.451  12.984  69.418  1.00  0.00     0.000 HD 
HETATM   19  F   UNL     1      -7.556  17.412  69.575  1.00  0.00    -0.122 F  
ENDBRANCH   8   9
ENDBRANCH   2   8
TORSDOF 2
ENDMDL
MODEL      136
REMARK 921   NORMALIZED FREE ENERGY PREDICTED BY IDOCK:   -3.96 KCAL/MOL
REMARK 922        TOTAL FREE ENERGY PREDICTED BY IDOCK:   -4.73 KCAL/MOL
REMARK 923 INTER-LIGAND FREE ENERGY PREDICTED BY IDOCK:   -4.62 KCAL/MOL
REMARK 924 INTRA-LIGAND FREE ENERGY PREDICTED BY IDOCK:   -0.11 KCAL/MOL
REMARK 927      BINDING AFFINITY PREDICTED BY RF-SCORE:    0.00 PKD
ROOT
HETATM    1  N   UNL     1     -12.155  12.412  67.364  1.00  0.00    -0.484 NA 
HETATM    2  CA  UNL     1     -11.168  12.938  66.368  1.00  0.00    -0.300 C  
HETATM    3  H2  UNL     1     -11.754  12.419  68.302  1.00  0.00     0.000 HD 
HETATM    4  H1  UNL     1     -13.053  12.895  67.356  1.00  0.00     0.000 HD 
HETATM    5  OXT UNL     1     -11.243  13.210  63.929  1.00  0.00    -0.387 OA 
HETATM    6  C   UNL     1     -11.809  12.915  64.970  1.00  0.00    -0.372 C  
HETATM    7  O   UNL     1     -13.111  12.530  65.030  1.00  0.00    -0.765 OA 
ENDROOT
BRANCH   2   8
HETATM    8  C   UNL     1      -9.812  12.210  66.379  1.00  0.00    -0.242 C  
BRANCH   8   9
HETATM    9  C   UNL     1      -9.773  10.931  67.188  1.00  0.00    -0.199 A  
HETATM   10  C   UNL     1      -9.501  10.969  68.565  1.00  0.00    -0.188 A  
HETATM   11  C   UNL     1      -9.426   9.780  69.284  1.00  0.00    -0.194 A  
HETATM   12  C   UNL     1      -9.626   8.556  68.649  1.00  0.00    -0.149 A  
HETATM   13  O   UNL     1      -9.147   9.764  70.622  1.00  0.00    -0.308 OA 
HETATM   14  H   UNL     1      -9.097   8.952  71.112  1.00  0.00     0.000 HD 
HETATM   15  O   UNL     1      -9.533   7.397  69.363  1.00  0.00    -0.155 OA 
HETATM   16  C   UNL     1      -9.908   8.496  67.294  1.00  0.00    -0.259 A  
HETATM   17  C   UNL     1      -9.977   9.686  66.576  1.00  0.00    -0.246 A  
HETATM   18  H   UNL     1      -9.670   6.562  68.931  1.00  0.00     0.000 HD 
HETATM   19  F   UNL     1     -10.210   9.633  65.256  1.00  0.00    -0.375 F  
ENDBRANCH   8   9
ENDBRANCH   2   8
TORSDOF 2
ENDMDL
MODEL      137
REMARK 921   NORMALIZED FREE ENERGY PREDICTED BY IDOCK:   -3.95 KCAL/MOL
REMARK 922        TOTAL FREE ENERGY PREDICTED BY IDOCK:   -4.73 KCAL/MOL
REMARK 923 INTER-LIGAND FREE ENERGY PREDICTED BY IDOCK:   -4.43 KCAL/MOL
REMARK 924 INTRA-LIGAND FREE ENERGY PREDICTED BY IDOCK:   -0.30 KCAL/MOL
REMARK 927      BINDING AFFINITY PREDICTED BY RF-SCORE:    0.00 PKD
ROOT
HETATM    1  N   UNL     1     -11.501  15.385  67.754  1.00  0.00    -0.316 NA 
HETATM    2  CA  UNL     1     -11.590  14.102  68.521  1.00  0.00    -0.316 C  
HETATM    3  H2  UNL     1     -11.169  15.211  66.805  1.00  0.00     0.000 HD 
HETATM    4  H1  UNL     1     -12.368  15.921  67.735  1.00  0.00     0.000 HD 
HETATM    5  OXT UNL     1     -12.208  13.585  70.840  1.00  0.00    -0.351 OA 
HETATM    6  C   UNL     1     -12.096  14.405  69.942  1.00  0.00    -0.344 C  
HETATM    7  O   UNL     1     -12.421  15.716  70.081  1.00  0.00    -0.389 OA 
ENDROOT
BRANCH   2   8
HETATM    8  C   UNL     1     -10.281  13.292  68.549  1.00  0.00    -0.222 C  
BRANCH   8   9
HETATM    9  C   UNL     1     -10.379  11.888  67.996  1.00  0.00    -0.209 A  
HETATM   10  C   UNL     1     -10.585  10.796  68.856  1.00  0.00    -0.246 A  
HETATM   11  C   UNL     1     -10.630   9.508  68.333  1.00  0.00    -0.219 A  
HETATM   12  C   UNL     1     -10.479   9.294  66.965  1.00  0.00    -0.233 A  
HETATM   13  O   UNL     1     -10.810   8.413  69.132  1.00  0.00    -0.394 OA 
HETATM   14  H   UNL     1     -10.841   7.533  68.774  1.00  0.00     0.000 HD 
HETATM   15  O   UNL     1     -10.507   8.023  66.468  1.00  0.00    -0.455 OA 
HETATM   16  C   UNL     1     -10.286  10.356  66.097  1.00  0.00    -0.269 A  
HETATM   17  C   UNL     1     -10.238  11.644  66.621  1.00  0.00    -0.216 A  
HETATM   18  H   UNL     1     -10.405   7.877  65.535  1.00  0.00     0.000 HD 
HETATM   19  F   UNL     1     -10.012  12.673  65.791  1.00  0.00    -0.252 F  
ENDBRANCH   8   9
ENDBRANCH   2   8
TORSDOF 2
ENDMDL
MODEL      138
REMARK 921   NORMALIZED FREE ENERGY PREDICTED BY IDOCK:   -3.95 KCAL/MOL
REMARK 922        TOTAL FREE ENERGY PREDICTED BY IDOCK:   -4.72 KCAL/MOL
REMARK 923 INTER-LIGAND FREE ENERGY PREDICTED BY IDOCK:   -4.66 KCAL/MOL
REMARK 924 INTRA-LIGAND FREE ENERGY PREDICTED BY IDOCK:   -0.06 KCAL/MOL
REMARK 927      BINDING AFFINITY PREDICTED BY RF-SCORE:    0.00 PKD
ROOT
HETATM    1  N   UNL     1     -10.551  18.110  65.704  1.00  0.00    -0.595 NA 
HETATM    2  CA  UNL     1     -10.456  18.428  67.164  1.00  0.00    -0.404 C  
HETATM    3  H2  UNL     1     -11.476  17.745  65.477  1.00  0.00     0.000 HD 
HETATM    4  H1  UNL     1     -10.315  18.889  65.090  1.00  0.00     0.000 HD 
HETATM    5  OXT UNL     1      -8.627  19.261  68.574  1.00  0.00    -0.345 OA 
HETATM    6  C   UNL     1      -9.051  18.977  67.465  1.00  0.00    -0.288 C  
HETATM    7  O   UNL     1      -8.324  19.121  66.326  1.00  0.00    -0.306 OA 
ENDROOT
BRANCH   2   8
HETATM    8  C   UNL     1     -10.813  17.252  68.091  1.00  0.00    -0.294 C  
BRANCH   8   9
HETATM    9  C   UNL     1     -10.220  15.917  67.697  1.00  0.00    -0.263 A  
HETATM   10  C   UNL     1      -8.827  15.742  67.654  1.00  0.00    -0.180 A  
HETATM   11  C   UNL     1      -8.299  14.521  67.248  1.00  0.00    -0.212 A  
HETATM   12  C   UNL     1      -9.141  13.470  66.891  1.00  0.00    -0.239 A  
HETATM   13  O   UNL     1      -6.951  14.309  67.174  1.00  0.00    -0.379 OA 
HETATM   14  H   UNL     1      -6.591  13.474  66.896  1.00  0.00     0.000 HD 
HETATM   15  O   UNL     1      -8.609  12.283  66.478  1.00  0.00    -0.350 OA 
HETATM   16  C   UNL     1     -10.518  13.616  66.937  1.00  0.00    -0.272 A  
HETATM   17  C   UNL     1     -11.044  14.840  67.339  1.00  0.00    -0.324 A  
HETATM   18  H   UNL     1      -9.183  11.566  66.235  1.00  0.00     0.000 HD 
HETATM   19  F   UNL     1     -12.376  15.000  67.348  1.00  0.00    -0.205 F  
ENDBRANCH   8   9
ENDBRANCH   2   8
TORSDOF 2
ENDMDL
MODEL      139
REMARK 921   NORMALIZED FREE ENERGY PREDICTED BY IDOCK:   -3.94 KCAL/MOL
REMARK 922        TOTAL FREE ENERGY PREDICTED BY IDOCK:   -4.72 KCAL/MOL
REMARK 923 INTER-LIGAND FREE ENERGY PREDICTED BY IDOCK:   -4.53 KCAL/MOL
REMARK 924 INTRA-LIGAND FREE ENERGY PREDICTED BY IDOCK:   -0.18 KCAL/MOL
REMARK 927      BINDING AFFINITY PREDICTED BY RF-SCORE:    0.00 PKD
ROOT
HETATM    1  N   UNL     1     -11.139  10.625  70.523  1.00  0.00    -0.441 NA 
HETATM    2  CA  UNL     1     -11.979   9.411  70.780  1.00  0.00    -0.231 C  
HETATM    3  H2  UNL     1     -10.382  10.404  69.877  1.00  0.00     0.000 HD 
HETATM    4  H1  UNL     1     -11.665  11.434  70.193  1.00  0.00     0.000 HD 
HETATM    5  OXT UNL     1     -13.923   9.005  72.223  1.00  0.00    -0.448 OA 
HETATM    6  C   UNL     1     -13.110   9.785  71.754  1.00  0.00    -0.431 C  
HETATM    7  O   UNL     1     -13.104  11.116  72.029  1.00  0.00    -0.492 OA 
ENDROOT
BRANCH   2   8
HETATM    8  C   UNL     1     -11.186   8.190  71.278  1.00  0.00    -0.297 C  
BRANCH   8   9
HETATM    9  C   UNL     1     -10.811   7.185  70.211  1.00  0.00    -0.271 A  
HETATM   10  C   UNL     1     -10.881   7.531  68.852  1.00  0.00    -0.063 A  
HETATM   11  C   UNL     1     -10.574   6.581  67.883  1.00  0.00    -0.252 A  
HETATM   12  C   UNL     1     -10.190   5.294  68.252  1.00  0.00    -0.134 A  
HETATM   13  O   UNL     1     -10.645   6.865  66.548  1.00  0.00    -0.497 OA 
HETATM   14  H   UNL     1     -10.434   6.216  65.887  1.00  0.00     0.000 HD 
HETATM   15  O   UNL     1      -9.907   4.367  67.291  1.00  0.00    -0.195 OA 
HETATM   16  C   UNL     1     -10.101   4.934  69.587  1.00  0.00    -0.300 A  
HETATM   17  C   UNL     1     -10.414   5.884  70.555  1.00  0.00    -0.254 A  
HETATM   18  H   UNL     1      -9.645   3.489  67.543  1.00  0.00     0.000 HD 
HETATM   19  F   UNL     1     -10.369   5.531  71.848  1.00  0.00    -0.226 F  
ENDBRANCH   8   9
ENDBRANCH   2   8
TORSDOF 2
ENDMDL
MODEL      140
REMARK 921   NORMALIZED FREE ENERGY PREDICTED BY IDOCK:   -3.94 KCAL/MOL
REMARK 922        TOTAL FREE ENERGY PREDICTED BY IDOCK:   -4.71 KCAL/MOL
REMARK 923 INTER-LIGAND FREE ENERGY PREDICTED BY IDOCK:   -4.43 KCAL/MOL
REMARK 924 INTRA-LIGAND FREE ENERGY PREDICTED BY IDOCK:   -0.29 KCAL/MOL
REMARK 927      BINDING AFFINITY PREDICTED BY RF-SCORE:    0.00 PKD
ROOT
HETATM    1  N   UNL     1     -11.231   9.910  67.939  1.00  0.00    -0.509 NA 
HETATM    2  CA  UNL     1     -10.675  11.052  67.144  1.00  0.00    -0.265 C  
HETATM    3  H2  UNL     1     -11.701  10.254  68.776  1.00  0.00     0.000 HD 
HETATM    4  H1  UNL     1     -11.848   9.295  67.410  1.00  0.00     0.000 HD 
HETATM    5  OXT UNL     1      -9.360  11.158  65.074  1.00  0.00    -0.220 OA 
HETATM    6  C   UNL     1      -9.978  10.494  65.891  1.00  0.00    -0.254 C  
HETATM    7  O   UNL     1     -10.144   9.149  65.791  1.00  0.00    -0.229 OA 
ENDROOT
BRANCH   2   8
HETATM    8  C   UNL     1      -9.744  11.982  67.942  1.00  0.00    -0.194 C  
BRANCH   8   9
HETATM    9  C   UNL     1     -10.032  13.460  67.800  1.00  0.00    -0.233 A  
HETATM   10  C   UNL     1      -9.377  14.223  66.819  1.00  0.00    -0.290 A  
HETATM   11  C   UNL     1      -9.623  15.589  66.732  1.00  0.00    -0.235 A  
HETATM   12  C   UNL     1     -10.517  16.203  67.605  1.00  0.00    -0.292 A  
HETATM   13  O   UNL     1      -8.996  16.375  65.806  1.00  0.00    -0.455 OA 
HETATM   14  H   UNL     1      -9.165  17.308  65.746  1.00  0.00     0.000 HD 
HETATM   15  O   UNL     1     -10.736  17.548  67.519  1.00  0.00    -0.349 OA 
HETATM   16  C   UNL     1     -11.184  15.469  68.573  1.00  0.00    -0.334 A  
HETATM   17  C   UNL     1     -10.934  14.103  68.661  1.00  0.00    -0.258 A  
HETATM   18  H   UNL     1     -11.346  17.967  68.115  1.00  0.00     0.000 HD 
HETATM   19  F   UNL     1     -11.546  13.394  69.621  1.00  0.00    -0.309 F  
ENDBRANCH   8   9
ENDBRANCH   2   8
TORSDOF 2
ENDMDL
MODEL      141
REMARK 921   NORMALIZED FREE ENERGY PREDICTED BY IDOCK:   -3.92 KCAL/MOL
REMARK 922        TOTAL FREE ENERGY PREDICTED BY IDOCK:   -4.69 KCAL/MOL
REMARK 923 INTER-LIGAND FREE ENERGY PREDICTED BY IDOCK:   -4.43 KCAL/MOL
REMARK 924 INTRA-LIGAND FREE ENERGY PREDICTED BY IDOCK:   -0.26 KCAL/MOL
REMARK 927      BINDING AFFINITY PREDICTED BY RF-SCORE:    0.00 PKD
ROOT
HETATM    1  N   UNL     1      -8.662   8.460  69.570  1.00  0.00    -0.135 NA 
HETATM    2  CA  UNL     1      -9.671   9.497  69.181  1.00  0.00    -0.178 C  
HETATM    3  H2  UNL     1      -8.059   8.234  68.779  1.00  0.00     0.000 HD 
HETATM    4  H1  UNL     1      -8.101   8.707  70.385  1.00  0.00     0.000 HD 
HETATM    5  OXT UNL     1     -11.520  10.561  70.394  1.00  0.00    -0.300 OA 
HETATM    6  C   UNL     1     -10.556   9.812  70.399  1.00  0.00    -0.304 C  
HETATM    7  O   UNL     1     -10.123   9.155  71.507  1.00  0.00    -0.319 OA 
ENDROOT
BRANCH   2   8
HETATM    8  C   UNL     1     -10.516   9.123  67.950  1.00  0.00    -0.293 C  
BRANCH   8   9
HETATM    9  C   UNL     1     -10.286   9.981  66.725  1.00  0.00    -0.295 A  
HETATM   10  C   UNL     1     -10.769  11.299  66.677  1.00  0.00    -0.321 A  
HETATM   11  C   UNL     1     -10.585  12.057  65.526  1.00  0.00    -0.273 A  
HETATM   12  C   UNL     1      -9.921  11.522  64.425  1.00  0.00    -0.269 A  
HETATM   13  O   UNL     1     -11.053  13.338  65.426  1.00  0.00    -0.281 OA 
HETATM   14  H   UNL     1     -10.927  13.856  64.639  1.00  0.00     0.000 HD 
HETATM   15  O   UNL     1      -9.762  12.272  63.296  1.00  0.00    -0.617 OA 
HETATM   16  C   UNL     1      -9.425  10.228  64.454  1.00  0.00    -0.360 A  
HETATM   17  C   UNL     1      -9.613   9.469  65.604  1.00  0.00    -0.277 A  
HETATM   18  H   UNL     1      -9.309  11.907  62.545  1.00  0.00     0.000 HD 
HETATM   19  F   UNL     1      -9.171   8.203  65.625  1.00  0.00    -0.211 F  
ENDBRANCH   8   9
ENDBRANCH   2   8
TORSDOF 2
ENDMDL
MODEL      142
REMARK 921   NORMALIZED FREE ENERGY PREDICTED BY IDOCK:   -3.89 KCAL/MOL
REMARK 922        TOTAL FREE ENERGY PREDICTED BY IDOCK:   -4.66 KCAL/MOL
REMARK 923 INTER-LIGAND FREE ENERGY PREDICTED BY IDOCK:   -4.77 KCAL/MOL
REMARK 924 INTRA-LIGAND FREE ENERGY PREDICTED BY IDOCK:    0.11 KCAL/MOL
REMARK 927      BINDING AFFINITY PREDICTED BY RF-SCORE:    0.00 PKD
ROOT
HETATM    1  N   UNL     1     -10.501  15.060  70.482  1.00  0.00    -0.518 NA 
HETATM    2  CA  UNL     1     -11.893  15.266  69.968  1.00  0.00    -0.334 C  
HETATM    3  H2  UNL     1      -9.855  14.900  69.709  1.00  0.00     0.000 HD 
HETATM    4  H1  UNL     1     -10.161  15.813  71.080  1.00  0.00     0.000 HD 
HETATM    5  OXT UNL     1     -14.046  15.636  71.088  1.00  0.00    -0.539 OA 
HETATM    6  C   UNL     1     -12.834  15.507  71.161  1.00  0.00    -0.489 C  
HETATM    7  O   UNL     1     -12.144  15.573  72.329  1.00  0.00    -0.349 OA 
ENDROOT
BRANCH   2   8
HETATM    8  C   UNL     1     -12.406  14.130  69.065  1.00  0.00    -0.145 C  
BRANCH   8   9
HETATM    9  C   UNL     1     -11.346  13.432  68.241  1.00  0.00    -0.330 A  
HETATM   10  C   UNL     1     -10.505  12.473  68.829  1.00  0.00    -0.169 A  
HETATM   11  C   UNL     1      -9.508  11.873  68.067  1.00  0.00    -0.197 A  
HETATM   12  C   UNL     1      -9.344  12.211  66.725  1.00  0.00    -0.212 A  
HETATM   13  O   UNL     1      -8.654  10.948  68.599  1.00  0.00    -0.140 OA 
HETATM   14  H   UNL     1      -7.973  10.538  68.078  1.00  0.00     0.000 HD 
HETATM   15  O   UNL     1      -8.351  11.627  65.994  1.00  0.00    -0.372 OA 
HETATM   16  C   UNL     1     -10.170  13.145  66.122  1.00  0.00    -0.291 A  
HETATM   17  C   UNL     1     -11.164  13.747  66.886  1.00  0.00    -0.313 A  
HETATM   18  H   UNL     1      -8.239  11.856  65.079  1.00  0.00     0.000 HD 
HETATM   19  F   UNL     1     -11.942  14.681  66.318  1.00  0.00    -0.376 F  
ENDBRANCH   8   9
ENDBRANCH   2   8
TORSDOF 2
ENDMDL
MODEL      143
REMARK 921   NORMALIZED FREE ENERGY PREDICTED BY IDOCK:   -3.88 KCAL/MOL
REMARK 922        TOTAL FREE ENERGY PREDICTED BY IDOCK:   -4.65 KCAL/MOL
REMARK 923 INTER-LIGAND FREE ENERGY PREDICTED BY IDOCK:   -4.81 KCAL/MOL
REMARK 924 INTRA-LIGAND FREE ENERGY PREDICTED BY IDOCK:    0.16 KCAL/MOL
REMARK 927      BINDING AFFINITY PREDICTED BY RF-SCORE:    0.00 PKD
ROOT
HETATM    1  N   UNL     1      -9.052  16.215  69.088  1.00  0.00    -0.252 NA 
HETATM    2  CA  UNL     1     -10.304  16.512  68.321  1.00  0.00    -0.293 C  
HETATM    3  H2  UNL     1      -8.992  15.219  69.301  1.00  0.00     0.000 HD 
HETATM    4  H1  UNL     1      -8.198  16.533  68.631  1.00  0.00     0.000 HD 
HETATM    5  OXT UNL     1     -11.283  18.596  67.469  1.00  0.00    -0.162 OA 
HETATM    6  C   UNL     1     -10.356  18.018  68.015  1.00  0.00    -0.387 C  
HETATM    7  O   UNL     1      -9.221  18.644  68.423  1.00  0.00    -0.306 OA 
ENDROOT
BRANCH   2   8
HETATM    8  C   UNL     1     -11.594  16.031  69.010  1.00  0.00    -0.350 C  
BRANCH   8   9
HETATM    9  C   UNL     1     -11.717  14.532  69.176  1.00  0.00    -0.349 A  
HETATM   10  C   UNL     1     -12.214  13.986  70.371  1.00  0.00    -0.433 A  
HETATM   11  C   UNL     1     -12.279  12.605  70.521  1.00  0.00    -0.299 A  
HETATM   12  C   UNL     1     -11.863  11.761  69.495  1.00  0.00    -0.337 A  
HETATM   13  O   UNL     1     -12.739  12.027  71.672  1.00  0.00    -0.307 OA 
HETATM   14  H   UNL     1     -12.783  11.084  71.774  1.00  0.00     0.000 HD 
HETATM   15  O   UNL     1     -11.916  10.408  69.662  1.00  0.00    -0.426 OA 
HETATM   16  C   UNL     1     -11.380  12.277  68.303  1.00  0.00    -0.339 A  
HETATM   17  C   UNL     1     -11.312  13.659  68.155  1.00  0.00    -0.288 A  
HETATM   18  H   UNL     1     -11.632   9.832  68.962  1.00  0.00     0.000 HD 
HETATM   19  F   UNL     1     -10.809  14.165  67.019  1.00  0.00    -0.283 F  
ENDBRANCH   8   9
ENDBRANCH   2   8
TORSDOF 2
ENDMDL
MODEL      144
REMARK 921   NORMALIZED FREE ENERGY PREDICTED BY IDOCK:   -3.85 KCAL/MOL
REMARK 922        TOTAL FREE ENERGY PREDICTED BY IDOCK:   -4.62 KCAL/MOL
REMARK 923 INTER-LIGAND FREE ENERGY PREDICTED BY IDOCK:   -4.59 KCAL/MOL
REMARK 924 INTRA-LIGAND FREE ENERGY PREDICTED BY IDOCK:   -0.02 KCAL/MOL
REMARK 927      BINDING AFFINITY PREDICTED BY RF-SCORE:    0.00 PKD
ROOT
HETATM    1  N   UNL     1     -11.525  16.369  70.285  1.00  0.00    -0.455 NA 
HETATM    2  CA  UNL     1     -11.893  15.653  69.021  1.00  0.00    -0.364 C  
HETATM    3  H2  UNL     1     -11.607  17.378  70.160  1.00  0.00     0.000 HD 
HETATM    4  H1  UNL     1     -12.051  16.067  71.104  1.00  0.00     0.000 HD 
HETATM    5  OXT UNL     1     -11.916  13.280  68.396  1.00  0.00    -0.340 OA 
HETATM    6  C   UNL     1     -11.760  14.138  69.250  1.00  0.00    -0.323 C  
HETATM    7  O   UNL     1     -11.452  13.859  70.544  1.00  0.00    -0.130 OA 
ENDROOT
BRANCH   2   8
HETATM    8  C   UNL     1     -11.100  16.110  67.784  1.00  0.00    -0.254 C  
BRANCH   8   9
HETATM    9  C   UNL     1      -9.975  17.082  68.061  1.00  0.00    -0.283 A  
HETATM   10  C   UNL     1      -8.797  16.648  68.693  1.00  0.00    -0.249 A  
HETATM   11  C   UNL     1      -7.792  17.565  68.978  1.00  0.00    -0.118 A  
HETATM   12  C   UNL     1      -7.941  18.908  68.637  1.00  0.00    -0.346 A  
HETATM   13  O   UNL     1      -6.636  17.194  69.607  1.00  0.00    -0.227 OA 
HETATM   14  H   UNL     1      -5.949  17.821  69.801  1.00  0.00     0.000 HD 
HETATM   15  O   UNL     1      -6.953  19.800  68.938  1.00  0.00    -0.322 OA 
HETATM   16  C   UNL     1      -9.088  19.356  68.003  1.00  0.00    -0.382 A  
HETATM   17  C   UNL     1     -10.095  18.438  67.721  1.00  0.00    -0.356 A  
HETATM   18  H   UNL     1      -7.054  20.715  68.705  1.00  0.00     0.000 HD 
HETATM   19  F   UNL     1     -11.225  18.873  67.143  1.00  0.00    -0.445 F  
ENDBRANCH   8   9
ENDBRANCH   2   8
TORSDOF 2
ENDMDL
MODEL      145
REMARK 921   NORMALIZED FREE ENERGY PREDICTED BY IDOCK:   -3.85 KCAL/MOL
REMARK 922        TOTAL FREE ENERGY PREDICTED BY IDOCK:   -4.61 KCAL/MOL
REMARK 923 INTER-LIGAND FREE ENERGY PREDICTED BY IDOCK:   -4.38 KCAL/MOL
REMARK 924 INTRA-LIGAND FREE ENERGY PREDICTED BY IDOCK:   -0.22 KCAL/MOL
REMARK 927      BINDING AFFINITY PREDICTED BY RF-SCORE:    0.00 PKD
ROOT
HETATM    1  N   UNL     1      -7.401   9.031  66.228  1.00  0.00    -0.090 NA 
HETATM    2  CA  UNL     1      -8.130  10.037  67.065  1.00  0.00    -0.117 C  
HETATM    3  H2  UNL     1      -7.769   9.024  65.277  1.00  0.00     0.000 HD 
HETATM    4  H1  UNL     1      -6.388   9.152  66.217  1.00  0.00     0.000 HD 
HETATM    5  OXT UNL     1      -7.966  10.669  69.432  1.00  0.00    -0.154 OA 
HETATM    6  C   UNL     1      -7.544  10.019  68.488  1.00  0.00    -0.087 C  
HETATM    7  O   UNL     1      -6.474   9.187  68.571  1.00  0.00    -0.053 OA 
ENDROOT
BRANCH   2   8
HETATM    8  C   UNL     1      -9.658   9.855  67.081  1.00  0.00    -0.201 C  
BRANCH   8   9
HETATM    9  C   UNL     1     -10.439  10.885  66.295  1.00  0.00    -0.304 A  
HETATM   10  C   UNL     1     -10.256  11.011  64.908  1.00  0.00    -0.373 A  
HETATM   11  C   UNL     1     -10.951  11.992  64.209  1.00  0.00    -0.346 A  
HETATM   12  C   UNL     1     -11.830  12.845  64.873  1.00  0.00    -0.366 A  
HETATM   13  O   UNL     1     -10.793  12.165  62.862  1.00  0.00    -0.602 OA 
HETATM   14  H   UNL     1     -11.268  12.835  62.385  1.00  0.00     0.000 HD 
HETATM   15  O   UNL     1     -12.492  13.815  64.178  1.00  0.00    -0.652 OA 
HETATM   16  C   UNL     1     -12.035  12.731  66.239  1.00  0.00    -0.460 A  
HETATM   17  C   UNL     1     -11.336  11.752  66.937  1.00  0.00    -0.320 A  
HETATM   18  H   UNL     1     -13.092  14.396  64.630  1.00  0.00     0.000 HD 
HETATM   19  F   UNL     1     -11.500  11.662  68.265  1.00  0.00    -0.259 F  
ENDBRANCH   8   9
ENDBRANCH   2   8
TORSDOF 2
ENDMDL
MODEL      146
REMARK 921   NORMALIZED FREE ENERGY PREDICTED BY IDOCK:   -3.83 KCAL/MOL
REMARK 922        TOTAL FREE ENERGY PREDICTED BY IDOCK:   -4.59 KCAL/MOL
REMARK 923 INTER-LIGAND FREE ENERGY PREDICTED BY IDOCK:   -4.35 KCAL/MOL
REMARK 924 INTRA-LIGAND FREE ENERGY PREDICTED BY IDOCK:   -0.24 KCAL/MOL
REMARK 927      BINDING AFFINITY PREDICTED BY RF-SCORE:    0.00 PKD
ROOT
HETATM    1  N   UNL     1     -11.301   6.626  67.372  1.00  0.00    -0.763 NA 
HETATM    2  CA  UNL     1      -9.985   6.584  68.086  1.00  0.00    -0.139 C  
HETATM    3  H2  UNL     1     -11.161   6.783  66.374  1.00  0.00     0.000 HD 
HETATM    4  H1  UNL     1     -11.885   5.804  67.525  1.00  0.00     0.000 HD 
HETATM    5  OXT UNL     1      -9.379   6.329  70.451  1.00  0.00    -0.159 OA 
HETATM    6  C   UNL     1     -10.238   6.342  69.584  1.00  0.00    -0.189 C  
HETATM    7  O   UNL     1     -11.557   6.130  69.834  1.00  0.00    -0.404 OA 
ENDROOT
BRANCH   2   8
HETATM    8  C   UNL     1      -9.103   7.824  67.856  1.00  0.00    -0.132 C  
BRANCH   8   9
HETATM    9  C   UNL     1      -9.832   9.049  67.348  1.00  0.00    -0.244 A  
HETATM   10  C   UNL     1      -9.764   9.406  65.991  1.00  0.00    -0.345 A  
HETATM   11  C   UNL     1     -10.406  10.560  65.551  1.00  0.00    -0.217 A  
HETATM   12  C   UNL     1     -11.118  11.357  66.443  1.00  0.00    -0.240 A  
HETATM   13  O   UNL     1     -10.354  10.958  64.244  1.00  0.00    -0.344 OA 
HETATM   14  H   UNL     1     -10.792  11.745  63.944  1.00  0.00     0.000 HD 
HETATM   15  O   UNL     1     -11.728  12.495  66.001  1.00  0.00    -0.380 OA 
HETATM   16  C   UNL     1     -11.209  11.018  67.784  1.00  0.00    -0.374 A  
HETATM   17  C   UNL     1     -10.563   9.866  68.223  1.00  0.00    -0.229 A  
HETATM   18  H   UNL     1     -12.215  13.039  66.609  1.00  0.00     0.000 HD 
HETATM   19  F   UNL     1     -10.613   9.553  69.527  1.00  0.00    -0.192 F  
ENDBRANCH   8   9
ENDBRANCH   2   8
TORSDOF 2
ENDMDL
MODEL      147
REMARK 921   NORMALIZED FREE ENERGY PREDICTED BY IDOCK:   -3.83 KCAL/MOL
REMARK 922        TOTAL FREE ENERGY PREDICTED BY IDOCK:   -4.59 KCAL/MOL
REMARK 923 INTER-LIGAND FREE ENERGY PREDICTED BY IDOCK:   -4.92 KCAL/MOL
REMARK 924 INTRA-LIGAND FREE ENERGY PREDICTED BY IDOCK:    0.33 KCAL/MOL
REMARK 927      BINDING AFFINITY PREDICTED BY RF-SCORE:    0.00 PKD
ROOT
HETATM    1  N   UNL     1      -9.075  14.841  69.625  1.00  0.00    -0.422 NA 
HETATM    2  CA  UNL     1     -10.395  15.317  69.099  1.00  0.00    -0.248 C  
HETATM    3  H2  UNL     1      -8.968  15.099  70.606  1.00  0.00     0.000 HD 
HETATM    4  H1  UNL     1      -8.911  13.843  69.499  1.00  0.00     0.000 HD 
HETATM    5  OXT UNL     1     -11.444  15.207  66.883  1.00  0.00    -0.314 OA 
HETATM    6  C   UNL     1     -10.520  14.906  67.622  1.00  0.00    -0.249 C  
HETATM    7  O   UNL     1      -9.465  14.146  67.230  1.00  0.00    -0.215 OA 
ENDROOT
BRANCH   2   8
HETATM    8  C   UNL     1     -10.644  16.824  69.290  1.00  0.00    -0.336 C  
BRANCH   8   9
HETATM    9  C   UNL     1      -9.970  17.722  68.277  1.00  0.00    -0.355 A  
HETATM   10  C   UNL     1     -10.727  18.385  67.297  1.00  0.00    -0.389 A  
HETATM   11  C   UNL     1     -10.085  19.172  66.347  1.00  0.00    -0.419 A  
HETATM   12  C   UNL     1      -8.700  19.314  66.365  1.00  0.00    -0.348 A  
HETATM   13  O   UNL     1     -10.778  19.822  65.364  1.00  0.00    -0.432 OA 
HETATM   14  H   UNL     1     -10.339  20.361  64.716  1.00  0.00     0.000 HD 
HETATM   15  O   UNL     1      -8.082  20.076  65.417  1.00  0.00    -0.428 OA 
HETATM   16  C   UNL     1      -7.933  18.680  67.330  1.00  0.00    -0.245 A  
HETATM   17  C   UNL     1      -8.576  17.889  68.276  1.00  0.00    -0.275 A  
HETATM   18  H   UNL     1      -7.137  20.173  65.430  1.00  0.00     0.000 HD 
HETATM   19  F   UNL     1      -7.837  17.240  69.189  1.00  0.00    -0.245 F  
ENDBRANCH   8   9
ENDBRANCH   2   8
TORSDOF 2
ENDMDL
MODEL      148
REMARK 921   NORMALIZED FREE ENERGY PREDICTED BY IDOCK:   -3.81 KCAL/MOL
REMARK 922        TOTAL FREE ENERGY PREDICTED BY IDOCK:   -4.57 KCAL/MOL
REMARK 923 INTER-LIGAND FREE ENERGY PREDICTED BY IDOCK:   -4.46 KCAL/MOL
REMARK 924 INTRA-LIGAND FREE ENERGY PREDICTED BY IDOCK:   -0.11 KCAL/MOL
REMARK 927      BINDING AFFINITY PREDICTED BY RF-SCORE:    0.00 PKD
ROOT
HETATM    1  N   UNL     1     -12.575  14.404  66.617  1.00  0.00    -0.455 NA 
HETATM    2  CA  UNL     1     -11.776  13.169  66.900  1.00  0.00    -0.387 C  
HETATM    3  H2  UNL     1     -12.750  14.494  65.616  1.00  0.00     0.000 HD 
HETATM    4  H1  UNL     1     -13.449  14.464  67.138  1.00  0.00     0.000 HD 
HETATM    5  OXT UNL     1     -10.857  12.215  68.967  1.00  0.00    -0.216 OA 
HETATM    6  C   UNL     1     -11.537  13.067  68.416  1.00  0.00    -0.335 C  
HETATM    7  O   UNL     1     -12.194  14.049  69.087  1.00  0.00    -0.346 OA 
ENDROOT
BRANCH   2   8
HETATM    8  C   UNL     1     -10.456  13.078  66.113  1.00  0.00    -0.289 C  
BRANCH   8   9
HETATM    9  C   UNL     1      -9.436  14.147  66.437  1.00  0.00    -0.289 A  
HETATM   10  C   UNL     1      -9.590  15.452  65.938  1.00  0.00    -0.386 A  
HETATM   11  C   UNL     1      -8.620  16.410  66.211  1.00  0.00    -0.340 A  
HETATM   12  C   UNL     1      -7.504  16.089  66.979  1.00  0.00    -0.229 A  
HETATM   13  O   UNL     1      -8.717  17.688  65.733  1.00  0.00    -0.511 OA 
HETATM   14  H   UNL     1      -8.055  18.343  65.919  1.00  0.00     0.000 HD 
HETATM   15  O   UNL     1      -6.551  17.035  67.224  1.00  0.00    -0.137 OA 
HETATM   16  C   UNL     1      -7.337  14.812  67.491  1.00  0.00    -0.225 A  
HETATM   17  C   UNL     1      -8.306  13.853  67.214  1.00  0.00    -0.185 A  
HETATM   18  H   UNL     1      -5.790  16.816  67.748  1.00  0.00     0.000 HD 
HETATM   19  F   UNL     1      -8.131  12.605  67.673  1.00  0.00    -0.130 F  
ENDBRANCH   8   9
ENDBRANCH   2   8
TORSDOF 2
ENDMDL
MODEL      149
REMARK 921   NORMALIZED FREE ENERGY PREDICTED BY IDOCK:   -3.80 KCAL/MOL
REMARK 922        TOTAL FREE ENERGY PREDICTED BY IDOCK:   -4.56 KCAL/MOL
REMARK 923 INTER-LIGAND FREE ENERGY PREDICTED BY IDOCK:   -4.40 KCAL/MOL
REMARK 924 INTRA-LIGAND FREE ENERGY PREDICTED BY IDOCK:   -0.16 KCAL/MOL
REMARK 927      BINDING AFFINITY PREDICTED BY RF-SCORE:    0.00 PKD
ROOT
HETATM    1  N   UNL     1     -11.596   8.322  70.105  1.00  0.00    -0.466 NA 
HETATM    2  CA  UNL     1     -11.491   9.808  70.268  1.00  0.00    -0.255 C  
HETATM    3  H2  UNL     1     -10.956   7.997  69.380  1.00  0.00     0.000 HD 
HETATM    4  H1  UNL     1     -11.455   7.797  70.967  1.00  0.00     0.000 HD 
HETATM    5  OXT UNL     1     -12.678  11.416  71.693  1.00  0.00    -0.375 OA 
HETATM    6  C   UNL     1     -12.467  10.258  71.369  1.00  0.00    -0.424 C  
HETATM    7  O   UNL     1     -13.071   9.194  71.958  1.00  0.00    -0.363 OA 
ENDROOT
BRANCH   2   8
HETATM    8  C   UNL     1     -11.704  10.601  68.966  1.00  0.00    -0.305 C  
BRANCH   8   9
HETATM    9  C   UNL     1     -10.494  10.694  68.062  1.00  0.00    -0.228 A  
HETATM   10  C   UNL     1      -9.677  11.836  68.082  1.00  0.00    -0.192 A  
HETATM   11  C   UNL     1      -8.594  11.922  67.213  1.00  0.00    -0.170 A  
HETATM   12  C   UNL     1      -8.311  10.882  66.330  1.00  0.00    -0.162 A  
HETATM   13  O   UNL     1      -7.780  13.020  67.184  1.00  0.00    -0.325 OA 
HETATM   14  H   UNL     1      -7.040  13.078  66.590  1.00  0.00     0.000 HD 
HETATM   15  O   UNL     1      -7.256  10.987  65.472  1.00  0.00    -0.364 OA 
HETATM   16  C   UNL     1      -9.097   9.741  66.302  1.00  0.00    -0.192 A  
HETATM   17  C   UNL     1     -10.182   9.659  67.168  1.00  0.00    -0.243 A  
HETATM   18  H   UNL     1      -7.063  10.278  64.870  1.00  0.00     0.000 HD 
HETATM   19  F   UNL     1     -10.971   8.574  67.118  1.00  0.00    -0.334 F  
ENDBRANCH   8   9
ENDBRANCH   2   8
TORSDOF 2
ENDMDL
MODEL      150
REMARK 921   NORMALIZED FREE ENERGY PREDICTED BY IDOCK:   -3.79 KCAL/MOL
REMARK 922        TOTAL FREE ENERGY PREDICTED BY IDOCK:   -4.55 KCAL/MOL
REMARK 923 INTER-LIGAND FREE ENERGY PREDICTED BY IDOCK:   -4.34 KCAL/MOL
REMARK 924 INTRA-LIGAND FREE ENERGY PREDICTED BY IDOCK:   -0.21 KCAL/MOL
REMARK 927      BINDING AFFINITY PREDICTED BY RF-SCORE:    0.00 PKD
ROOT
HETATM    1  N   UNL     1     -11.413   8.822  69.713  1.00  0.00    -0.430 NA 
HETATM    2  CA  UNL     1     -11.665  10.181  70.291  1.00  0.00    -0.282 C  
HETATM    3  H2  UNL     1     -10.816   8.891  68.889  1.00  0.00     0.000 HD 
HETATM    4  H1  UNL     1     -11.028   8.151  70.377  1.00  0.00     0.000 HD 
HETATM    5  OXT UNL     1     -13.013  10.961  72.189  1.00  0.00    -0.419 OA 
HETATM    6  C   UNL     1     -12.563  10.036  71.532  1.00  0.00    -0.425 C  
HETATM    7  O   UNL     1     -12.794   8.729  71.824  1.00  0.00    -0.323 OA 
ENDROOT
BRANCH   2   8
HETATM    8  C   UNL     1     -12.245  11.195  69.289  1.00  0.00    -0.295 C  
BRANCH   8   9
HETATM    9  C   UNL     1     -11.266  12.226  68.774  1.00  0.00    -0.312 A  
HETATM   10  C   UNL     1     -10.065  11.826  68.165  1.00  0.00    -0.196 A  
HETATM   11  C   UNL     1      -9.157  12.788  67.736  1.00  0.00    -0.197 A  
HETATM   12  C   UNL     1      -9.433  14.144  67.901  1.00  0.00    -0.211 A  
HETATM   13  O   UNL     1      -7.968  12.447  67.154  1.00  0.00    -0.175 OA 
HETATM   14  H   UNL     1      -7.348  13.105  66.861  1.00  0.00     0.000 HD 
HETATM   15  O   UNL     1      -8.525  15.077  67.491  1.00  0.00    -0.154 OA 
HETATM   16  C   UNL     1     -10.616  14.562  68.488  1.00  0.00    -0.252 A  
HETATM   17  C   UNL     1     -11.521  13.598  68.920  1.00  0.00    -0.303 A  
HETATM   18  H   UNL     1      -8.713  16.001  67.602  1.00  0.00     0.000 HD 
HETATM   19  F   UNL     1     -12.651  13.995  69.525  1.00  0.00    -0.370 F  
ENDBRANCH   8   9
ENDBRANCH   2   8
TORSDOF 2
ENDMDL
MODEL      151
REMARK 921   NORMALIZED FREE ENERGY PREDICTED BY IDOCK:   -3.79 KCAL/MOL
REMARK 922        TOTAL FREE ENERGY PREDICTED BY IDOCK:   -4.54 KCAL/MOL
REMARK 923 INTER-LIGAND FREE ENERGY PREDICTED BY IDOCK:   -4.33 KCAL/MOL
REMARK 924 INTRA-LIGAND FREE ENERGY PREDICTED BY IDOCK:   -0.21 KCAL/MOL
REMARK 927      BINDING AFFINITY PREDICTED BY RF-SCORE:    0.00 PKD
ROOT
HETATM    1  N   UNL     1      -9.884  14.040  65.985  1.00  0.00    -0.359 NA 
HETATM    2  CA  UNL     1     -10.116  15.512  65.839  1.00  0.00    -0.349 C  
HETATM    3  H2  UNL     1      -9.206  13.857  66.725  1.00  0.00     0.000 HD 
HETATM    4  H1  UNL     1     -10.733  13.496  66.138  1.00  0.00     0.000 HD 
HETATM    5  OXT UNL     1     -11.496  16.838  64.301  1.00  0.00    -1.125 OA 
HETATM    6  C   UNL     1     -11.144  15.746  64.719  1.00  0.00    -0.400 C  
HETATM    7  O   UNL     1     -11.634  14.570  64.246  1.00  0.00    -0.331 OA 
ENDROOT
BRANCH   2   8
HETATM    8  C   UNL     1      -8.834  16.333  65.608  1.00  0.00     0.260 C  
BRANCH   8   9
HETATM    9  C   UNL     1      -8.101  16.751  66.864  1.00  0.00    -0.246 A  
HETATM   10  C   UNL     1      -8.294  18.032  67.408  1.00  0.00    -0.233 A  
HETATM   11  C   UNL     1      -7.580  18.413  68.538  1.00  0.00    -0.301 A  
HETATM   12  C   UNL     1      -6.681  17.534  69.138  1.00  0.00    -0.243 A  
HETATM   13  O   UNL     1      -7.720  19.655  69.094  1.00  0.00    -0.339 OA 
HETATM   14  H   UNL     1      -7.232  19.915  69.866  1.00  0.00     0.000 HD 
HETATM   15  O   UNL     1      -5.973  17.928  70.236  1.00  0.00    -0.198 OA 
HETATM   16  C   UNL     1      -6.483  16.262  68.625  1.00  0.00    -0.126 A  
HETATM   17  C   UNL     1      -7.196  15.883  67.492  1.00  0.00    -0.177 A  
HETATM   18  H   UNL     1      -5.361  17.328  70.645  1.00  0.00     0.000 HD 
HETATM   19  F   UNL     1      -6.980  14.667  66.968  1.00  0.00    -0.167 F  
ENDBRANCH   8   9
ENDBRANCH   2   8
TORSDOF 2
ENDMDL
MODEL      152
REMARK 921   NORMALIZED FREE ENERGY PREDICTED BY IDOCK:   -3.77 KCAL/MOL
REMARK 922        TOTAL FREE ENERGY PREDICTED BY IDOCK:   -4.52 KCAL/MOL
REMARK 923 INTER-LIGAND FREE ENERGY PREDICTED BY IDOCK:   -4.30 KCAL/MOL
REMARK 924 INTRA-LIGAND FREE ENERGY PREDICTED BY IDOCK:   -0.22 KCAL/MOL
REMARK 927      BINDING AFFINITY PREDICTED BY RF-SCORE:    0.00 PKD
ROOT
HETATM    1  N   UNL     1     -11.470  16.688  70.438  1.00  0.00    -0.409 NA 
HETATM    2  CA  UNL     1     -11.820  15.944  69.186  1.00  0.00    -0.330 C  
HETATM    3  H2  UNL     1     -11.388  17.687  70.249  1.00  0.00     0.000 HD 
HETATM    4  H1  UNL     1     -12.111  16.524  71.214  1.00  0.00     0.000 HD 
HETATM    5  OXT UNL     1     -12.138  13.560  68.698  1.00  0.00    -0.352 OA 
HETATM    6  C   UNL     1     -11.937  14.446  69.513  1.00  0.00    -0.330 C  
HETATM    7  O   UNL     1     -11.799  14.219  70.846  1.00  0.00    -0.311 OA 
ENDROOT
BRANCH   2   8
HETATM    8  C   UNL     1     -10.853  16.192  68.014  1.00  0.00    -0.333 C  
BRANCH   8   9
HETATM    9  C   UNL     1      -9.548  16.862  68.385  1.00  0.00    -0.255 A  
HETATM   10  C   UNL     1      -9.354  18.231  68.134  1.00  0.00    -0.307 A  
HETATM   11  C   UNL     1      -8.132  18.820  68.443  1.00  0.00    -0.340 A  
HETATM   12  C   UNL     1      -7.105  18.065  69.004  1.00  0.00    -0.236 A  
HETATM   13  O   UNL     1      -7.890  20.143  68.201  1.00  0.00    -0.264 OA 
HETATM   14  H   UNL     1      -7.056  20.545  68.412  1.00  0.00     0.000 HD 
HETATM   15  O   UNL     1      -5.905  18.653  69.285  1.00  0.00    -0.215 OA 
HETATM   16  C   UNL     1      -7.278  16.717  69.271  1.00  0.00    -0.200 A  
HETATM   17  C   UNL     1      -8.499  16.128  68.958  1.00  0.00    -0.251 A  
HETATM   18  H   UNL     1      -5.204  18.138  69.668  1.00  0.00     0.000 HD 
HETATM   19  F   UNL     1      -8.660  14.814  69.178  1.00  0.00    -0.167 F  
ENDBRANCH   8   9
ENDBRANCH   2   8
TORSDOF 2
ENDMDL
MODEL      153
REMARK 921   NORMALIZED FREE ENERGY PREDICTED BY IDOCK:   -3.74 KCAL/MOL
REMARK 922        TOTAL FREE ENERGY PREDICTED BY IDOCK:   -4.49 KCAL/MOL
REMARK 923 INTER-LIGAND FREE ENERGY PREDICTED BY IDOCK:   -4.44 KCAL/MOL
REMARK 924 INTRA-LIGAND FREE ENERGY PREDICTED BY IDOCK:   -0.05 KCAL/MOL
REMARK 927      BINDING AFFINITY PREDICTED BY RF-SCORE:    0.00 PKD
ROOT
HETATM    1  N   UNL     1      -6.314  18.214  67.316  1.00  0.00    -0.170 NA 
HETATM    2  CA  UNL     1      -6.752  17.267  68.391  1.00  0.00    -0.181 C  
HETATM    3  H2  UNL     1      -6.628  19.161  67.527  1.00  0.00     0.000 HD 
HETATM    4  H1  UNL     1      -5.311  18.203  67.133  1.00  0.00     0.000 HD 
HETATM    5  OXT UNL     1      -6.510  14.840  68.675  1.00  0.00    -0.080 OA 
HETATM    6  C   UNL     1      -6.257  15.853  68.041  1.00  0.00    -0.131 C  
HETATM    7  O   UNL     1      -5.482  15.863  66.926  1.00  0.00    -0.292 OA 
ENDROOT
BRANCH   2   8
HETATM    8  C   UNL     1      -8.266  17.283  68.669  1.00  0.00    -0.262 C  
BRANCH   8   9
HETATM    9  C   UNL     1      -9.095  18.068  67.677  1.00  0.00    -0.255 A  
HETATM   10  C   UNL     1      -9.771  17.411  66.636  1.00  0.00    -0.296 A  
HETATM   11  C   UNL     1     -10.493  18.154  65.708  1.00  0.00    -0.207 A  
HETATM   12  C   UNL     1     -10.556  19.542  65.808  1.00  0.00    -0.427 A  
HETATM   13  O   UNL     1     -11.153  17.560  64.668  1.00  0.00    -0.978 OA 
HETATM   14  H   UNL     1     -11.647  18.068  64.034  1.00  0.00     0.000 HD 
HETATM   15  O   UNL     1     -11.255  20.259  64.880  1.00  0.00    -0.052 OA 
HETATM   16  C   UNL     1      -9.907  20.210  66.833  1.00  0.00    -0.593 A  
HETATM   17  C   UNL     1      -9.182  19.466  67.758  1.00  0.00    -0.318 A  
HETATM   18  H   UNL     1     -11.298  21.205  64.948  1.00  0.00     0.000 HD 
HETATM   19  F   UNL     1      -8.518  20.111  68.730  1.00  0.00    -0.200 F  
ENDBRANCH   8   9
ENDBRANCH   2   8
TORSDOF 2
ENDMDL
MODEL      154
REMARK 921   NORMALIZED FREE ENERGY PREDICTED BY IDOCK:   -3.73 KCAL/MOL
REMARK 922        TOTAL FREE ENERGY PREDICTED BY IDOCK:   -4.48 KCAL/MOL
REMARK 923 INTER-LIGAND FREE ENERGY PREDICTED BY IDOCK:   -4.25 KCAL/MOL
REMARK 924 INTRA-LIGAND FREE ENERGY PREDICTED BY IDOCK:   -0.23 KCAL/MOL
REMARK 927      BINDING AFFINITY PREDICTED BY RF-SCORE:    0.00 PKD
ROOT
HETATM    1  N   UNL     1      -8.988  15.047  69.372  1.00  0.00    -0.403 NA 
HETATM    2  CA  UNL     1     -10.479  14.923  69.295  1.00  0.00    -0.241 C  
HETATM    3  H2  UNL     1      -8.725  15.789  70.021  1.00  0.00     0.000 HD 
HETATM    4  H1  UNL     1      -8.508  14.180  69.611  1.00  0.00     0.000 HD 
HETATM    5  OXT UNL     1     -11.965  13.488  67.969  1.00  0.00    -0.355 OA 
HETATM    6  C   UNL     1     -10.834  13.794  68.312  1.00  0.00    -0.250 C  
HETATM    7  O   UNL     1      -9.719  13.156  67.869  1.00  0.00    -0.208 OA 
ENDROOT
BRANCH   2   8
HETATM    8  C   UNL     1     -11.203  16.233  68.935  1.00  0.00    -0.337 C  
BRANCH   8   9
HETATM    9  C   UNL     1     -10.389  17.220  68.129  1.00  0.00    -0.357 A  
HETATM   10  C   UNL     1      -9.657  18.233  68.772  1.00  0.00    -0.317 A  
HETATM   11  C   UNL     1      -8.949  19.157  68.012  1.00  0.00    -0.312 A  
HETATM   12  C   UNL     1      -8.955  19.083  66.621  1.00  0.00    -0.326 A  
HETATM   13  O   UNL     1      -8.237  20.171  68.592  1.00  0.00    -0.072 OA 
HETATM   14  H   UNL     1      -7.753  20.802  68.072  1.00  0.00     0.000 HD 
HETATM   15  O   UNL     1      -8.269  20.007  65.888  1.00  0.00    -0.477 OA 
HETATM   16  C   UNL     1      -9.659  18.086  65.966  1.00  0.00    -0.085 A  
HETATM   17  C   UNL     1     -10.370  17.164  66.727  1.00  0.00    -0.302 A  
HETATM   18  H   UNL     1      -8.272  19.956  64.939  1.00  0.00     0.000 HD 
HETATM   19  F   UNL     1     -11.087  16.220  66.099  1.00  0.00    -0.210 F  
ENDBRANCH   8   9
ENDBRANCH   2   8
TORSDOF 2
ENDMDL
MODEL      155
REMARK 921   NORMALIZED FREE ENERGY PREDICTED BY IDOCK:   -3.72 KCAL/MOL
REMARK 922        TOTAL FREE ENERGY PREDICTED BY IDOCK:   -4.47 KCAL/MOL
REMARK 923 INTER-LIGAND FREE ENERGY PREDICTED BY IDOCK:   -4.38 KCAL/MOL
REMARK 924 INTRA-LIGAND FREE ENERGY PREDICTED BY IDOCK:   -0.09 KCAL/MOL
REMARK 927      BINDING AFFINITY PREDICTED BY RF-SCORE:    0.00 PKD
ROOT
HETATM    1  N   UNL     1      -8.509  10.056  69.061  1.00  0.00    -0.136 NA 
HETATM    2  CA  UNL     1      -9.989   9.864  68.925  1.00  0.00    -0.181 C  
HETATM    3  H2  UNL     1      -8.140   9.466  69.807  1.00  0.00     0.000 HD 
HETATM    4  H1  UNL     1      -7.988   9.907  68.198  1.00  0.00     0.000 HD 
HETATM    5  OXT UNL     1     -11.677  10.899  67.475  1.00  0.00    -0.543 OA 
HETATM    6  C   UNL     1     -10.506  10.765  67.791  1.00  0.00    -0.208 C  
HETATM    7  O   UNL     1      -9.484  11.401  67.161  1.00  0.00    -0.173 OA 
ENDROOT
BRANCH   2   8
HETATM    8  C   UNL     1     -10.777  10.089  70.228  1.00  0.00    -0.367 C  
BRANCH   8   9
HETATM    9  C   UNL     1     -10.876   8.884  71.138  1.00  0.00    -0.352 A  
HETATM   10  C   UNL     1     -12.072   8.153  71.224  1.00  0.00    -0.313 A  
HETATM   11  C   UNL     1     -12.158   7.075  72.098  1.00  0.00    -0.244 A  
HETATM   12  C   UNL     1     -11.065   6.711  72.882  1.00  0.00    -0.229 A  
HETATM   13  O   UNL     1     -13.306   6.345  72.230  1.00  0.00    -0.502 OA 
HETATM   14  H   UNL     1     -13.364   5.608  72.827  1.00  0.00     0.000 HD 
HETATM   15  O   UNL     1     -11.169   5.661  73.748  1.00  0.00    -0.412 OA 
HETATM   16  C   UNL     1      -9.872   7.410  72.805  1.00  0.00    -0.237 A  
HETATM   17  C   UNL     1      -9.789   8.491  71.933  1.00  0.00    -0.288 A  
HETATM   18  H   UNL     1     -10.424   5.413  74.282  1.00  0.00     0.000 HD 
HETATM   19  F   UNL     1      -8.649   9.196  71.882  1.00  0.00    -0.194 F  
ENDBRANCH   8   9
ENDBRANCH   2   8
TORSDOF 2
ENDMDL
MODEL      156
REMARK 921   NORMALIZED FREE ENERGY PREDICTED BY IDOCK:   -3.71 KCAL/MOL
REMARK 922        TOTAL FREE ENERGY PREDICTED BY IDOCK:   -4.45 KCAL/MOL
REMARK 923 INTER-LIGAND FREE ENERGY PREDICTED BY IDOCK:   -4.23 KCAL/MOL
REMARK 924 INTRA-LIGAND FREE ENERGY PREDICTED BY IDOCK:   -0.23 KCAL/MOL
REMARK 927      BINDING AFFINITY PREDICTED BY RF-SCORE:    0.00 PKD
ROOT
HETATM    1  N   UNL     1     -11.746  11.556  66.135  1.00  0.00    -0.284 NA 
HETATM    2  CA  UNL     1     -11.044  11.431  67.452  1.00  0.00    -0.289 C  
HETATM    3  H2  UNL     1     -12.257  12.438  66.085  1.00  0.00     0.000 HD 
HETATM    4  H1  UNL     1     -11.137  11.452  65.324  1.00  0.00     0.000 HD 
HETATM    5  OXT UNL     1      -9.671   9.656  68.447  1.00  0.00    -0.147 OA 
HETATM    6  C   UNL     1     -10.284  10.094  67.486  1.00  0.00    -0.211 C  
HETATM    7  O   UNL     1     -10.369   9.448  66.294  1.00  0.00    -0.240 OA 
ENDROOT
BRANCH   2   8
HETATM    8  C   UNL     1     -11.964  11.590  68.675  1.00  0.00    -0.312 C  
BRANCH   8   9
HETATM    9  C   UNL     1     -11.802  12.884  69.441  1.00  0.00    -0.371 A  
HETATM   10  C   UNL     1     -11.077  13.953  68.888  1.00  0.00    -0.296 A  
HETATM   11  C   UNL     1     -10.902  15.119  69.625  1.00  0.00    -0.286 A  
HETATM   12  C   UNL     1     -11.445  15.238  70.902  1.00  0.00    -0.339 A  
HETATM   13  O   UNL     1     -10.189  16.179  69.136  1.00  0.00    -0.225 OA 
HETATM   14  H   UNL     1     -10.070  16.976  69.640  1.00  0.00     0.000 HD 
HETATM   15  O   UNL     1     -11.251  16.382  71.620  1.00  0.00    -0.137 OA 
HETATM   16  C   UNL     1     -12.175  14.202  71.462  1.00  0.00    -0.340 A  
HETATM   17  C   UNL     1     -12.345  13.034  70.726  1.00  0.00    -0.310 A  
HETATM   18  H   UNL     1     -11.622  16.463  72.491  1.00  0.00     0.000 HD 
HETATM   19  F   UNL     1     -13.016  12.012  71.278  1.00  0.00    -0.440 F  
ENDBRANCH   8   9
ENDBRANCH   2   8
TORSDOF 2
ENDMDL
MODEL      157
REMARK 921   NORMALIZED FREE ENERGY PREDICTED BY IDOCK:   -3.70 KCAL/MOL
REMARK 922        TOTAL FREE ENERGY PREDICTED BY IDOCK:   -4.45 KCAL/MOL
REMARK 923 INTER-LIGAND FREE ENERGY PREDICTED BY IDOCK:   -4.14 KCAL/MOL
REMARK 924 INTRA-LIGAND FREE ENERGY PREDICTED BY IDOCK:   -0.31 KCAL/MOL
REMARK 927      BINDING AFFINITY PREDICTED BY RF-SCORE:    0.00 PKD
ROOT
HETATM    1  N   UNL     1      -9.357  11.636  68.601  1.00  0.00    -0.334 NA 
HETATM    2  CA  UNL     1      -9.299  10.248  69.162  1.00  0.00    -0.204 C  
HETATM    3  H2  UNL     1     -10.251  12.073  68.824  1.00  0.00     0.000 HD 
HETATM    4  H1  UNL     1      -8.585  12.236  68.891  1.00  0.00     0.000 HD 
HETATM    5  OXT UNL     1      -7.602   8.477  69.055  1.00  0.00    -0.090 OA 
HETATM    6  C   UNL     1      -7.937   9.625  68.809  1.00  0.00    -0.089 C  
HETATM    7  O   UNL     1      -7.130  10.523  68.188  1.00  0.00    -0.079 OA 
ENDROOT
BRANCH   2   8
HETATM    8  C   UNL     1     -10.464   9.342  68.725  1.00  0.00    -0.233 C  
BRANCH   8   9
HETATM    9  C   UNL     1     -11.013   8.432  69.802  1.00  0.00    -0.130 A  
HETATM   10  C   UNL     1     -11.742   8.963  70.879  1.00  0.00    -0.312 A  
HETATM   11  C   UNL     1     -12.202   8.116  71.882  1.00  0.00    -0.331 A  
HETATM   12  C   UNL     1     -11.951   6.748  71.823  1.00  0.00    -0.339 A  
HETATM   13  O   UNL     1     -12.901   8.589  72.958  1.00  0.00    -0.701 OA 
HETATM   14  H   UNL     1     -13.215   8.010  73.643  1.00  0.00     0.000 HD 
HETATM   15  O   UNL     1     -12.393   5.931  72.823  1.00  0.00    -0.537 OA 
HETATM   16  C   UNL     1     -11.244   6.200  70.764  1.00  0.00    -0.373 A  
HETATM   17  C   UNL     1     -10.781   7.049  69.763  1.00  0.00    -0.241 A  
HETATM   18  H   UNL     1     -12.222   4.997  72.782  1.00  0.00     0.000 HD 
HETATM   19  F   UNL     1     -10.062   6.531  68.756  1.00  0.00    -0.144 F  
ENDBRANCH   8   9
ENDBRANCH   2   8
TORSDOF 2
ENDMDL
MODEL      158
REMARK 921   NORMALIZED FREE ENERGY PREDICTED BY IDOCK:   -3.70 KCAL/MOL
REMARK 922        TOTAL FREE ENERGY PREDICTED BY IDOCK:   -4.44 KCAL/MOL
REMARK 923 INTER-LIGAND FREE ENERGY PREDICTED BY IDOCK:   -4.17 KCAL/MOL
REMARK 924 INTRA-LIGAND FREE ENERGY PREDICTED BY IDOCK:   -0.27 KCAL/MOL
REMARK 927      BINDING AFFINITY PREDICTED BY RF-SCORE:    0.00 PKD
ROOT
HETATM    1  N   UNL     1      -9.498   8.925  64.981  1.00  0.00    -0.395 NA 
HETATM    2  CA  UNL     1      -9.448   9.810  66.188  1.00  0.00    -0.205 C  
HETATM    3  H2  UNL     1     -10.334   9.119  64.431  1.00  0.00     0.000 HD 
HETATM    4  H1  UNL     1      -8.666   8.972  64.393  1.00  0.00     0.000 HD 
HETATM    5  OXT UNL     1      -7.873   9.983  68.064  1.00  0.00    -0.089 OA 
HETATM    6  C   UNL     1      -8.173   9.489  66.988  1.00  0.00    -0.113 C  
HETATM    7  O   UNL     1      -7.399   8.581  66.339  1.00  0.00    -0.078 OA 
ENDROOT
BRANCH   2   8
HETATM    8  C   UNL     1     -10.704   9.738  67.075  1.00  0.00    -0.236 C  
BRANCH   8   9
HETATM    9  C   UNL     1     -11.151  11.057  67.667  1.00  0.00    -0.363 A  
HETATM   10  C   UNL     1     -11.784  12.019  66.863  1.00  0.00    -0.342 A  
HETATM   11  C   UNL     1     -12.150  13.243  67.415  1.00  0.00    -0.278 A  
HETATM   12  C   UNL     1     -11.900  13.516  68.757  1.00  0.00    -0.355 A  
HETATM   13  O   UNL     1     -12.752  14.217  66.668  1.00  0.00    -0.518 OA 
HETATM   14  H   UNL     1     -13.002  15.053  67.046  1.00  0.00     0.000 HD 
HETATM   15  O   UNL     1     -12.249  14.727  69.281  1.00  0.00    -0.489 OA 
HETATM   16  C   UNL     1     -11.288  12.577  69.572  1.00  0.00    -0.240 A  
HETATM   17  C   UNL     1     -10.919  11.356  69.018  1.00  0.00    -0.236 A  
HETATM   18  H   UNL     1     -12.079  14.914  70.197  1.00  0.00     0.000 HD 
HETATM   19  F   UNL     1     -10.290  10.457  69.791  1.00  0.00    -0.238 F  
ENDBRANCH   8   9
ENDBRANCH   2   8
TORSDOF 2
ENDMDL
MODEL      159
REMARK 921   NORMALIZED FREE ENERGY PREDICTED BY IDOCK:   -3.68 KCAL/MOL
REMARK 922        TOTAL FREE ENERGY PREDICTED BY IDOCK:   -4.43 KCAL/MOL
REMARK 923 INTER-LIGAND FREE ENERGY PREDICTED BY IDOCK:   -4.28 KCAL/MOL
REMARK 924 INTRA-LIGAND FREE ENERGY PREDICTED BY IDOCK:   -0.15 KCAL/MOL
REMARK 927      BINDING AFFINITY PREDICTED BY RF-SCORE:    0.00 PKD
ROOT
HETATM    1  N   UNL     1     -11.334  11.326  66.622  1.00  0.00    -0.351 NA 
HETATM    2  CA  UNL     1     -11.770  12.393  67.578  1.00  0.00    -0.357 C  
HETATM    3  H2  UNL     1     -11.312  10.418  67.086  1.00  0.00     0.000 HD 
HETATM    4  H1  UNL     1     -11.890  11.276  65.769  1.00  0.00     0.000 HD 
HETATM    5  OXT UNL     1     -12.035  14.823  67.357  1.00  0.00    -0.357 OA 
HETATM    6  C   UNL     1     -11.794  13.743  66.842  1.00  0.00    -0.413 C  
HETATM    7  O   UNL     1     -11.519  13.589  65.520  1.00  0.00    -0.300 OA 
ENDROOT
BRANCH   2   8
HETATM    8  C   UNL     1     -10.931  12.466  68.867  1.00  0.00    -0.268 C  
BRANCH   8   9
HETATM    9  C   UNL     1     -10.720  11.147  69.576  1.00  0.00    -0.193 A  
HETATM   10  C   UNL     1      -9.550  10.401  69.359  1.00  0.00    -0.213 A  
HETATM   11  C   UNL     1      -9.393   9.170  69.987  1.00  0.00    -0.199 A  
HETATM   12  C   UNL     1     -10.383   8.676  70.832  1.00  0.00    -0.211 A  
HETATM   13  O   UNL     1      -8.280   8.400  69.793  1.00  0.00    -0.114 OA 
HETATM   14  H   UNL     1      -8.173   7.560  70.222  1.00  0.00     0.000 HD 
HETATM   15  O   UNL     1     -10.223   7.458  71.428  1.00  0.00    -0.188 OA 
HETATM   16  C   UNL     1     -11.540   9.400  71.070  1.00  0.00    -0.400 A  
HETATM   17  C   UNL     1     -11.698  10.629  70.439  1.00  0.00    -0.353 A  
HETATM   18  H   UNL     1     -10.898   7.121  72.005  1.00  0.00     0.000 HD 
HETATM   19  F   UNL     1     -12.833  11.317  70.634  1.00  0.00    -0.359 F  
ENDBRANCH   8   9
ENDBRANCH   2   8
TORSDOF 2
ENDMDL
MODEL      160
REMARK 921   NORMALIZED FREE ENERGY PREDICTED BY IDOCK:   -3.67 KCAL/MOL
REMARK 922        TOTAL FREE ENERGY PREDICTED BY IDOCK:   -4.42 KCAL/MOL
REMARK 923 INTER-LIGAND FREE ENERGY PREDICTED BY IDOCK:   -4.21 KCAL/MOL
REMARK 924 INTRA-LIGAND FREE ENERGY PREDICTED BY IDOCK:   -0.20 KCAL/MOL
REMARK 927      BINDING AFFINITY PREDICTED BY RF-SCORE:    0.00 PKD
ROOT
HETATM    1  N   UNL     1     -11.238  16.575  70.170  1.00  0.00    -0.456 NA 
HETATM    2  CA  UNL     1     -12.216  15.452  70.005  1.00  0.00    -0.361 C  
HETATM    3  H2  UNL     1     -11.228  17.164  69.338  1.00  0.00     0.000 HD 
HETATM    4  H1  UNL     1     -11.388  17.140  71.006  1.00  0.00     0.000 HD 
HETATM    5  OXT UNL     1     -12.834  13.556  71.436  1.00  0.00    -0.350 OA 
HETATM    6  C   UNL     1     -12.204  14.590  71.279  1.00  0.00    -0.355 C  
HETATM    7  O   UNL     1     -11.403  15.130  72.234  1.00  0.00    -0.416 OA 
ENDROOT
BRANCH   2   8
HETATM    8  C   UNL     1     -11.990  14.599  68.744  1.00  0.00    -0.301 C  
BRANCH   8   9
HETATM    9  C   UNL     1     -10.560  14.537  68.254  1.00  0.00    -0.241 A  
HETATM   10  C   UNL     1      -9.664  13.599  68.792  1.00  0.00    -0.040 A  
HETATM   11  C   UNL     1      -8.342  13.585  68.360  1.00  0.00    -0.140 A  
HETATM   12  C   UNL     1      -7.903  14.490  67.396  1.00  0.00    -0.199 A  
HETATM   13  O   UNL     1      -7.428  12.702  68.866  1.00  0.00    -0.241 OA 
HETATM   14  H   UNL     1      -6.525  12.693  68.570  1.00  0.00     0.000 HD 
HETATM   15  O   UNL     1      -6.599  14.477  66.994  1.00  0.00    -0.317 OA 
HETATM   16  C   UNL     1      -8.773  15.416  66.843  1.00  0.00    -0.285 A  
HETATM   17  C   UNL     1     -10.094  15.432  67.279  1.00  0.00    -0.238 A  
HETATM   18  H   UNL     1      -6.300  15.093  66.336  1.00  0.00     0.000 HD 
HETATM   19  F   UNL     1     -10.931  16.352  66.778  1.00  0.00    -0.275 F  
ENDBRANCH   8   9
ENDBRANCH   2   8
TORSDOF 2
ENDMDL
MODEL      161
REMARK 921   NORMALIZED FREE ENERGY PREDICTED BY IDOCK:   -3.67 KCAL/MOL
REMARK 922        TOTAL FREE ENERGY PREDICTED BY IDOCK:   -4.42 KCAL/MOL
REMARK 923 INTER-LIGAND FREE ENERGY PREDICTED BY IDOCK:   -4.17 KCAL/MOL
REMARK 924 INTRA-LIGAND FREE ENERGY PREDICTED BY IDOCK:   -0.25 KCAL/MOL
REMARK 927      BINDING AFFINITY PREDICTED BY RF-SCORE:    0.00 PKD
ROOT
HETATM    1  N   UNL     1      -8.245   7.980  69.113  1.00  0.00    -0.128 NA 
HETATM    2  CA  UNL     1      -9.661   8.457  69.221  1.00  0.00    -0.177 C  
HETATM    3  H2  UNL     1      -7.701   8.610  68.523  1.00  0.00     0.000 HD 
HETATM    4  H1  UNL     1      -7.781   7.842  70.010  1.00  0.00     0.000 HD 
HETATM    5  OXT UNL     1     -11.644   7.548  70.348  1.00  0.00    -0.246 OA 
HETATM    6  C   UNL     1     -10.446   7.485  70.119  1.00  0.00    -0.222 C  
HETATM    7  O   UNL     1      -9.632   6.533  70.646  1.00  0.00    -0.171 OA 
ENDROOT
BRANCH   2   8
HETATM    8  C   UNL     1     -10.362   8.666  67.867  1.00  0.00    -0.286 C  
BRANCH   8   9
HETATM    9  C   UNL     1     -10.762  10.092  67.561  1.00  0.00    -0.347 A  
HETATM   10  C   UNL     1     -11.304  10.911  68.566  1.00  0.00    -0.367 A  
HETATM   11  C   UNL     1     -11.706  12.205  68.255  1.00  0.00    -0.342 A  
HETATM   12  C   UNL     1     -11.569  12.697  66.959  1.00  0.00    -0.365 A  
HETATM   13  O   UNL     1     -12.254  13.033  69.195  1.00  0.00    -0.225 OA 
HETATM   14  H   UNL     1     -12.529  13.918  68.983  1.00  0.00     0.000 HD 
HETATM   15  O   UNL     1     -11.984  13.964  66.665  1.00  0.00    -0.396 OA 
HETATM   16  C   UNL     1     -11.027  11.912  65.955  1.00  0.00    -0.355 A  
HETATM   17  C   UNL     1     -10.629  10.615  66.266  1.00  0.00    -0.161 A  
HETATM   18  H   UNL     1     -11.891  14.299  65.782  1.00  0.00     0.000 HD 
HETATM   19  F   UNL     1     -10.140   9.836  65.290  1.00  0.00    -0.376 F  
ENDBRANCH   8   9
ENDBRANCH   2   8
TORSDOF 2
ENDMDL
MODEL      162
REMARK 921   NORMALIZED FREE ENERGY PREDICTED BY IDOCK:   -3.67 KCAL/MOL
REMARK 922        TOTAL FREE ENERGY PREDICTED BY IDOCK:   -4.41 KCAL/MOL
REMARK 923 INTER-LIGAND FREE ENERGY PREDICTED BY IDOCK:   -4.10 KCAL/MOL
REMARK 924 INTRA-LIGAND FREE ENERGY PREDICTED BY IDOCK:   -0.31 KCAL/MOL
REMARK 927      BINDING AFFINITY PREDICTED BY RF-SCORE:    0.00 PKD
ROOT
HETATM    1  N   UNL     1     -11.081   4.737  65.603  1.00  0.00    -0.926 NA 
HETATM    2  CA  UNL     1     -10.146   5.505  66.486  1.00  0.00    -0.204 C  
HETATM    3  H2  UNL     1     -11.988   4.624  66.056  1.00  0.00     0.000 HD 
HETATM    4  H1  UNL     1     -11.196   5.134  64.671  1.00  0.00     0.000 HD 
HETATM    5  OXT UNL     1      -7.795   6.168  66.248  1.00  0.00    -0.100 OA 
HETATM    6  C   UNL     1      -8.794   5.657  65.768  1.00  0.00    -0.153 C  
HETATM    7  O   UNL     1      -8.847   5.155  64.507  1.00  0.00    -0.140 OA 
ENDROOT
BRANCH   2   8
HETATM    8  C   UNL     1      -9.973   4.906  67.894  1.00  0.00    -0.181 C  
BRANCH   8   9
HETATM    9  C   UNL     1     -10.132   5.885  69.036  1.00  0.00    -0.237 A  
HETATM   10  C   UNL     1     -11.409   6.308  69.439  1.00  0.00    -0.448 A  
HETATM   11  C   UNL     1     -11.532   7.242  70.463  1.00  0.00    -0.279 A  
HETATM   12  C   UNL     1     -10.401   7.754  71.094  1.00  0.00    -0.200 A  
HETATM   13  O   UNL     1     -12.753   7.697  70.878  1.00  0.00    -0.533 OA 
HETATM   14  H   UNL     1     -12.837   8.335  71.577  1.00  0.00     0.000 HD 
HETATM   15  O   UNL     1     -10.537   8.682  72.085  1.00  0.00    -0.321 OA 
HETATM   16  C   UNL     1      -9.132   7.342  70.721  1.00  0.00    -0.152 A  
HETATM   17  C   UNL     1      -9.010   6.411  69.694  1.00  0.00    -0.137 A  
HETATM   18  H   UNL     1      -9.765   9.031  72.515  1.00  0.00     0.000 HD 
HETATM   19  F   UNL     1      -7.782   6.037  69.301  1.00  0.00    -0.086 F  
ENDBRANCH   8   9
ENDBRANCH   2   8
TORSDOF 2
ENDMDL
MODEL      163
REMARK 921   NORMALIZED FREE ENERGY PREDICTED BY IDOCK:   -3.65 KCAL/MOL
REMARK 922        TOTAL FREE ENERGY PREDICTED BY IDOCK:   -4.39 KCAL/MOL
REMARK 923 INTER-LIGAND FREE ENERGY PREDICTED BY IDOCK:   -4.15 KCAL/MOL
REMARK 924 INTRA-LIGAND FREE ENERGY PREDICTED BY IDOCK:   -0.23 KCAL/MOL
REMARK 927      BINDING AFFINITY PREDICTED BY RF-SCORE:    0.00 PKD
ROOT
HETATM    1  N   UNL     1      -8.026   8.446  68.443  1.00  0.00    -0.117 NA 
HETATM    2  CA  UNL     1      -9.483   8.597  68.759  1.00  0.00    -0.143 C  
HETATM    3  H2  UNL     1      -7.694   9.244  67.903  1.00  0.00     0.000 HD 
HETATM    4  H1  UNL     1      -7.435   8.298  69.261  1.00  0.00     0.000 HD 
HETATM    5  OXT UNL     1     -11.093   7.159  69.927  1.00  0.00    -0.259 OA 
HETATM    6  C   UNL     1      -9.945   7.377  69.575  1.00  0.00    -0.179 C  
HETATM    7  O   UNL     1      -8.902   6.560  69.874  1.00  0.00    -0.141 OA 
ENDROOT
BRANCH   2   8
HETATM    8  C   UNL     1     -10.375   8.821  67.525  1.00  0.00    -0.334 C  
BRANCH   8   9
HETATM    9  C   UNL     1     -10.673  10.268  67.199  1.00  0.00    -0.303 A  
HETATM   10  C   UNL     1     -10.078  10.884  66.085  1.00  0.00    -0.291 A  
HETATM   11  C   UNL     1     -10.330  12.227  65.826  1.00  0.00    -0.258 A  
HETATM   12  C   UNL     1     -11.172  12.962  66.657  1.00  0.00    -0.304 A  
HETATM   13  O   UNL     1      -9.760  12.875  64.765  1.00  0.00    -0.527 OA 
HETATM   14  H   UNL     1      -9.932  13.792  64.589  1.00  0.00     0.000 HD 
HETATM   15  O   UNL     1     -11.397  14.284  66.400  1.00  0.00    -0.325 OA 
HETATM   16  C   UNL     1     -11.780  12.372  67.754  1.00  0.00    -0.413 A  
HETATM   17  C   UNL     1     -11.524  11.030  68.014  1.00  0.00    -0.290 A  
HETATM   18  H   UNL     1     -11.972  14.785  66.967  1.00  0.00     0.000 HD 
HETATM   19  F   UNL     1     -12.077  10.463  69.097  1.00  0.00    -0.269 F  
ENDBRANCH   8   9
ENDBRANCH   2   8
TORSDOF 2
ENDMDL
MODEL      164
REMARK 921   NORMALIZED FREE ENERGY PREDICTED BY IDOCK:   -3.64 KCAL/MOL
REMARK 922        TOTAL FREE ENERGY PREDICTED BY IDOCK:   -4.38 KCAL/MOL
REMARK 923 INTER-LIGAND FREE ENERGY PREDICTED BY IDOCK:   -4.35 KCAL/MOL
REMARK 924 INTRA-LIGAND FREE ENERGY PREDICTED BY IDOCK:   -0.03 KCAL/MOL
REMARK 927      BINDING AFFINITY PREDICTED BY RF-SCORE:    0.00 PKD
ROOT
HETATM    1  N   UNL     1      -9.079  19.925  65.770  1.00  0.00    -0.476 NA 
HETATM    2  CA  UNL     1      -9.186  18.620  66.498  1.00  0.00    -0.320 C  
HETATM    3  H2  UNL     1      -8.308  19.899  65.102  1.00  0.00     0.000 HD 
HETATM    4  H1  UNL     1      -9.940  20.218  65.310  1.00  0.00     0.000 HD 
HETATM    5  OXT UNL     1     -10.665  17.827  68.290  1.00  0.00    -0.343 OA 
HETATM    6  C   UNL     1     -10.358  18.698  67.491  1.00  0.00    -0.411 C  
HETATM    7  O   UNL     1     -11.033  19.870  67.367  1.00  0.00    -0.328 OA 
ENDROOT
BRANCH   2   8
HETATM    8  C   UNL     1      -7.885  18.177  67.193  1.00  0.00    -0.230 C  
BRANCH   8   9
HETATM    9  C   UNL     1      -7.851  16.731  67.637  1.00  0.00    -0.189 A  
HETATM   10  C   UNL     1      -8.374  15.721  66.813  1.00  0.00    -0.309 A  
HETATM   11  C   UNL     1      -8.372  14.403  67.257  1.00  0.00    -0.209 A  
HETATM   12  C   UNL     1      -7.852  14.077  68.507  1.00  0.00    -0.140 A  
HETATM   13  O   UNL     1      -8.885  13.387  66.498  1.00  0.00    -0.434 OA 
HETATM   14  H   UNL     1      -8.884  12.487  66.801  1.00  0.00     0.000 HD 
HETATM   15  O   UNL     1      -7.873  12.782  68.936  1.00  0.00    -0.312 OA 
HETATM   16  C   UNL     1      -7.321  15.056  69.332  1.00  0.00    -0.194 A  
HETATM   17  C   UNL     1      -7.326  16.375  68.889  1.00  0.00    -0.214 A  
HETATM   18  H   UNL     1      -7.518  12.560  69.789  1.00  0.00     0.000 HD 
HETATM   19  F   UNL     1      -6.850  17.332  69.698  1.00  0.00    -0.240 F  
ENDBRANCH   8   9
ENDBRANCH   2   8
TORSDOF 2
ENDMDL
MODEL      165
REMARK 921   NORMALIZED FREE ENERGY PREDICTED BY IDOCK:   -3.62 KCAL/MOL
REMARK 922        TOTAL FREE ENERGY PREDICTED BY IDOCK:   -4.36 KCAL/MOL
REMARK 923 INTER-LIGAND FREE ENERGY PREDICTED BY IDOCK:   -4.28 KCAL/MOL
REMARK 924 INTRA-LIGAND FREE ENERGY PREDICTED BY IDOCK:   -0.08 KCAL/MOL
REMARK 927      BINDING AFFINITY PREDICTED BY RF-SCORE:    0.00 PKD
ROOT
HETATM    1  N   UNL     1     -10.740  16.446  68.933  1.00  0.00    -0.297 NA 
HETATM    2  CA  UNL     1      -9.345  16.511  68.391  1.00  0.00    -0.221 C  
HETATM    3  H2  UNL     1     -10.938  15.513  69.296  1.00  0.00     0.000 HD 
HETATM    4  H1  UNL     1     -10.948  17.154  69.637  1.00  0.00     0.000 HD 
HETATM    5  OXT UNL     1      -8.069  18.292  67.284  1.00  0.00    -0.225 OA 
HETATM    6  C   UNL     1      -9.084  17.930  67.858  1.00  0.00    -0.260 C  
HETATM    7  O   UNL     1     -10.133  18.754  68.114  1.00  0.00    -0.344 OA 
ENDROOT
BRANCH   2   8
HETATM    8  C   UNL     1      -9.031  15.442  67.329  1.00  0.00    -0.213 C  
BRANCH   8   9
HETATM    9  C   UNL     1      -9.681  14.095  67.558  1.00  0.00    -0.234 A  
HETATM   10  C   UNL     1      -9.006  13.092  68.273  1.00  0.00    -0.177 A  
HETATM   11  C   UNL     1      -9.602  11.845  68.436  1.00  0.00    -0.196 A  
HETATM   12  C   UNL     1     -10.862  11.588  67.902  1.00  0.00    -0.210 A  
HETATM   13  O   UNL     1      -8.978  10.832  69.110  1.00  0.00    -0.271 OA 
HETATM   14  H   UNL     1      -9.385   9.981  69.221  1.00  0.00     0.000 HD 
HETATM   15  O   UNL     1     -11.427  10.355  68.055  1.00  0.00    -0.551 OA 
HETATM   16  C   UNL     1     -11.550  12.566  67.203  1.00  0.00    -0.437 A  
HETATM   17  C   UNL     1     -10.952  13.811  67.037  1.00  0.00    -0.290 A  
HETATM   18  H   UNL     1     -12.287  10.179  67.691  1.00  0.00     0.000 HD 
HETATM   19  F   UNL     1     -11.596  14.750  66.327  1.00  0.00    -0.356 F  
ENDBRANCH   8   9
ENDBRANCH   2   8
TORSDOF 2
ENDMDL
MODEL      166
REMARK 921   NORMALIZED FREE ENERGY PREDICTED BY IDOCK:   -3.62 KCAL/MOL
REMARK 922        TOTAL FREE ENERGY PREDICTED BY IDOCK:   -4.36 KCAL/MOL
REMARK 923 INTER-LIGAND FREE ENERGY PREDICTED BY IDOCK:   -4.14 KCAL/MOL
REMARK 924 INTRA-LIGAND FREE ENERGY PREDICTED BY IDOCK:   -0.21 KCAL/MOL
REMARK 927      BINDING AFFINITY PREDICTED BY RF-SCORE:    0.00 PKD
ROOT
HETATM    1  N   UNL     1     -11.439   4.361  64.972  1.00  0.00    -1.079 NA 
HETATM    2  CA  UNL     1     -10.115   4.705  65.583  1.00  0.00    -0.218 C  
HETATM    3  H2  UNL     1     -12.198   4.796  65.495  1.00  0.00     0.000 HD 
HETATM    4  H1  UNL     1     -11.513   4.589  63.980  1.00  0.00     0.000 HD 
HETATM    5  OXT UNL     1      -7.810   4.057  65.043  1.00  0.00    -0.087 OA 
HETATM    6  C   UNL     1      -8.999   4.034  64.765  1.00  0.00    -0.135 C  
HETATM    7  O   UNL     1      -9.498   3.410  63.667  1.00  0.00    -0.112 OA 
ENDROOT
BRANCH   2   8
HETATM    8  C   UNL     1     -10.004   4.361  67.079  1.00  0.00    -0.197 C  
BRANCH   8   9
HETATM    9  C   UNL     1     -10.328   5.494  68.028  1.00  0.00    -0.237 A  
HETATM   10  C   UNL     1     -10.598   6.781  67.534  1.00  0.00    -0.348 A  
HETATM   11  C   UNL     1     -10.852   7.819  68.424  1.00  0.00     0.065 A  
HETATM   12  C   UNL     1     -10.848   7.591  69.798  1.00  0.00    -0.225 A  
HETATM   13  O   UNL     1     -11.102   9.092  67.992  1.00  0.00    -0.495 OA 
HETATM   14  H   UNL     1     -11.276   9.801  68.600  1.00  0.00     0.000 HD 
HETATM   15  O   UNL     1     -11.081   8.623  70.660  1.00  0.00    -0.242 OA 
HETATM   16  C   UNL     1     -10.596   6.327  70.307  1.00  0.00    -0.305 A  
HETATM   17  C   UNL     1     -10.338   5.290  69.416  1.00  0.00    -0.243 A  
HETATM   18  H   UNL     1     -11.079   8.467  71.597  1.00  0.00     0.000 HD 
HETATM   19  F   UNL     1     -10.055   4.073  69.904  1.00  0.00    -0.286 F  
ENDBRANCH   8   9
ENDBRANCH   2   8
TORSDOF 2
ENDMDL
MODEL      167
REMARK 921   NORMALIZED FREE ENERGY PREDICTED BY IDOCK:   -3.61 KCAL/MOL
REMARK 922        TOTAL FREE ENERGY PREDICTED BY IDOCK:   -4.34 KCAL/MOL
REMARK 923 INTER-LIGAND FREE ENERGY PREDICTED BY IDOCK:   -4.42 KCAL/MOL
REMARK 924 INTRA-LIGAND FREE ENERGY PREDICTED BY IDOCK:    0.08 KCAL/MOL
REMARK 927      BINDING AFFINITY PREDICTED BY RF-SCORE:    0.00 PKD
ROOT
HETATM    1  N   UNL     1      -8.166  20.257  65.393  1.00  0.00    -0.406 NA 
HETATM    2  CA  UNL     1      -7.127  20.145  66.466  1.00  0.00    -0.251 C  
HETATM    3  H2  UNL     1      -8.787  21.044  65.579  1.00  0.00     0.000 HD 
HETATM    4  H1  UNL     1      -7.787  20.317  64.449  1.00  0.00     0.000 HD 
HETATM    5  OXT UNL     1      -5.309  18.544  66.866  1.00  0.00    -0.130 OA 
HETATM    6  C   UNL     1      -6.211  18.951  66.149  1.00  0.00    -0.187 C  
HETATM    7  O   UNL     1      -6.520  18.396  64.949  1.00  0.00    -0.419 OA 
ENDROOT
BRANCH   2   8
HETATM    8  C   UNL     1      -7.700  20.054  67.892  1.00  0.00    -0.315 C  
BRANCH   8   9
HETATM    9  C   UNL     1      -8.494  18.801  68.190  1.00  0.00    -0.335 A  
HETATM   10  C   UNL     1      -7.845  17.636  68.633  1.00  0.00    -0.280 A  
HETATM   11  C   UNL     1      -8.586  16.481  68.860  1.00  0.00    -0.241 A  
HETATM   12  C   UNL     1      -9.965  16.474  68.659  1.00  0.00    -0.248 A  
HETATM   13  O   UNL     1      -7.998  15.319  69.274  1.00  0.00    -0.193 OA 
HETATM   14  H   UNL     1      -8.504  14.530  69.430  1.00  0.00     0.000 HD 
HETATM   15  O   UNL     1     -10.676  15.329  68.870  1.00  0.00    -0.229 OA 
HETATM   16  C   UNL     1     -10.627  17.614  68.235  1.00  0.00    -0.342 A  
HETATM   17  C   UNL     1      -9.884  18.768  68.003  1.00  0.00    -0.343 A  
HETATM   18  H   UNL     1     -11.616  15.323  68.733  1.00  0.00     0.000 HD 
HETATM   19  F   UNL     1     -10.513  19.864  67.554  1.00  0.00    -0.500 F  
ENDBRANCH   8   9
ENDBRANCH   2   8
TORSDOF 2
ENDMDL
MODEL      168
REMARK 921   NORMALIZED FREE ENERGY PREDICTED BY IDOCK:   -3.61 KCAL/MOL
REMARK 922        TOTAL FREE ENERGY PREDICTED BY IDOCK:   -4.34 KCAL/MOL
REMARK 923 INTER-LIGAND FREE ENERGY PREDICTED BY IDOCK:   -4.07 KCAL/MOL
REMARK 924 INTRA-LIGAND FREE ENERGY PREDICTED BY IDOCK:   -0.27 KCAL/MOL
REMARK 927      BINDING AFFINITY PREDICTED BY RF-SCORE:    0.00 PKD
ROOT
HETATM    1  N   UNL     1     -10.136   9.008  66.046  1.00  0.00    -0.394 NA 
HETATM    2  CA  UNL     1      -9.942   9.868  67.257  1.00  0.00    -0.196 C  
HETATM    3  H2  UNL     1     -10.417   9.575  65.246  1.00  0.00     0.000 HD 
HETATM    4  H1  UNL     1      -9.329   8.432  65.809  1.00  0.00     0.000 HD 
HETATM    5  OXT UNL     1      -9.351   9.361  69.585  1.00  0.00    -0.166 OA 
HETATM    6  C   UNL     1      -9.517   8.978  68.437  1.00  0.00    -0.146 C  
HETATM    7  O   UNL     1      -9.334   7.691  68.044  1.00  0.00    -0.140 OA 
ENDROOT
BRANCH   2   8
HETATM    8  C   UNL     1     -11.160  10.738  67.615  1.00  0.00    -0.384 C  
BRANCH   8   9
HETATM    9  C   UNL     1     -11.056  12.192  67.211  1.00  0.00    -0.341 A  
HETATM   10  C   UNL     1     -10.538  13.144  68.105  1.00  0.00    -0.257 A  
HETATM   11  C   UNL     1     -10.490  14.483  67.732  1.00  0.00    -0.242 A  
HETATM   12  C   UNL     1     -10.943  14.885  66.478  1.00  0.00    -0.327 A  
HETATM   13  O   UNL     1     -10.012  15.448  68.575  1.00  0.00    -0.206 OA 
HETATM   14  H   UNL     1      -9.979  16.363  68.319  1.00  0.00     0.000 HD 
HETATM   15  O   UNL     1     -10.906  16.205  66.132  1.00  0.00    -0.255 OA 
HETATM   16  C   UNL     1     -11.446  13.962  65.575  1.00  0.00    -0.319 A  
HETATM   17  C   UNL     1     -11.498  12.624  65.951  1.00  0.00    -0.363 A  
HETATM   18  H   UNL     1     -11.215  16.479  65.276  1.00  0.00     0.000 HD 
HETATM   19  F   UNL     1     -12.020  11.730  65.097  1.00  0.00    -0.333 F  
ENDBRANCH   8   9
ENDBRANCH   2   8
TORSDOF 2
ENDMDL
MODEL      169
REMARK 921   NORMALIZED FREE ENERGY PREDICTED BY IDOCK:   -3.60 KCAL/MOL
REMARK 922        TOTAL FREE ENERGY PREDICTED BY IDOCK:   -4.33 KCAL/MOL
REMARK 923 INTER-LIGAND FREE ENERGY PREDICTED BY IDOCK:   -4.23 KCAL/MOL
REMARK 924 INTRA-LIGAND FREE ENERGY PREDICTED BY IDOCK:   -0.10 KCAL/MOL
REMARK 927      BINDING AFFINITY PREDICTED BY RF-SCORE:    0.00 PKD
ROOT
HETATM    1  N   UNL     1     -13.288   8.801  72.972  1.00  0.00    -0.903 NA 
HETATM    2  CA  UNL     1     -12.464   8.603  71.737  1.00  0.00    -0.346 C  
HETATM    3  H2  UNL     1     -13.179   9.752  73.325  1.00  0.00     0.000 HD 
HETATM    4  H1  UNL     1     -14.276   8.576  72.855  1.00  0.00     0.000 HD 
HETATM    5  OXT UNL     1     -12.069   6.659  70.291  1.00  0.00    -0.350 OA 
HETATM    6  C   UNL     1     -12.658   7.162  71.234  1.00  0.00    -0.380 C  
HETATM    7  O   UNL     1     -13.590   6.503  71.971  1.00  0.00    -0.105 OA 
ENDROOT
BRANCH   2   8
HETATM    8  C   UNL     1     -10.973   8.943  71.913  1.00  0.00    -0.439 C  
BRANCH   8   9
HETATM    9  C   UNL     1     -10.246   9.333  70.645  1.00  0.00    -0.335 A  
HETATM   10  C   UNL     1      -9.229   8.515  70.127  1.00  0.00    -0.159 A  
HETATM   11  C   UNL     1      -8.543   8.911  68.984  1.00  0.00    -0.138 A  
HETATM   12  C   UNL     1      -8.861  10.109  68.347  1.00  0.00    -0.123 A  
HETATM   13  O   UNL     1      -7.533   8.157  68.452  1.00  0.00    -0.095 OA 
HETATM   14  H   UNL     1      -7.065   8.429  67.672  1.00  0.00     0.000 HD 
HETATM   15  O   UNL     1      -8.168  10.493  67.236  1.00  0.00    -0.117 OA 
HETATM   16  C   UNL     1      -9.869  10.926  68.833  1.00  0.00    -0.203 A  
HETATM   17  C   UNL     1     -10.552  10.530  69.979  1.00  0.00    -0.169 A  
HETATM   18  H   UNL     1      -8.385  11.310  66.802  1.00  0.00     0.000 HD 
HETATM   19  F   UNL     1     -11.501  11.335  70.478  1.00  0.00    -0.370 F  
ENDBRANCH   8   9
ENDBRANCH   2   8
TORSDOF 2
ENDMDL
MODEL      170
REMARK 921   NORMALIZED FREE ENERGY PREDICTED BY IDOCK:   -3.59 KCAL/MOL
REMARK 922        TOTAL FREE ENERGY PREDICTED BY IDOCK:   -4.32 KCAL/MOL
REMARK 923 INTER-LIGAND FREE ENERGY PREDICTED BY IDOCK:   -4.07 KCAL/MOL
REMARK 924 INTRA-LIGAND FREE ENERGY PREDICTED BY IDOCK:   -0.25 KCAL/MOL
REMARK 927      BINDING AFFINITY PREDICTED BY RF-SCORE:    0.00 PKD
ROOT
HETATM    1  N   UNL     1     -11.150   9.285  68.416  1.00  0.00    -0.474 NA 
HETATM    2  CA  UNL     1     -10.611  10.214  67.372  1.00  0.00    -0.272 C  
HETATM    3  H2  UNL     1     -11.598   9.813  69.166  1.00  0.00     0.000 HD 
HETATM    4  H1  UNL     1     -11.784   8.573  68.055  1.00  0.00     0.000 HD 
HETATM    5  OXT UNL     1      -9.348   9.839  65.300  1.00  0.00    -0.217 OA 
HETATM    6  C   UNL     1      -9.948   9.382  66.260  1.00  0.00    -0.283 C  
HETATM    7  O   UNL     1     -10.122   8.051  66.470  1.00  0.00    -0.260 OA 
ENDROOT
BRANCH   2   8
HETATM    8  C   UNL     1      -9.655  11.290  67.917  1.00  0.00    -0.182 C  
BRANCH   8   9
HETATM    9  C   UNL     1      -9.806  12.661  67.297  1.00  0.00    -0.206 A  
HETATM   10  C   UNL     1     -11.056  13.095  66.824  1.00  0.00    -0.314 A  
HETATM   11  C   UNL     1     -11.167  14.342  66.218  1.00  0.00    -0.337 A  
HETATM   12  C   UNL     1     -10.051  15.165  66.084  1.00  0.00    -0.295 A  
HETATM   13  O   UNL     1     -12.357  14.800  65.726  1.00  0.00    -0.171 OA 
HETATM   14  H   UNL     1     -12.433  15.652  65.312  1.00  0.00     0.000 HD 
HETATM   15  O   UNL     1     -10.171  16.379  65.472  1.00  0.00    -0.496 OA 
HETATM   16  C   UNL     1      -8.811  14.763  66.554  1.00  0.00    -0.223 A  
HETATM   17  C   UNL     1      -8.701  13.514  67.156  1.00  0.00    -0.215 A  
HETATM   18  H   UNL     1      -9.410  16.940  65.380  1.00  0.00     0.000 HD 
HETATM   19  F   UNL     1      -7.496  13.102  67.578  1.00  0.00    -0.122 F  
ENDBRANCH   8   9
ENDBRANCH   2   8
TORSDOF 2
ENDMDL
MODEL      171
REMARK 921   NORMALIZED FREE ENERGY PREDICTED BY IDOCK:   -3.59 KCAL/MOL
REMARK 922        TOTAL FREE ENERGY PREDICTED BY IDOCK:   -4.32 KCAL/MOL
REMARK 923 INTER-LIGAND FREE ENERGY PREDICTED BY IDOCK:   -4.07 KCAL/MOL
REMARK 924 INTRA-LIGAND FREE ENERGY PREDICTED BY IDOCK:   -0.25 KCAL/MOL
REMARK 927      BINDING AFFINITY PREDICTED BY RF-SCORE:    0.00 PKD
ROOT
HETATM    1  N   UNL     1     -10.325   5.717  66.164  1.00  0.00    -0.439 NA 
HETATM    2  CA  UNL     1      -9.502   5.890  67.403  1.00  0.00    -0.111 C  
HETATM    3  H2  UNL     1     -11.318   5.810  66.379  1.00  0.00     0.000 HD 
HETATM    4  H1  UNL     1     -10.067   6.341  65.400  1.00  0.00     0.000 HD 
HETATM    5  OXT UNL     1      -7.089   5.762  67.833  1.00  0.00    -0.068 OA 
HETATM    6  C   UNL     1      -8.015   5.747  67.038  1.00  0.00    -0.102 C  
HETATM    7  O   UNL     1      -7.847   5.610  65.696  1.00  0.00    -0.093 OA 
ENDROOT
BRANCH   2   8
HETATM    8  C   UNL     1      -9.893   4.949  68.557  1.00  0.00    -0.208 C  
BRANCH   8   9
HETATM    9  C   UNL     1     -10.421   5.634  69.798  1.00  0.00    -0.377 A  
HETATM   10  C   UNL     1     -11.592   6.406  69.741  1.00  0.00    -0.397 A  
HETATM   11  C   UNL     1     -12.038   7.064  70.883  1.00  0.00    -0.357 A  
HETATM   12  C   UNL     1     -11.337   6.955  72.081  1.00  0.00    -0.265 A  
HETATM   13  O   UNL     1     -13.163   7.841  70.873  1.00  0.00    -0.549 OA 
HETATM   14  H   UNL     1     -13.467   8.290  71.653  1.00  0.00     0.000 HD 
HETATM   15  O   UNL     1     -11.776   7.620  73.189  1.00  0.00    -0.615 OA 
HETATM   16  C   UNL     1     -10.185   6.189  72.164  1.00  0.00    -0.213 A  
HETATM   17  C   UNL     1      -9.738   5.535  71.020  1.00  0.00    -0.175 A  
HETATM   18  H   UNL     1     -11.298   7.546  74.007  1.00  0.00     0.000 HD 
HETATM   19  F   UNL     1      -8.603   4.824  71.083  1.00  0.00    -0.103 F  
ENDBRANCH   8   9
ENDBRANCH   2   8
TORSDOF 2
ENDMDL
MODEL      172
REMARK 921   NORMALIZED FREE ENERGY PREDICTED BY IDOCK:   -3.59 KCAL/MOL
REMARK 922        TOTAL FREE ENERGY PREDICTED BY IDOCK:   -4.32 KCAL/MOL
REMARK 923 INTER-LIGAND FREE ENERGY PREDICTED BY IDOCK:   -4.02 KCAL/MOL
REMARK 924 INTRA-LIGAND FREE ENERGY PREDICTED BY IDOCK:   -0.29 KCAL/MOL
REMARK 927      BINDING AFFINITY PREDICTED BY RF-SCORE:    0.00 PKD
ROOT
HETATM    1  N   UNL     1     -11.876   8.314  70.546  1.00  0.00    -0.480 NA 
HETATM    2  CA  UNL     1     -10.717   8.661  69.664  1.00  0.00    -0.200 C  
HETATM    3  H2  UNL     1     -12.585   9.046  70.508  1.00  0.00     0.000 HD 
HETATM    4  H1  UNL     1     -12.293   7.404  70.349  1.00  0.00     0.000 HD 
HETATM    5  OXT UNL     1      -8.580   7.545  69.202  1.00  0.00    -0.134 OA 
HETATM    6  C   UNL     1      -9.673   7.534  69.745  1.00  0.00    -0.171 C  
HETATM    7  O   UNL     1     -10.124   6.497  70.499  1.00  0.00    -0.182 OA 
ENDROOT
BRANCH   2   8
HETATM    8  C   UNL     1     -10.088  10.035  69.960  1.00  0.00    -0.289 C  
BRANCH   8   9
HETATM    9  C   UNL     1      -9.944  10.950  68.763  1.00  0.00    -0.203 A  
HETATM   10  C   UNL     1      -8.683  11.180  68.190  1.00  0.00    -0.144 A  
HETATM   11  C   UNL     1      -8.564  12.058  67.118  1.00  0.00    -0.182 A  
HETATM   12  C   UNL     1      -9.686  12.704  66.606  1.00  0.00    -0.249 A  
HETATM   13  O   UNL     1      -7.355  12.327  66.539  1.00  0.00    -0.364 OA 
HETATM   14  H   UNL     1      -7.275  12.926  65.806  1.00  0.00     0.000 HD 
HETATM   15  O   UNL     1      -9.553  13.576  65.564  1.00  0.00    -0.499 OA 
HETATM   16  C   UNL     1     -10.942  12.483  67.147  1.00  0.00    -0.302 A  
HETATM   17  C   UNL     1     -11.059  11.608  68.222  1.00  0.00    -0.234 A  
HETATM   18  H   UNL     1     -10.318  14.017  65.214  1.00  0.00     0.000 HD 
HETATM   19  F   UNL     1     -12.266  11.420  68.777  1.00  0.00    -0.390 F  
ENDBRANCH   8   9
ENDBRANCH   2   8
TORSDOF 2
ENDMDL
MODEL      173
REMARK 921   NORMALIZED FREE ENERGY PREDICTED BY IDOCK:   -3.57 KCAL/MOL
REMARK 922        TOTAL FREE ENERGY PREDICTED BY IDOCK:   -4.30 KCAL/MOL
REMARK 923 INTER-LIGAND FREE ENERGY PREDICTED BY IDOCK:   -4.09 KCAL/MOL
REMARK 924 INTRA-LIGAND FREE ENERGY PREDICTED BY IDOCK:   -0.21 KCAL/MOL
REMARK 927      BINDING AFFINITY PREDICTED BY RF-SCORE:    0.00 PKD
ROOT
HETATM    1  N   UNL     1     -10.988  10.378  70.462  1.00  0.00    -0.418 NA 
HETATM    2  CA  UNL     1     -10.755   9.928  69.052  1.00  0.00    -0.222 C  
HETATM    3  H2  UNL     1     -11.957  10.668  70.588  1.00  0.00     0.000 HD 
HETATM    4  H1  UNL     1     -10.727   9.689  71.167  1.00  0.00     0.000 HD 
HETATM    5  OXT UNL     1      -8.757   9.147  67.859  1.00  0.00    -0.128 OA 
HETATM    6  C   UNL     1      -9.287   9.496  68.902  1.00  0.00    -0.149 C  
HETATM    7  O   UNL     1      -8.636   9.537  70.094  1.00  0.00    -0.189 OA 
ENDROOT
BRANCH   2   8
HETATM    8  C   UNL     1     -11.150  10.966  67.986  1.00  0.00    -0.351 C  
BRANCH   8   9
HETATM    9  C   UNL     1     -10.963  12.412  68.393  1.00  0.00    -0.272 A  
HETATM   10  C   UNL     1     -12.022  13.131  68.971  1.00  0.00    -0.329 A  
HETATM   11  C   UNL     1     -11.845  14.471  69.299  1.00  0.00    -0.323 A  
HETATM   12  C   UNL     1     -10.625  15.101  69.065  1.00  0.00    -0.245 A  
HETATM   13  O   UNL     1     -12.851  15.216  69.848  1.00  0.00    -0.606 OA 
HETATM   14  H   UNL     1     -12.729  16.132  70.072  1.00  0.00     0.000 HD 
HETATM   15  O   UNL     1     -10.471  16.421  69.375  1.00  0.00    -0.272 OA 
HETATM   16  C   UNL     1      -9.563  14.408  68.506  1.00  0.00    -0.217 A  
HETATM   17  C   UNL     1      -9.743  13.069  68.174  1.00  0.00    -0.228 A  
HETATM   18  H   UNL     1      -9.639  16.851  69.216  1.00  0.00     0.000 HD 
HETATM   19  F   UNL     1      -8.732  12.403  67.597  1.00  0.00    -0.148 F  
ENDBRANCH   8   9
ENDBRANCH   2   8
TORSDOF 2
ENDMDL
MODEL      174
REMARK 921   NORMALIZED FREE ENERGY PREDICTED BY IDOCK:   -3.57 KCAL/MOL
REMARK 922        TOTAL FREE ENERGY PREDICTED BY IDOCK:   -4.30 KCAL/MOL
REMARK 923 INTER-LIGAND FREE ENERGY PREDICTED BY IDOCK:   -4.25 KCAL/MOL
REMARK 924 INTRA-LIGAND FREE ENERGY PREDICTED BY IDOCK:   -0.05 KCAL/MOL
REMARK 927      BINDING AFFINITY PREDICTED BY RF-SCORE:    0.00 PKD
ROOT
HETATM    1  N   UNL     1     -10.452   9.322  68.263  1.00  0.00    -0.225 NA 
HETATM    2  CA  UNL     1     -10.465  10.410  67.233  1.00  0.00    -0.252 C  
HETATM    3  H2  UNL     1     -10.812   9.668  69.152  1.00  0.00     0.000 HD 
HETATM    4  H1  UNL     1     -10.947   8.476  67.982  1.00  0.00     0.000 HD 
HETATM    5  OXT UNL     1      -9.730  10.499  64.893  1.00  0.00    -0.248 OA 
HETATM    6  C   UNL     1      -9.919   9.849  65.909  1.00  0.00    -0.277 C  
HETATM    7  O   UNL     1      -9.676   8.516  66.000  1.00  0.00    -0.222 OA 
ENDROOT
BRANCH   2   8
HETATM    8  C   UNL     1      -9.717  11.687  67.656  1.00  0.00    -0.186 C  
BRANCH   8   9
HETATM    9  C   UNL     1     -10.536  12.680  68.452  1.00  0.00    -0.258 A  
HETATM   10  C   UNL     1     -11.304  12.253  69.548  1.00  0.00    -0.258 A  
HETATM   11  C   UNL     1     -12.084  13.173  70.241  1.00  0.00    -0.328 A  
HETATM   12  C   UNL     1     -12.103  14.513  69.861  1.00  0.00    -0.336 A  
HETATM   13  O   UNL     1     -12.861  12.802  71.303  1.00  0.00    -0.359 OA 
HETATM   14  H   UNL     1     -13.393  13.431  71.776  1.00  0.00     0.000 HD 
HETATM   15  O   UNL     1     -12.886  15.401  70.539  1.00  0.00    -0.522 OA 
HETATM   16  C   UNL     1     -11.344  14.959  68.790  1.00  0.00    -0.304 A  
HETATM   17  C   UNL     1     -10.568  14.037  68.095  1.00  0.00    -0.248 A  
HETATM   18  H   UNL     1     -12.899  16.315  70.280  1.00  0.00     0.000 HD 
HETATM   19  F   UNL     1      -9.862  14.454  67.034  1.00  0.00    -0.233 F  
ENDBRANCH   8   9
ENDBRANCH   2   8
TORSDOF 2
ENDMDL
MODEL      175
REMARK 921   NORMALIZED FREE ENERGY PREDICTED BY IDOCK:   -3.55 KCAL/MOL
REMARK 922        TOTAL FREE ENERGY PREDICTED BY IDOCK:   -4.28 KCAL/MOL
REMARK 923 INTER-LIGAND FREE ENERGY PREDICTED BY IDOCK:   -3.98 KCAL/MOL
REMARK 924 INTRA-LIGAND FREE ENERGY PREDICTED BY IDOCK:   -0.29 KCAL/MOL
REMARK 927      BINDING AFFINITY PREDICTED BY RF-SCORE:    0.00 PKD
ROOT
HETATM    1  N   UNL     1      -7.819  16.745  69.010  1.00  0.00    -0.231 NA 
HETATM    2  CA  UNL     1      -8.948  16.400  68.087  1.00  0.00    -0.197 C  
HETATM    3  H2  UNL     1      -7.337  15.899  69.315  1.00  0.00     0.000 HD 
HETATM    4  H1  UNL     1      -7.154  17.415  68.624  1.00  0.00     0.000 HD 
HETATM    5  OXT UNL     1     -10.649  17.760  66.954  1.00  0.00    -0.323 OA 
HETATM    6  C   UNL     1      -9.646  17.699  67.648  1.00  0.00    -0.268 C  
HETATM    7  O   UNL     1      -8.996  18.794  68.122  1.00  0.00    -0.291 OA 
ENDROOT
BRANCH   2   8
HETATM    8  C   UNL     1      -9.952  15.389  68.669  1.00  0.00    -0.210 C  
BRANCH   8   9
HETATM    9  C   UNL     1     -10.142  14.128  67.855  1.00  0.00    -0.235 A  
HETATM   10  C   UNL     1     -11.307  13.943  67.091  1.00  0.00    -0.346 A  
HETATM   11  C   UNL     1     -11.484  12.758  66.384  1.00  0.00    -0.357 A  
HETATM   12  C   UNL     1     -10.513  11.760  66.421  1.00  0.00    -0.235 A  
HETATM   13  O   UNL     1     -12.607  12.525  65.641  1.00  0.00    -0.612 OA 
HETATM   14  H   UNL     1     -12.728  11.716  65.158  1.00  0.00     0.000 HD 
HETATM   15  O   UNL     1     -10.708  10.596  65.736  1.00  0.00    -0.149 OA 
HETATM   16  C   UNL     1      -9.351  11.926  67.158  1.00  0.00    -0.180 A  
HETATM   17  C   UNL     1      -9.178  13.109  67.869  1.00  0.00    -0.207 A  
HETATM   18  H   UNL     1     -10.045   9.915  65.761  1.00  0.00     0.000 HD 
HETATM   19  F   UNL     1      -8.074  13.261  68.616  1.00  0.00    -0.143 F  
ENDBRANCH   8   9
ENDBRANCH   2   8
TORSDOF 2
ENDMDL
MODEL      176
REMARK 921   NORMALIZED FREE ENERGY PREDICTED BY IDOCK:   -3.54 KCAL/MOL
REMARK 922        TOTAL FREE ENERGY PREDICTED BY IDOCK:   -4.27 KCAL/MOL
REMARK 923 INTER-LIGAND FREE ENERGY PREDICTED BY IDOCK:   -4.07 KCAL/MOL
REMARK 924 INTRA-LIGAND FREE ENERGY PREDICTED BY IDOCK:   -0.20 KCAL/MOL
REMARK 927      BINDING AFFINITY PREDICTED BY RF-SCORE:    0.00 PKD
ROOT
HETATM    1  N   UNL     1     -12.159  10.985  67.870  1.00  0.00    -0.627 NA 
HETATM    2  CA  UNL     1     -10.778  11.166  67.317  1.00  0.00    -0.258 C  
HETATM    3  H2  UNL     1     -12.120  10.545  68.789  1.00  0.00     0.000 HD 
HETATM    4  H1  UNL     1     -12.709  11.842  67.907  1.00  0.00     0.000 HD 
HETATM    5  OXT UNL     1      -9.937  12.052  65.188  1.00  0.00    -0.252 OA 
HETATM    6  C   UNL     1     -10.878  11.833  65.935  1.00  0.00    -0.291 C  
HETATM    7  O   UNL     1     -12.161  12.168  65.640  1.00  0.00    -0.545 OA 
ENDROOT
BRANCH   2   8
HETATM    8  C   UNL     1      -9.946   9.872  67.261  1.00  0.00    -0.245 C  
BRANCH   8   9
HETATM    9  C   UNL     1      -9.862   9.102  68.561  1.00  0.00    -0.178 A  
HETATM   10  C   UNL     1     -10.601   7.921  68.738  1.00  0.00    -0.154 A  
HETATM   11  C   UNL     1     -10.543   7.250  69.955  1.00  0.00    -0.233 A  
HETATM   12  C   UNL     1      -9.754   7.737  70.995  1.00  0.00    -0.163 A  
HETATM   13  O   UNL     1     -11.258   6.107  70.181  1.00  0.00    -0.351 OA 
HETATM   14  H   UNL     1     -11.218   5.649  71.013  1.00  0.00     0.000 HD 
HETATM   15  O   UNL     1      -9.721   7.078  72.189  1.00  0.00    -0.149 OA 
HETATM   16  C   UNL     1      -9.008   8.894  70.838  1.00  0.00    -0.273 A  
HETATM   17  C   UNL     1      -9.069   9.566  69.622  1.00  0.00    -0.196 A  
HETATM   18  H   UNL     1      -9.183   7.410  72.898  1.00  0.00     0.000 HD 
HETATM   19  F   UNL     1      -8.380  10.708  69.477  1.00  0.00    -0.157 F  
ENDBRANCH   8   9
ENDBRANCH   2   8
TORSDOF 2
ENDMDL
MODEL      177
REMARK 921   NORMALIZED FREE ENERGY PREDICTED BY IDOCK:   -3.54 KCAL/MOL
REMARK 922        TOTAL FREE ENERGY PREDICTED BY IDOCK:   -4.27 KCAL/MOL
REMARK 923 INTER-LIGAND FREE ENERGY PREDICTED BY IDOCK:   -4.01 KCAL/MOL
REMARK 924 INTRA-LIGAND FREE ENERGY PREDICTED BY IDOCK:   -0.26 KCAL/MOL
REMARK 927      BINDING AFFINITY PREDICTED BY RF-SCORE:    0.00 PKD
ROOT
HETATM    1  N   UNL     1     -11.884  10.882  67.879  1.00  0.00    -0.735 NA 
HETATM    2  CA  UNL     1     -10.614  10.310  68.431  1.00  0.00    -0.216 C  
HETATM    3  H2  UNL     1     -12.688  10.535  68.401  1.00  0.00     0.000 HD 
HETATM    4  H1  UNL     1     -11.899  11.901  67.837  1.00  0.00     0.000 HD 
HETATM    5  OXT UNL     1      -8.260  10.530  67.769  1.00  0.00    -0.107 OA 
HETATM    6  C   UNL     1      -9.427  10.859  67.621  1.00  0.00    -0.159 C  
HETATM    7  O   UNL     1      -9.835  11.779  66.709  1.00  0.00    -0.194 OA 
ENDROOT
BRANCH   2   8
HETATM    8  C   UNL     1     -10.591   8.772  68.495  1.00  0.00    -0.171 C  
BRANCH   8   9
HETATM    9  C   UNL     1     -10.369   8.187  69.873  1.00  0.00    -0.214 A  
HETATM   10  C   UNL     1      -9.484   8.802  70.773  1.00  0.00    -0.253 A  
HETATM   11  C   UNL     1      -9.260   8.226  72.019  1.00  0.00    -0.204 A  
HETATM   12  C   UNL     1      -9.912   7.050  72.382  1.00  0.00    -0.165 A  
HETATM   13  O   UNL     1      -8.394   8.778  72.922  1.00  0.00    -0.414 OA 
HETATM   14  H   UNL     1      -8.242   8.384  73.773  1.00  0.00     0.000 HD 
HETATM   15  O   UNL     1      -9.670   6.487  73.602  1.00  0.00    -0.162 OA 
HETATM   16  C   UNL     1     -10.799   6.433  71.515  1.00  0.00    -0.299 A  
HETATM   17  C   UNL     1     -11.019   7.008  70.267  1.00  0.00    -0.271 A  
HETATM   18  H   UNL     1     -10.115   5.685  73.849  1.00  0.00     0.000 HD 
HETATM   19  F   UNL     1     -11.846   6.394  69.408  1.00  0.00    -0.446 F  
ENDBRANCH   8   9
ENDBRANCH   2   8
TORSDOF 2
ENDMDL
MODEL      178
REMARK 921   NORMALIZED FREE ENERGY PREDICTED BY IDOCK:   -3.53 KCAL/MOL
REMARK 922        TOTAL FREE ENERGY PREDICTED BY IDOCK:   -4.26 KCAL/MOL
REMARK 923 INTER-LIGAND FREE ENERGY PREDICTED BY IDOCK:   -4.09 KCAL/MOL
REMARK 924 INTRA-LIGAND FREE ENERGY PREDICTED BY IDOCK:   -0.17 KCAL/MOL
REMARK 927      BINDING AFFINITY PREDICTED BY RF-SCORE:    0.00 PKD
ROOT
HETATM    1  N   UNL     1      -7.781  17.367  65.887  1.00  0.00    -0.511 NA 
HETATM    2  CA  UNL     1      -7.939  16.977  67.324  1.00  0.00    -0.174 C  
HETATM    3  H2  UNL     1      -8.376  16.789  65.293  1.00  0.00     0.000 HD 
HETATM    4  H1  UNL     1      -7.947  18.356  65.702  1.00  0.00     0.000 HD 
HETATM    5  OXT UNL     1      -6.871  17.761  69.391  1.00  0.00    -0.230 OA 
HETATM    6  C   UNL     1      -7.031  17.871  68.186  1.00  0.00    -0.218 C  
HETATM    7  O   UNL     1      -6.423  18.826  67.435  1.00  0.00    -0.191 OA 
ENDROOT
BRANCH   2   8
HETATM    8  C   UNL     1      -7.690  15.484  67.604  1.00  0.00    -0.178 C  
BRANCH   8   9
HETATM    9  C   UNL     1      -8.825  14.558  67.225  1.00  0.00    -0.221 A  
HETATM   10  C   UNL     1     -10.130  15.055  67.078  1.00  0.00    -0.244 A  
HETATM   11  C   UNL     1     -11.168  14.181  66.772  1.00  0.00    -0.323 A  
HETATM   12  C   UNL     1     -10.921  12.821  66.602  1.00  0.00    -0.270 A  
HETATM   13  O   UNL     1     -12.458  14.615  66.637  1.00  0.00    -0.412 OA 
HETATM   14  H   UNL     1     -13.166  14.018  66.427  1.00  0.00     0.000 HD 
HETATM   15  O   UNL     1     -11.952  11.973  66.318  1.00  0.00    -0.596 OA 
HETATM   16  C   UNL     1      -9.639  12.311  66.729  1.00  0.00    -0.220 A  
HETATM   17  C   UNL     1      -8.603  13.185  67.040  1.00  0.00    -0.162 A  
HETATM   18  H   UNL     1     -11.783  11.045  66.201  1.00  0.00     0.000 HD 
HETATM   19  F   UNL     1      -7.366  12.691  67.204  1.00  0.00    -0.141 F  
ENDBRANCH   8   9
ENDBRANCH   2   8
TORSDOF 2
ENDMDL
MODEL      179
REMARK 921   NORMALIZED FREE ENERGY PREDICTED BY IDOCK:   -3.52 KCAL/MOL
REMARK 922        TOTAL FREE ENERGY PREDICTED BY IDOCK:   -4.25 KCAL/MOL
REMARK 923 INTER-LIGAND FREE ENERGY PREDICTED BY IDOCK:   -4.04 KCAL/MOL
REMARK 924 INTRA-LIGAND FREE ENERGY PREDICTED BY IDOCK:   -0.21 KCAL/MOL
REMARK 927      BINDING AFFINITY PREDICTED BY RF-SCORE:    0.00 PKD
ROOT
HETATM    1  N   UNL     1      -9.698  12.669  68.694  1.00  0.00    -0.404 NA 
HETATM    2  CA  UNL     1     -10.074  11.343  68.108  1.00  0.00    -0.189 C  
HETATM    3  H2  UNL     1      -9.483  12.572  69.687  1.00  0.00     0.000 HD 
HETATM    4  H1  UNL     1      -8.934  13.139  68.209  1.00  0.00     0.000 HD 
HETATM    5  OXT UNL     1     -10.795  10.656  65.865  1.00  0.00    -0.104 OA 
HETATM    6  C   UNL     1     -10.386  11.529  66.614  1.00  0.00    -0.226 C  
HETATM    7  O   UNL     1     -10.139  12.803  66.213  1.00  0.00    -0.249 OA 
ENDROOT
BRANCH   2   8
HETATM    8  C   UNL     1     -11.226  10.633  68.842  1.00  0.00    -0.333 C  
BRANCH   8   9
HETATM    9  C   UNL     1     -10.821   9.843  70.067  1.00  0.00    -0.339 A  
HETATM   10  C   UNL     1      -9.523   9.319  70.179  1.00  0.00    -0.258 A  
HETATM   11  C   UNL     1      -9.182   8.559  71.293  1.00  0.00    -0.200 A  
HETATM   12  C   UNL     1     -10.116   8.320  72.299  1.00  0.00    -0.300 A  
HETATM   13  O   UNL     1      -7.937   8.013  71.439  1.00  0.00    -0.090 OA 
HETATM   14  H   UNL     1      -7.705   7.494  72.200  1.00  0.00     0.000 HD 
HETATM   15  O   UNL     1      -9.773   7.558  73.378  1.00  0.00    -0.240 OA 
HETATM   16  C   UNL     1     -11.398   8.837  72.215  1.00  0.00    -0.356 A  
HETATM   17  C   UNL     1     -11.739   9.594  71.099  1.00  0.00    -0.372 A  
HETATM   18  H   UNL     1     -10.409   7.396  74.065  1.00  0.00     0.000 HD 
HETATM   19  F   UNL     1     -12.991  10.064  70.992  1.00  0.00    -0.379 F  
ENDBRANCH   8   9
ENDBRANCH   2   8
TORSDOF 2
ENDMDL
MODEL      180
REMARK 921   NORMALIZED FREE ENERGY PREDICTED BY IDOCK:   -3.51 KCAL/MOL
REMARK 922        TOTAL FREE ENERGY PREDICTED BY IDOCK:   -4.24 KCAL/MOL
REMARK 923 INTER-LIGAND FREE ENERGY PREDICTED BY IDOCK:   -3.97 KCAL/MOL
REMARK 924 INTRA-LIGAND FREE ENERGY PREDICTED BY IDOCK:   -0.27 KCAL/MOL
REMARK 927      BINDING AFFINITY PREDICTED BY RF-SCORE:    0.00 PKD
ROOT
HETATM    1  N   UNL     1     -11.616   7.567  70.157  1.00  0.00    -0.488 NA 
HETATM    2  CA  UNL     1     -10.817   7.350  68.908  1.00  0.00    -0.060 C  
HETATM    3  H2  UNL     1     -12.044   8.493  70.150  1.00  0.00     0.000 HD 
HETATM    4  H1  UNL     1     -12.320   6.851  70.332  1.00  0.00     0.000 HD 
HETATM    5  OXT UNL     1      -9.424   5.488  68.123  1.00  0.00    -0.109 OA 
HETATM    6  C   UNL     1     -10.193   5.945  68.954  1.00  0.00    -0.198 C  
HETATM    7  O   UNL     1     -10.613   5.254  70.046  1.00  0.00    -0.302 OA 
ENDROOT
BRANCH   2   8
HETATM    8  C   UNL     1      -9.755   8.432  68.643  1.00  0.00    -0.171 C  
BRANCH   8   9
HETATM    9  C   UNL     1     -10.120   9.449  67.584  1.00  0.00    -0.262 A  
HETATM   10  C   UNL     1     -10.897  10.572  67.912  1.00  0.00    -0.333 A  
HETATM   11  C   UNL     1     -11.258  11.473  66.916  1.00  0.00    -0.298 A  
HETATM   12  C   UNL     1     -10.850  11.273  65.599  1.00  0.00    -0.177 A  
HETATM   13  O   UNL     1     -12.028  12.571  67.183  1.00  0.00    -0.484 OA 
HETATM   14  H   UNL     1     -12.274  13.186  66.503  1.00  0.00     0.000 HD 
HETATM   15  O   UNL     1     -11.226  12.156  64.629  1.00  0.00    -0.305 OA 
HETATM   16  C   UNL     1     -10.073  10.179  65.255  1.00  0.00    -0.344 A  
HETATM   17  C   UNL     1      -9.715   9.276  66.251  1.00  0.00    -0.271 A  
HETATM   18  H   UNL     1     -10.947  12.020  63.731  1.00  0.00     0.000 HD 
HETATM   19  F   UNL     1      -8.997   8.194  65.917  1.00  0.00    -0.170 F  
ENDBRANCH   8   9
ENDBRANCH   2   8
TORSDOF 2
ENDMDL
MODEL      181
REMARK 921   NORMALIZED FREE ENERGY PREDICTED BY IDOCK:   -3.51 KCAL/MOL
REMARK 922        TOTAL FREE ENERGY PREDICTED BY IDOCK:   -4.23 KCAL/MOL
REMARK 923 INTER-LIGAND FREE ENERGY PREDICTED BY IDOCK:   -3.98 KCAL/MOL
REMARK 924 INTRA-LIGAND FREE ENERGY PREDICTED BY IDOCK:   -0.25 KCAL/MOL
REMARK 927      BINDING AFFINITY PREDICTED BY RF-SCORE:    0.00 PKD
ROOT
HETATM    1  N   UNL     1      -9.533   5.109  71.029  1.00  0.00    -0.153 NA 
HETATM    2  CA  UNL     1     -10.382   6.325  70.814  1.00  0.00    -0.206 C  
HETATM    3  H2  UNL     1      -8.762   5.090  70.362  1.00  0.00     0.000 HD 
HETATM    4  H1  UNL     1      -9.183   5.007  71.981  1.00  0.00     0.000 HD 
HETATM    5  OXT UNL     1     -12.439   7.132  71.883  1.00  0.00    -0.321 OA 
HETATM    6  C   UNL     1     -11.529   6.319  71.839  1.00  0.00    -0.309 C  
HETATM    7  O   UNL     1     -11.404   5.287  72.714  1.00  0.00    -0.285 OA 
ENDROOT
BRANCH   2   8
HETATM    8  C   UNL     1     -10.909   6.480  69.376  1.00  0.00    -0.363 C  
BRANCH   8   9
HETATM    9  C   UNL     1     -10.591   7.801  68.711  1.00  0.00    -0.161 A  
HETATM   10  C   UNL     1     -10.497   8.977  69.474  1.00  0.00    -0.223 A  
HETATM   11  C   UNL     1     -10.247  10.189  68.839  1.00  0.00    -0.199 A  
HETATM   12  C   UNL     1     -10.082  10.244  67.457  1.00  0.00    -0.198 A  
HETATM   13  O   UNL     1     -10.164  11.363  69.536  1.00  0.00    -0.430 OA 
HETATM   14  H   UNL     1      -9.993  12.190  69.102  1.00  0.00     0.000 HD 
HETATM   15  O   UNL     1      -9.854  11.442  66.846  1.00  0.00    -0.190 OA 
HETATM   16  C   UNL     1     -10.159   9.094  66.687  1.00  0.00    -0.343 A  
HETATM   17  C   UNL     1     -10.414   7.883  67.322  1.00  0.00    -0.320 A  
HETATM   18  H   UNL     1      -9.741  11.480  65.903  1.00  0.00     0.000 HD 
HETATM   19  F   UNL     1     -10.528   6.773  66.578  1.00  0.00    -0.278 F  
ENDBRANCH   8   9
ENDBRANCH   2   8
TORSDOF 2
ENDMDL
MODEL      182
REMARK 921   NORMALIZED FREE ENERGY PREDICTED BY IDOCK:   -3.50 KCAL/MOL
REMARK 922        TOTAL FREE ENERGY PREDICTED BY IDOCK:   -4.22 KCAL/MOL
REMARK 923 INTER-LIGAND FREE ENERGY PREDICTED BY IDOCK:   -4.03 KCAL/MOL
REMARK 924 INTRA-LIGAND FREE ENERGY PREDICTED BY IDOCK:   -0.19 KCAL/MOL
REMARK 927      BINDING AFFINITY PREDICTED BY RF-SCORE:    0.00 PKD
ROOT
HETATM    1  N   UNL     1     -10.336  10.198  70.439  1.00  0.00    -0.416 NA 
HETATM    2  CA  UNL     1     -11.428   9.373  71.048  1.00  0.00    -0.334 C  
HETATM    3  H2  UNL     1      -9.538   9.610  70.198  1.00  0.00     0.000 HD 
HETATM    4  H1  UNL     1     -10.629  10.749  69.634  1.00  0.00     0.000 HD 
HETATM    5  OXT UNL     1     -13.630   9.944  71.972  1.00  0.00    -0.384 OA 
HETATM    6  C   UNL     1     -12.612  10.293  71.395  1.00  0.00    -0.434 C  
HETATM    7  O   UNL     1     -12.392  11.563  70.966  1.00  0.00    -0.371 OA 
ENDROOT
BRANCH   2   8
HETATM    8  C   UNL     1     -10.986   8.539  72.264  1.00  0.00    -0.426 C  
BRANCH   8   9
HETATM    9  C   UNL     1     -10.218   7.278  71.937  1.00  0.00    -0.206 A  
HETATM   10  C   UNL     1      -8.845   7.186  72.223  1.00  0.00    -0.142 A  
HETATM   11  C   UNL     1      -8.147   6.035  71.875  1.00  0.00    -0.107 A  
HETATM   12  C   UNL     1      -8.798   4.972  71.253  1.00  0.00    -0.134 A  
HETATM   13  O   UNL     1      -6.807   5.905  72.117  1.00  0.00    -0.069 OA 
HETATM   14  H   UNL     1      -6.330   5.119  71.880  1.00  0.00     0.000 HD 
HETATM   15  O   UNL     1      -8.097   3.856  70.902  1.00  0.00    -0.064 OA 
HETATM   16  C   UNL     1     -10.154   5.036  70.973  1.00  0.00    -0.297 A  
HETATM   17  C   UNL     1     -10.850   6.190  71.317  1.00  0.00    -0.266 A  
HETATM   18  H   UNL     1      -8.541   3.131  70.478  1.00  0.00     0.000 HD 
HETATM   19  F   UNL     1     -12.154   6.275  71.012  1.00  0.00    -0.382 F  
ENDBRANCH   8   9
ENDBRANCH   2   8
TORSDOF 2
ENDMDL
MODEL      183
REMARK 921   NORMALIZED FREE ENERGY PREDICTED BY IDOCK:   -3.50 KCAL/MOL
REMARK 922        TOTAL FREE ENERGY PREDICTED BY IDOCK:   -4.22 KCAL/MOL
REMARK 923 INTER-LIGAND FREE ENERGY PREDICTED BY IDOCK:   -3.92 KCAL/MOL
REMARK 924 INTRA-LIGAND FREE ENERGY PREDICTED BY IDOCK:   -0.30 KCAL/MOL
REMARK 927      BINDING AFFINITY PREDICTED BY RF-SCORE:    0.00 PKD
ROOT
HETATM    1  N   UNL     1     -11.482  11.649  66.221  1.00  0.00    -0.388 NA 
HETATM    2  CA  UNL     1     -10.071  12.151  66.217  1.00  0.00    -0.224 C  
HETATM    3  H2  UNL     1     -12.137  12.425  66.316  1.00  0.00     0.000 HD 
HETATM    4  H1  UNL     1     -11.724  11.076  65.413  1.00  0.00     0.000 HD 
HETATM    5  OXT UNL     1      -7.897  11.016  66.105  1.00  0.00    -0.161 OA 
HETATM    6  C   UNL     1      -9.116  10.954  66.069  1.00  0.00    -0.191 C  
HETATM    7  O   UNL     1      -9.802   9.797  65.879  1.00  0.00    -0.248 OA 
ENDROOT
BRANCH   2   8
HETATM    8  C   UNL     1      -9.706  13.017  67.436  1.00  0.00    -0.213 C  
BRANCH   8   9
HETATM    9  C   UNL     1      -9.227  14.416  67.115  1.00  0.00    -0.230 A  
HETATM   10  C   UNL     1     -10.131  15.391  66.661  1.00  0.00    -0.273 A  
HETATM   11  C   UNL     1      -9.665  16.659  66.330  1.00  0.00    -0.304 A  
HETATM   12  C   UNL     1      -8.313  16.969  66.451  1.00  0.00    -0.284 A  
HETATM   13  O   UNL     1     -10.503  17.635  65.867  1.00  0.00    -0.476 OA 
HETATM   14  H   UNL     1     -10.185  18.501  65.641  1.00  0.00     0.000 HD 
HETATM   15  O   UNL     1      -7.867  18.212  66.105  1.00  0.00    -0.373 OA 
HETATM   16  C   UNL     1      -7.406  16.027  66.907  1.00  0.00    -0.236 A  
HETATM   17  C   UNL     1      -7.872  14.758  67.235  1.00  0.00    -0.194 A  
HETATM   18  H   UNL     1      -6.945  18.424  66.188  1.00  0.00     0.000 HD 
HETATM   19  F   UNL     1      -6.993  13.829  67.640  1.00  0.00    -0.122 F  
ENDBRANCH   8   9
ENDBRANCH   2   8
TORSDOF 2
ENDMDL
MODEL      184
REMARK 921   NORMALIZED FREE ENERGY PREDICTED BY IDOCK:   -3.49 KCAL/MOL
REMARK 922        TOTAL FREE ENERGY PREDICTED BY IDOCK:   -4.21 KCAL/MOL
REMARK 923 INTER-LIGAND FREE ENERGY PREDICTED BY IDOCK:   -3.96 KCAL/MOL
REMARK 924 INTRA-LIGAND FREE ENERGY PREDICTED BY IDOCK:   -0.25 KCAL/MOL
REMARK 927      BINDING AFFINITY PREDICTED BY RF-SCORE:    0.00 PKD
ROOT
HETATM    1  N   UNL     1      -9.596  14.116  68.010  1.00  0.00    -0.211 NA 
HETATM    2  CA  UNL     1     -10.362  13.541  66.859  1.00  0.00    -0.265 C  
HETATM    3  H2  UNL     1      -8.694  13.649  68.108  1.00  0.00     0.000 HD 
HETATM    4  H1  UNL     1      -9.470  15.127  67.965  1.00  0.00     0.000 HD 
HETATM    5  OXT UNL     1     -12.598  13.992  65.952  1.00  0.00    -0.488 OA 
HETATM    6  C   UNL     1     -11.710  14.272  66.742  1.00  0.00    -0.405 C  
HETATM    7  O   UNL     1     -11.796  15.294  67.633  1.00  0.00    -0.265 OA 
ENDROOT
BRANCH   2   8
HETATM    8  C   UNL     1     -10.551  12.014  66.926  1.00  0.00    -0.260 C  
BRANCH   8   9
HETATM    9  C   UNL     1      -9.892  11.233  65.810  1.00  0.00    -0.273 A  
HETATM   10  C   UNL     1      -8.655  10.601  66.018  1.00  0.00    -0.177 A  
HETATM   11  C   UNL     1      -8.044   9.923  64.968  1.00  0.00    -0.140 A  
HETATM   12  C   UNL     1      -8.653   9.862  63.717  1.00  0.00    -0.199 A  
HETATM   13  O   UNL     1      -6.832   9.308  65.117  1.00  0.00    -0.079 OA 
HETATM   14  H   UNL     1      -6.416   8.845  64.399  1.00  0.00     0.000 HD 
HETATM   15  O   UNL     1      -8.034   9.208  62.691  1.00  0.00    -0.119 OA 
HETATM   16  C   UNL     1      -9.879  10.467  63.492  1.00  0.00    -0.339 A  
HETATM   17  C   UNL     1     -10.486  11.148  64.542  1.00  0.00    -0.350 A  
HETATM   18  H   UNL     1      -8.449   9.165  61.837  1.00  0.00     0.000 HD 
HETATM   19  F   UNL     1     -11.654  11.771  64.321  1.00  0.00    -0.391 F  
ENDBRANCH   8   9
ENDBRANCH   2   8
TORSDOF 2
ENDMDL
MODEL      185
REMARK 921   NORMALIZED FREE ENERGY PREDICTED BY IDOCK:   -3.49 KCAL/MOL
REMARK 922        TOTAL FREE ENERGY PREDICTED BY IDOCK:   -4.21 KCAL/MOL
REMARK 923 INTER-LIGAND FREE ENERGY PREDICTED BY IDOCK:   -4.21 KCAL/MOL
REMARK 924 INTRA-LIGAND FREE ENERGY PREDICTED BY IDOCK:   -0.00 KCAL/MOL
REMARK 927      BINDING AFFINITY PREDICTED BY RF-SCORE:    0.00 PKD
ROOT
HETATM    1  N   UNL     1      -8.793   7.490  69.386  1.00  0.00    -0.137 NA 
HETATM    2  CA  UNL     1      -9.700   7.959  68.290  1.00  0.00    -0.160 C  
HETATM    3  H2  UNL     1      -8.265   8.273  69.771  1.00  0.00     0.000 HD 
HETATM    4  H1  UNL     1      -9.268   6.980  70.131  1.00  0.00     0.000 HD 
HETATM    5  OXT UNL     1     -11.247   6.784  66.789  1.00  0.00    -0.312 OA 
HETATM    6  C   UNL     1     -10.480   6.753  67.739  1.00  0.00    -0.222 C  
HETATM    7  O   UNL     1     -10.219   5.628  68.454  1.00  0.00    -0.164 OA 
ENDROOT
BRANCH   2   8
HETATM    8  C   UNL     1      -8.984   8.730  67.166  1.00  0.00    -0.146 C  
BRANCH   8   9
HETATM    9  C   UNL     1      -9.796   9.830  66.519  1.00  0.00    -0.286 A  
HETATM   10  C   UNL     1      -9.854   9.944  65.120  1.00  0.00    -0.348 A  
HETATM   11  C   UNL     1     -10.570  10.987  64.544  1.00  0.00    -0.313 A  
HETATM   12  C   UNL     1     -11.235  11.915  65.343  1.00  0.00    -0.295 A  
HETATM   13  O   UNL     1     -10.641  11.150  63.189  1.00  0.00    -0.689 OA 
HETATM   14  H   UNL     1     -11.131  11.863  62.796  1.00  0.00     0.000 HD 
HETATM   15  O   UNL     1     -11.920  12.944  64.765  1.00  0.00    -0.353 OA 
HETATM   16  C   UNL     1     -11.202  11.815  66.725  1.00  0.00    -0.388 A  
HETATM   17  C   UNL     1     -10.481  10.773  67.300  1.00  0.00    -0.237 A  
HETATM   18  H   UNL     1     -12.374  13.576  65.310  1.00  0.00     0.000 HD 
HETATM   19  F   UNL     1     -10.412  10.694  68.637  1.00  0.00    -0.165 F  
ENDBRANCH   8   9
ENDBRANCH   2   8
TORSDOF 2
ENDMDL
MODEL      186
REMARK 921   NORMALIZED FREE ENERGY PREDICTED BY IDOCK:   -3.49 KCAL/MOL
REMARK 922        TOTAL FREE ENERGY PREDICTED BY IDOCK:   -4.21 KCAL/MOL
REMARK 923 INTER-LIGAND FREE ENERGY PREDICTED BY IDOCK:   -4.07 KCAL/MOL
REMARK 924 INTRA-LIGAND FREE ENERGY PREDICTED BY IDOCK:   -0.14 KCAL/MOL
REMARK 927      BINDING AFFINITY PREDICTED BY RF-SCORE:    0.00 PKD
ROOT
HETATM    1  N   UNL     1      -6.571  18.420  67.257  1.00  0.00    -0.193 NA 
HETATM    2  CA  UNL     1      -6.717  17.229  68.154  1.00  0.00    -0.179 C  
HETATM    3  H2  UNL     1      -7.128  19.200  67.606  1.00  0.00     0.000 HD 
HETATM    4  H1  UNL     1      -5.606  18.713  67.105  1.00  0.00     0.000 HD 
HETATM    5  OXT UNL     1      -5.817  14.947  68.053  1.00  0.00    -0.127 OA 
HETATM    6  C   UNL     1      -5.860  16.079  67.597  1.00  0.00    -0.150 C  
HETATM    7  O   UNL     1      -5.134  16.480  66.522  1.00  0.00    -0.339 OA 
ENDROOT
BRANCH   2   8
HETATM    8  C   UNL     1      -8.173  16.788  68.384  1.00  0.00    -0.224 C  
BRANCH   8   9
HETATM    9  C   UNL     1      -9.015  16.663  67.134  1.00  0.00    -0.225 A  
HETATM   10  C   UNL     1      -9.048  15.456  66.415  1.00  0.00    -0.350 A  
HETATM   11  C   UNL     1      -9.794  15.373  65.244  1.00  0.00    -0.204 A  
HETATM   12  C   UNL     1     -10.513  16.474  64.784  1.00  0.00     0.346 A  
HETATM   13  O   UNL     1      -9.842  14.226  64.502  1.00  0.00    -0.612 OA 
HETATM   14  H   UNL     1     -10.352  14.170  63.702  1.00  0.00     0.000 HD 
HETATM   15  O   UNL     1     -11.226  16.383  63.624  1.00  0.00    -1.153 OA 
HETATM   16  C   UNL     1     -10.505  17.670  65.483  1.00  0.00    -0.048 A  
HETATM   17  C   UNL     1      -9.755  17.753  66.652  1.00  0.00    -0.313 A  
HETATM   18  H   UNL     1     -11.717  17.133  63.310  1.00  0.00     0.000 HD 
HETATM   19  F   UNL     1      -9.712  18.920  67.312  1.00  0.00    -0.299 F  
ENDBRANCH   8   9
ENDBRANCH   2   8
TORSDOF 2
ENDMDL
MODEL      187
REMARK 921   NORMALIZED FREE ENERGY PREDICTED BY IDOCK:   -3.49 KCAL/MOL
REMARK 922        TOTAL FREE ENERGY PREDICTED BY IDOCK:   -4.21 KCAL/MOL
REMARK 923 INTER-LIGAND FREE ENERGY PREDICTED BY IDOCK:   -4.06 KCAL/MOL
REMARK 924 INTRA-LIGAND FREE ENERGY PREDICTED BY IDOCK:   -0.14 KCAL/MOL
REMARK 927      BINDING AFFINITY PREDICTED BY RF-SCORE:    0.00 PKD
ROOT
HETATM    1  N   UNL     1      -8.218  10.391  69.661  1.00  0.00    -0.331 NA 
HETATM    2  CA  UNL     1      -9.538  10.511  68.963  1.00  0.00    -0.202 C  
HETATM    3  H2  UNL     1      -8.143   9.489  70.130  1.00  0.00     0.000 HD 
HETATM    4  H1  UNL     1      -7.411  10.547  69.057  1.00  0.00     0.000 HD 
HETATM    5  OXT UNL     1     -10.583  12.319  67.673  1.00  0.00    -0.209 OA 
HETATM    6  C   UNL     1      -9.611  11.881  68.266  1.00  0.00    -0.201 C  
HETATM    7  O   UNL     1      -8.438  12.556  68.382  1.00  0.00    -0.168 OA 
ENDROOT
BRANCH   2   8
HETATM    8  C   UNL     1     -10.756  10.275  69.873  1.00  0.00    -0.344 C  
BRANCH   8   9
HETATM    9  C   UNL     1     -10.769   8.950  70.603  1.00  0.00    -0.282 A  
HETATM   10  C   UNL     1     -10.719   8.910  72.007  1.00  0.00    -0.389 A  
HETATM   11  C   UNL     1     -10.689   7.681  72.658  1.00  0.00    -0.321 A  
HETATM   12  C   UNL     1     -10.714   6.494  71.931  1.00  0.00    -0.219 A  
HETATM   13  O   UNL     1     -10.622   7.591  74.021  1.00  0.00    -0.451 OA 
HETATM   14  H   UNL     1     -10.602   6.752  74.466  1.00  0.00     0.000 HD 
HETATM   15  O   UNL     1     -10.666   5.296  72.583  1.00  0.00    -0.215 OA 
HETATM   16  C   UNL     1     -10.775   6.509  70.547  1.00  0.00    -0.305 A  
HETATM   17  C   UNL     1     -10.802   7.739  69.896  1.00  0.00    -0.226 A  
HETATM   18  H   UNL     1     -10.684   4.485  72.087  1.00  0.00     0.000 HD 
HETATM   19  F   UNL     1     -10.821   7.761  68.555  1.00  0.00    -0.201 F  
ENDBRANCH   8   9
ENDBRANCH   2   8
TORSDOF 2
ENDMDL
MODEL      188
REMARK 921   NORMALIZED FREE ENERGY PREDICTED BY IDOCK:   -3.47 KCAL/MOL
REMARK 922        TOTAL FREE ENERGY PREDICTED BY IDOCK:   -4.19 KCAL/MOL
REMARK 923 INTER-LIGAND FREE ENERGY PREDICTED BY IDOCK:   -4.01 KCAL/MOL
REMARK 924 INTRA-LIGAND FREE ENERGY PREDICTED BY IDOCK:   -0.18 KCAL/MOL
REMARK 927      BINDING AFFINITY PREDICTED BY RF-SCORE:    0.00 PKD
ROOT
HETATM    1  N   UNL     1     -11.805  10.592  68.160  1.00  0.00    -0.774 NA 
HETATM    2  CA  UNL     1     -10.346  10.901  68.297  1.00  0.00    -0.173 C  
HETATM    3  H2  UNL     1     -12.174  10.215  69.033  1.00  0.00     0.000 HD 
HETATM    4  H1  UNL     1     -12.371  11.379  67.845  1.00  0.00     0.000 HD 
HETATM    5  OXT UNL     1      -8.667  11.752  66.721  1.00  0.00    -0.182 OA 
HETATM    6  C   UNL     1      -9.830  11.469  66.964  1.00  0.00    -0.192 C  
HETATM    7  O   UNL     1     -10.842  11.633  66.072  1.00  0.00    -0.276 OA 
ENDROOT
BRANCH   2   8
HETATM    8  C   UNL     1      -9.492   9.712  68.773  1.00  0.00    -0.148 C  
BRANCH   8   9
HETATM    9  C   UNL     1      -9.807   8.386  68.116  1.00  0.00    -0.196 A  
HETATM   10  C   UNL     1      -9.250   8.060  66.868  1.00  0.00    -0.191 A  
HETATM   11  C   UNL     1      -9.585   6.855  66.260  1.00  0.00    -0.029 A  
HETATM   12  C   UNL     1     -10.463   5.969  66.880  1.00  0.00    -0.280 A  
HETATM   13  O   UNL     1      -9.082   6.501  65.039  1.00  0.00    -0.317 OA 
HETATM   14  H   UNL     1      -9.312   5.678  64.624  1.00  0.00     0.000 HD 
HETATM   15  O   UNL     1     -10.797   4.798  66.264  1.00  0.00    -0.495 OA 
HETATM   16  C   UNL     1     -11.016   6.265  68.116  1.00  0.00    -0.412 A  
HETATM   17  C   UNL     1     -10.683   7.472  68.722  1.00  0.00    -0.095 A  
HETATM   18  H   UNL     1     -11.396   4.194  66.687  1.00  0.00     0.000 HD 
HETATM   19  F   UNL     1     -11.245   7.783  69.899  1.00  0.00    -0.250 F  
ENDBRANCH   8   9
ENDBRANCH   2   8
TORSDOF 2
ENDMDL
MODEL      189
REMARK 921   NORMALIZED FREE ENERGY PREDICTED BY IDOCK:   -3.47 KCAL/MOL
REMARK 922        TOTAL FREE ENERGY PREDICTED BY IDOCK:   -4.19 KCAL/MOL
REMARK 923 INTER-LIGAND FREE ENERGY PREDICTED BY IDOCK:   -3.98 KCAL/MOL
REMARK 924 INTRA-LIGAND FREE ENERGY PREDICTED BY IDOCK:   -0.21 KCAL/MOL
REMARK 927      BINDING AFFINITY PREDICTED BY RF-SCORE:    0.00 PKD
ROOT
HETATM    1  N   UNL     1      -8.202  11.510  68.227  1.00  0.00    -0.145 NA 
HETATM    2  CA  UNL     1      -9.143  11.654  67.070  1.00  0.00    -0.179 C  
HETATM    3  H2  UNL     1      -7.885  10.544  68.310  1.00  0.00     0.000 HD 
HETATM    4  H1  UNL     1      -7.406  12.145  68.199  1.00  0.00     0.000 HD 
HETATM    5  OXT UNL     1     -10.419  13.556  66.187  1.00  0.00    -0.286 OA 
HETATM    6  C   UNL     1      -9.595  13.122  66.976  1.00  0.00    -0.241 C  
HETATM    7  O   UNL     1      -8.949  13.897  67.886  1.00  0.00    -0.173 OA 
ENDROOT
BRANCH   2   8
HETATM    8  C   UNL     1     -10.346  10.694  67.111  1.00  0.00    -0.275 C  
BRANCH   8   9
HETATM    9  C   UNL     1     -10.762  10.241  68.493  1.00  0.00    -0.262 A  
HETATM   10  C   UNL     1     -10.232   9.063  69.046  1.00  0.00    -0.216 A  
HETATM   11  C   UNL     1     -10.659   8.639  70.299  1.00  0.00    -0.223 A  
HETATM   12  C   UNL     1     -11.602   9.377  71.012  1.00  0.00    -0.330 A  
HETATM   13  O   UNL     1     -10.186   7.491  70.871  1.00  0.00    -0.193 OA 
HETATM   14  H   UNL     1     -10.477   7.202  71.728  1.00  0.00     0.000 HD 
HETATM   15  O   UNL     1     -12.025   8.940  72.234  1.00  0.00    -0.355 OA 
HETATM   16  C   UNL     1     -12.130  10.547  70.492  1.00  0.00    -0.437 A  
HETATM   17  C   UNL     1     -11.705  10.968  69.236  1.00  0.00    -0.326 A  
HETATM   18  H   UNL     1     -12.668   9.442  72.720  1.00  0.00     0.000 HD 
HETATM   19  F   UNL     1     -12.240  12.079  68.709  1.00  0.00    -0.337 F  
ENDBRANCH   8   9
ENDBRANCH   2   8
TORSDOF 2
ENDMDL
MODEL      190
REMARK 921   NORMALIZED FREE ENERGY PREDICTED BY IDOCK:   -3.47 KCAL/MOL
REMARK 922        TOTAL FREE ENERGY PREDICTED BY IDOCK:   -4.19 KCAL/MOL
REMARK 923 INTER-LIGAND FREE ENERGY PREDICTED BY IDOCK:   -3.99 KCAL/MOL
REMARK 924 INTRA-LIGAND FREE ENERGY PREDICTED BY IDOCK:   -0.20 KCAL/MOL
REMARK 927      BINDING AFFINITY PREDICTED BY RF-SCORE:    0.00 PKD
ROOT
HETATM    1  N   UNL     1      -8.175   7.122  68.319  1.00  0.00    -0.123 NA 
HETATM    2  CA  UNL     1      -9.283   6.985  67.321  1.00  0.00    -0.129 C  
HETATM    3  H2  UNL     1      -8.117   8.082  68.659  1.00  0.00     0.000 HD 
HETATM    4  H1  UNL     1      -8.234   6.470  69.101  1.00  0.00     0.000 HD 
HETATM    5  OXT UNL     1     -10.083   5.101  65.966  1.00  0.00    -0.185 OA 
HETATM    6  C   UNL     1      -9.339   5.526  66.836  1.00  0.00    -0.127 C  
HETATM    7  O   UNL     1      -8.454   4.748  67.510  1.00  0.00    -0.105 OA 
ENDROOT
BRANCH   2   8
HETATM    8  C   UNL     1      -9.194   7.970  66.141  1.00  0.00    -0.219 C  
BRANCH   8   9
HETATM    9  C   UNL     1      -9.948   9.268  66.326  1.00  0.00    -0.357 A  
HETATM   10  C   UNL     1     -10.699   9.496  67.491  1.00  0.00    -0.311 A  
HETATM   11  C   UNL     1     -11.420  10.677  67.624  1.00  0.00    -0.086 A  
HETATM   12  C   UNL     1     -11.397  11.638  66.615  1.00  0.00    -0.270 A  
HETATM   13  O   UNL     1     -12.180  10.936  68.731  1.00  0.00    -0.753 OA 
HETATM   14  H   UNL     1     -12.672  11.744  68.821  1.00  0.00     0.000 HD 
HETATM   15  O   UNL     1     -12.124  12.785  66.752  1.00  0.00    -0.457 OA 
HETATM   16  C   UNL     1     -10.654  11.440  65.463  1.00  0.00    -0.328 A  
HETATM   17  C   UNL     1      -9.936  10.256  65.329  1.00  0.00    -0.317 A  
HETATM   18  H   UNL     1     -12.108  13.440  66.064  1.00  0.00     0.000 HD 
HETATM   19  F   UNL     1      -9.246  10.040  64.199  1.00  0.00    -0.221 F  
ENDBRANCH   8   9
ENDBRANCH   2   8
TORSDOF 2
ENDMDL
MODEL      191
REMARK 921   NORMALIZED FREE ENERGY PREDICTED BY IDOCK:   -3.46 KCAL/MOL
REMARK 922        TOTAL FREE ENERGY PREDICTED BY IDOCK:   -4.18 KCAL/MOL
REMARK 923 INTER-LIGAND FREE ENERGY PREDICTED BY IDOCK:   -3.93 KCAL/MOL
REMARK 924 INTRA-LIGAND FREE ENERGY PREDICTED BY IDOCK:   -0.25 KCAL/MOL
REMARK 927      BINDING AFFINITY PREDICTED BY RF-SCORE:    0.00 PKD
ROOT
HETATM    1  N   UNL     1      -9.984   9.008  71.811  1.00  0.00    -0.328 NA 
HETATM    2  CA  UNL     1     -10.936   8.615  70.723  1.00  0.00    -0.245 C  
HETATM    3  H2  UNL     1      -9.514   9.882  71.575  1.00  0.00     0.000 HD 
HETATM    4  H1  UNL     1     -10.409   9.071  72.736  1.00  0.00     0.000 HD 
HETATM    5  OXT UNL     1     -12.403   6.672  70.414  1.00  0.00    -0.274 OA 
HETATM    6  C   UNL     1     -11.626   7.298  71.117  1.00  0.00    -0.293 C  
HETATM    7  O   UNL     1     -11.270   6.910  72.370  1.00  0.00    -0.250 OA 
ENDROOT
BRANCH   2   8
HETATM    8  C   UNL     1     -10.295   8.521  69.327  1.00  0.00    -0.227 C  
BRANCH   8   9
HETATM    9  C   UNL     1     -10.147   9.837  68.595  1.00  0.00    -0.186 A  
HETATM   10  C   UNL     1     -11.230  10.382  67.885  1.00  0.00    -0.332 A  
HETATM   11  C   UNL     1     -11.062  11.571  67.183  1.00  0.00    -0.297 A  
HETATM   12  C   UNL     1      -9.833  12.226  67.184  1.00  0.00    -0.203 A  
HETATM   13  O   UNL     1     -12.081  12.131  66.464  1.00  0.00    -0.627 OA 
HETATM   14  H   UNL     1     -11.967  12.943  65.984  1.00  0.00     0.000 HD 
HETATM   15  O   UNL     1      -9.679  13.383  66.476  1.00  0.00    -0.269 OA 
HETATM   16  C   UNL     1      -8.755  11.713  67.887  1.00  0.00    -0.154 A  
HETATM   17  C   UNL     1      -8.922  10.522  68.585  1.00  0.00    -0.162 A  
HETATM   18  H   UNL     1      -8.841  13.830  66.477  1.00  0.00     0.000 HD 
HETATM   19  F   UNL     1      -7.872   9.999  69.235  1.00  0.00    -0.085 F  
ENDBRANCH   8   9
ENDBRANCH   2   8
TORSDOF 2
ENDMDL
MODEL      192
REMARK 921   NORMALIZED FREE ENERGY PREDICTED BY IDOCK:   -3.45 KCAL/MOL
REMARK 922        TOTAL FREE ENERGY PREDICTED BY IDOCK:   -4.17 KCAL/MOL
REMARK 923 INTER-LIGAND FREE ENERGY PREDICTED BY IDOCK:   -3.88 KCAL/MOL
REMARK 924 INTRA-LIGAND FREE ENERGY PREDICTED BY IDOCK:   -0.29 KCAL/MOL
REMARK 927      BINDING AFFINITY PREDICTED BY RF-SCORE:    0.00 PKD
ROOT
HETATM    1  N   UNL     1     -11.357  12.532  69.389  1.00  0.00    -0.405 NA 
HETATM    2  CA  UNL     1     -11.098  13.998  69.561  1.00  0.00    -0.153 C  
HETATM    3  H2  UNL     1     -10.679  12.124  68.745  1.00  0.00     0.000 HD 
HETATM    4  H1  UNL     1     -11.380  12.007  70.262  1.00  0.00     0.000 HD 
HETATM    5  OXT UNL     1     -12.246  15.754  70.835  1.00  0.00    -0.388 OA 
HETATM    6  C   UNL     1     -12.136  14.575  70.539  1.00  0.00    -0.325 C  
HETATM    7  O   UNL     1     -12.926  13.598  71.054  1.00  0.00    -0.297 OA 
ENDROOT
BRANCH   2   8
HETATM    8  C   UNL     1     -11.062  14.791  68.243  1.00  0.00    -0.284 C  
BRANCH   8   9
HETATM    9  C   UNL     1      -9.790  15.573  67.995  1.00  0.00    -0.212 A  
HETATM   10  C   UNL     1      -8.574  14.905  67.781  1.00  0.00    -0.171 A  
HETATM   11  C   UNL     1      -7.408  15.641  67.598  1.00  0.00    -0.167 A  
HETATM   12  C   UNL     1      -7.440  17.033  67.619  1.00  0.00    -0.164 A  
HETATM   13  O   UNL     1      -6.197  15.035  67.404  1.00  0.00    -0.324 OA 
HETATM   14  H   UNL     1      -5.401  15.538  67.278  1.00  0.00     0.000 HD 
HETATM   15  O   UNL     1      -6.285  17.742  67.455  1.00  0.00    -0.143 OA 
HETATM   16  C   UNL     1      -8.630  17.714  67.816  1.00  0.00    -0.228 A  
HETATM   17  C   UNL     1      -9.795  16.976  68.004  1.00  0.00    -0.275 A  
HETATM   18  H   UNL     1      -6.307  18.692  67.469  1.00  0.00     0.000 HD 
HETATM   19  F   UNL     1     -10.944  17.628  68.235  1.00  0.00    -0.342 F  
ENDBRANCH   8   9
ENDBRANCH   2   8
TORSDOF 2
ENDMDL
MODEL      193
REMARK 921   NORMALIZED FREE ENERGY PREDICTED BY IDOCK:   -3.44 KCAL/MOL
REMARK 922        TOTAL FREE ENERGY PREDICTED BY IDOCK:   -4.16 KCAL/MOL
REMARK 923 INTER-LIGAND FREE ENERGY PREDICTED BY IDOCK:   -3.94 KCAL/MOL
REMARK 924 INTRA-LIGAND FREE ENERGY PREDICTED BY IDOCK:   -0.22 KCAL/MOL
REMARK 927      BINDING AFFINITY PREDICTED BY RF-SCORE:    0.00 PKD
ROOT
HETATM    1  N   UNL     1     -10.355  16.984  65.307  1.00  0.00    -0.634 NA 
HETATM    2  CA  UNL     1     -10.597  17.642  66.631  1.00  0.00    -0.211 C  
HETATM    3  H2  UNL     1     -10.262  15.975  65.422  1.00  0.00     0.000 HD 
HETATM    4  H1  UNL     1     -11.057  17.199  64.599  1.00  0.00     0.000 HD 
HETATM    5  OXT UNL     1     -10.864  19.988  67.303  1.00  0.00    -0.318 OA 
HETATM    6  C   UNL     1     -10.735  19.159  66.416  1.00  0.00    -0.361 C  
HETATM    7  O   UNL     1     -10.706  19.474  65.095  1.00  0.00    -0.354 OA 
ENDROOT
BRANCH   2   8
HETATM    8  C   UNL     1      -9.538  17.317  67.700  1.00  0.00    -0.256 C  
BRANCH   8   9
HETATM    9  C   UNL     1      -9.103  15.869  67.758  1.00  0.00    -0.196 A  
HETATM   10  C   UNL     1      -9.969  14.885  68.265  1.00  0.00    -0.222 A  
HETATM   11  C   UNL     1      -9.535  13.566  68.350  1.00  0.00    -0.185 A  
HETATM   12  C   UNL     1      -8.255  13.214  67.931  1.00  0.00    -0.162 A  
HETATM   13  O   UNL     1     -10.335  12.577  68.853  1.00  0.00    -0.390 OA 
HETATM   14  H   UNL     1     -10.039  11.677  68.911  1.00  0.00     0.000 HD 
HETATM   15  O   UNL     1      -7.837  11.919  68.037  1.00  0.00    -0.122 OA 
HETATM   16  C   UNL     1      -7.389  14.165  67.417  1.00  0.00    -0.143 A  
HETATM   17  C   UNL     1      -7.822  15.485  67.336  1.00  0.00    -0.186 A  
HETATM   18  H   UNL     1      -6.964  11.678  67.751  1.00  0.00     0.000 HD 
HETATM   19  F   UNL     1      -6.975  16.418  66.876  1.00  0.00    -0.198 F  
ENDBRANCH   8   9
ENDBRANCH   2   8
TORSDOF 2
ENDMDL
MODEL      194
REMARK 921   NORMALIZED FREE ENERGY PREDICTED BY IDOCK:   -3.42 KCAL/MOL
REMARK 922        TOTAL FREE ENERGY PREDICTED BY IDOCK:   -4.13 KCAL/MOL
REMARK 923 INTER-LIGAND FREE ENERGY PREDICTED BY IDOCK:   -3.96 KCAL/MOL
REMARK 924 INTRA-LIGAND FREE ENERGY PREDICTED BY IDOCK:   -0.17 KCAL/MOL
REMARK 927      BINDING AFFINITY PREDICTED BY RF-SCORE:    0.00 PKD
ROOT
HETATM    1  N   UNL     1     -10.331  14.177  69.021  1.00  0.00    -0.369 NA 
HETATM    2  CA  UNL     1     -10.034  14.107  67.554  1.00  0.00    -0.236 C  
HETATM    3  H2  UNL     1     -10.277  13.249  69.440  1.00  0.00     0.000 HD 
HETATM    4  H1  UNL     1      -9.744  14.834  69.534  1.00  0.00     0.000 HD 
HETATM    5  OXT UNL     1     -10.006  15.800  65.777  1.00  0.00    -0.313 OA 
HETATM    6  C   UNL     1     -10.121  15.524  66.960  1.00  0.00    -0.254 C  
HETATM    7  O   UNL     1     -10.335  16.452  67.928  1.00  0.00    -0.267 OA 
ENDROOT
BRANCH   2   8
HETATM    8  C   UNL     1     -10.919  13.114  66.778  1.00  0.00    -0.298 C  
BRANCH   8   9
HETATM    9  C   UNL     1     -10.595  11.653  66.999  1.00  0.00    -0.272 A  
HETATM   10  C   UNL     1     -11.186  10.945  68.058  1.00  0.00    -0.378 A  
HETATM   11  C   UNL     1     -10.843   9.614  68.271  1.00  0.00    -0.182 A  
HETATM   12  C   UNL     1      -9.925   8.978  67.439  1.00  0.00    -0.209 A  
HETATM   13  O   UNL     1     -11.378   8.889  69.299  1.00  0.00    -0.426 OA 
HETATM   14  H   UNL     1     -11.144   7.979  69.444  1.00  0.00     0.000 HD 
HETATM   15  O   UNL     1      -9.586   7.676  67.670  1.00  0.00    -0.140 OA 
HETATM   16  C   UNL     1      -9.339   9.653  66.380  1.00  0.00    -0.224 A  
HETATM   17  C   UNL     1      -9.680  10.986  66.171  1.00  0.00    -0.217 A  
HETATM   18  H   UNL     1      -8.960   7.242  67.102  1.00  0.00     0.000 HD 
HETATM   19  F   UNL     1      -9.086  11.657  65.173  1.00  0.00    -0.176 F  
ENDBRANCH   8   9
ENDBRANCH   2   8
TORSDOF 2
ENDMDL
MODEL      195
REMARK 921   NORMALIZED FREE ENERGY PREDICTED BY IDOCK:   -3.39 KCAL/MOL
REMARK 922        TOTAL FREE ENERGY PREDICTED BY IDOCK:   -4.10 KCAL/MOL
REMARK 923 INTER-LIGAND FREE ENERGY PREDICTED BY IDOCK:   -4.00 KCAL/MOL
REMARK 924 INTRA-LIGAND FREE ENERGY PREDICTED BY IDOCK:   -0.10 KCAL/MOL
REMARK 927      BINDING AFFINITY PREDICTED BY RF-SCORE:    0.00 PKD
ROOT
HETATM    1  N   UNL     1      -6.833  11.106  67.215  1.00  0.00    -0.088 NA 
HETATM    2  CA  UNL     1      -7.623  11.300  68.473  1.00  0.00    -0.123 C  
HETATM    3  H2  UNL     1      -7.025  11.858  66.554  1.00  0.00     0.000 HD 
HETATM    4  H1  UNL     1      -5.829  11.009  67.364  1.00  0.00     0.000 HD 
HETATM    5  OXT UNL     1      -7.838   9.974  70.528  1.00  0.00    -0.247 OA 
HETATM    6  C   UNL     1      -7.304  10.150  69.444  1.00  0.00    -0.106 C  
HETATM    7  O   UNL     1      -6.330   9.342  68.950  1.00  0.00    -0.043 OA 
ENDROOT
BRANCH   2   8
HETATM    8  C   UNL     1      -9.139  11.447  68.250  1.00  0.00    -0.179 C  
BRANCH   8   9
HETATM    9  C   UNL     1      -9.579  11.460  66.803  1.00  0.00    -0.207 A  
HETATM   10  C   UNL     1      -9.897  12.671  66.167  1.00  0.00    -0.265 A  
HETATM   11  C   UNL     1     -10.342  12.660  64.849  1.00  0.00    -0.308 A  
HETATM   12  C   UNL     1     -10.467  11.458  64.155  1.00  0.00    -0.363 A  
HETATM   13  O   UNL     1     -10.680  13.811  64.193  1.00  0.00    -0.576 OA 
HETATM   14  H   UNL     1     -10.983  13.802  63.293  1.00  0.00     0.000 HD 
HETATM   15  O   UNL     1     -10.921  11.460  62.868  1.00  0.00    -0.770 OA 
HETATM   16  C   UNL     1     -10.147  10.253  64.758  1.00  0.00    -0.336 A  
HETATM   17  C   UNL     1      -9.707  10.265  66.078  1.00  0.00    -0.218 A  
HETATM   18  H   UNL     1     -11.006  10.641  62.394  1.00  0.00     0.000 HD 
HETATM   19  F   UNL     1      -9.434   9.099  66.681  1.00  0.00    -0.174 F  
ENDBRANCH   8   9
ENDBRANCH   2   8
TORSDOF 2
ENDMDL
MODEL      196
REMARK 921   NORMALIZED FREE ENERGY PREDICTED BY IDOCK:   -3.39 KCAL/MOL
REMARK 922        TOTAL FREE ENERGY PREDICTED BY IDOCK:   -4.09 KCAL/MOL
REMARK 923 INTER-LIGAND FREE ENERGY PREDICTED BY IDOCK:   -3.86 KCAL/MOL
REMARK 924 INTRA-LIGAND FREE ENERGY PREDICTED BY IDOCK:   -0.23 KCAL/MOL
REMARK 927      BINDING AFFINITY PREDICTED BY RF-SCORE:    0.00 PKD
ROOT
HETATM    1  N   UNL     1     -10.467   9.533  70.661  1.00  0.00    -0.286 NA 
HETATM    2  CA  UNL     1     -11.716   8.994  71.288  1.00  0.00    -0.313 C  
HETATM    3  H2  UNL     1      -9.798   8.781  70.495  1.00  0.00     0.000 HD 
HETATM    4  H1  UNL     1     -10.625  10.065  69.806  1.00  0.00     0.000 HD 
HETATM    5  OXT UNL     1     -13.779  10.063  72.080  1.00  0.00    -0.332 OA 
HETATM    6  C   UNL     1     -12.699  10.155  71.519  1.00  0.00    -0.436 C  
HETATM    7  O   UNL     1     -12.219  11.317  71.004  1.00  0.00    -0.354 OA 
ENDROOT
BRANCH   2   8
HETATM    8  C   UNL     1     -11.478   8.190  72.579  1.00  0.00    -0.470 C  
BRANCH   8   9
HETATM    9  C   UNL     1     -10.441   7.094  72.474  1.00  0.00    -0.254 A  
HETATM   10  C   UNL     1     -10.676   5.965  71.671  1.00  0.00    -0.308 A  
HETATM   11  C   UNL     1      -9.730   4.948  71.622  1.00  0.00    -0.173 A  
HETATM   12  C   UNL     1      -8.550   5.042  72.356  1.00  0.00    -0.124 A  
HETATM   13  O   UNL     1      -9.922   3.823  70.869  1.00  0.00    -0.168 OA 
HETATM   14  H   UNL     1      -9.275   3.128  70.835  1.00  0.00     0.000 HD 
HETATM   15  O   UNL     1      -7.638   4.028  72.311  1.00  0.00    -0.070 OA 
HETATM   16  C   UNL     1      -8.291   6.151  73.145  1.00  0.00    -0.118 A  
HETATM   17  C   UNL     1      -9.240   7.167  73.197  1.00  0.00    -0.145 A  
HETATM   18  H   UNL     1      -6.832   4.093  72.811  1.00  0.00     0.000 HD 
HETATM   19  F   UNL     1      -9.014   8.225  73.990  1.00  0.00    -0.314 F  
ENDBRANCH   8   9
ENDBRANCH   2   8
TORSDOF 2
ENDMDL
MODEL      197
REMARK 921   NORMALIZED FREE ENERGY PREDICTED BY IDOCK:   -3.35 KCAL/MOL
REMARK 922        TOTAL FREE ENERGY PREDICTED BY IDOCK:   -4.06 KCAL/MOL
REMARK 923 INTER-LIGAND FREE ENERGY PREDICTED BY IDOCK:   -3.85 KCAL/MOL
REMARK 924 INTRA-LIGAND FREE ENERGY PREDICTED BY IDOCK:   -0.21 KCAL/MOL
REMARK 927      BINDING AFFINITY PREDICTED BY RF-SCORE:    0.00 PKD
ROOT
HETATM    1  N   UNL     1      -8.502   7.452  70.393  1.00  0.00    -0.140 NA 
HETATM    2  CA  UNL     1      -9.914   7.823  70.053  1.00  0.00    -0.187 C  
HETATM    3  H2  UNL     1      -8.124   6.811  69.696  1.00  0.00     0.000 HD 
HETATM    4  H1  UNL     1      -7.880   8.250  70.517  1.00  0.00     0.000 HD 
HETATM    5  OXT UNL     1     -11.586   9.224  71.178  1.00  0.00    -0.279 OA 
HETATM    6  C   UNL     1     -10.445   8.792  71.123  1.00  0.00    -0.245 C  
HETATM    7  O   UNL     1      -9.474   9.127  72.012  1.00  0.00    -0.323 OA 
ENDROOT
BRANCH   2   8
HETATM    8  C   UNL     1     -10.854   6.618  69.865  1.00  0.00    -0.329 C  
BRANCH   8   9
HETATM    9  C   UNL     1     -10.422   5.621  68.813  1.00  0.00    -0.289 A  
HETATM   10  C   UNL     1     -10.694   5.855  67.455  1.00  0.00    -0.370 A  
HETATM   11  C   UNL     1     -10.327   4.906  66.506  1.00  0.00    -0.270 A  
HETATM   12  C   UNL     1      -9.687   3.731  66.892  1.00  0.00    -0.113 A  
HETATM   13  O   UNL     1     -10.586   5.082  65.175  1.00  0.00    -0.423 OA 
HETATM   14  H   UNL     1     -10.335   4.434  64.528  1.00  0.00     0.000 HD 
HETATM   15  O   UNL     1      -9.348   2.801  65.953  1.00  0.00    -0.296 OA 
HETATM   16  C   UNL     1      -9.398   3.484  68.225  1.00  0.00    -0.235 A  
HETATM   17  C   UNL     1      -9.769   4.432  69.173  1.00  0.00    -0.170 A  
HETATM   18  H   UNL     1      -8.911   2.000  66.216  1.00  0.00     0.000 HD 
HETATM   19  F   UNL     1      -9.527   4.182  70.468  1.00  0.00    -0.176 F  
ENDBRANCH   8   9
ENDBRANCH   2   8
TORSDOF 2
ENDMDL
MODEL      198
REMARK 921   NORMALIZED FREE ENERGY PREDICTED BY IDOCK:   -3.35 KCAL/MOL
REMARK 922        TOTAL FREE ENERGY PREDICTED BY IDOCK:   -4.06 KCAL/MOL
REMARK 923 INTER-LIGAND FREE ENERGY PREDICTED BY IDOCK:   -3.96 KCAL/MOL
REMARK 924 INTRA-LIGAND FREE ENERGY PREDICTED BY IDOCK:   -0.10 KCAL/MOL
REMARK 927      BINDING AFFINITY PREDICTED BY RF-SCORE:    0.00 PKD
ROOT
HETATM    1  N   UNL     1     -10.208  13.626  67.084  1.00  0.00    -0.242 NA 
HETATM    2  CA  UNL     1     -11.283  14.605  66.723  1.00  0.00    -0.344 C  
HETATM    3  H2  UNL     1     -10.205  13.455  68.090  1.00  0.00     0.000 HD 
HETATM    4  H1  UNL     1     -10.256  12.745  66.573  1.00  0.00     0.000 HD 
HETATM    5  OXT UNL     1     -11.958  15.630  64.597  1.00  0.00    -0.200 OA 
HETATM    6  C   UNL     1     -11.258  14.833  65.202  1.00  0.00    -0.382 C  
HETATM    7  O   UNL     1     -10.353  14.021  64.596  1.00  0.00    -0.440 OA 
ENDROOT
BRANCH   2   8
HETATM    8  C   UNL     1     -11.211  15.935  67.495  1.00  0.00    -0.171 C  
BRANCH   8   9
HETATM    9  C   UNL     1      -9.896  16.674  67.386  1.00  0.00    -0.254 A  
HETATM   10  C   UNL     1      -8.809  16.316  68.200  1.00  0.00    -0.183 A  
HETATM   11  C   UNL     1      -7.621  17.035  68.116  1.00  0.00    -0.194 A  
HETATM   12  C   UNL     1      -7.501  18.101  67.227  1.00  0.00    -0.211 A  
HETATM   13  O   UNL     1      -6.541  16.736  68.899  1.00  0.00    -0.166 OA 
HETATM   14  H   UNL     1      -5.730  17.227  68.841  1.00  0.00     0.000 HD 
HETATM   15  O   UNL     1      -6.335  18.809  67.168  1.00  0.00    -0.185 OA 
HETATM   16  C   UNL     1      -8.556  18.464  66.406  1.00  0.00    -0.264 A  
HETATM   17  C   UNL     1      -9.745  17.747  66.494  1.00  0.00    -0.320 A  
HETATM   18  H   UNL     1      -6.253  19.536  66.561  1.00  0.00     0.000 HD 
HETATM   19  F   UNL     1     -10.784  18.118  65.731  1.00  0.00    -0.403 F  
ENDBRANCH   8   9
ENDBRANCH   2   8
TORSDOF 2
ENDMDL
MODEL      199
REMARK 921   NORMALIZED FREE ENERGY PREDICTED BY IDOCK:   -3.35 KCAL/MOL
REMARK 922        TOTAL FREE ENERGY PREDICTED BY IDOCK:   -4.06 KCAL/MOL
REMARK 923 INTER-LIGAND FREE ENERGY PREDICTED BY IDOCK:   -3.88 KCAL/MOL
REMARK 924 INTRA-LIGAND FREE ENERGY PREDICTED BY IDOCK:   -0.18 KCAL/MOL
REMARK 927      BINDING AFFINITY PREDICTED BY RF-SCORE:    0.00 PKD
ROOT
HETATM    1  N   UNL     1     -12.340  11.982  64.213  1.00  0.00    -0.338 NA 
HETATM    2  CA  UNL     1     -11.643  12.270  65.507  1.00  0.00    -0.371 C  
HETATM    3  H2  UNL     1     -11.933  11.162  63.763  1.00  0.00     0.000 HD 
HETATM    4  H1  UNL     1     -13.351  11.877  64.298  1.00  0.00     0.000 HD 
HETATM    5  OXT UNL     1     -11.901  14.047  67.181  1.00  0.00    -0.369 OA 
HETATM    6  C   UNL     1     -12.286  13.508  66.155  1.00  0.00    -0.407 C  
HETATM    7  O   UNL     1     -13.362  13.934  65.444  1.00  0.00    -0.710 OA 
ENDROOT
BRANCH   2   8
HETATM    8  C   UNL     1     -10.117  12.428  65.379  1.00  0.00    -0.289 C  
BRANCH   8   9
HETATM    9  C   UNL     1      -9.310  11.833  66.512  1.00  0.00    -0.217 A  
HETATM   10  C   UNL     1      -8.466  12.645  67.288  1.00  0.00    -0.193 A  
HETATM   11  C   UNL     1      -7.699  12.073  68.298  1.00  0.00    -0.127 A  
HETATM   12  C   UNL     1      -7.767  10.705  68.548  1.00  0.00    -0.107 A  
HETATM   13  O   UNL     1      -6.851  12.819  69.068  1.00  0.00    -0.097 OA 
HETATM   14  H   UNL     1      -6.328  12.428  69.758  1.00  0.00     0.000 HD 
HETATM   15  O   UNL     1      -6.996  10.154  69.530  1.00  0.00    -0.063 OA 
HETATM   16  C   UNL     1      -8.600   9.886  67.803  1.00  0.00    -0.121 A  
HETATM   17  C   UNL     1      -9.364  10.459  66.791  1.00  0.00    -0.156 A  
HETATM   18  H   UNL     1      -7.042   9.221  69.701  1.00  0.00     0.000 HD 
HETATM   19  F   UNL     1     -10.143   9.667  66.040  1.00  0.00    -0.313 F  
ENDBRANCH   8   9
ENDBRANCH   2   8
TORSDOF 2
ENDMDL
MODEL      200
REMARK 921   NORMALIZED FREE ENERGY PREDICTED BY IDOCK:   -3.33 KCAL/MOL
REMARK 922        TOTAL FREE ENERGY PREDICTED BY IDOCK:   -4.04 KCAL/MOL
REMARK 923 INTER-LIGAND FREE ENERGY PREDICTED BY IDOCK:   -4.33 KCAL/MOL
REMARK 924 INTRA-LIGAND FREE ENERGY PREDICTED BY IDOCK:    0.29 KCAL/MOL
REMARK 927      BINDING AFFINITY PREDICTED BY RF-SCORE:    0.00 PKD
ROOT
HETATM    1  N   UNL     1     -10.823  13.864  69.598  1.00  0.00    -0.453 NA 
HETATM    2  CA  UNL     1     -11.693  13.446  68.452  1.00  0.00    -0.355 C  
HETATM    3  H2  UNL     1     -10.940  14.859  69.790  1.00  0.00     0.000 HD 
HETATM    4  H1  UNL     1     -10.960  13.319  70.448  1.00  0.00     0.000 HD 
HETATM    5  OXT UNL     1     -11.999  11.308  67.285  1.00  0.00    -0.529 OA 
HETATM    6  C   UNL     1     -11.491  11.942  68.197  1.00  0.00    -0.320 C  
HETATM    7  O   UNL     1     -10.673  11.389  69.129  1.00  0.00    -0.216 OA 
ENDROOT
BRANCH   2   8
HETATM    8  C   UNL     1     -11.486  14.270  67.169  1.00  0.00    -0.377 C  
BRANCH   8   9
HETATM    9  C   UNL     1     -10.107  14.868  67.002  1.00  0.00    -0.244 A  
HETATM   10  C   UNL     1      -8.962  14.119  67.322  1.00  0.00    -0.221 A  
HETATM   11  C   UNL     1      -7.705  14.701  67.203  1.00  0.00    -0.088 A  
HETATM   12  C   UNL     1      -7.572  16.016  66.762  1.00  0.00    -0.212 A  
HETATM   13  O   UNL     1      -6.563  14.019  67.520  1.00  0.00    -0.219 OA 
HETATM   14  H   UNL     1      -5.704  14.416  67.438  1.00  0.00     0.000 HD 
HETATM   15  O   UNL     1      -6.333  16.579  66.666  1.00  0.00    -0.281 OA 
HETATM   16  C   UNL     1      -8.686  16.769  66.428  1.00  0.00    -0.337 A  
HETATM   17  C   UNL     1      -9.944  16.187  66.552  1.00  0.00    -0.280 A  
HETATM   18  H   UNL     1      -6.242  17.475  66.365  1.00  0.00     0.000 HD 
HETATM   19  F   UNL     1     -11.029  16.924  66.269  1.00  0.00    -0.195 F  
ENDBRANCH   8   9
ENDBRANCH   2   8
TORSDOF 2
ENDMDL
MODEL      201
REMARK 921   NORMALIZED FREE ENERGY PREDICTED BY IDOCK:   -3.30 KCAL/MOL
REMARK 922        TOTAL FREE ENERGY PREDICTED BY IDOCK:   -4.00 KCAL/MOL
REMARK 923 INTER-LIGAND FREE ENERGY PREDICTED BY IDOCK:   -3.96 KCAL/MOL
REMARK 924 INTRA-LIGAND FREE ENERGY PREDICTED BY IDOCK:   -0.04 KCAL/MOL
REMARK 927      BINDING AFFINITY PREDICTED BY RF-SCORE:    0.00 PKD
ROOT
HETATM    1  N   UNL     1      -9.365   7.905  71.448  1.00  0.00    -0.140 NA 
HETATM    2  CA  UNL     1     -10.567   8.780  71.631  1.00  0.00    -0.331 C  
HETATM    3  H2  UNL     1      -8.767   8.271  70.708  1.00  0.00     0.000 HD 
HETATM    4  H1  UNL     1      -8.826   7.754  72.300  1.00  0.00     0.000 HD 
HETATM    5  OXT UNL     1     -12.528   8.634  73.101  1.00  0.00    -0.082 OA 
HETATM    6  C   UNL     1     -11.440   8.199  72.756  1.00  0.00    -0.329 C  
HETATM    7  O   UNL     1     -10.844   7.128  73.341  1.00  0.00    -0.351 OA 
ENDROOT
BRANCH   2   8
HETATM    8  C   UNL     1     -11.381   9.009  70.345  1.00  0.00    -0.242 C  
BRANCH   8   9
HETATM    9  C   UNL     1     -10.968   8.164  69.160  1.00  0.00     0.068 A  
HETATM   10  C   UNL     1     -10.375   8.759  68.034  1.00  0.00    -0.273 A  
HETATM   11  C   UNL     1     -10.042   7.972  66.937  1.00  0.00    -0.292 A  
HETATM   12  C   UNL     1     -10.284   6.600  66.950  1.00  0.00    -0.220 A  
HETATM   13  O   UNL     1      -9.479   8.507  65.812  1.00  0.00    -0.390 OA 
HETATM   14  H   UNL     1      -9.251   7.969  65.062  1.00  0.00     0.000 HD 
HETATM   15  O   UNL     1      -9.967   5.843  65.860  1.00  0.00    -0.387 OA 
HETATM   16  C   UNL     1     -10.857   5.991  68.055  1.00  0.00    -0.374 A  
HETATM   17  C   UNL     1     -11.194   6.780  69.150  1.00  0.00    -0.177 A  
HETATM   18  H   UNL     1     -10.132   4.907  65.869  1.00  0.00     0.000 HD 
HETATM   19  F   UNL     1     -11.785   6.202  70.207  1.00  0.00    -0.438 F  
ENDBRANCH   8   9
ENDBRANCH   2   8
TORSDOF 2
ENDMDL
MODEL      202
REMARK 921   NORMALIZED FREE ENERGY PREDICTED BY IDOCK:   -3.27 KCAL/MOL
REMARK 922        TOTAL FREE ENERGY PREDICTED BY IDOCK:   -3.97 KCAL/MOL
REMARK 923 INTER-LIGAND FREE ENERGY PREDICTED BY IDOCK:   -3.80 KCAL/MOL
REMARK 924 INTRA-LIGAND FREE ENERGY PREDICTED BY IDOCK:   -0.17 KCAL/MOL
REMARK 927      BINDING AFFINITY PREDICTED BY RF-SCORE:    0.00 PKD
ROOT
HETATM    1  N   UNL     1     -11.306   9.751  68.593  1.00  0.00    -0.493 NA 
HETATM    2  CA  UNL     1     -11.120   8.649  69.591  1.00  0.00    -0.013 C  
HETATM    3  H2  UNL     1     -11.203   9.393  67.643  1.00  0.00     0.000 HD 
HETATM    4  H1  UNL     1     -12.187  10.257  68.689  1.00  0.00     0.000 HD 
HETATM    5  OXT UNL     1     -11.123   8.605  72.045  1.00  0.00    -0.321 OA 
HETATM    6  C   UNL     1     -11.287   9.226  71.007  1.00  0.00    -0.320 C  
HETATM    7  O   UNL     1     -11.656  10.533  70.967  1.00  0.00    -0.330 OA 
ENDROOT
BRANCH   2   8
HETATM    8  C   UNL     1      -9.792   7.885  69.445  1.00  0.00    -0.180 C  
BRANCH   8   9
HETATM    9  C   UNL     1      -9.613   7.144  68.138  1.00  0.00    -0.134 A  
HETATM   10  C   UNL     1     -10.694   6.463  67.552  1.00  0.00    -0.396 A  
HETATM   11  C   UNL     1     -10.500   5.752  66.373  1.00  0.00    -0.157 A  
HETATM   12  C   UNL     1      -9.246   5.716  65.766  1.00  0.00    -0.096 A  
HETATM   13  O   UNL     1     -11.516   5.060  65.775  1.00  0.00    -0.754 OA 
HETATM   14  H   UNL     1     -11.383   4.575  64.969  1.00  0.00     0.000 HD 
HETATM   15  O   UNL     1      -9.067   5.000  64.618  1.00  0.00    -0.277 OA 
HETATM   16  C   UNL     1      -8.170   6.390  66.320  1.00  0.00    -0.118 A  
HETATM   17  C   UNL     1      -8.364   7.097  67.502  1.00  0.00    -0.116 A  
HETATM   18  H   UNL     1      -8.212   4.976  64.204  1.00  0.00     0.000 HD 
HETATM   19  F   UNL     1      -7.317   7.719  68.064  1.00  0.00    -0.089 F  
ENDBRANCH   8   9
ENDBRANCH   2   8
TORSDOF 2
ENDMDL
MODEL      203
REMARK 921   NORMALIZED FREE ENERGY PREDICTED BY IDOCK:   -3.24 KCAL/MOL
REMARK 922        TOTAL FREE ENERGY PREDICTED BY IDOCK:   -3.94 KCAL/MOL
REMARK 923 INTER-LIGAND FREE ENERGY PREDICTED BY IDOCK:   -3.64 KCAL/MOL
REMARK 924 INTRA-LIGAND FREE ENERGY PREDICTED BY IDOCK:   -0.30 KCAL/MOL
REMARK 927      BINDING AFFINITY PREDICTED BY RF-SCORE:    0.00 PKD
ROOT
HETATM    1  N   UNL     1     -11.286  13.223  67.041  1.00  0.00    -0.299 NA 
HETATM    2  CA  UNL     1     -11.442  12.423  68.298  1.00  0.00    -0.310 C  
HETATM    3  H2  UNL     1     -10.886  12.649  66.300  1.00  0.00     0.000 HD 
HETATM    4  H1  UNL     1     -12.146  13.669  66.721  1.00  0.00     0.000 HD 
HETATM    5  OXT UNL     1     -12.237  12.993  70.550  1.00  0.00    -0.357 OA 
HETATM    6  C   UNL     1     -12.051  13.321  69.388  1.00  0.00    -0.248 C  
HETATM    7  O   UNL     1     -12.375  14.545  68.895  1.00  0.00    -0.204 OA 
ENDROOT
BRANCH   2   8
HETATM    8  C   UNL     1     -10.146  11.749  68.781  1.00  0.00    -0.153 C  
BRANCH   8   9
HETATM    9  C   UNL     1     -10.251  10.263  69.046  1.00  0.00    -0.225 A  
HETATM   10  C   UNL     1     -10.330   9.778  70.362  1.00  0.00    -0.354 A  
HETATM   11  C   UNL     1     -10.383   8.407  70.588  1.00  0.00    -0.197 A  
HETATM   12  C   UNL     1     -10.365   7.513  69.519  1.00  0.00    -0.216 A  
HETATM   13  O   UNL     1     -10.443   7.887  71.851  1.00  0.00    -0.211 OA 
HETATM   14  H   UNL     1     -10.479   6.950  72.004  1.00  0.00     0.000 HD 
HETATM   15  O   UNL     1     -10.400   6.169  69.756  1.00  0.00    -0.180 OA 
HETATM   16  C   UNL     1     -10.300   7.969  68.213  1.00  0.00    -0.240 A  
HETATM   17  C   UNL     1     -10.242   9.341  67.989  1.00  0.00    -0.209 A  
HETATM   18  H   UNL     1     -10.389   5.560  69.028  1.00  0.00     0.000 HD 
HETATM   19  F   UNL     1     -10.139   9.788  66.728  1.00  0.00    -0.233 F  
ENDBRANCH   8   9
ENDBRANCH   2   8
TORSDOF 2
ENDMDL
MODEL      204
REMARK 921   NORMALIZED FREE ENERGY PREDICTED BY IDOCK:   -3.24 KCAL/MOL
REMARK 922        TOTAL FREE ENERGY PREDICTED BY IDOCK:   -3.93 KCAL/MOL
REMARK 923 INTER-LIGAND FREE ENERGY PREDICTED BY IDOCK:   -3.82 KCAL/MOL
REMARK 924 INTRA-LIGAND FREE ENERGY PREDICTED BY IDOCK:   -0.11 KCAL/MOL
REMARK 927      BINDING AFFINITY PREDICTED BY RF-SCORE:    0.00 PKD
ROOT
HETATM    1  N   UNL     1     -11.107   8.512  67.588  1.00  0.00    -0.394 NA 
HETATM    2  CA  UNL     1      -9.712   8.053  67.883  1.00  0.00    -0.160 C  
HETATM    3  H2  UNL     1     -11.234   9.481  67.882  1.00  0.00     0.000 HD 
HETATM    4  H1  UNL     1     -11.388   8.396  66.615  1.00  0.00     0.000 HD 
HETATM    5  OXT UNL     1      -8.567   5.902  67.588  1.00  0.00    -0.105 OA 
HETATM    6  C   UNL     1      -9.560   6.593  67.423  1.00  0.00    -0.126 C  
HETATM    7  O   UNL     1     -10.679   6.156  66.789  1.00  0.00    -0.291 OA 
ENDROOT
BRANCH   2   8
HETATM    8  C   UNL     1      -9.287   8.230  69.352  1.00  0.00    -0.155 C  
BRANCH   8   9
HETATM    9  C   UNL     1     -10.086   7.427  70.355  1.00  0.00    -0.193 A  
HETATM   10  C   UNL     1     -11.378   7.835  70.726  1.00  0.00    -0.291 A  
HETATM   11  C   UNL     1     -12.080   7.108  71.682  1.00  0.00    -0.336 A  
HETATM   12  C   UNL     1     -11.515   5.978  72.268  1.00  0.00    -0.312 A  
HETATM   13  O   UNL     1     -13.333   7.475  72.088  1.00  0.00    -0.505 OA 
HETATM   14  H   UNL     1     -13.813   6.979  72.741  1.00  0.00     0.000 HD 
HETATM   15  O   UNL     1     -12.209   5.285  73.217  1.00  0.00    -0.413 OA 
HETATM   16  C   UNL     1     -10.247   5.551  71.909  1.00  0.00    -0.251 A  
HETATM   17  C   UNL     1      -9.544   6.281  70.955  1.00  0.00    -0.175 A  
HETATM   18  H   UNL     1     -11.823   4.513  73.616  1.00  0.00     0.000 HD 
HETATM   19  F   UNL     1      -8.300   5.896  70.632  1.00  0.00    -0.114 F  
ENDBRANCH   8   9
ENDBRANCH   2   8
TORSDOF 2
ENDMDL
MODEL      205
REMARK 921   NORMALIZED FREE ENERGY PREDICTED BY IDOCK:   -3.19 KCAL/MOL
REMARK 922        TOTAL FREE ENERGY PREDICTED BY IDOCK:   -3.88 KCAL/MOL
REMARK 923 INTER-LIGAND FREE ENERGY PREDICTED BY IDOCK:   -3.76 KCAL/MOL
REMARK 924 INTRA-LIGAND FREE ENERGY PREDICTED BY IDOCK:   -0.12 KCAL/MOL
REMARK 927      BINDING AFFINITY PREDICTED BY RF-SCORE:    0.00 PKD
ROOT
HETATM    1  N   UNL     1      -9.591   7.908  71.376  1.00  0.00    -0.151 NA 
HETATM    2  CA  UNL     1     -10.602   9.004  71.520  1.00  0.00    -0.345 C  
HETATM    3  H2  UNL     1      -8.738   8.264  70.945  1.00  0.00     0.000 HD 
HETATM    4  H1  UNL     1      -9.375   7.422  72.246  1.00  0.00     0.000 HD 
HETATM    5  OXT UNL     1     -12.907   9.045  72.364  1.00  0.00    -0.401 OA 
HETATM    6  C   UNL     1     -11.870   8.429  72.175  1.00  0.00    -0.375 C  
HETATM    7  O   UNL     1     -11.694   7.131  72.536  1.00  0.00    -0.257 OA 
ENDROOT
BRANCH   2   8
HETATM    8  C   UNL     1     -10.928   9.738  70.207  1.00  0.00    -0.352 C  
BRANCH   8   9
HETATM    9  C   UNL     1     -10.416   9.070  68.950  1.00  0.00    -0.231 A  
HETATM   10  C   UNL     1     -11.082   7.955  68.414  1.00  0.00     0.303 A  
HETATM   11  C   UNL     1     -10.572   7.327  67.283  1.00  0.00    -0.325 A  
HETATM   12  C   UNL     1      -9.412   7.801  66.674  1.00  0.00    -0.205 A  
HETATM   13  O   UNL     1     -11.174   6.229  66.735  1.00  0.00    -0.683 OA 
HETATM   14  H   UNL     1     -10.826   5.801  65.962  1.00  0.00     0.000 HD 
HETATM   15  O   UNL     1      -8.913   7.165  65.574  1.00  0.00    -0.366 OA 
HETATM   16  C   UNL     1      -8.745   8.906  67.177  1.00  0.00    -0.126 A  
HETATM   17  C   UNL     1      -9.254   9.530  68.312  1.00  0.00    -0.130 A  
HETATM   18  H   UNL     1      -8.122   7.488  65.158  1.00  0.00     0.000 HD 
HETATM   19  F   UNL     1      -8.592  10.577  68.828  1.00  0.00    -0.114 F  
ENDBRANCH   8   9
ENDBRANCH   2   8
TORSDOF 2
ENDMDL
MODEL      206
REMARK 921   NORMALIZED FREE ENERGY PREDICTED BY IDOCK:   -3.19 KCAL/MOL
REMARK 922        TOTAL FREE ENERGY PREDICTED BY IDOCK:   -3.88 KCAL/MOL
REMARK 923 INTER-LIGAND FREE ENERGY PREDICTED BY IDOCK:   -3.58 KCAL/MOL
REMARK 924 INTRA-LIGAND FREE ENERGY PREDICTED BY IDOCK:   -0.30 KCAL/MOL
REMARK 927      BINDING AFFINITY PREDICTED BY RF-SCORE:    0.00 PKD
ROOT
HETATM    1  N   UNL     1      -9.952  14.074  66.887  1.00  0.00    -0.257 NA 
HETATM    2  CA  UNL     1     -10.370  12.643  67.039  1.00  0.00    -0.232 C  
HETATM    3  H2  UNL     1      -9.114  14.141  66.310  1.00  0.00     0.000 HD 
HETATM    4  H1  UNL     1     -10.684  14.686  66.525  1.00  0.00     0.000 HD 
HETATM    5  OXT UNL     1     -12.188  11.560  68.284  1.00  0.00    -0.561 OA 
HETATM    6  C   UNL     1     -11.637  12.584  67.910  1.00  0.00    -0.347 C  
HETATM    7  O   UNL     1     -12.087  13.829  68.212  1.00  0.00    -0.362 OA 
ENDROOT
BRANCH   2   8
HETATM    8  C   UNL     1      -9.266  11.719  67.585  1.00  0.00    -0.180 C  
BRANCH   8   9
HETATM    9  C   UNL     1      -8.975  10.496  66.743  1.00  0.00    -0.149 A  
HETATM   10  C   UNL     1      -8.137  10.588  65.619  1.00  0.00    -0.161 A  
HETATM   11  C   UNL     1      -7.915   9.463  64.833  1.00  0.00    -0.120 A  
HETATM   12  C   UNL     1      -8.511   8.245  65.156  1.00  0.00    -0.146 A  
HETATM   13  O   UNL     1      -7.123   9.507  63.720  1.00  0.00    -0.100 OA 
HETATM   14  H   UNL     1      -6.971   8.738  63.183  1.00  0.00     0.000 HD 
HETATM   15  O   UNL     1      -8.298   7.153  64.366  1.00  0.00    -0.330 OA 
HETATM   16  C   UNL     1      -9.330   8.128  66.267  1.00  0.00    -0.259 A  
HETATM   17  C   UNL     1      -9.555   9.256  67.050  1.00  0.00    -0.171 A  
HETATM   18  H   UNL     1      -8.704   6.323  64.586  1.00  0.00     0.000 HD 
HETATM   19  F   UNL     1     -10.379   9.159  68.104  1.00  0.00    -0.203 F  
ENDBRANCH   8   9
ENDBRANCH   2   8
TORSDOF 2
ENDMDL
MODEL      207
REMARK 921   NORMALIZED FREE ENERGY PREDICTED BY IDOCK:   -3.19 KCAL/MOL
REMARK 922        TOTAL FREE ENERGY PREDICTED BY IDOCK:   -3.88 KCAL/MOL
REMARK 923 INTER-LIGAND FREE ENERGY PREDICTED BY IDOCK:   -3.57 KCAL/MOL
REMARK 924 INTRA-LIGAND FREE ENERGY PREDICTED BY IDOCK:   -0.31 KCAL/MOL
REMARK 927      BINDING AFFINITY PREDICTED BY RF-SCORE:    0.00 PKD
ROOT
HETATM    1  N   UNL     1      -9.522   5.281  67.320  1.00  0.00    -0.122 NA 
HETATM    2  CA  UNL     1      -9.985   6.561  67.946  1.00  0.00    -0.131 C  
HETATM    3  H2  UNL     1      -9.031   5.469  66.445  1.00  0.00     0.000 HD 
HETATM    4  H1  UNL     1      -8.950   4.700  67.931  1.00  0.00     0.000 HD 
HETATM    5  OXT UNL     1     -11.277   7.051  69.975  1.00  0.00    -0.276 OA 
HETATM    6  C   UNL     1     -10.715   6.236  69.261  1.00  0.00    -0.305 C  
HETATM    7  O   UNL     1     -10.651   4.909  69.546  1.00  0.00    -0.110 OA 
ENDROOT
BRANCH   2   8
HETATM    8  C   UNL     1     -10.848   7.439  67.023  1.00  0.00    -0.307 C  
BRANCH   8   9
HETATM    9  C   UNL     1     -10.287   8.813  66.729  1.00  0.00    -0.328 A  
HETATM   10  C   UNL     1      -9.378   8.999  65.675  1.00  0.00    -0.289 A  
HETATM   11  C   UNL     1      -8.839  10.262  65.447  1.00  0.00    -0.172 A  
HETATM   12  C   UNL     1      -9.201  11.340  66.251  1.00  0.00    -0.200 A  
HETATM   13  O   UNL     1      -7.937  10.489  64.445  1.00  0.00    -0.296 OA 
HETATM   14  H   UNL     1      -7.570  11.351  64.290  1.00  0.00     0.000 HD 
HETATM   15  O   UNL     1      -8.652  12.569  66.026  1.00  0.00    -0.364 OA 
HETATM   16  C   UNL     1     -10.105  11.182  67.288  1.00  0.00    -0.218 A  
HETATM   17  C   UNL     1     -10.639   9.918  67.518  1.00  0.00    -0.275 A  
HETATM   18  H   UNL     1      -8.898  13.305  66.574  1.00  0.00     0.000 HD 
HETATM   19  F   UNL     1     -11.485   9.749  68.545  1.00  0.00    -0.176 F  
ENDBRANCH   8   9
ENDBRANCH   2   8
TORSDOF 2
ENDMDL
MODEL      208
REMARK 921   NORMALIZED FREE ENERGY PREDICTED BY IDOCK:   -3.19 KCAL/MOL
REMARK 922        TOTAL FREE ENERGY PREDICTED BY IDOCK:   -3.87 KCAL/MOL
REMARK 923 INTER-LIGAND FREE ENERGY PREDICTED BY IDOCK:   -3.66 KCAL/MOL
REMARK 924 INTRA-LIGAND FREE ENERGY PREDICTED BY IDOCK:   -0.21 KCAL/MOL
REMARK 927      BINDING AFFINITY PREDICTED BY RF-SCORE:    0.00 PKD
ROOT
HETATM    1  N   UNL     1      -8.543   6.964  68.278  1.00  0.00    -0.125 NA 
HETATM    2  CA  UNL     1      -9.588   5.912  68.066  1.00  0.00    -0.116 C  
HETATM    3  H2  UNL     1      -8.395   7.125  69.274  1.00  0.00     0.000 HD 
HETATM    4  H1  UNL     1      -7.656   6.771  67.813  1.00  0.00     0.000 HD 
HETATM    5  OXT UNL     1     -10.609   4.959  66.048  1.00  0.00    -0.305 OA 
HETATM    6  C   UNL     1      -9.779   5.696  66.555  1.00  0.00    -0.160 C  
HETATM    7  O   UNL     1      -8.888   6.428  65.836  1.00  0.00    -0.157 OA 
ENDROOT
BRANCH   2   8
HETATM    8  C   UNL     1     -10.927   6.203  68.768  1.00  0.00    -0.421 C  
BRANCH   8   9
HETATM    9  C   UNL     1     -10.932   5.984  70.265  1.00  0.00    -0.412 A  
HETATM   10  C   UNL     1     -10.321   4.847  70.820  1.00  0.00    -0.228 A  
HETATM   11  C   UNL     1     -10.373   4.640  72.194  1.00  0.00    -0.176 A  
HETATM   12  C   UNL     1     -11.019   5.554  73.023  1.00  0.00    -0.290 A  
HETATM   13  O   UNL     1      -9.809   3.541  72.779  1.00  0.00    -0.132 OA 
HETATM   14  H   UNL     1      -9.844   3.400  73.717  1.00  0.00     0.000 HD 
HETATM   15  O   UNL     1     -11.077   5.330  74.368  1.00  0.00    -0.351 OA 
HETATM   16  C   UNL     1     -11.618   6.689  72.499  1.00  0.00    -0.243 A  
HETATM   17  C   UNL     1     -11.569   6.892  71.124  1.00  0.00    -0.319 A  
HETATM   18  H   UNL     1     -11.518   5.953  74.934  1.00  0.00     0.000 HD 
HETATM   19  F   UNL     1     -12.181   7.968  70.606  1.00  0.00    -0.230 F  
ENDBRANCH   8   9
ENDBRANCH   2   8
TORSDOF 2
ENDMDL
MODEL      209
REMARK 921   NORMALIZED FREE ENERGY PREDICTED BY IDOCK:   -3.17 KCAL/MOL
REMARK 922        TOTAL FREE ENERGY PREDICTED BY IDOCK:   -3.86 KCAL/MOL
REMARK 923 INTER-LIGAND FREE ENERGY PREDICTED BY IDOCK:   -3.55 KCAL/MOL
REMARK 924 INTRA-LIGAND FREE ENERGY PREDICTED BY IDOCK:   -0.30 KCAL/MOL
REMARK 927      BINDING AFFINITY PREDICTED BY RF-SCORE:    0.00 PKD
ROOT
HETATM    1  N   UNL     1      -9.872  12.915  68.611  1.00  0.00    -0.401 NA 
HETATM    2  CA  UNL     1      -9.509  11.498  68.291  1.00  0.00    -0.189 C  
HETATM    3  H2  UNL     1     -10.656  12.945  69.262  1.00  0.00     0.000 HD 
HETATM    4  H1  UNL     1      -9.095  13.476  68.962  1.00  0.00     0.000 HD 
HETATM    5  OXT UNL     1      -7.835  10.502  66.797  1.00  0.00    -0.113 OA 
HETATM    6  C   UNL     1      -8.323  11.496  67.311  1.00  0.00    -0.154 C  
HETATM    7  O   UNL     1      -7.865  12.755  67.087  1.00  0.00    -0.161 OA 
ENDROOT
BRANCH   2   8
HETATM    8  C   UNL     1     -10.680  10.651  67.761  1.00  0.00    -0.302 C  
BRANCH   8   9
HETATM    9  C   UNL     1     -10.737   9.231  68.280  1.00  0.00    -0.195 A  
HETATM   10  C   UNL     1     -10.933   8.980  69.648  1.00  0.00    -0.147 A  
HETATM   11  C   UNL     1     -10.939   7.669  70.112  1.00  0.00    -0.246 A  
HETATM   12  C   UNL     1     -10.759   6.605  69.231  1.00  0.00    -0.265 A  
HETATM   13  O   UNL     1     -11.108   7.376  71.437  1.00  0.00    -0.236 OA 
HETATM   14  H   UNL     1     -11.113   6.480  71.754  1.00  0.00     0.000 HD 
HETATM   15  O   UNL     1     -10.750   5.325  69.703  1.00  0.00    -0.273 OA 
HETATM   16  C   UNL     1     -10.576   6.829  67.876  1.00  0.00    -0.296 A  
HETATM   17  C   UNL     1     -10.566   8.141  67.413  1.00  0.00    -0.255 A  
HETATM   18  H   UNL     1     -10.627   4.600  69.102  1.00  0.00     0.000 HD 
HETATM   19  F   UNL     1     -10.349   8.366  66.109  1.00  0.00    -0.320 F  
ENDBRANCH   8   9
ENDBRANCH   2   8
TORSDOF 2
ENDMDL
MODEL      210
REMARK 921   NORMALIZED FREE ENERGY PREDICTED BY IDOCK:   -3.17 KCAL/MOL
REMARK 922        TOTAL FREE ENERGY PREDICTED BY IDOCK:   -3.85 KCAL/MOL
REMARK 923 INTER-LIGAND FREE ENERGY PREDICTED BY IDOCK:   -3.79 KCAL/MOL
REMARK 924 INTRA-LIGAND FREE ENERGY PREDICTED BY IDOCK:   -0.06 KCAL/MOL
REMARK 927      BINDING AFFINITY PREDICTED BY RF-SCORE:    0.00 PKD
ROOT
HETATM    1  N   UNL     1      -8.307  10.127  68.129  1.00  0.00    -0.116 NA 
HETATM    2  CA  UNL     1      -9.044  10.984  67.147  1.00  0.00    -0.146 C  
HETATM    3  H2  UNL     1      -8.541   9.144  67.991  1.00  0.00     0.000 HD 
HETATM    4  H1  UNL     1      -7.295  10.257  68.120  1.00  0.00     0.000 HD 
HETATM    5  OXT UNL     1      -9.145  13.412  66.799  1.00  0.00    -0.242 OA 
HETATM    6  C   UNL     1      -8.662  12.455  67.384  1.00  0.00    -0.183 C  
HETATM    7  O   UNL     1      -7.696  12.568  68.333  1.00  0.00    -0.128 OA 
ENDROOT
BRANCH   2   8
HETATM    8  C   UNL     1     -10.571  10.788  67.160  1.00  0.00    -0.306 C  
BRANCH   8   9
HETATM    9  C   UNL     1     -11.244  11.052  68.489  1.00  0.00    -0.329 A  
HETATM   10  C   UNL     1     -11.629  12.355  68.846  1.00  0.00    -0.364 A  
HETATM   11  C   UNL     1     -12.207  12.585  70.090  1.00  0.00    -0.234 A  
HETATM   12  C   UNL     1     -12.413  11.533  70.979  1.00  0.00    -0.356 A  
HETATM   13  O   UNL     1     -12.582  13.837  70.489  1.00  0.00    -0.327 OA 
HETATM   14  H   UNL     1     -12.977  13.994  71.338  1.00  0.00     0.000 HD 
HETATM   15  O   UNL     1     -12.966  11.775  72.203  1.00  0.00    -0.374 OA 
HETATM   16  C   UNL     1     -12.052  10.238  70.643  1.00  0.00    -0.433 A  
HETATM   17  C   UNL     1     -11.470  10.010  69.401  1.00  0.00    -0.083 A  
HETATM   18  H   UNL     1     -13.107  11.058  72.809  1.00  0.00     0.000 HD 
HETATM   19  F   UNL     1     -11.082   8.765  69.085  1.00  0.00    -0.168 F  
ENDBRANCH   8   9
ENDBRANCH   2   8
TORSDOF 2
ENDMDL
MODEL      211
REMARK 921   NORMALIZED FREE ENERGY PREDICTED BY IDOCK:   -3.16 KCAL/MOL
REMARK 922        TOTAL FREE ENERGY PREDICTED BY IDOCK:   -3.85 KCAL/MOL
REMARK 923 INTER-LIGAND FREE ENERGY PREDICTED BY IDOCK:   -4.39 KCAL/MOL
REMARK 924 INTRA-LIGAND FREE ENERGY PREDICTED BY IDOCK:    0.55 KCAL/MOL
REMARK 927      BINDING AFFINITY PREDICTED BY RF-SCORE:    0.00 PKD
ROOT
HETATM    1  N   UNL     1     -13.455   8.940  73.058  1.00  0.00    -0.952 NA 
HETATM    2  CA  UNL     1     -12.413   8.347  72.160  1.00  0.00    -0.370 C  
HETATM    3  H2  UNL     1     -13.057   9.697  73.614  1.00  0.00     0.000 HD 
HETATM    4  H1  UNL     1     -14.293   9.257  72.572  1.00  0.00     0.000 HD 
HETATM    5  OXT UNL     1     -12.452   6.481  70.565  1.00  0.00    -0.173 OA 
HETATM    6  C   UNL     1     -13.050   7.214  71.337  1.00  0.00    -0.352 C  
HETATM    7  O   UNL     1     -14.386   7.129  71.566  1.00  0.00    -0.406 OA 
ENDROOT
BRANCH   2   8
HETATM    8  C   UNL     1     -11.146   7.869  72.893  1.00  0.00    -0.442 C  
BRANCH   8   9
HETATM    9  C   UNL     1      -9.838   8.294  72.263  1.00  0.00    -0.364 A  
HETATM   10  C   UNL     1      -8.617   8.001  72.893  1.00  0.00    -0.256 A  
HETATM   11  C   UNL     1      -7.426   8.438  72.322  1.00  0.00    -0.102 A  
HETATM   12  C   UNL     1      -7.436   9.155  71.128  1.00  0.00    -0.063 A  
HETATM   13  O   UNL     1      -6.215   8.192  72.906  1.00  0.00    -0.066 OA 
HETATM   14  H   UNL     1      -5.402   8.490  72.515  1.00  0.00     0.000 HD 
HETATM   15  O   UNL     1      -6.261   9.592  70.587  1.00  0.00    -0.059 OA 
HETATM   16  C   UNL     1      -8.627   9.445  70.483  1.00  0.00    -0.265 A  
HETATM   17  C   UNL     1      -9.818   9.012  71.058  1.00  0.00    -0.282 A  
HETATM   18  H   UNL     1      -6.268  10.081  69.773  1.00  0.00     0.000 HD 
HETATM   19  F   UNL     1     -10.977   9.323  70.459  1.00  0.00    -0.239 F  
ENDBRANCH   8   9
ENDBRANCH   2   8
TORSDOF 2
ENDMDL
MODEL      212
REMARK 921   NORMALIZED FREE ENERGY PREDICTED BY IDOCK:   -3.16 KCAL/MOL
REMARK 922        TOTAL FREE ENERGY PREDICTED BY IDOCK:   -3.84 KCAL/MOL
REMARK 923 INTER-LIGAND FREE ENERGY PREDICTED BY IDOCK:   -3.82 KCAL/MOL
REMARK 924 INTRA-LIGAND FREE ENERGY PREDICTED BY IDOCK:   -0.02 KCAL/MOL
REMARK 927      BINDING AFFINITY PREDICTED BY RF-SCORE:    0.00 PKD
ROOT
HETATM    1  N   UNL     1      -9.423  13.936  67.984  1.00  0.00    -0.202 NA 
HETATM    2  CA  UNL     1     -10.254  12.871  67.337  1.00  0.00    -0.230 C  
HETATM    3  H2  UNL     1      -8.516  13.561  68.263  1.00  0.00     0.000 HD 
HETATM    4  H1  UNL     1      -9.303  14.774  67.416  1.00  0.00     0.000 HD 
HETATM    5  OXT UNL     1     -12.541  12.852  66.444  1.00  0.00    -0.343 OA 
HETATM    6  C   UNL     1     -11.609  13.475  66.929  1.00  0.00    -0.363 C  
HETATM    7  O   UNL     1     -11.644  14.812  67.166  1.00  0.00    -0.370 OA 
ENDROOT
BRANCH   2   8
HETATM    8  C   UNL     1     -10.435  11.605  68.193  1.00  0.00    -0.217 C  
BRANCH   8   9
HETATM    9  C   UNL     1     -10.018  10.311  67.529  1.00  0.00    -0.226 A  
HETATM   10  C   UNL     1     -10.863   9.189  67.563  1.00  0.00    -0.151 A  
HETATM   11  C   UNL     1     -10.445   7.996  66.983  1.00  0.00    -0.340 A  
HETATM   12  C   UNL     1      -9.199   7.908  66.366  1.00  0.00    -0.191 A  
HETATM   13  O   UNL     1     -11.224   6.873  67.006  1.00  0.00    -0.562 OA 
HETATM   14  H   UNL     1     -10.938   6.058  66.610  1.00  0.00     0.000 HD 
HETATM   15  O   UNL     1      -8.795   6.726  65.816  1.00  0.00    -0.245 OA 
HETATM   16  C   UNL     1      -8.355   9.005  66.310  1.00  0.00    -0.122 A  
HETATM   17  C   UNL     1      -8.773  10.197  66.893  1.00  0.00    -0.129 A  
HETATM   18  H   UNL     1      -7.946   6.666  65.395  1.00  0.00     0.000 HD 
HETATM   19  F   UNL     1      -7.944  11.251  66.878  1.00  0.00    -0.128 F  
ENDBRANCH   8   9
ENDBRANCH   2   8
TORSDOF 2
ENDMDL
MODEL      213
REMARK 921   NORMALIZED FREE ENERGY PREDICTED BY IDOCK:   -3.16 KCAL/MOL
REMARK 922        TOTAL FREE ENERGY PREDICTED BY IDOCK:   -3.84 KCAL/MOL
REMARK 923 INTER-LIGAND FREE ENERGY PREDICTED BY IDOCK:   -3.64 KCAL/MOL
REMARK 924 INTRA-LIGAND FREE ENERGY PREDICTED BY IDOCK:   -0.20 KCAL/MOL
REMARK 927      BINDING AFFINITY PREDICTED BY RF-SCORE:    0.00 PKD
ROOT
HETATM    1  N   UNL     1      -8.110   9.680  68.783  1.00  0.00    -0.095 NA 
HETATM    2  CA  UNL     1      -9.187   8.654  68.958  1.00  0.00    -0.145 C  
HETATM    3  H2  UNL     1      -8.402  10.574  69.179  1.00  0.00     0.000 HD 
HETATM    4  H1  UNL     1      -7.204   9.403  69.159  1.00  0.00     0.000 HD 
HETATM    5  OXT UNL     1      -9.381   6.306  68.267  1.00  0.00    -0.115 OA 
HETATM    6  C   UNL     1      -8.710   7.323  68.353  1.00  0.00    -0.122 C  
HETATM    7  O   UNL     1      -7.423   7.408  67.926  1.00  0.00    -0.096 OA 
ENDROOT
BRANCH   2   8
HETATM    8  C   UNL     1     -10.556   9.073  68.392  1.00  0.00    -0.200 C  
BRANCH   8   9
HETATM    9  C   UNL     1     -11.132  10.346  68.972  1.00  0.00    -0.297 A  
HETATM   10  C   UNL     1     -11.177  11.522  68.204  1.00  0.00    -0.335 A  
HETATM   11  C   UNL     1     -11.670  12.693  68.769  1.00  0.00    -0.323 A  
HETATM   12  C   UNL     1     -12.125  12.707  70.086  1.00  0.00    -0.294 A  
HETATM   13  O   UNL     1     -11.718  13.866  68.068  1.00  0.00    -0.313 OA 
HETATM   14  H   UNL     1     -12.055  14.666  68.454  1.00  0.00     0.000 HD 
HETATM   15  O   UNL     1     -12.591  13.867  70.632  1.00  0.00    -0.335 OA 
HETATM   16  C   UNL     1     -12.102  11.556  70.857  1.00  0.00    -0.352 A  
HETATM   17  C   UNL     1     -11.604  10.387  70.293  1.00  0.00    -0.327 A  
HETATM   18  H   UNL     1     -12.902  13.877  71.530  1.00  0.00     0.000 HD 
HETATM   19  F   UNL     1     -11.541   9.279  71.047  1.00  0.00    -0.293 F  
ENDBRANCH   8   9
ENDBRANCH   2   8
TORSDOF 2
ENDMDL
MODEL      214
REMARK 921   NORMALIZED FREE ENERGY PREDICTED BY IDOCK:   -3.16 KCAL/MOL
REMARK 922        TOTAL FREE ENERGY PREDICTED BY IDOCK:   -3.84 KCAL/MOL
REMARK 923 INTER-LIGAND FREE ENERGY PREDICTED BY IDOCK:   -3.59 KCAL/MOL
REMARK 924 INTRA-LIGAND FREE ENERGY PREDICTED BY IDOCK:   -0.25 KCAL/MOL
REMARK 927      BINDING AFFINITY PREDICTED BY RF-SCORE:    0.00 PKD
ROOT
HETATM    1  N   UNL     1      -8.056   6.505  67.584  1.00  0.00    -0.117 NA 
HETATM    2  CA  UNL     1      -9.514   6.166  67.636  1.00  0.00    -0.111 C  
HETATM    3  H2  UNL     1      -7.728   6.812  68.499  1.00  0.00     0.000 HD 
HETATM    4  H1  UNL     1      -7.465   5.755  67.226  1.00  0.00     0.000 HD 
HETATM    5  OXT UNL     1     -11.117   5.429  65.929  1.00  0.00     0.012 OA 
HETATM    6  C   UNL     1      -9.969   5.706  66.240  1.00  0.00    -0.115 C  
HETATM    7  O   UNL     1      -8.921   5.632  65.379  1.00  0.00    -0.148 OA 
ENDROOT
BRANCH   2   8
HETATM    8  C   UNL     1     -10.406   7.298  68.176  1.00  0.00    -0.234 C  
BRANCH   8   9
HETATM    9  C   UNL     1     -10.537   7.355  69.682  1.00  0.00    -0.243 A  
HETATM   10  C   UNL     1     -11.591   6.691  70.331  1.00  0.00    -0.457 A  
HETATM   11  C   UNL     1     -11.720   6.790  71.712  1.00  0.00    -0.312 A  
HETATM   12  C   UNL     1     -10.807   7.535  72.456  1.00  0.00    -0.299 A  
HETATM   13  O   UNL     1     -12.739   6.177  72.386  1.00  0.00    -0.533 OA 
HETATM   14  H   UNL     1     -12.826   6.244  73.329  1.00  0.00     0.000 HD 
HETATM   15  O   UNL     1     -10.955   7.637  73.809  1.00  0.00    -0.479 OA 
HETATM   16  C   UNL     1      -9.752   8.188  71.839  1.00  0.00    -0.268 A  
HETATM   17  C   UNL     1      -9.628   8.092  70.457  1.00  0.00    -0.170 A  
HETATM   18  H   UNL     1     -10.333   8.145  74.316  1.00  0.00     0.000 HD 
HETATM   19  F   UNL     1      -8.632   8.753  69.848  1.00  0.00    -0.117 F  
ENDBRANCH   8   9
ENDBRANCH   2   8
TORSDOF 2
ENDMDL
MODEL      215
REMARK 921   NORMALIZED FREE ENERGY PREDICTED BY IDOCK:   -3.16 KCAL/MOL
REMARK 922        TOTAL FREE ENERGY PREDICTED BY IDOCK:   -3.84 KCAL/MOL
REMARK 923 INTER-LIGAND FREE ENERGY PREDICTED BY IDOCK:   -3.66 KCAL/MOL
REMARK 924 INTRA-LIGAND FREE ENERGY PREDICTED BY IDOCK:   -0.18 KCAL/MOL
REMARK 927      BINDING AFFINITY PREDICTED BY RF-SCORE:    0.00 PKD
ROOT
HETATM    1  N   UNL     1     -11.661  11.270  66.050  1.00  0.00    -0.020 NA 
HETATM    2  CA  UNL     1     -10.234  11.649  66.303  1.00  0.00    -0.227 C  
HETATM    3  H2  UNL     1     -12.273  12.074  66.188  1.00  0.00     0.000 HD 
HETATM    4  H1  UNL     1     -11.826  10.849  65.136  1.00  0.00     0.000 HD 
HETATM    5  OXT UNL     1      -8.140  10.367  66.280  1.00  0.00    -0.125 OA 
HETATM    6  C   UNL     1      -9.344  10.413  66.083  1.00  0.00    -0.172 C  
HETATM    7  O   UNL     1     -10.068   9.359  65.624  1.00  0.00    -0.261 OA 
ENDROOT
BRANCH   2   8
HETATM    8  C   UNL     1      -9.985  12.285  67.683  1.00  0.00    -0.199 C  
BRANCH   8   9
HETATM    9  C   UNL     1     -10.660  11.590  68.845  1.00  0.00    -0.236 A  
HETATM   10  C   UNL     1     -10.095  10.435  69.410  1.00  0.00    -0.251 A  
HETATM   11  C   UNL     1     -10.753   9.786  70.449  1.00  0.00    -0.308 A  
HETATM   12  C   UNL     1     -11.961  10.276  70.938  1.00  0.00    -0.375 A  
HETATM   13  O   UNL     1     -10.251   8.649  71.019  1.00  0.00    -0.196 OA 
HETATM   14  H   UNL     1     -10.701   8.206  71.729  1.00  0.00     0.000 HD 
HETATM   15  O   UNL     1     -12.604   9.620  71.947  1.00  0.00    -0.377 OA 
HETATM   16  C   UNL     1     -12.531  11.421  70.404  1.00  0.00    -0.345 A  
HETATM   17  C   UNL     1     -11.875  12.067  69.362  1.00  0.00    -0.324 A  
HETATM   18  H   UNL     1     -13.428   9.954  72.280  1.00  0.00     0.000 HD 
HETATM   19  F   UNL     1     -12.440  13.153  68.814  1.00  0.00    -0.241 F  
ENDBRANCH   8   9
ENDBRANCH   2   8
TORSDOF 2
ENDMDL
MODEL      216
REMARK 921   NORMALIZED FREE ENERGY PREDICTED BY IDOCK:   -3.15 KCAL/MOL
REMARK 922        TOTAL FREE ENERGY PREDICTED BY IDOCK:   -3.84 KCAL/MOL
REMARK 923 INTER-LIGAND FREE ENERGY PREDICTED BY IDOCK:   -3.55 KCAL/MOL
REMARK 924 INTRA-LIGAND FREE ENERGY PREDICTED BY IDOCK:   -0.29 KCAL/MOL
REMARK 927      BINDING AFFINITY PREDICTED BY RF-SCORE:    0.00 PKD
ROOT
HETATM    1  N   UNL     1     -11.207   5.300  73.572  1.00  0.00    -0.462 NA 
HETATM    2  CA  UNL     1     -10.738   4.426  72.449  1.00  0.00    -0.045 C  
HETATM    3  H2  UNL     1     -11.533   6.197  73.214  1.00  0.00     0.000 HD 
HETATM    4  H1  UNL     1     -11.918   4.872  74.164  1.00  0.00     0.000 HD 
HETATM    5  OXT UNL     1      -9.747   2.181  72.385  1.00  0.00    -0.097 OA 
HETATM    6  C   UNL     1     -10.258   3.084  73.028  1.00  0.00    -0.149 C  
HETATM    7  O   UNL     1     -10.484   3.016  74.366  1.00  0.00    -0.160 OA 
ENDROOT
BRANCH   2   8
HETATM    8  C   UNL     1      -9.664   5.071  71.554  1.00  0.00    -0.227 C  
BRANCH   8   9
HETATM    9  C   UNL     1     -10.065   5.275  70.110  1.00  0.00    -0.333 A  
HETATM   10  C   UNL     1      -9.850   4.260  69.162  1.00  0.00    -0.163 A  
HETATM   11  C   UNL     1     -10.186   4.482  67.830  1.00  0.00     0.103 A  
HETATM   12  C   UNL     1     -10.738   5.697  67.432  1.00  0.00    -0.198 A  
HETATM   13  O   UNL     1      -9.980   3.532  66.869  1.00  0.00    -0.356 OA 
HETATM   14  H   UNL     1     -10.209   3.683  65.960  1.00  0.00     0.000 HD 
HETATM   15  O   UNL     1     -11.046   5.906  66.120  1.00  0.00    -0.683 OA 
HETATM   16  C   UNL     1     -10.969   6.707  68.352  1.00  0.00    -0.313 A  
HETATM   17  C   UNL     1     -10.630   6.486  69.683  1.00  0.00    -0.243 A  
HETATM   18  H   UNL     1     -11.423   6.735  65.848  1.00  0.00     0.000 HD 
HETATM   19  F   UNL     1     -10.814   7.474  70.571  1.00  0.00    -0.222 F  
ENDBRANCH   8   9
ENDBRANCH   2   8
TORSDOF 2
ENDMDL
MODEL      217
REMARK 921   NORMALIZED FREE ENERGY PREDICTED BY IDOCK:   -3.15 KCAL/MOL
REMARK 922        TOTAL FREE ENERGY PREDICTED BY IDOCK:   -3.84 KCAL/MOL
REMARK 923 INTER-LIGAND FREE ENERGY PREDICTED BY IDOCK:   -4.54 KCAL/MOL
REMARK 924 INTRA-LIGAND FREE ENERGY PREDICTED BY IDOCK:    0.71 KCAL/MOL
REMARK 927      BINDING AFFINITY PREDICTED BY RF-SCORE:    0.00 PKD
ROOT
HETATM    1  N   UNL     1      -7.973  17.225  66.320  1.00  0.00    -0.374 NA 
HETATM    2  CA  UNL     1      -7.840  17.066  67.804  1.00  0.00    -0.180 C  
HETATM    3  H2  UNL     1      -8.751  17.846  66.096  1.00  0.00     0.000 HD 
HETATM    4  H1  UNL     1      -7.121  17.540  65.856  1.00  0.00     0.000 HD 
HETATM    5  OXT UNL     1      -6.330  15.736  69.209  1.00  0.00    -0.130 OA 
HETATM    6  C   UNL     1      -6.657  16.129  68.101  1.00  0.00    -0.124 C  
HETATM    7  O   UNL     1      -5.999  15.789  66.962  1.00  0.00    -0.317 OA 
ENDROOT
BRANCH   2   8
HETATM    8  C   UNL     1      -9.126  16.592  68.505  1.00  0.00    -0.234 C  
BRANCH   8   9
HETATM    9  C   UNL     1      -9.920  15.544  67.757  1.00  0.00    -0.222 A  
HETATM   10  C   UNL     1      -9.371  14.903  66.633  1.00  0.00    -0.291 A  
HETATM   11  C   UNL     1     -10.132  13.973  65.933  1.00  0.00    -0.321 A  
HETATM   12  C   UNL     1     -11.429  13.668  66.341  1.00  0.00    -0.338 A  
HETATM   13  O   UNL     1      -9.649  13.336  64.824  1.00  0.00    -0.497 OA 
HETATM   14  H   UNL     1     -10.168  12.701  64.346  1.00  0.00     0.000 HD 
HETATM   15  O   UNL     1     -12.170  12.766  65.634  1.00  0.00    -0.451 OA 
HETATM   16  C   UNL     1     -11.986  14.279  67.453  1.00  0.00    -0.426 A  
HETATM   17  C   UNL     1     -11.225  15.212  68.150  1.00  0.00    -0.320 A  
HETATM   18  H   UNL     1     -13.054  12.558  65.912  1.00  0.00     0.000 HD 
HETATM   19  F   UNL     1     -11.772  15.837  69.204  1.00  0.00    -0.318 F  
ENDBRANCH   8   9
ENDBRANCH   2   8
TORSDOF 2
ENDMDL
MODEL      218
REMARK 921   NORMALIZED FREE ENERGY PREDICTED BY IDOCK:   -3.15 KCAL/MOL
REMARK 922        TOTAL FREE ENERGY PREDICTED BY IDOCK:   -3.83 KCAL/MOL
REMARK 923 INTER-LIGAND FREE ENERGY PREDICTED BY IDOCK:   -3.57 KCAL/MOL
REMARK 924 INTRA-LIGAND FREE ENERGY PREDICTED BY IDOCK:   -0.26 KCAL/MOL
REMARK 927      BINDING AFFINITY PREDICTED BY RF-SCORE:    0.00 PKD
ROOT
HETATM    1  N   UNL     1     -10.382  12.664  68.964  1.00  0.00    -0.436 NA 
HETATM    2  CA  UNL     1     -10.225  14.151  68.880  1.00  0.00    -0.175 C  
HETATM    3  H2  UNL     1      -9.503  12.199  68.736  1.00  0.00     0.000 HD 
HETATM    4  H1  UNL     1     -10.738  12.332  69.860  1.00  0.00     0.000 HD 
HETATM    5  OXT UNL     1     -11.795  16.014  69.186  1.00  0.00    -0.356 OA 
HETATM    6  C   UNL     1     -11.567  14.815  69.233  1.00  0.00    -0.303 C  
HETATM    7  O   UNL     1     -12.486  13.893  69.622  1.00  0.00    -0.300 OA 
ENDROOT
BRANCH   2   8
HETATM    8  C   UNL     1      -9.685  14.653  67.528  1.00  0.00    -0.210 C  
BRANCH   8   9
HETATM    9  C   UNL     1      -8.542  15.640  67.615  1.00  0.00    -0.177 A  
HETATM   10  C   UNL     1      -8.796  17.008  67.811  1.00  0.00    -0.223 A  
HETATM   11  C   UNL     1      -7.734  17.906  67.846  1.00  0.00    -0.224 A  
HETATM   12  C   UNL     1      -6.424  17.458  67.695  1.00  0.00    -0.150 A  
HETATM   13  O   UNL     1      -7.932  19.248  68.016  1.00  0.00    -0.284 OA 
HETATM   14  H   UNL     1      -7.207  19.861  68.040  1.00  0.00     0.000 HD 
HETATM   15  O   UNL     1      -5.394  18.353  67.714  1.00  0.00    -0.157 OA 
HETATM   16  C   UNL     1      -6.149  16.112  67.513  1.00  0.00    -0.190 A  
HETATM   17  C   UNL     1      -7.212  15.216  67.474  1.00  0.00    -0.200 A  
HETATM   18  H   UNL     1      -4.500  18.048  67.611  1.00  0.00     0.000 HD 
HETATM   19  F   UNL     1      -6.956  13.917  67.259  1.00  0.00    -0.189 F  
ENDBRANCH   8   9
ENDBRANCH   2   8
TORSDOF 2
ENDMDL
MODEL      219
REMARK 921   NORMALIZED FREE ENERGY PREDICTED BY IDOCK:   -3.14 KCAL/MOL
REMARK 922        TOTAL FREE ENERGY PREDICTED BY IDOCK:   -3.82 KCAL/MOL
REMARK 923 INTER-LIGAND FREE ENERGY PREDICTED BY IDOCK:   -3.52 KCAL/MOL
REMARK 924 INTRA-LIGAND FREE ENERGY PREDICTED BY IDOCK:   -0.31 KCAL/MOL
REMARK 927      BINDING AFFINITY PREDICTED BY RF-SCORE:    0.00 PKD
ROOT
HETATM    1  N   UNL     1     -12.020  10.740  67.979  1.00  0.00    -0.773 NA 
HETATM    2  CA  UNL     1     -10.677  10.076  67.991  1.00  0.00    -0.256 C  
HETATM    3  H2  UNL     1     -12.588  10.412  68.760  1.00  0.00     0.000 HD 
HETATM    4  H1  UNL     1     -11.981  11.759  67.970  1.00  0.00     0.000 HD 
HETATM    5  OXT UNL     1      -8.741  10.202  66.488  1.00  0.00    -0.129 OA 
HETATM    6  C   UNL     1      -9.851  10.599  66.804  1.00  0.00    -0.198 C  
HETATM    7  O   UNL     1     -10.511  11.582  66.138  1.00  0.00    -0.236 OA 
ENDROOT
BRANCH   2   8
HETATM    8  C   UNL     1     -10.735   8.537  68.005  1.00  0.00    -0.122 C  
BRANCH   8   9
HETATM    9  C   UNL     1     -10.314   7.888  69.305  1.00  0.00    -0.222 A  
HETATM   10  C   UNL     1     -11.266   7.589  70.293  1.00  0.00    -0.253 A  
HETATM   11  C   UNL     1     -10.854   7.031  71.499  1.00  0.00    -0.230 A  
HETATM   12  C   UNL     1      -9.508   6.761  71.729  1.00  0.00    -0.150 A  
HETATM   13  O   UNL     1     -11.742   6.739  72.497  1.00  0.00    -0.417 OA 
HETATM   14  H   UNL     1     -11.460   6.357  73.320  1.00  0.00     0.000 HD 
HETATM   15  O   UNL     1      -9.116   6.229  72.924  1.00  0.00    -0.132 OA 
HETATM   16  C   UNL     1      -8.552   7.036  70.764  1.00  0.00    -0.143 A  
HETATM   17  C   UNL     1      -8.965   7.598  69.561  1.00  0.00    -0.139 A  
HETATM   18  H   UNL     1      -8.197   6.044  73.081  1.00  0.00     0.000 HD 
HETATM   19  F   UNL     1      -8.041   7.904  68.638  1.00  0.00    -0.116 F  
ENDBRANCH   8   9
ENDBRANCH   2   8
TORSDOF 2
ENDMDL
MODEL      220
REMARK 921   NORMALIZED FREE ENERGY PREDICTED BY IDOCK:   -3.14 KCAL/MOL
REMARK 922        TOTAL FREE ENERGY PREDICTED BY IDOCK:   -3.82 KCAL/MOL
REMARK 923 INTER-LIGAND FREE ENERGY PREDICTED BY IDOCK:   -3.56 KCAL/MOL
REMARK 924 INTRA-LIGAND FREE ENERGY PREDICTED BY IDOCK:   -0.26 KCAL/MOL
REMARK 927      BINDING AFFINITY PREDICTED BY RF-SCORE:    0.00 PKD
ROOT
HETATM    1  N   UNL     1      -8.752   4.767  69.017  1.00  0.00    -0.087 NA 
HETATM    2  CA  UNL     1      -9.625   5.737  69.753  1.00  0.00    -0.157 C  
HETATM    3  H2  UNL     1      -8.413   5.180  68.148  1.00  0.00     0.000 HD 
HETATM    4  H1  UNL     1      -7.974   4.404  69.567  1.00  0.00     0.000 HD 
HETATM    5  OXT UNL     1     -10.899   5.576  71.845  1.00  0.00    -0.239 OA 
HETATM    6  C   UNL     1     -10.112   5.079  71.055  1.00  0.00    -0.227 C  
HETATM    7  O   UNL     1      -9.545   3.857  71.234  1.00  0.00    -0.148 OA 
ENDROOT
BRANCH   2   8
HETATM    8  C   UNL     1     -10.799   6.284  68.923  1.00  0.00    -0.396 C  
BRANCH   8   9
HETATM    9  C   UNL     1     -10.596   7.672  68.355  1.00  0.00    -0.166 A  
HETATM   10  C   UNL     1     -10.372   7.852  66.980  1.00  0.00    -0.411 A  
HETATM   11  C   UNL     1     -10.145   9.131  66.482  1.00  0.00    -0.287 A  
HETATM   12  C   UNL     1     -10.145  10.232  67.335  1.00  0.00    -0.202 A  
HETATM   13  O   UNL     1      -9.904   9.355  65.155  1.00  0.00    -0.447 OA 
HETATM   14  H   UNL     1      -9.749  10.228  64.816  1.00  0.00     0.000 HD 
HETATM   15  O   UNL     1      -9.903  11.479  66.836  1.00  0.00    -0.194 OA 
HETATM   16  C   UNL     1     -10.376  10.079  68.693  1.00  0.00    -0.211 A  
HETATM   17  C   UNL     1     -10.599   8.799  69.190  1.00  0.00    -0.184 A  
HETATM   18  H   UNL     1      -9.904  12.230  67.417  1.00  0.00     0.000 HD 
HETATM   19  F   UNL     1     -10.784   8.639  70.509  1.00  0.00    -0.206 F  
ENDBRANCH   8   9
ENDBRANCH   2   8
TORSDOF 2
ENDMDL
MODEL      221
REMARK 921   NORMALIZED FREE ENERGY PREDICTED BY IDOCK:   -3.12 KCAL/MOL
REMARK 922        TOTAL FREE ENERGY PREDICTED BY IDOCK:   -3.80 KCAL/MOL
REMARK 923 INTER-LIGAND FREE ENERGY PREDICTED BY IDOCK:   -3.68 KCAL/MOL
REMARK 924 INTRA-LIGAND FREE ENERGY PREDICTED BY IDOCK:   -0.12 KCAL/MOL
REMARK 927      BINDING AFFINITY PREDICTED BY RF-SCORE:    0.00 PKD
ROOT
HETATM    1  N   UNL     1      -9.128  11.486  69.104  1.00  0.00    -0.378 NA 
HETATM    2  CA  UNL     1     -10.522  10.950  69.220  1.00  0.00    -0.202 C  
HETATM    3  H2  UNL     1      -9.098  12.259  68.440  1.00  0.00     0.000 HD 
HETATM    4  H1  UNL     1      -8.712  11.762  69.992  1.00  0.00     0.000 HD 
HETATM    5  OXT UNL     1     -11.493   9.091  70.497  1.00  0.00    -0.259 OA 
HETATM    6  C   UNL     1     -10.528   9.790  70.231  1.00  0.00    -0.288 C  
HETATM    7  O   UNL     1      -9.310   9.637  70.813  1.00  0.00    -0.207 OA 
ENDROOT
BRANCH   2   8
HETATM    8  C   UNL     1     -11.152  10.533  67.879  1.00  0.00    -0.367 C  
BRANCH   8   9
HETATM    9  C   UNL     1     -10.205   9.876  66.898  1.00  0.00    -0.302 A  
HETATM   10  C   UNL     1      -9.385  10.657  66.068  1.00  0.00    -0.219 A  
HETATM   11  C   UNL     1      -8.553  10.036  65.143  1.00  0.00    -0.158 A  
HETATM   12  C   UNL     1      -8.522   8.648  65.039  1.00  0.00    -0.173 A  
HETATM   13  O   UNL     1      -7.750  10.755  64.301  1.00  0.00    -0.358 OA 
HETATM   14  H   UNL     1      -7.181  10.330  63.669  1.00  0.00     0.000 HD 
HETATM   15  O   UNL     1      -7.713   8.053  64.115  1.00  0.00    -0.115 OA 
HETATM   16  C   UNL     1      -9.313   7.856  65.856  1.00  0.00    -0.059 A  
HETATM   17  C   UNL     1     -10.148   8.479  66.778  1.00  0.00    -0.299 A  
HETATM   18  H   UNL     1      -7.691   7.105  64.045  1.00  0.00     0.000 HD 
HETATM   19  F   UNL     1     -10.946   7.721  67.545  1.00  0.00    -0.294 F  
ENDBRANCH   8   9
ENDBRANCH   2   8
TORSDOF 2
ENDMDL
MODEL      222
REMARK 921   NORMALIZED FREE ENERGY PREDICTED BY IDOCK:   -3.10 KCAL/MOL
REMARK 922        TOTAL FREE ENERGY PREDICTED BY IDOCK:   -3.78 KCAL/MOL
REMARK 923 INTER-LIGAND FREE ENERGY PREDICTED BY IDOCK:   -3.59 KCAL/MOL
REMARK 924 INTRA-LIGAND FREE ENERGY PREDICTED BY IDOCK:   -0.19 KCAL/MOL
REMARK 927      BINDING AFFINITY PREDICTED BY RF-SCORE:    0.00 PKD
ROOT
HETATM    1  N   UNL     1      -7.816   7.181  70.368  1.00  0.00    -0.099 NA 
HETATM    2  CA  UNL     1      -9.231   7.652  70.235  1.00  0.00    -0.157 C  
HETATM    3  H2  UNL     1      -7.582   6.536  69.613  1.00  0.00     0.000 HD 
HETATM    4  H1  UNL     1      -7.129   7.933  70.420  1.00  0.00     0.000 HD 
HETATM    5  OXT UNL     1     -10.634   9.126  71.608  1.00  0.00    -0.339 OA 
HETATM    6  C   UNL     1      -9.544   8.622  71.386  1.00  0.00    -0.243 C  
HETATM    7  O   UNL     1      -8.440   8.868  72.138  1.00  0.00    -0.382 OA 
ENDROOT
BRANCH   2   8
HETATM    8  C   UNL     1     -10.268   6.517  70.155  1.00  0.00    -0.226 C  
BRANCH   8   9
HETATM    9  C   UNL     1     -10.110   5.579  68.979  1.00  0.00    -0.275 A  
HETATM   10  C   UNL     1      -9.462   4.343  69.136  1.00  0.00    -0.240 A  
HETATM   11  C   UNL     1      -9.288   3.513  68.033  1.00  0.00    -0.184 A  
HETATM   12  C   UNL     1      -9.757   3.896  66.778  1.00  0.00    -0.162 A  
HETATM   13  O   UNL     1      -8.649   2.309  68.132  1.00  0.00    -0.070 OA 
HETATM   14  H   UNL     1      -8.530   1.742  67.379  1.00  0.00     0.000 HD 
HETATM   15  O   UNL     1      -9.564   3.079  65.702  1.00  0.00    -0.340 OA 
HETATM   16  C   UNL     1     -10.410   5.105  66.603  1.00  0.00    -0.325 A  
HETATM   17  C   UNL     1     -10.580   5.936  67.706  1.00  0.00    -0.259 A  
HETATM   18  H   UNL     1      -9.885   3.340  64.846  1.00  0.00     0.000 HD 
HETATM   19  F   UNL     1     -11.176   7.126  67.535  1.00  0.00    -0.288 F  
ENDBRANCH   8   9
ENDBRANCH   2   8
TORSDOF 2
ENDMDL
MODEL      223
REMARK 921   NORMALIZED FREE ENERGY PREDICTED BY IDOCK:   -3.08 KCAL/MOL
REMARK 922        TOTAL FREE ENERGY PREDICTED BY IDOCK:   -3.76 KCAL/MOL
REMARK 923 INTER-LIGAND FREE ENERGY PREDICTED BY IDOCK:   -3.55 KCAL/MOL
REMARK 924 INTRA-LIGAND FREE ENERGY PREDICTED BY IDOCK:   -0.21 KCAL/MOL
REMARK 927      BINDING AFFINITY PREDICTED BY RF-SCORE:    0.00 PKD
ROOT
HETATM    1  N   UNL     1      -9.006  10.106  68.365  1.00  0.00    -0.120 NA 
HETATM    2  CA  UNL     1      -9.798   9.835  67.123  1.00  0.00    -0.188 C  
HETATM    3  H2  UNL     1      -9.573   9.931  69.195  1.00  0.00     0.000 HD 
HETATM    4  H1  UNL     1      -8.127   9.593  68.420  1.00  0.00     0.000 HD 
HETATM    5  OXT UNL     1      -9.277  10.051  64.734  1.00  0.00    -0.209 OA 
HETATM    6  C   UNL     1      -8.910  10.106  65.897  1.00  0.00    -0.149 C  
HETATM    7  O   UNL     1      -7.638  10.410  66.266  1.00  0.00    -0.114 OA 
ENDROOT
BRANCH   2   8
HETATM    8  C   UNL     1     -11.126  10.609  67.040  1.00  0.00    -0.217 C  
BRANCH   8   9
HETATM    9  C   UNL     1     -11.142  11.941  67.757  1.00  0.00    -0.295 A  
HETATM   10  C   UNL     1     -10.484  13.054  67.208  1.00  0.00    -0.238 A  
HETATM   11  C   UNL     1     -10.473  14.259  67.902  1.00  0.00    -0.240 A  
HETATM   12  C   UNL     1     -11.116  14.371  69.133  1.00  0.00    -0.265 A  
HETATM   13  O   UNL     1      -9.831  15.364  67.417  1.00  0.00    -0.216 OA 
HETATM   14  H   UNL     1      -9.825  16.187  67.891  1.00  0.00     0.000 HD 
HETATM   15  O   UNL     1     -11.082  15.555  69.812  1.00  0.00    -0.248 OA 
HETATM   16  C   UNL     1     -11.781  13.291  69.688  1.00  0.00    -0.369 A  
HETATM   17  C   UNL     1     -11.788  12.085  68.995  1.00  0.00    -0.315 A  
HETATM   18  H   UNL     1     -11.521  15.632  70.651  1.00  0.00     0.000 HD 
HETATM   19  F   UNL     1     -12.397  11.024  69.545  1.00  0.00    -0.362 F  
ENDBRANCH   8   9
ENDBRANCH   2   8
TORSDOF 2
ENDMDL
MODEL      224
REMARK 921   NORMALIZED FREE ENERGY PREDICTED BY IDOCK:   -3.05 KCAL/MOL
REMARK 922        TOTAL FREE ENERGY PREDICTED BY IDOCK:   -3.72 KCAL/MOL
REMARK 923 INTER-LIGAND FREE ENERGY PREDICTED BY IDOCK:   -3.66 KCAL/MOL
REMARK 924 INTRA-LIGAND FREE ENERGY PREDICTED BY IDOCK:   -0.06 KCAL/MOL
REMARK 927      BINDING AFFINITY PREDICTED BY RF-SCORE:    0.00 PKD
ROOT
HETATM    1  N   UNL     1      -8.518  10.035  69.070  1.00  0.00    -0.136 NA 
HETATM    2  CA  UNL     1      -9.983   9.765  68.912  1.00  0.00    -0.176 C  
HETATM    3  H2  UNL     1      -8.119   9.427  69.785  1.00  0.00     0.000 HD 
HETATM    4  H1  UNL     1      -7.984   9.963  68.204  1.00  0.00     0.000 HD 
HETATM    5  OXT UNL     1     -11.722  10.779  67.507  1.00  0.00    -0.510 OA 
HETATM    6  C   UNL     1     -10.546  10.696  67.824  1.00  0.00    -0.236 C  
HETATM    7  O   UNL     1      -9.560  11.423  67.238  1.00  0.00    -0.173 OA 
ENDROOT
BRANCH   2   8
HETATM    8  C   UNL     1     -10.788   9.872  70.219  1.00  0.00    -0.367 C  
BRANCH   8   9
HETATM    9  C   UNL     1     -10.832   8.612  71.055  1.00  0.00    -0.302 A  
HETATM   10  C   UNL     1      -9.872   7.603  70.873  1.00  0.00    -0.179 A  
HETATM   11  C   UNL     1      -9.953   6.433  71.620  1.00  0.00    -0.175 A  
HETATM   12  C   UNL     1     -10.974   6.258  72.551  1.00  0.00    -0.251 A  
HETATM   13  O   UNL     1      -9.052   5.416  71.465  1.00  0.00    -0.140 OA 
HETATM   14  H   UNL     1      -9.108   4.617  71.976  1.00  0.00     0.000 HD 
HETATM   15  O   UNL     1     -11.052   5.098  73.265  1.00  0.00    -0.287 OA 
HETATM   16  C   UNL     1     -11.925   7.245  72.756  1.00  0.00     0.033 A  
HETATM   17  C   UNL     1     -11.845   8.413  72.005  1.00  0.00    -0.353 A  
HETATM   18  H   UNL     1     -11.748   4.978  73.901  1.00  0.00     0.000 HD 
HETATM   19  F   UNL     1     -12.785   9.355  72.170  1.00  0.00    -0.406 F  
ENDBRANCH   8   9
ENDBRANCH   2   8
TORSDOF 2
ENDMDL
MODEL      225
REMARK 921   NORMALIZED FREE ENERGY PREDICTED BY IDOCK:   -3.03 KCAL/MOL
REMARK 922        TOTAL FREE ENERGY PREDICTED BY IDOCK:   -3.70 KCAL/MOL
REMARK 923 INTER-LIGAND FREE ENERGY PREDICTED BY IDOCK:   -3.41 KCAL/MOL
REMARK 924 INTRA-LIGAND FREE ENERGY PREDICTED BY IDOCK:   -0.30 KCAL/MOL
REMARK 927      BINDING AFFINITY PREDICTED BY RF-SCORE:    0.00 PKD
ROOT
HETATM    1  N   UNL     1      -7.836   7.807  69.622  1.00  0.00    -0.105 NA 
HETATM    2  CA  UNL     1      -9.099   8.599  69.475  1.00  0.00    -0.146 C  
HETATM    3  H2  UNL     1      -7.338   7.762  68.734  1.00  0.00     0.000 HD 
HETATM    4  H1  UNL     1      -7.218   8.141  70.361  1.00  0.00     0.000 HD 
HETATM    5  OXT UNL     1     -10.912   9.152  71.035  1.00  0.00    -0.254 OA 
HETATM    6  C   UNL     1      -9.819   8.647  70.834  1.00  0.00    -0.205 C  
HETATM    7  O   UNL     1      -9.076   8.059  71.807  1.00  0.00    -0.137 OA 
ENDROOT
BRANCH   2   8
HETATM    8  C   UNL     1     -10.033   8.096  68.359  1.00  0.00    -0.210 C  
BRANCH   8   9
HETATM    9  C   UNL     1     -10.053   8.942  67.105  1.00  0.00    -0.316 A  
HETATM   10  C   UNL     1      -9.328   8.547  65.968  1.00  0.00    -0.266 A  
HETATM   11  C   UNL     1      -9.324   9.359  64.839  1.00  0.00    -0.150 A  
HETATM   12  C   UNL     1     -10.039  10.555  64.825  1.00  0.00    -0.336 A  
HETATM   13  O   UNL     1      -8.620   9.026  63.716  1.00  0.00    -0.285 OA 
HETATM   14  H   UNL     1      -8.618   9.581  62.944  1.00  0.00     0.000 HD 
HETATM   15  O   UNL     1     -10.012  11.350  63.716  1.00  0.00    -0.275 OA 
HETATM   16  C   UNL     1     -10.770  10.958  65.931  1.00  0.00    -0.193 A  
HETATM   17  C   UNL     1     -10.770  10.147  67.061  1.00  0.00    -0.196 A  
HETATM   18  H   UNL     1     -10.499  12.165  63.707  1.00  0.00     0.000 HD 
HETATM   19  F   UNL     1     -11.444  10.551  68.148  1.00  0.00    -0.332 F  
ENDBRANCH   8   9
ENDBRANCH   2   8
TORSDOF 2
ENDMDL
MODEL      226
REMARK 921   NORMALIZED FREE ENERGY PREDICTED BY IDOCK:   -3.02 KCAL/MOL
REMARK 922        TOTAL FREE ENERGY PREDICTED BY IDOCK:   -3.69 KCAL/MOL
REMARK 923 INTER-LIGAND FREE ENERGY PREDICTED BY IDOCK:   -3.88 KCAL/MOL
REMARK 924 INTRA-LIGAND FREE ENERGY PREDICTED BY IDOCK:    0.19 KCAL/MOL
REMARK 927      BINDING AFFINITY PREDICTED BY RF-SCORE:    0.00 PKD
ROOT
HETATM    1  N   UNL     1     -12.695  15.144  70.440  1.00  0.00    -0.536 NA 
HETATM    2  CA  UNL     1     -12.525  13.964  69.534  1.00  0.00    -0.095 C  
HETATM    3  H2  UNL     1     -12.730  16.008  69.898  1.00  0.00     0.000 HD 
HETATM    4  H1  UNL     1     -13.500  15.081  71.062  1.00  0.00     0.000 HD 
HETATM    5  OXT UNL     1     -12.278  11.559  69.957  1.00  0.00    -0.299 OA 
HETATM    6  C   UNL     1     -12.481  12.684  70.386  1.00  0.00    -0.143 C  
HETATM    7  O   UNL     1     -12.709  12.956  71.697  1.00  0.00    -0.289 OA 
ENDROOT
BRANCH   2   8
HETATM    8  C   UNL     1     -11.310  14.060  68.594  1.00  0.00    -0.307 C  
BRANCH   8   9
HETATM    9  C   UNL     1     -10.598  15.394  68.594  1.00  0.00    -0.239 A  
HETATM   10  C   UNL     1     -11.270  16.560  68.191  1.00  0.00    -0.241 A  
HETATM   11  C   UNL     1     -10.587  17.771  68.157  1.00  0.00    -0.344 A  
HETATM   12  C   UNL     1      -9.245  17.837  68.525  1.00  0.00    -0.281 A  
HETATM   13  O   UNL     1     -11.193  18.928  67.755  1.00  0.00    -0.196 OA 
HETATM   14  H   UNL     1     -10.726  19.755  67.732  1.00  0.00     0.000 HD 
HETATM   15  O   UNL     1      -8.582  19.028  68.469  1.00  0.00    -0.336 OA 
HETATM   16  C   UNL     1      -8.565  16.702  68.937  1.00  0.00    -0.235 A  
HETATM   17  C   UNL     1      -9.248  15.491  68.967  1.00  0.00    -0.238 A  
HETATM   18  H   UNL     1      -7.667  19.073  68.721  1.00  0.00     0.000 HD 
HETATM   19  F   UNL     1      -8.586  14.381  69.327  1.00  0.00    -0.098 F  
ENDBRANCH   8   9
ENDBRANCH   2   8
TORSDOF 2
ENDMDL
MODEL      227
REMARK 921   NORMALIZED FREE ENERGY PREDICTED BY IDOCK:   -3.02 KCAL/MOL
REMARK 922        TOTAL FREE ENERGY PREDICTED BY IDOCK:   -3.69 KCAL/MOL
REMARK 923 INTER-LIGAND FREE ENERGY PREDICTED BY IDOCK:   -3.43 KCAL/MOL
REMARK 924 INTRA-LIGAND FREE ENERGY PREDICTED BY IDOCK:   -0.25 KCAL/MOL
REMARK 927      BINDING AFFINITY PREDICTED BY RF-SCORE:    0.00 PKD
ROOT
HETATM    1  N   UNL     1     -11.402   4.339  64.826  1.00  0.00    -1.022 NA 
HETATM    2  CA  UNL     1      -9.923   4.544  64.949  1.00  0.00    -0.056 C  
HETATM    3  H2  UNL     1     -11.904   5.182  65.104  1.00  0.00     0.000 HD 
HETATM    4  H1  UNL     1     -11.705   4.032  63.902  1.00  0.00     0.000 HD 
HETATM    5  OXT UNL     1      -7.998   3.069  64.573  1.00  0.00    -0.081 OA 
HETATM    6  C   UNL     1      -9.203   3.255  64.518  1.00  0.00    -0.138 C  
HETATM    7  O   UNL     1     -10.083   2.331  64.051  1.00  0.00    -0.133 OA 
ENDROOT
BRANCH   2   8
HETATM    8  C   UNL     1      -9.465   5.008  66.343  1.00  0.00    -0.157 C  
BRANCH   8   9
HETATM    9  C   UNL     1      -9.352   6.507  66.520  1.00  0.00    -0.188 A  
HETATM   10  C   UNL     1      -8.111   7.149  66.378  1.00  0.00    -0.116 A  
HETATM   11  C   UNL     1      -8.018   8.521  66.587  1.00  0.00    -0.100 A  
HETATM   12  C   UNL     1      -9.147   9.262  66.927  1.00  0.00    -0.131 A  
HETATM   13  O   UNL     1      -6.829   9.187  66.478  1.00  0.00    -0.077 OA 
HETATM   14  H   UNL     1      -6.767  10.124  66.620  1.00  0.00     0.000 HD 
HETATM   15  O   UNL     1      -9.039  10.605  67.145  1.00  0.00    -0.143 OA 
HETATM   16  C   UNL     1     -10.384   8.652  67.060  1.00  0.00    -0.368 A  
HETATM   17  C   UNL     1     -10.474   7.279  66.856  1.00  0.00    -0.299 A  
HETATM   18  H   UNL     1      -9.809  11.110  67.377  1.00  0.00     0.000 HD 
HETATM   19  F   UNL     1     -11.661   6.675  67.022  1.00  0.00    -0.426 F  
ENDBRANCH   8   9
ENDBRANCH   2   8
TORSDOF 2
ENDMDL
MODEL      228
REMARK 921   NORMALIZED FREE ENERGY PREDICTED BY IDOCK:   -3.00 KCAL/MOL
REMARK 922        TOTAL FREE ENERGY PREDICTED BY IDOCK:   -3.67 KCAL/MOL
REMARK 923 INTER-LIGAND FREE ENERGY PREDICTED BY IDOCK:   -3.64 KCAL/MOL
REMARK 924 INTRA-LIGAND FREE ENERGY PREDICTED BY IDOCK:   -0.03 KCAL/MOL
REMARK 927      BINDING AFFINITY PREDICTED BY RF-SCORE:    0.00 PKD
ROOT
HETATM    1  N   UNL     1      -9.528   7.388  74.109  1.00  0.00    -0.407 NA 
HETATM    2  CA  UNL     1      -9.175   6.867  72.749  1.00  0.00    -0.134 C  
HETATM    3  H2  UNL     1     -10.222   8.131  74.037  1.00  0.00     0.000 HD 
HETATM    4  H1  UNL     1      -9.840   6.670  74.763  1.00  0.00     0.000 HD 
HETATM    5  OXT UNL     1      -7.582   5.167  71.976  1.00  0.00    -0.092 OA 
HETATM    6  C   UNL     1      -8.131   5.748  72.899  1.00  0.00    -0.115 C  
HETATM    7  O   UNL     1      -7.893   5.467  74.207  1.00  0.00    -0.098 OA 
ENDROOT
BRANCH   2   8
HETATM    8  C   UNL     1      -8.705   7.950  71.762  1.00  0.00    -0.157 C  
BRANCH   8   9
HETATM    9  C   UNL     1      -9.809   8.747  71.103  1.00  0.00    -0.313 A  
HETATM   10  C   UNL     1     -11.137   8.621  71.543  1.00  0.00    -0.358 A  
HETATM   11  C   UNL     1     -12.145   9.329  70.897  1.00  0.00    -0.233 A  
HETATM   12  C   UNL     1     -11.846  10.165  69.824  1.00  0.00    -0.088 A  
HETATM   13  O   UNL     1     -13.454   9.226  71.278  1.00  0.00    -0.474 OA 
HETATM   14  H   UNL     1     -14.142   9.710  70.837  1.00  0.00     0.000 HD 
HETATM   15  O   UNL     1     -12.848  10.841  69.189  1.00  0.00    -0.576 OA 
HETATM   16  C   UNL     1     -10.542  10.314  69.381  1.00  0.00    -0.262 A  
HETATM   17  C   UNL     1      -9.535   9.602  70.025  1.00  0.00    -0.240 A  
HETATM   18  H   UNL     1     -12.644  11.411  68.457  1.00  0.00     0.000 HD 
HETATM   19  F   UNL     1      -8.276   9.710  69.575  1.00  0.00    -0.092 F  
ENDBRANCH   8   9
ENDBRANCH   2   8
TORSDOF 2
ENDMDL
MODEL      229
REMARK 921   NORMALIZED FREE ENERGY PREDICTED BY IDOCK:   -2.98 KCAL/MOL
REMARK 922        TOTAL FREE ENERGY PREDICTED BY IDOCK:   -3.64 KCAL/MOL
REMARK 923 INTER-LIGAND FREE ENERGY PREDICTED BY IDOCK:   -3.52 KCAL/MOL
REMARK 924 INTRA-LIGAND FREE ENERGY PREDICTED BY IDOCK:   -0.12 KCAL/MOL
REMARK 927      BINDING AFFINITY PREDICTED BY RF-SCORE:    0.00 PKD
ROOT
HETATM    1  N   UNL     1      -8.540   5.403  73.864  1.00  0.00    -0.116 NA 
HETATM    2  CA  UNL     1      -9.992   5.625  74.161  1.00  0.00    -0.225 C  
HETATM    3  H2  UNL     1      -7.978   6.163  74.246  1.00  0.00     0.000 HD 
HETATM    4  H1  UNL     1      -8.183   4.502  74.180  1.00  0.00     0.000 HD 
HETATM    5  OXT UNL     1     -12.022   4.375  73.579  1.00  0.00    -0.088 OA 
HETATM    6  C   UNL     1     -10.804   4.458  73.574  1.00  0.00    -0.277 C  
HETATM    7  O   UNL     1      -9.991   3.507  73.046  1.00  0.00    -0.129 OA 
ENDROOT
BRANCH   2   8
HETATM    8  C   UNL     1     -10.532   6.986  73.686  1.00  0.00    -0.414 C  
BRANCH   8   9
HETATM    9  C   UNL     1     -10.269   7.312  72.232  1.00  0.00    -0.225 A  
HETATM   10  C   UNL     1     -11.100   6.795  71.225  1.00  0.00    -0.303 A  
HETATM   11  C   UNL     1     -10.818   7.071  69.891  1.00  0.00    -0.251 A  
HETATM   12  C   UNL     1      -9.722   7.860  69.549  1.00  0.00    -0.173 A  
HETATM   13  O   UNL     1     -11.587   6.576  68.875  1.00  0.00    -0.606 OA 
HETATM   14  H   UNL     1     -11.394   6.764  67.964  1.00  0.00     0.000 HD 
HETATM   15  O   UNL     1      -9.447   8.108  68.235  1.00  0.00    -0.141 OA 
HETATM   16  C   UNL     1      -8.896   8.390  70.526  1.00  0.00    -0.156 A  
HETATM   17  C   UNL     1      -9.177   8.110  71.859  1.00  0.00    -0.182 A  
HETATM   18  H   UNL     1      -8.700   8.647  68.002  1.00  0.00     0.000 HD 
HETATM   19  F   UNL     1      -8.358   8.588  72.809  1.00  0.00    -0.229 F  
ENDBRANCH   8   9
ENDBRANCH   2   8
TORSDOF 2
ENDMDL
MODEL      230
REMARK 921   NORMALIZED FREE ENERGY PREDICTED BY IDOCK:   -2.90 KCAL/MOL
REMARK 922        TOTAL FREE ENERGY PREDICTED BY IDOCK:   -3.55 KCAL/MOL
REMARK 923 INTER-LIGAND FREE ENERGY PREDICTED BY IDOCK:   -3.65 KCAL/MOL
REMARK 924 INTRA-LIGAND FREE ENERGY PREDICTED BY IDOCK:    0.10 KCAL/MOL
REMARK 927      BINDING AFFINITY PREDICTED BY RF-SCORE:    0.00 PKD
ROOT
HETATM    1  N   UNL     1     -11.042  16.822  69.961  1.00  0.00    -0.410 NA 
HETATM    2  CA  UNL     1     -10.594  17.464  68.683  1.00  0.00    -0.318 C  
HETATM    3  H2  UNL     1     -10.871  17.444  70.751  1.00  0.00     0.000 HD 
HETATM    4  H1  UNL     1     -12.013  16.512  69.954  1.00  0.00     0.000 HD 
HETATM    5  OXT UNL     1     -10.554  16.690  66.354  1.00  0.00    -0.284 OA 
HETATM    6  C   UNL     1     -10.870  16.499  67.518  1.00  0.00    -0.237 C  
HETATM    7  O   UNL     1     -11.530  15.389  67.941  1.00  0.00    -0.335 OA 
ENDROOT
BRANCH   2   8
HETATM    8  C   UNL     1      -9.128  17.933  68.693  1.00  0.00    -0.263 C  
BRANCH   8   9
HETATM    9  C   UNL     1      -8.106  16.861  68.386  1.00  0.00    -0.237 A  
HETATM   10  C   UNL     1      -8.063  15.680  69.146  1.00  0.00    -0.238 A  
HETATM   11  C   UNL     1      -7.088  14.725  68.877  1.00  0.00    -0.118 A  
HETATM   12  C   UNL     1      -6.161  14.928  67.858  1.00  0.00    -0.154 A  
HETATM   13  O   UNL     1      -6.995  13.568  69.600  1.00  0.00    -0.321 OA 
HETATM   14  H   UNL     1      -6.329  12.916  69.416  1.00  0.00     0.000 HD 
HETATM   15  O   UNL     1      -5.199  13.990  67.616  1.00  0.00    -0.300 OA 
HETATM   16  C   UNL     1      -6.192  16.080  67.088  1.00  0.00    -0.079 A  
HETATM   17  C   UNL     1      -7.164  17.036  67.361  1.00  0.00    -0.156 A  
HETATM   18  H   UNL     1      -4.567  14.128  66.921  1.00  0.00     0.000 HD 
HETATM   19  F   UNL     1      -7.175  18.171  66.645  1.00  0.00    -0.197 F  
ENDBRANCH   8   9
ENDBRANCH   2   8
TORSDOF 2
ENDMDL
MODEL      231
REMARK 921   NORMALIZED FREE ENERGY PREDICTED BY IDOCK:   -2.89 KCAL/MOL
REMARK 922        TOTAL FREE ENERGY PREDICTED BY IDOCK:   -3.54 KCAL/MOL
REMARK 923 INTER-LIGAND FREE ENERGY PREDICTED BY IDOCK:   -3.31 KCAL/MOL
REMARK 924 INTRA-LIGAND FREE ENERGY PREDICTED BY IDOCK:   -0.22 KCAL/MOL
REMARK 927      BINDING AFFINITY PREDICTED BY RF-SCORE:    0.00 PKD
ROOT
HETATM    1  N   UNL     1      -9.729   7.615  69.494  1.00  0.00    -0.167 NA 
HETATM    2  CA  UNL     1     -10.415   6.433  70.106  1.00  0.00    -0.216 C  
HETATM    3  H2  UNL     1      -9.737   7.545  68.476  1.00  0.00     0.000 HD 
HETATM    4  H1  UNL     1     -10.103   8.516  69.792  1.00  0.00     0.000 HD 
HETATM    5  OXT UNL     1     -10.795   5.746  72.432  1.00  0.00    -0.222 OA 
HETATM    6  C   UNL     1     -10.386   6.578  71.637  1.00  0.00    -0.207 C  
HETATM    7  O   UNL     1      -9.848   7.769  72.010  1.00  0.00    -0.162 OA 
ENDROOT
BRANCH   2   8
HETATM    8  C   UNL     1      -9.851   5.073  69.656  1.00  0.00    -0.290 C  
BRANCH   8   9
HETATM    9  C   UNL     1      -9.588   4.943  68.172  1.00  0.00    -0.191 A  
HETATM   10  C   UNL     1     -10.656   4.844  67.266  1.00  0.00    -0.001 A  
HETATM   11  C   UNL     1     -10.394   4.682  65.910  1.00  0.00    -0.283 A  
HETATM   12  C   UNL     1      -9.082   4.623  65.444  1.00  0.00    -0.149 A  
HETATM   13  O   UNL     1     -11.400   4.564  64.991  1.00  0.00    -1.027 OA 
HETATM   14  H   UNL     1     -11.221   4.453  64.065  1.00  0.00     0.000 HD 
HETATM   15  O   UNL     1      -8.840   4.447  64.113  1.00  0.00    -0.136 OA 
HETATM   16  C   UNL     1      -8.013   4.731  66.319  1.00  0.00    -0.103 A  
HETATM   17  C   UNL     1      -8.276   4.889  67.676  1.00  0.00    -0.105 A  
HETATM   18  H   UNL     1      -7.946   4.407  63.796  1.00  0.00     0.000 HD 
HETATM   19  F   UNL     1      -7.246   4.954  68.533  1.00  0.00    -0.057 F  
ENDBRANCH   8   9
ENDBRANCH   2   8
TORSDOF 2
ENDMDL
MODEL      232
REMARK 921   NORMALIZED FREE ENERGY PREDICTED BY IDOCK:   -2.88 KCAL/MOL
REMARK 922        TOTAL FREE ENERGY PREDICTED BY IDOCK:   -3.53 KCAL/MOL
REMARK 923 INTER-LIGAND FREE ENERGY PREDICTED BY IDOCK:   -4.19 KCAL/MOL
REMARK 924 INTRA-LIGAND FREE ENERGY PREDICTED BY IDOCK:    0.66 KCAL/MOL
REMARK 927      BINDING AFFINITY PREDICTED BY RF-SCORE:    0.00 PKD
ROOT
HETATM    1  N   UNL     1      -6.964   9.424  71.737  1.00  0.00    -0.301 NA 
HETATM    2  CA  UNL     1      -7.250   7.975  71.986  1.00  0.00    -0.082 C  
HETATM    3  H2  UNL     1      -6.878   9.927  72.620  1.00  0.00     0.000 HD 
HETATM    4  H1  UNL     1      -6.148   9.593  71.150  1.00  0.00     0.000 HD 
HETATM    5  OXT UNL     1      -7.671   6.078  70.486  1.00  0.00    -0.096 OA 
HETATM    6  C   UNL     1      -7.369   7.251  70.634  1.00  0.00    -0.071 C  
HETATM    7  O   UNL     1      -7.082   8.086  69.601  1.00  0.00    -0.058 OA 
ENDROOT
BRANCH   2   8
HETATM    8  C   UNL     1      -8.482   7.719  72.873  1.00  0.00    -0.205 C  
BRANCH   8   9
HETATM    9  C   UNL     1      -9.793   8.234  72.322  1.00  0.00    -0.364 A  
HETATM   10  C   UNL     1      -9.808   9.129  71.240  1.00  0.00    -0.363 A  
HETATM   11  C   UNL     1     -11.021   9.625  70.774  1.00  0.00    -0.327 A  
HETATM   12  C   UNL     1     -12.219   9.235  71.367  1.00  0.00    -0.349 A  
HETATM   13  O   UNL     1     -11.085  10.512  69.735  1.00  0.00    -0.254 OA 
HETATM   14  H   UNL     1     -11.914  10.850  69.417  1.00  0.00     0.000 HD 
HETATM   15  O   UNL     1     -13.401   9.742  70.910  1.00  0.00    -0.562 OA 
HETATM   16  C   UNL     1     -12.230   8.343  72.427  1.00  0.00    -0.430 A  
HETATM   17  C   UNL     1     -11.015   7.851  72.895  1.00  0.00    -0.388 A  
HETATM   18  H   UNL     1     -14.218   9.476  71.315  1.00  0.00     0.000 HD 
HETATM   19  F   UNL     1     -11.015   7.018  73.947  1.00  0.00    -0.340 F  
ENDBRANCH   8   9
ENDBRANCH   2   8
TORSDOF 2
ENDMDL
MODEL      233
REMARK 921   NORMALIZED FREE ENERGY PREDICTED BY IDOCK:   -2.86 KCAL/MOL
REMARK 922        TOTAL FREE ENERGY PREDICTED BY IDOCK:   -3.51 KCAL/MOL
REMARK 923 INTER-LIGAND FREE ENERGY PREDICTED BY IDOCK:   -3.37 KCAL/MOL
REMARK 924 INTRA-LIGAND FREE ENERGY PREDICTED BY IDOCK:   -0.14 KCAL/MOL
REMARK 927      BINDING AFFINITY PREDICTED BY RF-SCORE:    0.00 PKD
ROOT
HETATM    1  N   UNL     1      -7.230  17.392  67.180  1.00  0.00    -0.164 NA 
HETATM    2  CA  UNL     1      -7.925  16.530  68.190  1.00  0.00    -0.163 C  
HETATM    3  H2  UNL     1      -7.903  17.984  66.694  1.00  0.00     0.000 HD 
HETATM    4  H1  UNL     1      -6.471  17.955  67.564  1.00  0.00     0.000 HD 
HETATM    5  OXT UNL     1      -7.127  14.792  69.729  1.00  0.00    -0.171 OA 
HETATM    6  C   UNL     1      -6.879  15.657  68.903  1.00  0.00    -0.126 C  
HETATM    7  O   UNL     1      -5.619  15.973  68.507  1.00  0.00    -0.099 OA 
ENDROOT
BRANCH   2   8
HETATM    8  C   UNL     1      -9.071  15.681  67.612  1.00  0.00    -0.193 C  
BRANCH   8   9
HETATM    9  C   UNL     1     -10.177  15.340  68.586  1.00  0.00    -0.223 A  
HETATM   10  C   UNL     1     -10.404  14.007  68.967  1.00  0.00    -0.136 A  
HETATM   11  C   UNL     1     -11.453  13.708  69.831  1.00  0.00    -0.136 A  
HETATM   12  C   UNL     1     -12.272  14.720  70.325  1.00  0.00    -0.338 A  
HETATM   13  O   UNL     1     -11.724  12.425  70.216  1.00  0.00    -0.516 OA 
HETATM   14  H   UNL     1     -12.440  12.221  70.806  1.00  0.00     0.000 HD 
HETATM   15  O   UNL     1     -13.308  14.410  71.158  1.00  0.00    -0.355 OA 
HETATM   16  C   UNL     1     -12.059  16.043  69.973  1.00  0.00    -0.140 A  
HETATM   17  C   UNL     1     -11.013  16.340  69.105  1.00  0.00    -0.324 A  
HETATM   18  H   UNL     1     -13.867  15.101  71.496  1.00  0.00     0.000 HD 
HETATM   19  F   UNL     1     -10.825  17.614  68.729  1.00  0.00    -0.286 F  
ENDBRANCH   8   9
ENDBRANCH   2   8
TORSDOF 2
ENDMDL
MODEL      234
REMARK 921   NORMALIZED FREE ENERGY PREDICTED BY IDOCK:   -2.86 KCAL/MOL
REMARK 922        TOTAL FREE ENERGY PREDICTED BY IDOCK:   -3.51 KCAL/MOL
REMARK 923 INTER-LIGAND FREE ENERGY PREDICTED BY IDOCK:   -3.25 KCAL/MOL
REMARK 924 INTRA-LIGAND FREE ENERGY PREDICTED BY IDOCK:   -0.26 KCAL/MOL
REMARK 927      BINDING AFFINITY PREDICTED BY RF-SCORE:    0.00 PKD
ROOT
HETATM    1  N   UNL     1     -11.748  11.183  67.576  1.00  0.00    -0.578 NA 
HETATM    2  CA  UNL     1     -10.429  10.485  67.451  1.00  0.00    -0.244 C  
HETATM    3  H2  UNL     1     -12.430  10.578  68.034  1.00  0.00     0.000 HD 
HETATM    4  H1  UNL     1     -11.700  12.086  68.046  1.00  0.00     0.000 HD 
HETATM    5  OXT UNL     1      -8.287  11.135  66.442  1.00  0.00    -0.161 OA 
HETATM    6  C   UNL     1      -9.429  11.428  66.760  1.00  0.00    -0.182 C  
HETATM    7  O   UNL     1      -9.974  12.655  66.548  1.00  0.00    -0.239 OA 
ENDROOT
BRANCH   2   8
HETATM    8  C   UNL     1     -10.501   9.121  66.741  1.00  0.00    -0.266 C  
BRANCH   8   9
HETATM    9  C   UNL     1     -10.075   7.935  67.578  1.00  0.00    -0.276 A  
HETATM   10  C   UNL     1      -9.098   8.082  68.576  1.00  0.00    -0.136 A  
HETATM   11  C   UNL     1      -8.687   6.972  69.306  1.00  0.00    -0.136 A  
HETATM   12  C   UNL     1      -9.241   5.718  69.058  1.00  0.00    -0.119 A  
HETATM   13  O   UNL     1      -7.727   7.062  70.275  1.00  0.00    -0.095 OA 
HETATM   14  H   UNL     1      -7.447   6.303  70.773  1.00  0.00     0.000 HD 
HETATM   15  O   UNL     1      -8.817   4.634  69.770  1.00  0.00    -0.085 OA 
HETATM   16  C   UNL     1     -10.215   5.551  68.087  1.00  0.00    -0.232 A  
HETATM   17  C   UNL     1     -10.622   6.662  67.355  1.00  0.00    -0.301 A  
HETATM   18  H   UNL     1      -9.195   3.779  69.602  1.00  0.00     0.000 HD 
HETATM   19  F   UNL     1     -11.535   6.500  66.385  1.00  0.00    -0.200 F  
ENDBRANCH   8   9
ENDBRANCH   2   8
TORSDOF 2
ENDMDL
MODEL      235
REMARK 921   NORMALIZED FREE ENERGY PREDICTED BY IDOCK:   -2.85 KCAL/MOL
REMARK 922        TOTAL FREE ENERGY PREDICTED BY IDOCK:   -3.50 KCAL/MOL
REMARK 923 INTER-LIGAND FREE ENERGY PREDICTED BY IDOCK:   -3.39 KCAL/MOL
REMARK 924 INTRA-LIGAND FREE ENERGY PREDICTED BY IDOCK:   -0.11 KCAL/MOL
REMARK 927      BINDING AFFINITY PREDICTED BY RF-SCORE:    0.00 PKD
ROOT
HETATM    1  N   UNL     1      -7.116   7.227  73.639  1.00  0.00    -0.075 NA 
HETATM    2  CA  UNL     1      -8.264   6.338  74.009  1.00  0.00    -0.111 C  
HETATM    3  H2  UNL     1      -7.158   8.101  74.163  1.00  0.00     0.000 HD 
HETATM    4  H1  UNL     1      -6.200   6.792  73.746  1.00  0.00     0.000 HD 
HETATM    5  OXT UNL     1      -8.984   4.129  73.217  1.00  0.00    -0.103 OA 
HETATM    6  C   UNL     1      -8.163   5.032  73.203  1.00  0.00    -0.108 C  
HETATM    7  O   UNL     1      -7.022   4.994  72.465  1.00  0.00    -0.070 OA 
ENDROOT
BRANCH   2   8
HETATM    8  C   UNL     1      -9.647   6.995  73.849  1.00  0.00    -0.299 C  
BRANCH   8   9
HETATM    9  C   UNL     1      -9.959   7.512  72.462  1.00  0.00    -0.248 A  
HETATM   10  C   UNL     1      -9.421   8.732  72.019  1.00  0.00    -0.336 A  
HETATM   11  C   UNL     1      -9.753   9.212  70.757  1.00  0.00    -0.273 A  
HETATM   12  C   UNL     1     -10.609   8.490  69.928  1.00  0.00    -0.228 A  
HETATM   13  O   UNL     1      -9.269  10.402  70.289  1.00  0.00    -0.269 OA 
HETATM   14  H   UNL     1      -9.496  10.730  69.427  1.00  0.00     0.000 HD 
HETATM   15  O   UNL     1     -10.940   8.982  68.699  1.00  0.00    -0.436 OA 
HETATM   16  C   UNL     1     -11.142   7.279  70.339  1.00  0.00    -0.291 A  
HETATM   17  C   UNL     1     -10.812   6.802  71.604  1.00  0.00    -0.229 A  
HETATM   18  H   UNL     1     -11.524   8.490  68.133  1.00  0.00     0.000 HD 
HETATM   19  F   UNL     1     -11.355   5.650  72.024  1.00  0.00    -0.308 F  
ENDBRANCH   8   9
ENDBRANCH   2   8
TORSDOF 2
ENDMDL
MODEL      236
REMARK 921   NORMALIZED FREE ENERGY PREDICTED BY IDOCK:   -2.85 KCAL/MOL
REMARK 922        TOTAL FREE ENERGY PREDICTED BY IDOCK:   -3.50 KCAL/MOL
REMARK 923 INTER-LIGAND FREE ENERGY PREDICTED BY IDOCK:   -3.26 KCAL/MOL
REMARK 924 INTRA-LIGAND FREE ENERGY PREDICTED BY IDOCK:   -0.23 KCAL/MOL
REMARK 927      BINDING AFFINITY PREDICTED BY RF-SCORE:    0.00 PKD
ROOT
HETATM    1  N   UNL     1      -9.819  12.260  68.598  1.00  0.00    -0.381 NA 
HETATM    2  CA  UNL     1      -9.900  10.864  68.059  1.00  0.00    -0.171 C  
HETATM    3  H2  UNL     1      -9.778  12.246  69.617  1.00  0.00     0.000 HD 
HETATM    4  H1  UNL     1      -9.050  12.810  68.218  1.00  0.00     0.000 HD 
HETATM    5  OXT UNL     1     -10.102   9.966  65.784  1.00  0.00    -0.284 OA 
HETATM    6  C   UNL     1      -9.957  10.926  66.523  1.00  0.00    -0.211 C  
HETATM    7  O   UNL     1      -9.815  12.201  66.075  1.00  0.00    -0.235 OA 
ENDROOT
BRANCH   2   8
HETATM    8  C   UNL     1     -11.061  10.032  68.634  1.00  0.00    -0.223 C  
BRANCH   8   9
HETATM    9  C   UNL     1     -10.672   8.680  69.189  1.00  0.00    -0.136 A  
HETATM   10  C   UNL     1     -10.222   7.661  68.332  1.00  0.00    -0.226 A  
HETATM   11  C   UNL     1      -9.910   6.411  68.855  1.00  0.00    -0.137 A  
HETATM   12  C   UNL     1     -10.034   6.164  70.220  1.00  0.00    -0.183 A  
HETATM   13  O   UNL     1      -9.486   5.384  68.059  1.00  0.00    -0.111 OA 
HETATM   14  H   UNL     1      -9.273   4.530  68.416  1.00  0.00     0.000 HD 
HETATM   15  O   UNL     1      -9.741   4.927  70.717  1.00  0.00    -0.170 OA 
HETATM   16  C   UNL     1     -10.464   7.157  71.086  1.00  0.00    -0.225 A  
HETATM   17  C   UNL     1     -10.780   8.406  70.561  1.00  0.00    -0.227 A  
HETATM   18  H   UNL     1      -9.825   4.759  71.648  1.00  0.00     0.000 HD 
HETATM   19  F   UNL     1     -11.234   9.360  71.387  1.00  0.00    -0.346 F  
ENDBRANCH   8   9
ENDBRANCH   2   8
TORSDOF 2
ENDMDL
MODEL      237
REMARK 921   NORMALIZED FREE ENERGY PREDICTED BY IDOCK:   -2.85 KCAL/MOL
REMARK 922        TOTAL FREE ENERGY PREDICTED BY IDOCK:   -3.50 KCAL/MOL
REMARK 923 INTER-LIGAND FREE ENERGY PREDICTED BY IDOCK:   -3.24 KCAL/MOL
REMARK 924 INTRA-LIGAND FREE ENERGY PREDICTED BY IDOCK:   -0.26 KCAL/MOL
REMARK 927      BINDING AFFINITY PREDICTED BY RF-SCORE:    0.00 PKD
ROOT
HETATM    1  N   UNL     1      -7.558   6.697  67.772  1.00  0.00    -0.104 NA 
HETATM    2  CA  UNL     1      -8.987   6.527  68.186  1.00  0.00    -0.116 C  
HETATM    3  H2  UNL     1      -6.987   6.980  68.569  1.00  0.00     0.000 HD 
HETATM    4  H1  UNL     1      -7.155   5.879  67.317  1.00  0.00     0.000 HD 
HETATM    5  OXT UNL     1     -11.025   5.950  66.945  1.00  0.00    -0.299 OA 
HETATM    6  C   UNL     1      -9.813   6.099  66.961  1.00  0.00    -0.149 C  
HETATM    7  O   UNL     1      -9.019   5.892  65.879  1.00  0.00    -0.153 OA 
ENDROOT
BRANCH   2   8
HETATM    8  C   UNL     1      -9.596   7.763  68.874  1.00  0.00    -0.154 C  
BRANCH   8   9
HETATM    9  C   UNL     1      -9.558   7.744  70.386  1.00  0.00    -0.175 A  
HETATM   10  C   UNL     1      -8.573   8.464  71.082  1.00  0.00    -0.187 A  
HETATM   11  C   UNL     1      -8.527   8.400  72.471  1.00  0.00    -0.162 A  
HETATM   12  C   UNL     1      -9.454   7.634  73.175  1.00  0.00    -0.243 A  
HETATM   13  O   UNL     1      -7.577   9.069  73.192  1.00  0.00    -0.274 OA 
HETATM   14  H   UNL     1      -7.546   9.025  74.140  1.00  0.00     0.000 HD 
HETATM   15  O   UNL     1      -9.386   7.567  74.536  1.00  0.00    -0.411 OA 
HETATM   16  C   UNL     1     -10.441   6.925  72.510  1.00  0.00    -0.241 A  
HETATM   17  C   UNL     1     -10.483   6.987  71.121  1.00  0.00    -0.211 A  
HETATM   18  H   UNL     1     -10.018   7.045  75.016  1.00  0.00     0.000 HD 
HETATM   19  F   UNL     1     -11.412   6.272  70.468  1.00  0.00    -0.362 F  
ENDBRANCH   8   9
ENDBRANCH   2   8
TORSDOF 2
ENDMDL
MODEL      238
REMARK 921   NORMALIZED FREE ENERGY PREDICTED BY IDOCK:   -2.85 KCAL/MOL
REMARK 922        TOTAL FREE ENERGY PREDICTED BY IDOCK:   -3.50 KCAL/MOL
REMARK 923 INTER-LIGAND FREE ENERGY PREDICTED BY IDOCK:   -3.49 KCAL/MOL
REMARK 924 INTRA-LIGAND FREE ENERGY PREDICTED BY IDOCK:   -0.00 KCAL/MOL
REMARK 927      BINDING AFFINITY PREDICTED BY RF-SCORE:    0.00 PKD
ROOT
HETATM    1  N   UNL     1     -11.514   5.257  73.348  1.00  0.00    -0.497 NA 
HETATM    2  CA  UNL     1     -10.629   4.618  72.323  1.00  0.00    -0.132 C  
HETATM    3  H2  UNL     1     -11.849   6.162  73.017  1.00  0.00     0.000 HD 
HETATM    4  H1  UNL     1     -12.296   4.674  73.646  1.00  0.00     0.000 HD 
HETATM    5  OXT UNL     1      -9.354   2.521  72.295  1.00  0.00    -0.084 OA 
HETATM    6  C   UNL     1     -10.148   3.258  72.857  1.00  0.00    -0.152 C  
HETATM    7  O   UNL     1     -10.731   2.962  74.048  1.00  0.00    -0.173 OA 
ENDROOT
BRANCH   2   8
HETATM    8  C   UNL     1      -9.448   5.498  71.873  1.00  0.00    -0.171 C  
BRANCH   8   9
HETATM    9  C   UNL     1      -9.771   6.511  70.798  1.00  0.00    -0.194 A  
HETATM   10  C   UNL     1      -9.439   7.865  70.972  1.00  0.00    -0.172 A  
HETATM   11  C   UNL     1      -9.782   8.789  69.991  1.00  0.00    -0.173 A  
HETATM   12  C   UNL     1     -10.446   8.382  68.837  1.00  0.00    -0.189 A  
HETATM   13  O   UNL     1      -9.496  10.120  70.124  1.00  0.00    -0.389 OA 
HETATM   14  H   UNL     1      -9.731  10.751  69.454  1.00  0.00     0.000 HD 
HETATM   15  O   UNL     1     -10.792   9.302  67.890  1.00  0.00    -0.427 OA 
HETATM   16  C   UNL     1     -10.773   7.050  68.638  1.00  0.00    -0.225 A  
HETATM   17  C   UNL     1     -10.433   6.127  69.622  1.00  0.00    -0.252 A  
HETATM   18  H   UNL     1     -11.245   9.024  67.103  1.00  0.00     0.000 HD 
HETATM   19  F   UNL     1     -10.781   4.843  69.454  1.00  0.00    -0.262 F  
ENDBRANCH   8   9
ENDBRANCH   2   8
TORSDOF 2
ENDMDL
MODEL      239
REMARK 921   NORMALIZED FREE ENERGY PREDICTED BY IDOCK:   -2.84 KCAL/MOL
REMARK 922        TOTAL FREE ENERGY PREDICTED BY IDOCK:   -3.48 KCAL/MOL
REMARK 923 INTER-LIGAND FREE ENERGY PREDICTED BY IDOCK:   -3.21 KCAL/MOL
REMARK 924 INTRA-LIGAND FREE ENERGY PREDICTED BY IDOCK:   -0.27 KCAL/MOL
REMARK 927      BINDING AFFINITY PREDICTED BY RF-SCORE:    0.00 PKD
ROOT
HETATM    1  N   UNL     1      -9.809   8.408  72.551  1.00  0.00    -0.296 NA 
HETATM    2  CA  UNL     1     -10.358   7.988  71.222  1.00  0.00    -0.193 C  
HETATM    3  H2  UNL     1      -9.135   9.164  72.436  1.00  0.00     0.000 HD 
HETATM    4  H1  UNL     1     -10.521   8.666  73.234  1.00  0.00     0.000 HD 
HETATM    5  OXT UNL     1     -11.941   6.237  70.549  1.00  0.00    -0.263 OA 
HETATM    6  C   UNL     1     -11.371   6.851  71.437  1.00  0.00    -0.270 C  
HETATM    7  O   UNL     1     -11.569   6.611  72.760  1.00  0.00    -0.187 OA 
ENDROOT
BRANCH   2   8
HETATM    8  C   UNL     1      -9.283   7.599  70.190  1.00  0.00    -0.154 C  
BRANCH   8   9
HETATM    9  C   UNL     1      -9.430   8.245  68.830  1.00  0.00    -0.151 A  
HETATM   10  C   UNL     1     -10.449   9.182  68.594  1.00  0.00    -0.235 A  
HETATM   11  C   UNL     1     -10.595   9.734  67.325  1.00  0.00    -0.255 A  
HETATM   12  C   UNL     1      -9.735   9.369  66.292  1.00  0.00    -0.264 A  
HETATM   13  O   UNL     1     -11.583  10.636  67.042  1.00  0.00    -0.254 OA 
HETATM   14  H   UNL     1     -11.682  11.012  66.175  1.00  0.00     0.000 HD 
HETATM   15  O   UNL     1      -9.901   9.905  65.048  1.00  0.00    -0.317 OA 
HETATM   16  C   UNL     1      -8.715   8.456  66.506  1.00  0.00    -0.151 A  
HETATM   17  C   UNL     1      -8.573   7.902  67.774  1.00  0.00    -0.128 A  
HETATM   18  H   UNL     1      -9.314   9.657  64.343  1.00  0.00     0.000 HD 
HETATM   19  F   UNL     1      -7.612   6.988  67.977  1.00  0.00    -0.099 F  
ENDBRANCH   8   9
ENDBRANCH   2   8
TORSDOF 2
ENDMDL
MODEL      240
REMARK 921   NORMALIZED FREE ENERGY PREDICTED BY IDOCK:   -2.82 KCAL/MOL
REMARK 922        TOTAL FREE ENERGY PREDICTED BY IDOCK:   -3.46 KCAL/MOL
REMARK 923 INTER-LIGAND FREE ENERGY PREDICTED BY IDOCK:   -3.75 KCAL/MOL
REMARK 924 INTRA-LIGAND FREE ENERGY PREDICTED BY IDOCK:    0.28 KCAL/MOL
REMARK 927      BINDING AFFINITY PREDICTED BY RF-SCORE:    0.00 PKD
ROOT
HETATM    1  N   UNL     1     -11.876  13.006  66.307  1.00  0.00    -0.390 NA 
HETATM    2  CA  UNL     1     -10.813  12.836  65.266  1.00  0.00    -0.291 C  
HETATM    3  H2  UNL     1     -11.525  13.562  67.087  1.00  0.00     0.000 HD 
HETATM    4  H1  UNL     1     -12.748  13.399  65.954  1.00  0.00     0.000 HD 
HETATM    5  OXT UNL     1     -10.746  11.617  63.135  1.00  0.00    -0.328 OA 
HETATM    6  C   UNL     1     -11.380  11.998  64.107  1.00  0.00    -0.382 C  
HETATM    7  O   UNL     1     -12.700  11.733  64.290  1.00  0.00    -0.230 OA 
ENDROOT
BRANCH   2   8
HETATM    8  C   UNL     1      -9.496  12.243  65.799  1.00  0.00    -0.128 C  
BRANCH   8   9
HETATM    9  C   UNL     1      -9.476  10.737  65.939  1.00  0.00    -0.236 A  
HETATM   10  C   UNL     1      -8.802   9.943  64.996  1.00  0.00    -0.220 A  
HETATM   11  C   UNL     1      -8.831   8.558  65.118  1.00  0.00    -0.071 A  
HETATM   12  C   UNL     1      -9.517   7.954  66.170  1.00  0.00    -0.088 A  
HETATM   13  O   UNL     1      -8.205   7.743  64.216  1.00  0.00    -0.288 OA 
HETATM   14  H   UNL     1      -8.225   6.797  64.299  1.00  0.00     0.000 HD 
HETATM   15  O   UNL     1      -9.551   6.593  66.266  1.00  0.00    -0.315 OA 
HETATM   16  C   UNL     1     -10.178   8.718  67.118  1.00  0.00    -0.346 A  
HETATM   17  C   UNL     1     -10.152  10.103  66.993  1.00  0.00    -0.223 A  
HETATM   18  H   UNL     1     -10.018   6.181  66.984  1.00  0.00     0.000 HD 
HETATM   19  F   UNL     1     -10.823  10.847  67.885  1.00  0.00    -0.209 F  
ENDBRANCH   8   9
ENDBRANCH   2   8
TORSDOF 2
ENDMDL
MODEL      241
REMARK 921   NORMALIZED FREE ENERGY PREDICTED BY IDOCK:   -2.82 KCAL/MOL
REMARK 922        TOTAL FREE ENERGY PREDICTED BY IDOCK:   -3.46 KCAL/MOL
REMARK 923 INTER-LIGAND FREE ENERGY PREDICTED BY IDOCK:   -3.42 KCAL/MOL
REMARK 924 INTRA-LIGAND FREE ENERGY PREDICTED BY IDOCK:   -0.04 KCAL/MOL
REMARK 927      BINDING AFFINITY PREDICTED BY RF-SCORE:    0.00 PKD
ROOT
HETATM    1  N   UNL     1     -10.323  16.423  65.334  1.00  0.00    -0.593 NA 
HETATM    2  CA  UNL     1     -10.786  17.206  66.524  1.00  0.00    -0.074 C  
HETATM    3  H2  UNL     1     -10.156  15.450  65.590  1.00  0.00     0.000 HD 
HETATM    4  H1  UNL     1     -10.947  16.478  64.530  1.00  0.00     0.000 HD 
HETATM    5  OXT UNL     1     -11.342  19.575  66.848  1.00  0.00    -0.162 OA 
HETATM    6  C   UNL     1     -11.030  18.664  66.098  1.00  0.00     0.170 C  
HETATM    7  O   UNL     1     -10.864  18.820  64.759  1.00  0.00    -0.202 OA 
ENDROOT
BRANCH   2   8
HETATM    8  C   UNL     1      -9.843  17.123  67.739  1.00  0.00    -0.274 C  
BRANCH   8   9
HETATM    9  C   UNL     1      -8.605  17.988  67.655  1.00  0.00    -0.247 A  
HETATM   10  C   UNL     1      -7.553  17.644  66.792  1.00  0.00    -0.256 A  
HETATM   11  C   UNL     1      -6.404  18.428  66.760  1.00  0.00    -0.179 A  
HETATM   12  C   UNL     1      -6.294  19.554  67.573  1.00  0.00    -0.199 A  
HETATM   13  O   UNL     1      -5.347  18.123  65.950  1.00  0.00    -0.156 OA 
HETATM   14  H   UNL     1      -4.562  18.659  65.928  1.00  0.00     0.000 HD 
HETATM   15  O   UNL     1      -5.155  20.304  67.544  1.00  0.00    -0.168 OA 
HETATM   16  C   UNL     1      -7.325  19.920  68.423  1.00  0.00    -0.318 A  
HETATM   17  C   UNL     1      -8.471  19.132  68.457  1.00  0.00    -0.364 A  
HETATM   18  H   UNL     1      -5.080  21.073  68.098  1.00  0.00     0.000 HD 
HETATM   19  F   UNL     1      -9.457  19.458  69.307  1.00  0.00    -0.404 F  
ENDBRANCH   8   9
ENDBRANCH   2   8
TORSDOF 2
ENDMDL
MODEL      242
REMARK 921   NORMALIZED FREE ENERGY PREDICTED BY IDOCK:   -2.82 KCAL/MOL
REMARK 922        TOTAL FREE ENERGY PREDICTED BY IDOCK:   -3.46 KCAL/MOL
REMARK 923 INTER-LIGAND FREE ENERGY PREDICTED BY IDOCK:   -3.22 KCAL/MOL
REMARK 924 INTRA-LIGAND FREE ENERGY PREDICTED BY IDOCK:   -0.24 KCAL/MOL
REMARK 927      BINDING AFFINITY PREDICTED BY RF-SCORE:    0.00 PKD
ROOT
HETATM    1  N   UNL     1     -11.396   4.403  65.056  1.00  0.00    -1.102 NA 
HETATM    2  CA  UNL     1     -10.002   4.546  65.586  1.00  0.00    -0.231 C  
HETATM    3  H2  UNL     1     -11.974   5.187  65.357  1.00  0.00     0.000 HD 
HETATM    4  H1  UNL     1     -11.448   4.290  64.044  1.00  0.00     0.000 HD 
HETATM    5  OXT UNL     1      -8.004   3.128  65.427  1.00  0.00    -0.084 OA 
HETATM    6  C   UNL     1      -9.162   3.349  65.108  1.00  0.00    -0.149 C  
HETATM    7  O   UNL     1      -9.869   2.556  64.262  1.00  0.00    -0.145 OA 
ENDROOT
BRANCH   2   8
HETATM    8  C   UNL     1      -9.923   4.717  67.114  1.00  0.00    -0.215 C  
BRANCH   8   9
HETATM    9  C   UNL     1      -9.278   6.001  67.587  1.00  0.00    -0.107 A  
HETATM   10  C   UNL     1      -8.060   5.970  68.286  1.00  0.00    -0.110 A  
HETATM   11  C   UNL     1      -7.504   7.157  68.751  1.00  0.00    -0.102 A  
HETATM   12  C   UNL     1      -8.142   8.374  68.522  1.00  0.00    -0.123 A  
HETATM   13  O   UNL     1      -6.330   7.176  69.451  1.00  0.00    -0.033 OA 
HETATM   14  H   UNL     1      -5.950   7.987  69.769  1.00  0.00     0.000 HD 
HETATM   15  O   UNL     1      -7.593   9.529  68.999  1.00  0.00    -0.072 OA 
HETATM   16  C   UNL     1      -9.337   8.430  67.825  1.00  0.00    -0.150 A  
HETATM   17  C   UNL     1      -9.895   7.241  67.364  1.00  0.00    -0.159 A  
HETATM   18  H   UNL     1      -8.028  10.359  68.843  1.00  0.00     0.000 HD 
HETATM   19  F   UNL     1     -11.072   7.283  66.723  1.00  0.00    -0.439 F  
ENDBRANCH   8   9
ENDBRANCH   2   8
TORSDOF 2
ENDMDL
MODEL      243
REMARK 921   NORMALIZED FREE ENERGY PREDICTED BY IDOCK:   -2.81 KCAL/MOL
REMARK 922        TOTAL FREE ENERGY PREDICTED BY IDOCK:   -3.45 KCAL/MOL
REMARK 923 INTER-LIGAND FREE ENERGY PREDICTED BY IDOCK:   -3.21 KCAL/MOL
REMARK 924 INTRA-LIGAND FREE ENERGY PREDICTED BY IDOCK:   -0.24 KCAL/MOL
REMARK 927      BINDING AFFINITY PREDICTED BY RF-SCORE:    0.00 PKD
ROOT
HETATM    1  N   UNL     1      -7.891   4.285  71.055  1.00  0.00    -0.066 NA 
HETATM    2  CA  UNL     1      -9.110   5.155  71.095  1.00  0.00    -0.143 C  
HETATM    3  H2  UNL     1      -7.417   4.377  70.156  1.00  0.00     0.000 HD 
HETATM    4  H1  UNL     1      -7.237   4.447  71.820  1.00  0.00     0.000 HD 
HETATM    5  OXT UNL     1     -10.851   5.507  72.790  1.00  0.00    -0.227 OA 
HETATM    6  C   UNL     1      -9.793   4.992  72.464  1.00  0.00    -0.159 C  
HETATM    7  O   UNL     1      -9.061   4.199  73.289  1.00  0.00    -0.106 OA 
ENDROOT
BRANCH   2   8
HETATM    8  C   UNL     1     -10.096   4.912  69.939  1.00  0.00    -0.332 C  
BRANCH   8   9
HETATM    9  C   UNL     1     -10.037   5.925  68.817  1.00  0.00    -0.220 A  
HETATM   10  C   UNL     1     -10.581   7.209  68.987  1.00  0.00    -0.225 A  
HETATM   11  C   UNL     1     -10.555   8.112  67.930  1.00  0.00    -0.147 A  
HETATM   12  C   UNL     1      -9.990   7.755  66.708  1.00  0.00    -0.261 A  
HETATM   13  O   UNL     1     -11.087   9.367  68.042  1.00  0.00    -0.502 OA 
HETATM   14  H   UNL     1     -11.069   9.983  67.320  1.00  0.00     0.000 HD 
HETATM   15  O   UNL     1      -9.988   8.646  65.674  1.00  0.00    -0.412 OA 
HETATM   16  C   UNL     1      -9.437   6.498  66.521  1.00  0.00    -0.190 A  
HETATM   17  C   UNL     1      -9.467   5.594  67.578  1.00  0.00    -0.114 A  
HETATM   18  H   UNL     1      -9.602   8.402  64.840  1.00  0.00     0.000 HD 
HETATM   19  F   UNL     1      -8.970   4.363  67.391  1.00  0.00    -0.106 F  
ENDBRANCH   8   9
ENDBRANCH   2   8
TORSDOF 2
ENDMDL
MODEL      244
REMARK 921   NORMALIZED FREE ENERGY PREDICTED BY IDOCK:   -2.76 KCAL/MOL
REMARK 922        TOTAL FREE ENERGY PREDICTED BY IDOCK:   -3.40 KCAL/MOL
REMARK 923 INTER-LIGAND FREE ENERGY PREDICTED BY IDOCK:   -3.24 KCAL/MOL
REMARK 924 INTRA-LIGAND FREE ENERGY PREDICTED BY IDOCK:   -0.16 KCAL/MOL
REMARK 927      BINDING AFFINITY PREDICTED BY RF-SCORE:    0.00 PKD
ROOT
HETATM    1  N   UNL     1     -10.455   4.527  65.865  1.00  0.00    -0.431 NA 
HETATM    2  CA  UNL     1      -9.268   5.184  65.230  1.00  0.00    -0.084 C  
HETATM    3  H2  UNL     1     -11.078   5.227  66.267  1.00  0.00     0.000 HD 
HETATM    4  H1  UNL     1     -10.971   3.906  65.243  1.00  0.00     0.000 HD 
HETATM    5  OXT UNL     1      -7.271   4.297  64.112  1.00  0.00    -0.053 OA 
HETATM    6  C   UNL     1      -8.356   4.098  64.635  1.00  0.00    -0.104 C  
HETATM    7  O   UNL     1      -8.916   2.866  64.750  1.00  0.00    -0.117 OA 
ENDROOT
BRANCH   2   8
HETATM    8  C   UNL     1      -8.489   6.122  66.170  1.00  0.00    -0.137 C  
BRANCH   8   9
HETATM    9  C   UNL     1      -9.276   7.298  66.705  1.00  0.00    -0.187 A  
HETATM   10  C   UNL     1      -9.928   7.213  67.947  1.00  0.00    -0.186 A  
HETATM   11  C   UNL     1     -10.682   8.289  68.403  1.00  0.00    -0.019 A  
HETATM   12  C   UNL     1     -10.790   9.451  67.641  1.00  0.00    -0.154 A  
HETATM   13  O   UNL     1     -11.348   8.247  69.596  1.00  0.00    -0.452 OA 
HETATM   14  H   UNL     1     -11.863   8.982  69.907  1.00  0.00     0.000 HD 
HETATM   15  O   UNL     1     -11.548  10.492  68.093  1.00  0.00    -0.604 OA 
HETATM   16  C   UNL     1     -10.147   9.561  66.419  1.00  0.00    -0.328 A  
HETATM   17  C   UNL     1      -9.396   8.483  65.962  1.00  0.00    -0.199 A  
HETATM   18  H   UNL     1     -11.622  11.284  67.574  1.00  0.00     0.000 HD 
HETATM   19  F   UNL     1      -8.803   8.568  64.762  1.00  0.00    -0.187 F  
ENDBRANCH   8   9
ENDBRANCH   2   8
TORSDOF 2
ENDMDL
MODEL      245
REMARK 921   NORMALIZED FREE ENERGY PREDICTED BY IDOCK:   -2.75 KCAL/MOL
REMARK 922        TOTAL FREE ENERGY PREDICTED BY IDOCK:   -3.38 KCAL/MOL
REMARK 923 INTER-LIGAND FREE ENERGY PREDICTED BY IDOCK:   -3.10 KCAL/MOL
REMARK 924 INTRA-LIGAND FREE ENERGY PREDICTED BY IDOCK:   -0.29 KCAL/MOL
REMARK 927      BINDING AFFINITY PREDICTED BY RF-SCORE:    0.00 PKD
ROOT
HETATM    1  N   UNL     1      -6.144   6.212  70.924  1.00  0.00    -0.036 NA 
HETATM    2  CA  UNL     1      -7.382   6.410  71.744  1.00  0.00    -0.088 C  
HETATM    3  H2  UNL     1      -6.230   6.689  70.027  1.00  0.00     0.000 HD 
HETATM    4  H1  UNL     1      -5.283   6.490  71.394  1.00  0.00     0.000 HD 
HETATM    5  OXT UNL     1      -8.069   5.585  73.952  1.00  0.00    -0.107 OA 
HETATM    6  C   UNL     1      -7.211   5.681  73.088  1.00  0.00    -0.094 C  
HETATM    7  O   UNL     1      -5.966   5.152  73.208  1.00  0.00    -0.025 OA 
ENDROOT
BRANCH   2   8
HETATM    8  C   UNL     1      -8.682   5.991  71.035  1.00  0.00    -0.132 C  
BRANCH   8   9
HETATM    9  C   UNL     1      -9.775   7.036  71.021  1.00  0.00    -0.175 A  
HETATM   10  C   UNL     1     -10.682   7.132  72.089  1.00  0.00    -0.245 A  
HETATM   11  C   UNL     1     -11.707   8.071  72.039  1.00  0.00    -0.323 A  
HETATM   12  C   UNL     1     -11.836   8.919  70.943  1.00  0.00    -0.240 A  
HETATM   13  O   UNL     1     -12.624   8.189  73.047  1.00  0.00    -0.656 OA 
HETATM   14  H   UNL     1     -13.324   8.831  73.012  1.00  0.00     0.000 HD 
HETATM   15  O   UNL     1     -12.857   9.824  70.899  1.00  0.00    -0.454 OA 
HETATM   16  C   UNL     1     -10.946   8.851  69.883  1.00  0.00    -0.190 A  
HETATM   17  C   UNL     1      -9.924   7.909  69.932  1.00  0.00    -0.192 A  
HETATM   18  H   UNL     1     -12.945  10.403  70.151  1.00  0.00     0.000 HD 
HETATM   19  F   UNL     1      -9.082   7.810  68.892  1.00  0.00    -0.140 F  
ENDBRANCH   8   9
ENDBRANCH   2   8
TORSDOF 2
ENDMDL
MODEL      246
REMARK 921   NORMALIZED FREE ENERGY PREDICTED BY IDOCK:   -2.75 KCAL/MOL
REMARK 922        TOTAL FREE ENERGY PREDICTED BY IDOCK:   -3.38 KCAL/MOL
REMARK 923 INTER-LIGAND FREE ENERGY PREDICTED BY IDOCK:   -3.24 KCAL/MOL
REMARK 924 INTRA-LIGAND FREE ENERGY PREDICTED BY IDOCK:   -0.14 KCAL/MOL
REMARK 927      BINDING AFFINITY PREDICTED BY RF-SCORE:    0.00 PKD
ROOT
HETATM    1  N   UNL     1     -11.844   6.114  69.498  1.00  0.00    -0.099 NA 
HETATM    2  CA  UNL     1     -10.505   5.471  69.299  1.00  0.00    -0.266 C  
HETATM    3  H2  UNL     1     -12.323   6.225  68.605  1.00  0.00     0.000 HD 
HETATM    4  H1  UNL     1     -12.443   5.631  70.167  1.00  0.00     0.000 HD 
HETATM    5  OXT UNL     1      -8.684   4.899  70.842  1.00  0.00    -0.115 OA 
HETATM    6  C   UNL     1      -9.817   5.319  70.666  1.00  0.00    -0.198 C  
HETATM    7  O   UNL     1     -10.638   5.704  71.678  1.00  0.00    -0.227 OA 
ENDROOT
BRANCH   2   8
HETATM    8  C   UNL     1      -9.600   6.200  68.289  1.00  0.00    -0.122 C  
BRANCH   8   9
HETATM    9  C   UNL     1      -9.473   7.693  68.497  1.00  0.00    -0.147 A  
HETATM   10  C   UNL     1      -8.656   8.203  69.519  1.00  0.00    -0.134 A  
HETATM   11  C   UNL     1      -8.586   9.577  69.722  1.00  0.00    -0.192 A  
HETATM   12  C   UNL     1      -9.313  10.450  68.916  1.00  0.00    -0.186 A  
HETATM   13  O   UNL     1      -7.818  10.120  70.715  1.00  0.00    -0.380 OA 
HETATM   14  H   UNL     1      -7.770  11.058  70.854  1.00  0.00     0.000 HD 
HETATM   15  O   UNL     1      -9.248  11.795  69.138  1.00  0.00    -0.382 OA 
HETATM   16  C   UNL     1     -10.116   9.970  67.894  1.00  0.00    -0.203 A  
HETATM   17  C   UNL     1     -10.189   8.595  67.695  1.00  0.00    -0.239 A  
HETATM   18  H   UNL     1      -9.744  12.390  68.588  1.00  0.00     0.000 HD 
HETATM   19  F   UNL     1     -10.995   8.122  66.733  1.00  0.00    -0.352 F  
ENDBRANCH   8   9
ENDBRANCH   2   8
TORSDOF 2
ENDMDL
MODEL      247
REMARK 921   NORMALIZED FREE ENERGY PREDICTED BY IDOCK:   -2.74 KCAL/MOL
REMARK 922        TOTAL FREE ENERGY PREDICTED BY IDOCK:   -3.37 KCAL/MOL
REMARK 923 INTER-LIGAND FREE ENERGY PREDICTED BY IDOCK:   -3.13 KCAL/MOL
REMARK 924 INTRA-LIGAND FREE ENERGY PREDICTED BY IDOCK:   -0.24 KCAL/MOL
REMARK 927      BINDING AFFINITY PREDICTED BY RF-SCORE:    0.00 PKD
ROOT
HETATM    1  N   UNL     1      -9.122  12.956  68.436  1.00  0.00    -0.322 NA 
HETATM    2  CA  UNL     1     -10.053  12.029  67.716  1.00  0.00    -0.193 C  
HETATM    3  H2  UNL     1      -8.316  12.444  68.794  1.00  0.00     0.000 HD 
HETATM    4  H1  UNL     1      -8.819  13.756  67.882  1.00  0.00     0.000 HD 
HETATM    5  OXT UNL     1     -12.226  12.366  66.624  1.00  0.00    -0.562 OA 
HETATM    6  C   UNL     1     -11.252  12.837  67.190  1.00  0.00    -0.292 C  
HETATM    7  O   UNL     1     -11.093  14.166  67.425  1.00  0.00    -0.291 OA 
ENDROOT
BRANCH   2   8
HETATM    8  C   UNL     1     -10.511  10.820  68.552  1.00  0.00    -0.208 C  
BRANCH   8   9
HETATM    9  C   UNL     1      -9.633   9.592  68.444  1.00  0.00    -0.154 A  
HETATM   10  C   UNL     1      -8.617   9.359  69.386  1.00  0.00    -0.148 A  
HETATM   11  C   UNL     1      -7.792   8.248  69.247  1.00  0.00    -0.108 A  
HETATM   12  C   UNL     1      -7.970   7.363  68.186  1.00  0.00    -0.123 A  
HETATM   13  O   UNL     1      -6.779   7.988  70.128  1.00  0.00    -0.037 OA 
HETATM   14  H   UNL     1      -6.216   7.229  70.032  1.00  0.00     0.000 HD 
HETATM   15  O   UNL     1      -7.142   6.287  68.051  1.00  0.00    -0.077 OA 
HETATM   16  C   UNL     1      -8.973   7.567  67.252  1.00  0.00    -0.130 A  
HETATM   17  C   UNL     1      -9.795   8.681  67.390  1.00  0.00    -0.192 A  
HETATM   18  H   UNL     1      -7.264   5.683  67.328  1.00  0.00     0.000 HD 
HETATM   19  F   UNL     1     -10.742   8.906  66.467  1.00  0.00    -0.296 F  
ENDBRANCH   8   9
ENDBRANCH   2   8
TORSDOF 2
ENDMDL
MODEL      248
REMARK 921   NORMALIZED FREE ENERGY PREDICTED BY IDOCK:   -2.72 KCAL/MOL
REMARK 922        TOTAL FREE ENERGY PREDICTED BY IDOCK:   -3.36 KCAL/MOL
REMARK 923 INTER-LIGAND FREE ENERGY PREDICTED BY IDOCK:   -3.83 KCAL/MOL
REMARK 924 INTRA-LIGAND FREE ENERGY PREDICTED BY IDOCK:    0.47 KCAL/MOL
REMARK 927      BINDING AFFINITY PREDICTED BY RF-SCORE:    0.00 PKD
ROOT
HETATM    1  N   UNL     1     -11.004   6.509  71.110  1.00  0.00    -0.254 NA 
HETATM    2  CA  UNL     1     -10.210   7.652  70.557  1.00  0.00    -0.201 C  
HETATM    3  H2  UNL     1     -11.994   6.626  70.898  1.00  0.00     0.000 HD 
HETATM    4  H1  UNL     1     -10.680   5.591  70.806  1.00  0.00     0.000 HD 
HETATM    5  OXT UNL     1      -7.825   8.225  70.650  1.00  0.00    -0.084 OA 
HETATM    6  C   UNL     1      -8.724   7.437  70.894  1.00  0.00    -0.144 C  
HETATM    7  O   UNL     1      -8.524   6.237  71.499  1.00  0.00    -0.128 OA 
ENDROOT
BRANCH   2   8
HETATM    8  C   UNL     1     -10.698   9.039  71.016  1.00  0.00    -0.339 C  
BRANCH   8   9
HETATM    9  C   UNL     1     -11.033  10.006  69.901  1.00  0.00    -0.339 A  
HETATM   10  C   UNL     1     -11.510  11.294  70.196  1.00  0.00    -0.336 A  
HETATM   11  C   UNL     1     -11.853  12.154  69.158  1.00  0.00    -0.305 A  
HETATM   12  C   UNL     1     -11.722  11.749  67.832  1.00  0.00    -0.276 A  
HETATM   13  O   UNL     1     -12.338  13.410  69.395  1.00  0.00    -0.236 OA 
HETATM   14  H   UNL     1     -12.572  13.997  68.686  1.00  0.00     0.000 HD 
HETATM   15  O   UNL     1     -12.079  12.597  66.824  1.00  0.00    -0.504 OA 
HETATM   16  C   UNL     1     -11.243  10.488  67.517  1.00  0.00    -0.299 A  
HETATM   17  C   UNL     1     -10.903   9.627  68.556  1.00  0.00    -0.161 A  
HETATM   18  H   UNL     1     -11.989  12.322  65.919  1.00  0.00     0.000 HD 
HETATM   19  F   UNL     1     -10.476   8.391  68.260  1.00  0.00    -0.221 F  
ENDBRANCH   8   9
ENDBRANCH   2   8
TORSDOF 2
ENDMDL
MODEL      249
REMARK 921   NORMALIZED FREE ENERGY PREDICTED BY IDOCK:   -2.71 KCAL/MOL
REMARK 922        TOTAL FREE ENERGY PREDICTED BY IDOCK:   -3.35 KCAL/MOL
REMARK 923 INTER-LIGAND FREE ENERGY PREDICTED BY IDOCK:   -3.25 KCAL/MOL
REMARK 924 INTRA-LIGAND FREE ENERGY PREDICTED BY IDOCK:   -0.10 KCAL/MOL
REMARK 927      BINDING AFFINITY PREDICTED BY RF-SCORE:    0.00 PKD
ROOT
HETATM    1  N   UNL     1     -10.294   9.839  70.667  1.00  0.00    -0.312 NA 
HETATM    2  CA  UNL     1     -10.005   9.805  69.197  1.00  0.00    -0.189 C  
HETATM    3  H2  UNL     1      -9.541   9.392  71.189  1.00  0.00     0.000 HD 
HETATM    4  H1  UNL     1     -10.478  10.772  71.034  1.00  0.00     0.000 HD 
HETATM    5  OXT UNL     1     -11.264  10.564  67.232  1.00  0.00    -0.307 OA 
HETATM    6  C   UNL     1     -11.159  10.490  68.446  1.00  0.00    -0.281 C  
HETATM    7  O   UNL     1     -12.061  11.025  69.309  1.00  0.00    -0.339 OA 
ENDROOT
BRANCH   2   8
HETATM    8  C   UNL     1      -9.726   8.397  68.642  1.00  0.00    -0.171 C  
BRANCH   8   9
HETATM    9  C   UNL     1      -9.499   7.325  69.685  1.00  0.00    -0.155 A  
HETATM   10  C   UNL     1      -8.253   7.203  70.321  1.00  0.00    -0.131 A  
HETATM   11  C   UNL     1      -8.050   6.185  71.246  1.00  0.00    -0.118 A  
HETATM   12  C   UNL     1      -9.074   5.290  71.550  1.00  0.00    -0.145 A  
HETATM   13  O   UNL     1      -6.849   6.015  71.879  1.00  0.00    -0.065 OA 
HETATM   14  H   UNL     1      -6.711   5.320  72.510  1.00  0.00     0.000 HD 
HETATM   15  O   UNL     1      -8.855   4.285  72.447  1.00  0.00    -0.106 OA 
HETATM   16  C   UNL     1     -10.315   5.399  70.944  1.00  0.00    -0.312 A  
HETATM   17  C   UNL     1     -10.515   6.415  70.015  1.00  0.00    -0.215 A  
HETATM   18  H   UNL     1      -9.553   3.676  72.655  1.00  0.00     0.000 HD 
HETATM   19  F   UNL     1     -11.701   6.502  69.395  1.00  0.00    -0.405 F  
ENDBRANCH   8   9
ENDBRANCH   2   8
TORSDOF 2
ENDMDL
MODEL      250
REMARK 921   NORMALIZED FREE ENERGY PREDICTED BY IDOCK:   -2.71 KCAL/MOL
REMARK 922        TOTAL FREE ENERGY PREDICTED BY IDOCK:   -3.34 KCAL/MOL
REMARK 923 INTER-LIGAND FREE ENERGY PREDICTED BY IDOCK:   -3.53 KCAL/MOL
REMARK 924 INTRA-LIGAND FREE ENERGY PREDICTED BY IDOCK:    0.19 KCAL/MOL
REMARK 927      BINDING AFFINITY PREDICTED BY RF-SCORE:    0.00 PKD
ROOT
HETATM    1  N   UNL     1     -12.033  11.449  67.745  1.00  0.00    -0.646 NA 
HETATM    2  CA  UNL     1     -10.973  11.754  68.758  1.00  0.00    -0.234 C  
HETATM    3  H2  UNL     1     -12.917  11.235  68.206  1.00  0.00     0.000 HD 
HETATM    4  H1  UNL     1     -12.164  12.179  67.045  1.00  0.00     0.000 HD 
HETATM    5  OXT UNL     1      -8.586  12.293  68.563  1.00  0.00    -0.150 OA 
HETATM    6  C   UNL     1      -9.660  12.075  68.024  1.00  0.00    -0.199 C  
HETATM    7  O   UNL     1      -9.839  12.098  66.678  1.00  0.00    -0.203 OA 
ENDROOT
BRANCH   2   8
HETATM    8  C   UNL     1     -10.775  10.653  69.815  1.00  0.00    -0.283 C  
BRANCH   8   9
HETATM    9  C   UNL     1     -10.216   9.348  69.291  1.00  0.00    -0.209 A  
HETATM   10  C   UNL     1     -10.742   8.766  68.126  1.00  0.00    -0.131 A  
HETATM   11  C   UNL     1     -10.244   7.545  67.683  1.00  0.00    -0.213 A  
HETATM   12  C   UNL     1      -9.226   6.901  68.382  1.00  0.00    -0.124 A  
HETATM   13  O   UNL     1     -10.736   6.930  66.565  1.00  0.00    -0.516 OA 
HETATM   14  H   UNL     1     -10.395   6.096  66.262  1.00  0.00     0.000 HD 
HETATM   15  O   UNL     1      -8.760   5.695  67.945  1.00  0.00    -0.108 OA 
HETATM   16  C   UNL     1      -8.685   7.462  69.526  1.00  0.00    -0.137 A  
HETATM   17  C   UNL     1      -9.186   8.682  69.971  1.00  0.00    -0.157 A  
HETATM   18  H   UNL     1      -8.065   5.255  68.421  1.00  0.00     0.000 HD 
HETATM   19  F   UNL     1      -8.694   9.212  71.100  1.00  0.00    -0.219 F  
ENDBRANCH   8   9
ENDBRANCH   2   8
TORSDOF 2
ENDMDL
MODEL      251
REMARK 921   NORMALIZED FREE ENERGY PREDICTED BY IDOCK:   -2.70 KCAL/MOL
REMARK 922        TOTAL FREE ENERGY PREDICTED BY IDOCK:   -3.33 KCAL/MOL
REMARK 923 INTER-LIGAND FREE ENERGY PREDICTED BY IDOCK:   -3.15 KCAL/MOL
REMARK 924 INTRA-LIGAND FREE ENERGY PREDICTED BY IDOCK:   -0.17 KCAL/MOL
REMARK 927      BINDING AFFINITY PREDICTED BY RF-SCORE:    0.00 PKD
ROOT
HETATM    1  N   UNL     1      -8.943   8.306  68.744  1.00  0.00    -0.144 NA 
HETATM    2  CA  UNL     1      -9.806   7.092  68.589  1.00  0.00    -0.148 C  
HETATM    3  H2  UNL     1      -8.430   8.269  69.625  1.00  0.00     0.000 HD 
HETATM    4  H1  UNL     1      -8.303   8.466  67.966  1.00  0.00     0.000 HD 
HETATM    5  OXT UNL     1     -11.398   6.388  66.857  1.00  0.00    -0.304 OA 
HETATM    6  C   UNL     1     -10.558   7.183  67.250  1.00  0.00    -0.327 C  
HETATM    7  O   UNL     1     -10.163   8.269  66.535  1.00  0.00    -0.288 OA 
ENDROOT
BRANCH   2   8
HETATM    8  C   UNL     1     -10.771   6.850  69.763  1.00  0.00    -0.276 C  
BRANCH   8   9
HETATM    9  C   UNL     1     -10.120   6.396  71.051  1.00  0.00    -0.212 A  
HETATM   10  C   UNL     1     -10.096   7.241  72.173  1.00  0.00    -0.207 A  
HETATM   11  C   UNL     1      -9.455   6.824  73.334  1.00  0.00    -0.153 A  
HETATM   12  C   UNL     1      -8.843   5.574  73.395  1.00  0.00    -0.116 A  
HETATM   13  O   UNL     1      -9.391   7.618  74.446  1.00  0.00    -0.411 OA 
HETATM   14  H   UNL     1      -8.953   7.332  75.239  1.00  0.00     0.000 HD 
HETATM   15  O   UNL     1      -8.202   5.185  74.535  1.00  0.00    -0.101 OA 
HETATM   16  C   UNL     1      -8.864   4.720  72.304  1.00  0.00    -0.133 A  
HETATM   17  C   UNL     1      -9.502   5.140  71.142  1.00  0.00    -0.153 A  
HETATM   18  H   UNL     1      -7.785   4.332  74.576  1.00  0.00     0.000 HD 
HETATM   19  F   UNL     1      -9.492   4.334  70.069  1.00  0.00    -0.177 F  
ENDBRANCH   8   9
ENDBRANCH   2   8
TORSDOF 2
ENDMDL
MODEL      252
REMARK 921   NORMALIZED FREE ENERGY PREDICTED BY IDOCK:   -2.68 KCAL/MOL
REMARK 922        TOTAL FREE ENERGY PREDICTED BY IDOCK:   -3.31 KCAL/MOL
REMARK 923 INTER-LIGAND FREE ENERGY PREDICTED BY IDOCK:   -3.08 KCAL/MOL
REMARK 924 INTRA-LIGAND FREE ENERGY PREDICTED BY IDOCK:   -0.23 KCAL/MOL
REMARK 927      BINDING AFFINITY PREDICTED BY RF-SCORE:    0.00 PKD
ROOT
HETATM    1  N   UNL     1      -8.102   5.890  68.155  1.00  0.00    -0.108 NA 
HETATM    2  CA  UNL     1      -9.154   6.784  68.737  1.00  0.00    -0.132 C  
HETATM    3  H2  UNL     1      -7.330   6.443  67.783  1.00  0.00     0.000 HD 
HETATM    4  H1  UNL     1      -7.754   5.180  68.799  1.00  0.00     0.000 HD 
HETATM    5  OXT UNL     1     -11.339   6.339  69.762  1.00  0.00    -0.405 OA 
HETATM    6  C   UNL     1     -10.297   5.915  69.289  1.00  0.00    -0.246 C  
HETATM    7  O   UNL     1     -10.000   4.593  69.197  1.00  0.00    -0.189 OA 
ENDROOT
BRANCH   2   8
HETATM    8  C   UNL     1      -9.679   7.856  67.764  1.00  0.00    -0.189 C  
BRANCH   8   9
HETATM    9  C   UNL     1      -9.183   9.262  68.025  1.00  0.00    -0.138 A  
HETATM   10  C   UNL     1      -8.338   9.528  69.115  1.00  0.00    -0.125 A  
HETATM   11  C   UNL     1      -7.927  10.833  69.363  1.00  0.00    -0.067 A  
HETATM   12  C   UNL     1      -8.342  11.875  68.536  1.00  0.00    -0.118 A  
HETATM   13  O   UNL     1      -7.120  11.145  70.422  1.00  0.00    -0.438 OA 
HETATM   14  H   UNL     1      -6.839  12.036  70.591  1.00  0.00     0.000 HD 
HETATM   15  O   UNL     1      -7.945  13.153  68.802  1.00  0.00    -0.297 OA 
HETATM   16  C   UNL     1      -9.165  11.634  67.448  1.00  0.00    -0.168 A  
HETATM   17  C   UNL     1      -9.579  10.328  67.203  1.00  0.00    -0.168 A  
HETATM   18  H   UNL     1      -8.227  13.864  68.238  1.00  0.00     0.000 HD 
HETATM   19  F   UNL     1     -10.408  10.093  66.175  1.00  0.00    -0.292 F  
ENDBRANCH   8   9
ENDBRANCH   2   8
TORSDOF 2
ENDMDL
MODEL      253
REMARK 921   NORMALIZED FREE ENERGY PREDICTED BY IDOCK:   -2.67 KCAL/MOL
REMARK 922        TOTAL FREE ENERGY PREDICTED BY IDOCK:   -3.30 KCAL/MOL
REMARK 923 INTER-LIGAND FREE ENERGY PREDICTED BY IDOCK:   -3.34 KCAL/MOL
REMARK 924 INTRA-LIGAND FREE ENERGY PREDICTED BY IDOCK:    0.05 KCAL/MOL
REMARK 927      BINDING AFFINITY PREDICTED BY RF-SCORE:    0.00 PKD
ROOT
HETATM    1  N   UNL     1      -8.826   5.296  72.932  1.00  0.00    -0.121 NA 
HETATM    2  CA  UNL     1     -10.056   6.085  73.263  1.00  0.00    -0.193 C  
HETATM    3  H2  UNL     1      -8.122   5.410  73.662  1.00  0.00     0.000 HD 
HETATM    4  H1  UNL     1      -9.000   4.306  72.756  1.00  0.00     0.000 HD 
HETATM    5  OXT UNL     1     -12.173   6.449  72.074  1.00  0.00    -0.341 OA 
HETATM    6  C   UNL     1     -11.092   5.884  72.144  1.00  0.00    -0.281 C  
HETATM    7  O   UNL     1     -10.661   4.978  71.228  1.00  0.00    -0.179 OA 
ENDROOT
BRANCH   2   8
HETATM    8  C   UNL     1      -9.794   7.578  73.529  1.00  0.00    -0.372 C  
BRANCH   8   9
HETATM    9  C   UNL     1      -9.297   8.368  72.339  1.00  0.00    -0.356 A  
HETATM   10  C   UNL     1     -10.205   8.997  71.471  1.00  0.00    -0.414 A  
HETATM   11  C   UNL     1      -9.731   9.683  70.358  1.00  0.00    -0.245 A  
HETATM   12  C   UNL     1      -8.364   9.756  70.102  1.00  0.00    -0.175 A  
HETATM   13  O   UNL     1     -10.577  10.295  69.476  1.00  0.00    -0.213 OA 
HETATM   14  H   UNL     1     -10.253  10.764  68.716  1.00  0.00     0.000 HD 
HETATM   15  O   UNL     1      -7.914  10.418  68.996  1.00  0.00    -0.111 OA 
HETATM   16  C   UNL     1      -7.449   9.154  70.950  1.00  0.00    -0.136 A  
HETATM   17  C   UNL     1      -7.925   8.465  72.061  1.00  0.00    -0.135 A  
HETATM   18  H   UNL     1      -6.982  10.469  68.822  1.00  0.00     0.000 HD 
HETATM   19  F   UNL     1      -7.047   7.846  72.864  1.00  0.00    -0.069 F  
ENDBRANCH   8   9
ENDBRANCH   2   8
TORSDOF 2
ENDMDL
MODEL      254
REMARK 921   NORMALIZED FREE ENERGY PREDICTED BY IDOCK:   -2.67 KCAL/MOL
REMARK 922        TOTAL FREE ENERGY PREDICTED BY IDOCK:   -3.29 KCAL/MOL
REMARK 923 INTER-LIGAND FREE ENERGY PREDICTED BY IDOCK:   -3.17 KCAL/MOL
REMARK 924 INTRA-LIGAND FREE ENERGY PREDICTED BY IDOCK:   -0.12 KCAL/MOL
REMARK 927      BINDING AFFINITY PREDICTED BY RF-SCORE:    0.00 PKD
ROOT
HETATM    1  N   UNL     1      -9.181   7.068  68.625  1.00  0.00    -0.132 NA 
HETATM    2  CA  UNL     1      -8.255   7.336  69.772  1.00  0.00    -0.130 C  
HETATM    3  H2  UNL     1      -9.333   7.919  68.083  1.00  0.00     0.000 HD 
HETATM    4  H1  UNL     1      -8.882   6.306  68.016  1.00  0.00     0.000 HD 
HETATM    5  OXT UNL     1      -7.409   5.927  71.595  1.00  0.00    -0.088 OA 
HETATM    6  C   UNL     1      -8.049   6.031  70.561  1.00  0.00    -0.112 C  
HETATM    7  O   UNL     1      -8.666   4.985  69.953  1.00  0.00    -0.099 OA 
ENDROOT
BRANCH   2   8
HETATM    8  C   UNL     1      -8.706   8.486  70.690  1.00  0.00    -0.171 C  
BRANCH   8   9
HETATM    9  C   UNL     1      -9.606   9.515  70.042  1.00  0.00    -0.272 A  
HETATM   10  C   UNL     1     -10.972   9.571  70.367  1.00  0.00    -0.333 A  
HETATM   11  C   UNL     1     -11.793  10.495  69.729  1.00  0.00    -0.257 A  
HETATM   12  C   UNL     1     -11.270  11.367  68.777  1.00  0.00    -0.247 A  
HETATM   13  O   UNL     1     -13.130  10.576  69.999  1.00  0.00    -0.451 OA 
HETATM   14  H   UNL     1     -13.691  11.208  69.563  1.00  0.00     0.000 HD 
HETATM   15  O   UNL     1     -12.090  12.257  68.147  1.00  0.00    -0.407 OA 
HETATM   16  C   UNL     1      -9.924  11.338  68.450  1.00  0.00    -0.201 A  
HETATM   17  C   UNL     1      -9.105  10.410  69.086  1.00  0.00    -0.187 A  
HETATM   18  H   UNL     1     -11.733  12.853  67.498  1.00  0.00     0.000 HD 
HETATM   19  F   UNL     1      -7.808  10.349  68.745  1.00  0.00    -0.084 F  
ENDBRANCH   8   9
ENDBRANCH   2   8
TORSDOF 2
ENDMDL
MODEL      255
REMARK 921   NORMALIZED FREE ENERGY PREDICTED BY IDOCK:   -2.62 KCAL/MOL
REMARK 922        TOTAL FREE ENERGY PREDICTED BY IDOCK:   -3.24 KCAL/MOL
REMARK 923 INTER-LIGAND FREE ENERGY PREDICTED BY IDOCK:   -3.19 KCAL/MOL
REMARK 924 INTRA-LIGAND FREE ENERGY PREDICTED BY IDOCK:   -0.05 KCAL/MOL
REMARK 927      BINDING AFFINITY PREDICTED BY RF-SCORE:    0.00 PKD
ROOT
HETATM    1  N   UNL     1     -11.149  16.017  70.106  1.00  0.00    -0.347 NA 
HETATM    2  CA  UNL     1     -11.415  15.785  68.650  1.00  0.00    -0.386 C  
HETATM    3  H2  UNL     1     -11.566  16.898  70.408  1.00  0.00     0.000 HD 
HETATM    4  H1  UNL     1     -11.448  15.254  70.712  1.00  0.00     0.000 HD 
HETATM    5  OXT UNL     1     -10.748  14.005  67.097  1.00  0.00    -0.280 OA 
HETATM    6  C   UNL     1     -10.775  14.449  68.234  1.00  0.00    -0.242 C  
HETATM    7  O   UNL     1     -10.242  13.803  69.303  1.00  0.00    -0.007 OA 
ENDROOT
BRANCH   2   8
HETATM    8  C   UNL     1     -10.965  16.937  67.734  1.00  0.00    -0.212 C  
BRANCH   8   9
HETATM    9  C   UNL     1      -9.473  17.028  67.498  1.00  0.00    -0.246 A  
HETATM   10  C   UNL     1      -8.596  17.262  68.570  1.00  0.00    -0.270 A  
HETATM   11  C   UNL     1      -7.232  17.385  68.328  1.00  0.00    -0.214 A  
HETATM   12  C   UNL     1      -6.730  17.272  67.034  1.00  0.00    -0.185 A  
HETATM   13  O   UNL     1      -6.341  17.631  69.336  1.00  0.00    -0.236 OA 
HETATM   14  H   UNL     1      -5.409  17.715  69.170  1.00  0.00     0.000 HD 
HETATM   15  O   UNL     1      -5.391  17.412  66.808  1.00  0.00    -0.142 OA 
HETATM   16  C   UNL     1      -7.575  17.029  65.963  1.00  0.00    -0.138 A  
HETATM   17  C   UNL     1      -8.940  16.910  66.206  1.00  0.00    -0.270 A  
HETATM   18  H   UNL     1      -5.049  17.334  65.925  1.00  0.00     0.000 HD 
HETATM   19  F   UNL     1      -9.768  16.714  65.169  1.00  0.00    -0.015 F  
ENDBRANCH   8   9
ENDBRANCH   2   8
TORSDOF 2
ENDMDL
MODEL      256
REMARK 921   NORMALIZED FREE ENERGY PREDICTED BY IDOCK:   -2.56 KCAL/MOL
REMARK 922        TOTAL FREE ENERGY PREDICTED BY IDOCK:   -3.17 KCAL/MOL
REMARK 923 INTER-LIGAND FREE ENERGY PREDICTED BY IDOCK:   -3.45 KCAL/MOL
REMARK 924 INTRA-LIGAND FREE ENERGY PREDICTED BY IDOCK:    0.28 KCAL/MOL
REMARK 927      BINDING AFFINITY PREDICTED BY RF-SCORE:    0.00 PKD
ROOT
HETATM    1  N   UNL     1      -8.467   5.494  73.872  1.00  0.00    -0.113 NA 
HETATM    2  CA  UNL     1      -9.942   5.659  74.076  1.00  0.00    -0.212 C  
HETATM    3  H2  UNL     1      -7.965   6.309  74.223  1.00  0.00     0.000 HD 
HETATM    4  H1  UNL     1      -8.083   4.639  74.275  1.00  0.00     0.000 HD 
HETATM    5  OXT UNL     1     -11.872   4.261  73.488  1.00  0.00    -0.144 OA 
HETATM    6  C   UNL     1     -10.662   4.409  73.540  1.00  0.00    -0.251 C  
HETATM    7  O   UNL     1      -9.774   3.466  73.130  1.00  0.00    -0.108 OA 
ENDROOT
BRANCH   2   8
HETATM    8  C   UNL     1     -10.522   6.949  73.469  1.00  0.00    -0.382 C  
BRANCH   8   9
HETATM    9  C   UNL     1     -10.559   6.991  71.958  1.00  0.00    -0.237 A  
HETATM   10  C   UNL     1      -9.442   7.434  71.230  1.00  0.00    -0.159 A  
HETATM   11  C   UNL     1      -9.510   7.507  69.843  1.00  0.00    -0.160 A  
HETATM   12  C   UNL     1     -10.673   7.137  69.171  1.00  0.00    -0.198 A  
HETATM   13  O   UNL     1      -8.456   7.949  69.093  1.00  0.00    -0.134 OA 
HETATM   14  H   UNL     1      -8.502   7.998  68.145  1.00  0.00     0.000 HD 
HETATM   15  O   UNL     1     -10.731   7.230  67.811  1.00  0.00    -0.323 OA 
HETATM   16  C   UNL     1     -11.783   6.686  69.867  1.00  0.00    -0.333 A  
HETATM   17  C   UNL     1     -11.715   6.618  71.255  1.00  0.00    -0.334 A  
HETATM   18  H   UNL     1     -11.524   6.978  67.352  1.00  0.00     0.000 HD 
HETATM   19  F   UNL     1     -12.799   6.219  71.938  1.00  0.00    -0.360 F  
ENDBRANCH   8   9
ENDBRANCH   2   8
TORSDOF 2
ENDMDL
MODEL      257
REMARK 921   NORMALIZED FREE ENERGY PREDICTED BY IDOCK:   -2.53 KCAL/MOL
REMARK 922        TOTAL FREE ENERGY PREDICTED BY IDOCK:   -3.14 KCAL/MOL
REMARK 923 INTER-LIGAND FREE ENERGY PREDICTED BY IDOCK:   -2.90 KCAL/MOL
REMARK 924 INTRA-LIGAND FREE ENERGY PREDICTED BY IDOCK:   -0.24 KCAL/MOL
REMARK 927      BINDING AFFINITY PREDICTED BY RF-SCORE:    0.00 PKD
ROOT
HETATM    1  N   UNL     1      -7.760   5.164  65.404  1.00  0.00    -0.085 NA 
HETATM    2  CA  UNL     1      -8.316   5.272  66.791  1.00  0.00    -0.108 C  
HETATM    3  H2  UNL     1      -7.947   6.017  64.878  1.00  0.00     0.000 HD 
HETATM    4  H1  UNL     1      -6.767   4.933  65.369  1.00  0.00     0.000 HD 
HETATM    5  OXT UNL     1      -8.393   3.709  68.683  1.00  0.00    -0.075 OA 
HETATM    6  C   UNL     1      -8.011   3.970  67.553  1.00  0.00    -0.091 C  
HETATM    7  O   UNL     1      -7.243   3.132  66.810  1.00  0.00    -0.057 OA 
ENDROOT
BRANCH   2   8
HETATM    8  C   UNL     1      -9.814   5.620  66.845  1.00  0.00    -0.178 C  
BRANCH   8   9
HETATM    9  C   UNL     1     -10.220   6.554  67.964  1.00  0.00    -0.192 A  
HETATM   10  C   UNL     1     -10.863   6.056  69.109  1.00  0.00    -0.422 A  
HETATM   11  C   UNL     1     -11.267   6.935  70.108  1.00  0.00    -0.313 A  
HETATM   12  C   UNL     1     -11.032   8.303  69.984  1.00  0.00    -0.197 A  
HETATM   13  O   UNL     1     -11.912   6.500  71.232  1.00  0.00    -0.336 OA 
HETATM   14  H   UNL     1     -12.188   7.101  71.914  1.00  0.00     0.000 HD 
HETATM   15  O   UNL     1     -11.450   9.156  70.964  1.00  0.00    -0.270 OA 
HETATM   16  C   UNL     1     -10.389   8.815  68.869  1.00  0.00    -0.229 A  
HETATM   17  C   UNL     1      -9.989   7.935  67.869  1.00  0.00    -0.178 A  
HETATM   18  H   UNL     1     -11.289  10.088  70.880  1.00  0.00     0.000 HD 
HETATM   19  F   UNL     1      -9.401   8.428  66.769  1.00  0.00    -0.167 F  
ENDBRANCH   8   9
ENDBRANCH   2   8
TORSDOF 2
ENDMDL
MODEL      258
REMARK 921   NORMALIZED FREE ENERGY PREDICTED BY IDOCK:   -2.53 KCAL/MOL
REMARK 922        TOTAL FREE ENERGY PREDICTED BY IDOCK:   -3.13 KCAL/MOL
REMARK 923 INTER-LIGAND FREE ENERGY PREDICTED BY IDOCK:   -3.00 KCAL/MOL
REMARK 924 INTRA-LIGAND FREE ENERGY PREDICTED BY IDOCK:   -0.13 KCAL/MOL
REMARK 927      BINDING AFFINITY PREDICTED BY RF-SCORE:    0.00 PKD
ROOT
HETATM    1  N   UNL     1      -6.065   9.933  67.292  1.00  0.00    -0.058 NA 
HETATM    2  CA  UNL     1      -6.628  10.833  68.348  1.00  0.00    -0.055 C  
HETATM    3  H2  UNL     1      -6.193  10.344  66.367  1.00  0.00     0.000 HD 
HETATM    4  H1  UNL     1      -5.088   9.679  67.436  1.00  0.00     0.000 HD 
HETATM    5  OXT UNL     1      -6.821  10.625  70.787  1.00  0.00    -0.267 OA 
HETATM    6  C   UNL     1      -6.412  10.182  69.725  1.00  0.00    -0.072 C  
HETATM    7  O   UNL     1      -5.689   9.036  69.621  1.00  0.00    -0.033 OA 
ENDROOT
BRANCH   2   8
HETATM    8  C   UNL     1      -8.102  11.218  68.130  1.00  0.00    -0.134 C  
BRANCH   8   9
HETATM    9  C   UNL     1      -9.044  10.057  67.896  1.00  0.00    -0.135 A  
HETATM   10  C   UNL     1      -9.634   9.389  68.981  1.00  0.00    -0.164 A  
HETATM   11  C   UNL     1     -10.463   8.296  68.748  1.00  0.00    -0.177 A  
HETATM   12  C   UNL     1     -10.717   7.866  67.448  1.00  0.00    -0.208 A  
HETATM   13  O   UNL     1     -11.046   7.604  69.773  1.00  0.00    -0.382 OA 
HETATM   14  H   UNL     1     -11.612   6.858  69.613  1.00  0.00     0.000 HD 
HETATM   15  O   UNL     1     -11.518   6.782  67.235  1.00  0.00    -0.752 OA 
HETATM   16  C   UNL     1     -10.155   8.517  66.362  1.00  0.00    -0.271 A  
HETATM   17  C   UNL     1      -9.323   9.606  66.597  1.00  0.00    -0.156 A  
HETATM   18  H   UNL     1     -11.692   6.488  66.348  1.00  0.00     0.000 HD 
HETATM   19  F   UNL     1      -8.744  10.217  65.551  1.00  0.00    -0.139 F  
ENDBRANCH   8   9
ENDBRANCH   2   8
TORSDOF 2
ENDMDL
MODEL      259
REMARK 921   NORMALIZED FREE ENERGY PREDICTED BY IDOCK:   -2.52 KCAL/MOL
REMARK 922        TOTAL FREE ENERGY PREDICTED BY IDOCK:   -3.13 KCAL/MOL
REMARK 923 INTER-LIGAND FREE ENERGY PREDICTED BY IDOCK:   -2.90 KCAL/MOL
REMARK 924 INTRA-LIGAND FREE ENERGY PREDICTED BY IDOCK:   -0.23 KCAL/MOL
REMARK 927      BINDING AFFINITY PREDICTED BY RF-SCORE:    0.00 PKD
ROOT
HETATM    1  N   UNL     1     -11.515   6.714  68.807  1.00  0.00    -0.591 NA 
HETATM    2  CA  UNL     1     -10.075   6.374  68.573  1.00  0.00    -0.154 C  
HETATM    3  H2  UNL     1     -11.853   7.352  68.087  1.00  0.00     0.000 HD 
HETATM    4  H1  UNL     1     -12.129   5.904  68.881  1.00  0.00     0.000 HD 
HETATM    5  OXT UNL     1      -8.464   4.999  69.814  1.00  0.00    -0.086 OA 
HETATM    6  C   UNL     1      -9.606   5.409  69.675  1.00  0.00    -0.160 C  
HETATM    7  O   UNL     1     -10.634   5.050  70.488  1.00  0.00    -0.209 OA 
ENDROOT
BRANCH   2   8
HETATM    8  C   UNL     1      -9.148   7.597  68.461  1.00  0.00    -0.131 C  
BRANCH   8   9
HETATM    9  C   UNL     1      -9.052   8.209  67.081  1.00  0.00    -0.163 A  
HETATM   10  C   UNL     1      -8.361   7.545  66.054  1.00  0.00    -0.136 A  
HETATM   11  C   UNL     1      -8.247   8.143  64.803  1.00  0.00    -0.133 A  
HETATM   12  C   UNL     1      -8.816   9.391  64.561  1.00  0.00    -0.198 A  
HETATM   13  O   UNL     1      -7.570   7.544  63.778  1.00  0.00    -0.104 OA 
HETATM   14  H   UNL     1      -7.492   7.952  62.924  1.00  0.00     0.000 HD 
HETATM   15  O   UNL     1      -8.681   9.974  63.335  1.00  0.00    -0.181 OA 
HETATM   16  C   UNL     1      -9.512  10.059  65.556  1.00  0.00    -0.296 A  
HETATM   17  C   UNL     1      -9.622   9.462  66.807  1.00  0.00    -0.179 A  
HETATM   18  H   UNL     1      -9.070  10.825  63.169  1.00  0.00     0.000 HD 
HETATM   19  F   UNL     1     -10.261  10.121  67.786  1.00  0.00    -0.183 F  
ENDBRANCH   8   9
ENDBRANCH   2   8
TORSDOF 2
ENDMDL
MODEL      260
REMARK 921   NORMALIZED FREE ENERGY PREDICTED BY IDOCK:   -2.50 KCAL/MOL
REMARK 922        TOTAL FREE ENERGY PREDICTED BY IDOCK:   -3.11 KCAL/MOL
REMARK 923 INTER-LIGAND FREE ENERGY PREDICTED BY IDOCK:   -2.89 KCAL/MOL
REMARK 924 INTRA-LIGAND FREE ENERGY PREDICTED BY IDOCK:   -0.21 KCAL/MOL
REMARK 927      BINDING AFFINITY PREDICTED BY RF-SCORE:    0.00 PKD
ROOT
HETATM    1  N   UNL     1     -11.877   6.385  69.681  1.00  0.00    -0.523 NA 
HETATM    2  CA  UNL     1     -10.945   7.237  70.487  1.00  0.00    -0.260 C  
HETATM    3  H2  UNL     1     -11.506   6.239  68.743  1.00  0.00     0.000 HD 
HETATM    4  H1  UNL     1     -12.109   5.492  70.116  1.00  0.00     0.000 HD 
HETATM    5  OXT UNL     1     -11.059   8.136  72.768  1.00  0.00    -0.382 OA 
HETATM    6  C   UNL     1     -11.538   7.431  71.893  1.00  0.00    -0.272 C  
HETATM    7  O   UNL     1     -12.673   6.704  72.055  1.00  0.00    -0.301 OA 
ENDROOT
BRANCH   2   8
HETATM    8  C   UNL     1     -10.595   8.585  69.830  1.00  0.00    -0.228 C  
BRANCH   8   9
HETATM    9  C   UNL     1      -9.226   8.655  69.191  1.00  0.00    -0.152 A  
HETATM   10  C   UNL     1      -8.503   7.480  68.925  1.00  0.00    -0.129 A  
HETATM   11  C   UNL     1      -7.228   7.567  68.377  1.00  0.00    -0.093 A  
HETATM   12  C   UNL     1      -6.667   8.808  68.084  1.00  0.00    -0.065 A  
HETATM   13  O   UNL     1      -6.479   6.453  68.117  1.00  0.00    -0.047 OA 
HETATM   14  H   UNL     1      -5.608   6.513  67.743  1.00  0.00     0.000 HD 
HETATM   15  O   UNL     1      -5.408   8.878  67.563  1.00  0.00    -0.034 OA 
HETATM   16  C   UNL     1      -7.366   9.979  68.327  1.00  0.00    -0.078 A  
HETATM   17  C   UNL     1      -8.640   9.891  68.879  1.00  0.00    -0.135 A  
HETATM   18  H   UNL     1      -5.025   9.724  67.362  1.00  0.00     0.000 HD 
HETATM   19  F   UNL     1      -9.307  11.022  69.153  1.00  0.00    -0.189 F  
ENDBRANCH   8   9
ENDBRANCH   2   8
TORSDOF 2
ENDMDL
MODEL      261
REMARK 921   NORMALIZED FREE ENERGY PREDICTED BY IDOCK:   -2.50 KCAL/MOL
REMARK 922        TOTAL FREE ENERGY PREDICTED BY IDOCK:   -3.11 KCAL/MOL
REMARK 923 INTER-LIGAND FREE ENERGY PREDICTED BY IDOCK:   -2.88 KCAL/MOL
REMARK 924 INTRA-LIGAND FREE ENERGY PREDICTED BY IDOCK:   -0.23 KCAL/MOL
REMARK 927      BINDING AFFINITY PREDICTED BY RF-SCORE:    0.00 PKD
ROOT
HETATM    1  N   UNL     1      -7.557   7.637  70.919  1.00  0.00    -0.078 NA 
HETATM    2  CA  UNL     1      -9.031   7.795  71.136  1.00  0.00    -0.138 C  
HETATM    3  H2  UNL     1      -7.345   7.599  69.922  1.00  0.00     0.000 HD 
HETATM    4  H1  UNL     1      -6.989   8.350  71.377  1.00  0.00     0.000 HD 
HETATM    5  OXT UNL     1     -10.416   7.903  73.160  1.00  0.00    -0.345 OA 
HETATM    6  C   UNL     1      -9.308   7.853  72.648  1.00  0.00    -0.213 C  
HETATM    7  O   UNL     1      -8.153   7.851  73.363  1.00  0.00    -0.144 OA 
ENDROOT
BRANCH   2   8
HETATM    8  C   UNL     1      -9.889   6.720  70.445  1.00  0.00    -0.186 C  
BRANCH   8   9
HETATM    9  C   UNL     1      -9.633   6.545  68.964  1.00  0.00    -0.135 A  
HETATM   10  C   UNL     1      -9.897   7.594  68.067  1.00  0.00    -0.188 A  
HETATM   11  C   UNL     1      -9.696   7.400  66.704  1.00  0.00    -0.194 A  
HETATM   12  C   UNL     1      -9.231   6.178  66.225  1.00  0.00    -0.147 A  
HETATM   13  O   UNL     1      -9.955   8.384  65.792  1.00  0.00    -0.427 OA 
HETATM   14  H   UNL     1      -9.818   8.251  64.861  1.00  0.00     0.000 HD 
HETATM   15  O   UNL     1      -9.056   5.996  64.884  1.00  0.00    -0.357 OA 
HETATM   16  C   UNL     1      -8.953   5.133  67.092  1.00  0.00    -0.112 A  
HETATM   17  C   UNL     1      -9.158   5.327  68.454  1.00  0.00    -0.110 A  
HETATM   18  H   UNL     1      -8.738   5.162  64.556  1.00  0.00     0.000 HD 
HETATM   19  F   UNL     1      -8.929   4.308  69.296  1.00  0.00    -0.106 F  
ENDBRANCH   8   9
ENDBRANCH   2   8
TORSDOF 2
ENDMDL
MODEL      262
REMARK 921   NORMALIZED FREE ENERGY PREDICTED BY IDOCK:   -2.42 KCAL/MOL
REMARK 922        TOTAL FREE ENERGY PREDICTED BY IDOCK:   -3.02 KCAL/MOL
REMARK 923 INTER-LIGAND FREE ENERGY PREDICTED BY IDOCK:   -3.45 KCAL/MOL
REMARK 924 INTRA-LIGAND FREE ENERGY PREDICTED BY IDOCK:    0.42 KCAL/MOL
REMARK 927      BINDING AFFINITY PREDICTED BY RF-SCORE:    0.00 PKD
ROOT
HETATM    1  N   UNL     1      -6.027  11.627  68.067  1.00  0.00    -0.046 NA 
HETATM    2  CA  UNL     1      -7.092  11.261  69.055  1.00  0.00    -0.116 C  
HETATM    3  H2  UNL     1      -6.415  12.209  67.324  1.00  0.00     0.000 HD 
HETATM    4  H1  UNL     1      -5.210  12.074  68.481  1.00  0.00     0.000 HD 
HETATM    5  OXT UNL     1      -7.084   9.865  71.074  1.00  0.00    -0.339 OA 
HETATM    6  C   UNL     1      -6.469  10.389  70.159  1.00  0.00    -0.137 C  
HETATM    7  O   UNL     1      -5.125  10.276  69.999  1.00  0.00    -0.037 OA 
ENDROOT
BRANCH   2   8
HETATM    8  C   UNL     1      -8.327  10.586  68.431  1.00  0.00    -0.126 C  
BRANCH   8   9
HETATM    9  C   UNL     1      -9.590  10.657  69.262  1.00  0.00    -0.164 A  
HETATM   10  C   UNL     1      -9.851   9.687  70.244  1.00  0.00    -0.321 A  
HETATM   11  C   UNL     1     -11.037   9.744  70.968  1.00  0.00    -0.361 A  
HETATM   12  C   UNL     1     -11.963  10.758  70.730  1.00  0.00    -0.362 A  
HETATM   13  O   UNL     1     -11.344   8.813  71.921  1.00  0.00    -0.316 OA 
HETATM   14  H   UNL     1     -12.154   8.853  72.415  1.00  0.00     0.000 HD 
HETATM   15  O   UNL     1     -13.130  10.791  71.436  1.00  0.00    -0.382 OA 
HETATM   16  C   UNL     1     -11.720  11.732  69.775  1.00  0.00    -0.408 A  
HETATM   17  C   UNL     1     -10.535  11.671  69.049  1.00  0.00    -0.128 A  
HETATM   18  H   UNL     1     -13.761  11.483  71.275  1.00  0.00     0.000 HD 
HETATM   19  F   UNL     1     -10.312  12.588  68.095  1.00  0.00    -0.204 F  
ENDBRANCH   8   9
ENDBRANCH   2   8
TORSDOF 2
ENDMDL
MODEL      263
REMARK 921   NORMALIZED FREE ENERGY PREDICTED BY IDOCK:   -2.42 KCAL/MOL
REMARK 922        TOTAL FREE ENERGY PREDICTED BY IDOCK:   -3.02 KCAL/MOL
REMARK 923 INTER-LIGAND FREE ENERGY PREDICTED BY IDOCK:   -2.78 KCAL/MOL
REMARK 924 INTRA-LIGAND FREE ENERGY PREDICTED BY IDOCK:   -0.24 KCAL/MOL
REMARK 927      BINDING AFFINITY PREDICTED BY RF-SCORE:    0.00 PKD
ROOT
HETATM    1  N   UNL     1      -7.949   7.024  69.242  1.00  0.00    -0.117 NA 
HETATM    2  CA  UNL     1      -8.281   8.350  68.629  1.00  0.00    -0.123 C  
HETATM    3  H2  UNL     1      -7.211   6.561  68.712  1.00  0.00     0.000 HD 
HETATM    4  H1  UNL     1      -7.702   7.070  70.230  1.00  0.00     0.000 HD 
HETATM    5  OXT UNL     1      -9.940  10.073  69.181  1.00  0.00    -0.182 OA 
HETATM    6  C   UNL     1      -9.392   9.017  69.457  1.00  0.00    -0.160 C  
HETATM    7  O   UNL     1      -9.693   8.285  70.561  1.00  0.00    -0.169 OA 
ENDROOT
BRANCH   2   8
HETATM    8  C   UNL     1      -8.652   8.280  67.137  1.00  0.00    -0.123 C  
BRANCH   8   9
HETATM    9  C   UNL     1      -9.040   6.908  66.632  1.00  0.00    -0.172 A  
HETATM   10  C   UNL     1      -8.126   6.136  65.897  1.00  0.00    -0.121 A  
HETATM   11  C   UNL     1      -8.515   4.894  65.404  1.00  0.00    -0.133 A  
HETATM   12  C   UNL     1      -9.800   4.410  65.640  1.00  0.00    -0.221 A  
HETATM   13  O   UNL     1      -7.667   4.114  64.668  1.00  0.00    -0.079 OA 
HETATM   14  H   UNL     1      -7.933   3.266  64.332  1.00  0.00     0.000 HD 
HETATM   15  O   UNL     1     -10.173   3.198  65.136  1.00  0.00    -0.374 OA 
HETATM   16  C   UNL     1     -10.714   5.150  66.373  1.00  0.00    -0.275 A  
HETATM   17  C   UNL     1     -10.325   6.393  66.862  1.00  0.00    -0.241 A  
HETATM   18  H   UNL     1     -11.049   2.868  65.298  1.00  0.00     0.000 HD 
HETATM   19  F   UNL     1     -11.217   7.131  67.539  1.00  0.00    -0.288 F  
ENDBRANCH   8   9
ENDBRANCH   2   8
TORSDOF 2
ENDMDL
MODEL      264
REMARK 921   NORMALIZED FREE ENERGY PREDICTED BY IDOCK:   -2.40 KCAL/MOL
REMARK 922        TOTAL FREE ENERGY PREDICTED BY IDOCK:   -2.99 KCAL/MOL
REMARK 923 INTER-LIGAND FREE ENERGY PREDICTED BY IDOCK:   -2.75 KCAL/MOL
REMARK 924 INTRA-LIGAND FREE ENERGY PREDICTED BY IDOCK:   -0.24 KCAL/MOL
REMARK 927      BINDING AFFINITY PREDICTED BY RF-SCORE:    0.00 PKD
ROOT
HETATM    1  N   UNL     1      -9.480   5.714  73.160  1.00  0.00    -0.146 NA 
HETATM    2  CA  UNL     1      -8.869   4.896  72.064  1.00  0.00    -0.128 C  
HETATM    3  H2  UNL     1     -10.194   6.338  72.784  1.00  0.00     0.000 HD 
HETATM    4  H1  UNL     1      -9.858   5.163  73.930  1.00  0.00     0.000 HD 
HETATM    5  OXT UNL     1      -7.069   3.226  72.034  1.00  0.00    -0.036 OA 
HETATM    6  C   UNL     1      -7.802   3.968  72.670  1.00  0.00    -0.075 C  
HETATM    7  O   UNL     1      -7.778   4.062  74.025  1.00  0.00    -0.077 OA 
ENDROOT
BRANCH   2   8
HETATM    8  C   UNL     1      -8.298   5.727  70.900  1.00  0.00    -0.125 C  
BRANCH   8   9
HETATM    9  C   UNL     1      -8.888   5.424  69.541  1.00  0.00    -0.118 A  
HETATM   10  C   UNL     1      -9.989   6.156  69.063  1.00  0.00    -0.188 A  
HETATM   11  C   UNL     1     -10.545   5.834  67.830  1.00  0.00    -0.237 A  
HETATM   12  C   UNL     1     -10.015   4.799  67.063  1.00  0.00    -0.204 A  
HETATM   13  O   UNL     1     -11.627   6.505  67.331  1.00  0.00    -0.719 OA 
HETATM   14  H   UNL     1     -12.006   6.286  66.488  1.00  0.00     0.000 HD 
HETATM   15  O   UNL     1     -10.581   4.484  65.862  1.00  0.00    -0.415 OA 
HETATM   16  C   UNL     1      -8.922   4.073  67.508  1.00  0.00    -0.148 A  
HETATM   17  C   UNL     1      -8.370   4.392  68.744  1.00  0.00    -0.083 A  
HETATM   18  H   UNL     1     -10.220   3.778  65.339  1.00  0.00     0.000 HD 
HETATM   19  F   UNL     1      -7.337   3.667  69.199  1.00  0.00    -0.048 F  
ENDBRANCH   8   9
ENDBRANCH   2   8
TORSDOF 2
ENDMDL
MODEL      265
REMARK 921   NORMALIZED FREE ENERGY PREDICTED BY IDOCK:   -2.39 KCAL/MOL
REMARK 922        TOTAL FREE ENERGY PREDICTED BY IDOCK:   -2.99 KCAL/MOL
REMARK 923 INTER-LIGAND FREE ENERGY PREDICTED BY IDOCK:   -2.75 KCAL/MOL
REMARK 924 INTRA-LIGAND FREE ENERGY PREDICTED BY IDOCK:   -0.24 KCAL/MOL
REMARK 927      BINDING AFFINITY PREDICTED BY RF-SCORE:    0.00 PKD
ROOT
HETATM    1  N   UNL     1      -6.917   7.563  67.530  1.00  0.00    -0.077 NA 
HETATM    2  CA  UNL     1      -7.859   6.844  68.445  1.00  0.00    -0.121 C  
HETATM    3  H2  UNL     1      -6.483   8.350  68.011  1.00  0.00     0.000 HD 
HETATM    4  H1  UNL     1      -6.205   6.966  67.110  1.00  0.00     0.000 HD 
HETATM    5  OXT UNL     1      -9.355   4.924  68.124  1.00  0.00    -0.118 OA 
HETATM    6  C   UNL     1      -8.489   5.664  67.684  1.00  0.00    -0.102 C  
HETATM    7  O   UNL     1      -7.951   5.532  66.444  1.00  0.00    -0.103 OA 
ENDROOT
BRANCH   2   8
HETATM    8  C   UNL     1      -8.934   7.745  69.079  1.00  0.00    -0.145 C  
BRANCH   8   9
HETATM    9  C   UNL     1      -9.181   9.055  68.364  1.00  0.00    -0.137 A  
HETATM   10  C   UNL     1      -8.665  10.256  68.880  1.00  0.00    -0.152 A  
HETATM   11  C   UNL     1      -8.939  11.456  68.232  1.00  0.00    -0.175 A  
HETATM   12  C   UNL     1      -9.714  11.474  67.075  1.00  0.00    -0.184 A  
HETATM   13  O   UNL     1      -8.474  12.651  68.705  1.00  0.00    -0.327 OA 
HETATM   14  H   UNL     1      -8.661  13.471  68.262  1.00  0.00     0.000 HD 
HETATM   15  O   UNL     1      -9.989  12.661  66.459  1.00  0.00    -0.239 OA 
HETATM   16  C   UNL     1     -10.223  10.301  66.542  1.00  0.00    -0.289 A  
HETATM   17  C   UNL     1      -9.952   9.102  67.193  1.00  0.00    -0.218 A  
HETATM   18  H   UNL     1     -10.517  12.674  65.670  1.00  0.00     0.000 HD 
HETATM   19  F   UNL     1     -10.475   7.967  66.705  1.00  0.00    -0.364 F  
ENDBRANCH   8   9
ENDBRANCH   2   8
TORSDOF 2
ENDMDL
MODEL      266
REMARK 921   NORMALIZED FREE ENERGY PREDICTED BY IDOCK:   -2.38 KCAL/MOL
REMARK 922        TOTAL FREE ENERGY PREDICTED BY IDOCK:   -2.98 KCAL/MOL
REMARK 923 INTER-LIGAND FREE ENERGY PREDICTED BY IDOCK:   -2.76 KCAL/MOL
REMARK 924 INTRA-LIGAND FREE ENERGY PREDICTED BY IDOCK:   -0.21 KCAL/MOL
REMARK 927      BINDING AFFINITY PREDICTED BY RF-SCORE:    0.00 PKD
ROOT
HETATM    1  N   UNL     1     -10.906   4.463  65.355  1.00  0.00    -0.738 NA 
HETATM    2  CA  UNL     1     -10.112   5.049  66.482  1.00  0.00    -0.248 C  
HETATM    3  H2  UNL     1     -11.691   3.921  65.716  1.00  0.00     0.000 HD 
HETATM    4  H1  UNL     1     -11.231   5.148  64.673  1.00  0.00     0.000 HD 
HETATM    5  OXT UNL     1      -8.066   6.403  66.553  1.00  0.00    -0.107 OA 
HETATM    6  C   UNL     1      -8.943   5.861  65.899  1.00  0.00    -0.140 C  
HETATM    7  O   UNL     1      -9.007   5.914  64.543  1.00  0.00     0.163 OA 
ENDROOT
BRANCH   2   8
HETATM    8  C   UNL     1      -9.623   4.015  67.513  1.00  0.00    -0.216 C  
BRANCH   8   9
HETATM    9  C   UNL     1      -9.456   4.539  68.922  1.00  0.00    -0.225 A  
HETATM   10  C   UNL     1     -10.364   5.473  69.447  1.00  0.00    -0.348 A  
HETATM   11  C   UNL     1     -10.170   5.975  70.730  1.00  0.00    -0.204 A  
HETATM   12  C   UNL     1      -9.087   5.554  71.498  1.00  0.00    -0.139 A  
HETATM   13  O   UNL     1     -11.017   6.899  71.277  1.00  0.00    -0.235 OA 
HETATM   14  H   UNL     1     -10.884   7.242  72.153  1.00  0.00     0.000 HD 
HETATM   15  O   UNL     1      -8.899   6.068  72.748  1.00  0.00    -0.125 OA 
HETATM   16  C   UNL     1      -8.186   4.624  71.005  1.00  0.00    -0.091 A  
HETATM   17  C   UNL     1      -8.379   4.126  69.721  1.00  0.00    -0.061 A  
HETATM   18  H   UNL     1      -8.161   5.781  73.272  1.00  0.00     0.000 HD 
HETATM   19  F   UNL     1      -7.488   3.256  69.223  1.00  0.00    -0.047 F  
ENDBRANCH   8   9
ENDBRANCH   2   8
TORSDOF 2
ENDMDL
MODEL      267
REMARK 921   NORMALIZED FREE ENERGY PREDICTED BY IDOCK:   -2.36 KCAL/MOL
REMARK 922        TOTAL FREE ENERGY PREDICTED BY IDOCK:   -2.94 KCAL/MOL
REMARK 923 INTER-LIGAND FREE ENERGY PREDICTED BY IDOCK:   -2.63 KCAL/MOL
REMARK 924 INTRA-LIGAND FREE ENERGY PREDICTED BY IDOCK:   -0.31 KCAL/MOL
REMARK 927      BINDING AFFINITY PREDICTED BY RF-SCORE:    0.00 PKD
ROOT
HETATM    1  N   UNL     1     -10.728   4.909  65.756  1.00  0.00    -0.618 NA 
HETATM    2  CA  UNL     1      -9.475   5.045  66.565  1.00  0.00    -0.149 C  
HETATM    3  H2  UNL     1     -11.415   5.607  66.042  1.00  0.00     0.000 HD 
HETATM    4  H1  UNL     1     -10.581   4.947  64.748  1.00  0.00     0.000 HD 
HETATM    5  OXT UNL     1      -7.374   3.776  66.611  1.00  0.00    -0.067 OA 
HETATM    6  C   UNL     1      -8.465   3.981  66.103  1.00  0.00    -0.109 C  
HETATM    7  O   UNL     1      -8.935   3.286  65.034  1.00  0.00    -0.126 OA 
ENDROOT
BRANCH   2   8
HETATM    8  C   UNL     1      -9.697   4.990  68.087  1.00  0.00    -0.199 C  
BRANCH   8   9
HETATM    9  C   UNL     1      -9.259   6.221  68.849  1.00  0.00    -0.123 A  
HETATM   10  C   UNL     1     -10.058   7.376  68.855  1.00  0.00    -0.188 A  
HETATM   11  C   UNL     1      -9.618   8.513  69.525  1.00  0.00    -0.170 A  
HETATM   12  C   UNL     1      -8.397   8.511  70.195  1.00  0.00    -0.123 A  
HETATM   13  O   UNL     1     -10.352   9.667  69.544  1.00  0.00    -0.196 OA 
HETATM   14  H   UNL     1     -10.051  10.443  70.002  1.00  0.00     0.000 HD 
HETATM   15  O   UNL     1      -7.970   9.639  70.834  1.00  0.00    -0.307 OA 
HETATM   16  C   UNL     1      -7.598   7.379  70.213  1.00  0.00    -0.088 A  
HETATM   17  C   UNL     1      -8.037   6.244  69.539  1.00  0.00    -0.117 A  
HETATM   18  H   UNL     1      -7.137   9.637  71.292  1.00  0.00     0.000 HD 
HETATM   19  F   UNL     1      -7.251   5.157  69.519  1.00  0.00    -0.051 F  
ENDBRANCH   8   9
ENDBRANCH   2   8
TORSDOF 2
ENDMDL
MODEL      268
REMARK 921   NORMALIZED FREE ENERGY PREDICTED BY IDOCK:   -2.34 KCAL/MOL
REMARK 922        TOTAL FREE ENERGY PREDICTED BY IDOCK:   -2.93 KCAL/MOL
REMARK 923 INTER-LIGAND FREE ENERGY PREDICTED BY IDOCK:   -2.79 KCAL/MOL
REMARK 924 INTRA-LIGAND FREE ENERGY PREDICTED BY IDOCK:   -0.14 KCAL/MOL
REMARK 927      BINDING AFFINITY PREDICTED BY RF-SCORE:    0.00 PKD
ROOT
HETATM    1  N   UNL     1      -8.744   5.786  67.805  1.00  0.00    -0.108 NA 
HETATM    2  CA  UNL     1      -9.361   5.784  69.169  1.00  0.00    -0.123 C  
HETATM    3  H2  UNL     1      -7.752   5.553  67.861  1.00  0.00     0.000 HD 
HETATM    4  H1  UNL     1      -9.214   5.180  67.133  1.00  0.00     0.000 HD 
HETATM    5  OXT UNL     1     -11.624   6.289  69.976  1.00  0.00    -0.425 OA 
HETATM    6  C   UNL     1     -10.853   6.135  69.041  1.00  0.00    -0.350 C  
HETATM    7  O   UNL     1     -11.224   6.246  67.739  1.00  0.00    -0.325 OA 
ENDROOT
BRANCH   2   8
HETATM    8  C   UNL     1      -8.651   6.697  70.184  1.00  0.00    -0.140 C  
BRANCH   8   9
HETATM    9  C   UNL     1      -8.419   8.119  69.721  1.00  0.00    -0.125 A  
HETATM   10  C   UNL     1      -9.449   9.071  69.801  1.00  0.00    -0.181 A  
HETATM   11  C   UNL     1      -9.230  10.361  69.330  1.00  0.00    -0.159 A  
HETATM   12  C   UNL     1      -7.998  10.717  68.788  1.00  0.00    -0.135 A  
HETATM   13  O   UNL     1     -10.207  11.317  69.371  1.00  0.00    -0.421 OA 
HETATM   14  H   UNL     1     -10.057  12.199  69.050  1.00  0.00     0.000 HD 
HETATM   15  O   UNL     1      -7.803  11.982  68.314  1.00  0.00    -0.130 OA 
HETATM   16  C   UNL     1      -6.964   9.798  68.710  1.00  0.00    -0.066 A  
HETATM   17  C   UNL     1      -7.185   8.506  69.177  1.00  0.00    -0.068 A  
HETATM   18  H   UNL     1      -6.962  12.225  67.944  1.00  0.00     0.000 HD 
HETATM   19  F   UNL     1      -6.202   7.600  69.068  1.00  0.00    -0.031 F  
ENDBRANCH   8   9
ENDBRANCH   2   8
TORSDOF 2
ENDMDL
MODEL      269
REMARK 921   NORMALIZED FREE ENERGY PREDICTED BY IDOCK:   -2.34 KCAL/MOL
REMARK 922        TOTAL FREE ENERGY PREDICTED BY IDOCK:   -2.92 KCAL/MOL
REMARK 923 INTER-LIGAND FREE ENERGY PREDICTED BY IDOCK:   -2.66 KCAL/MOL
REMARK 924 INTRA-LIGAND FREE ENERGY PREDICTED BY IDOCK:   -0.26 KCAL/MOL
REMARK 927      BINDING AFFINITY PREDICTED BY RF-SCORE:    0.00 PKD
ROOT
HETATM    1  N   UNL     1      -8.388   2.941  68.532  1.00  0.00    -0.064 NA 
HETATM    2  CA  UNL     1      -8.890   4.303  68.904  1.00  0.00    -0.100 C  
HETATM    3  H2  UNL     1      -7.897   2.974  67.639  1.00  0.00     0.000 HD 
HETATM    4  H1  UNL     1      -7.805   2.503  69.244  1.00  0.00     0.000 HD 
HETATM    5  OXT UNL     1     -10.210   5.133  70.800  1.00  0.00    -0.223 OA 
HETATM    6  C   UNL     1      -9.621   4.213  70.255  1.00  0.00    -0.199 C  
HETATM    7  O   UNL     1      -9.523   2.967  70.787  1.00  0.00    -0.143 OA 
ENDROOT
BRANCH   2   8
HETATM    8  C   UNL     1      -9.771   4.965  67.829  1.00  0.00    -0.199 C  
BRANCH   8   9
HETATM    9  C   UNL     1      -9.510   6.438  67.599  1.00  0.00    -0.120 A  
HETATM   10  C   UNL     1      -8.308   7.024  68.028  1.00  0.00    -0.119 A  
HETATM   11  C   UNL     1      -8.105   8.388  67.847  1.00  0.00    -0.123 A  
HETATM   12  C   UNL     1      -9.080   9.173  67.237  1.00  0.00    -0.126 A  
HETATM   13  O   UNL     1      -6.959   9.006  68.264  1.00  0.00    -0.074 OA 
HETATM   14  H   UNL     1      -6.820   9.938  68.139  1.00  0.00     0.000 HD 
HETATM   15  O   UNL     1      -8.874  10.513  67.081  1.00  0.00    -0.136 OA 
HETATM   16  C   UNL     1     -10.268   8.615  66.795  1.00  0.00    -0.361 A  
HETATM   17  C   UNL     1     -10.472   7.251  66.981  1.00  0.00    -0.328 A  
HETATM   18  H   UNL     1      -9.539  11.049  66.665  1.00  0.00     0.000 HD 
HETATM   19  F   UNL     1     -11.637   6.711  66.591  1.00  0.00    -0.347 F  
ENDBRANCH   8   9
ENDBRANCH   2   8
TORSDOF 2
ENDMDL
MODEL      270
REMARK 921   NORMALIZED FREE ENERGY PREDICTED BY IDOCK:   -2.29 KCAL/MOL
REMARK 922        TOTAL FREE ENERGY PREDICTED BY IDOCK:   -2.88 KCAL/MOL
REMARK 923 INTER-LIGAND FREE ENERGY PREDICTED BY IDOCK:   -2.72 KCAL/MOL
REMARK 924 INTRA-LIGAND FREE ENERGY PREDICTED BY IDOCK:   -0.15 KCAL/MOL
REMARK 927      BINDING AFFINITY PREDICTED BY RF-SCORE:    0.00 PKD
ROOT
HETATM    1  N   UNL     1      -7.048   9.703  71.077  1.00  0.00    -0.326 NA 
HETATM    2  CA  UNL     1      -7.662   8.446  71.614  1.00  0.00    -0.113 C  
HETATM    3  H2  UNL     1      -7.664  10.499  71.241  1.00  0.00     0.000 HD 
HETATM    4  H1  UNL     1      -6.113   9.897  71.434  1.00  0.00     0.000 HD 
HETATM    5  OXT UNL     1      -6.939   6.100  71.600  1.00  0.00    -0.072 OA 
HETATM    6  C   UNL     1      -6.703   7.272  71.351  1.00  0.00    -0.051 C  
HETATM    7  O   UNL     1      -5.534   7.701  70.809  1.00  0.00    -0.026 OA 
ENDROOT
BRANCH   2   8
HETATM    8  C   UNL     1      -9.074   8.153  71.075  1.00  0.00    -0.176 C  
BRANCH   8   9
HETATM    9  C   UNL     1      -9.557   9.090  69.990  1.00  0.00    -0.203 A  
HETATM   10  C   UNL     1     -10.504  10.087  70.280  1.00  0.00    -0.331 A  
HETATM   11  C   UNL     1     -10.968  10.911  69.261  1.00  0.00    -0.244 A  
HETATM   12  C   UNL     1     -10.498  10.760  67.959  1.00  0.00    -0.194 A  
HETATM   13  O   UNL     1     -11.902  11.883  69.490  1.00  0.00    -0.302 OA 
HETATM   14  H   UNL     1     -12.219  12.446  68.794  1.00  0.00     0.000 HD 
HETATM   15  O   UNL     1     -10.976  11.564  66.965  1.00  0.00    -0.264 OA 
HETATM   16  C   UNL     1      -9.556   9.792  67.652  1.00  0.00    -0.169 A  
HETATM   17  C   UNL     1      -9.095   8.965  68.672  1.00  0.00    -0.137 A  
HETATM   18  H   UNL     1     -10.654  11.461  66.077  1.00  0.00     0.000 HD 
HETATM   19  F   UNL     1      -8.212   8.000  68.374  1.00  0.00    -0.116 F  
ENDBRANCH   8   9
ENDBRANCH   2   8
TORSDOF 2
ENDMDL
MODEL      271
REMARK 921   NORMALIZED FREE ENERGY PREDICTED BY IDOCK:   -2.27 KCAL/MOL
REMARK 922        TOTAL FREE ENERGY PREDICTED BY IDOCK:   -2.85 KCAL/MOL
REMARK 923 INTER-LIGAND FREE ENERGY PREDICTED BY IDOCK:   -2.72 KCAL/MOL
REMARK 924 INTRA-LIGAND FREE ENERGY PREDICTED BY IDOCK:   -0.13 KCAL/MOL
REMARK 927      BINDING AFFINITY PREDICTED BY RF-SCORE:    0.00 PKD
ROOT
HETATM    1  N   UNL     1      -6.902   9.542  71.064  1.00  0.00    -0.260 NA 
HETATM    2  CA  UNL     1      -6.793   8.457  72.091  1.00  0.00    -0.086 C  
HETATM    3  H2  UNL     1      -7.467  10.314  71.418  1.00  0.00     0.000 HD 
HETATM    4  H1  UNL     1      -6.005   9.884  70.722  1.00  0.00     0.000 HD 
HETATM    5  OXT UNL     1      -5.714   6.252  72.080  1.00  0.00    -0.034 OA 
HETATM    6  C   UNL     1      -5.934   7.316  71.522  1.00  0.00    -0.036 C  
HETATM    7  O   UNL     1      -5.427   7.640  70.303  1.00  0.00    -0.023 OA 
ENDROOT
BRANCH   2   8
HETATM    8  C   UNL     1      -8.148   7.940  72.609  1.00  0.00    -0.173 C  
BRANCH   8   9
HETATM    9  C   UNL     1      -9.135   7.533  71.537  1.00  0.00    -0.146 A  
HETATM   10  C   UNL     1      -9.036   6.276  70.918  1.00  0.00    -0.147 A  
HETATM   11  C   UNL     1      -9.926   5.937  69.905  1.00  0.00    -0.182 A  
HETATM   12  C   UNL     1     -10.918   6.830  69.506  1.00  0.00    -0.279 A  
HETATM   13  O   UNL     1      -9.858   4.733  69.260  1.00  0.00    -0.181 OA 
HETATM   14  H   UNL     1     -10.467   4.502  68.568  1.00  0.00     0.000 HD 
HETATM   15  O   UNL     1     -11.774   6.491  68.499  1.00  0.00    -0.455 OA 
HETATM   16  C   UNL     1     -11.042   8.070  70.111  1.00  0.00    -0.191 A  
HETATM   17  C   UNL     1     -10.148   8.410  71.121  1.00  0.00    -0.196 A  
HETATM   18  H   UNL     1     -12.451   7.100  68.227  1.00  0.00     0.000 HD 
HETATM   19  F   UNL     1     -10.238   9.625  71.684  1.00  0.00    -0.331 F  
ENDBRANCH   8   9
ENDBRANCH   2   8
TORSDOF 2
ENDMDL
MODEL      272
REMARK 921   NORMALIZED FREE ENERGY PREDICTED BY IDOCK:   -2.27 KCAL/MOL
REMARK 922        TOTAL FREE ENERGY PREDICTED BY IDOCK:   -2.85 KCAL/MOL
REMARK 923 INTER-LIGAND FREE ENERGY PREDICTED BY IDOCK:   -3.40 KCAL/MOL
REMARK 924 INTRA-LIGAND FREE ENERGY PREDICTED BY IDOCK:    0.54 KCAL/MOL
REMARK 927      BINDING AFFINITY PREDICTED BY RF-SCORE:    0.00 PKD
ROOT
HETATM    1  N   UNL     1      -6.237   8.679  65.905  1.00  0.00    -0.055 NA 
HETATM    2  CA  UNL     1      -7.430   9.440  66.399  1.00  0.00    -0.093 C  
HETATM    3  H2  UNL     1      -6.175   8.733  64.889  1.00  0.00     0.000 HD 
HETATM    4  H1  UNL     1      -5.355   8.963  66.332  1.00  0.00     0.000 HD 
HETATM    5  OXT UNL     1      -8.378   9.785  68.636  1.00  0.00    -0.107 OA 
HETATM    6  C   UNL     1      -7.486   9.337  67.932  1.00  0.00    -0.084 C  
HETATM    7  O   UNL     1      -6.401   8.686  68.424  1.00  0.00    -0.053 OA 
ENDROOT
BRANCH   2   8
HETATM    8  C   UNL     1      -8.761   9.012  65.754  1.00  0.00    -0.197 C  
BRANCH   8   9
HETATM    9  C   UNL     1      -9.840  10.072  65.740  1.00  0.00    -0.345 A  
HETATM   10  C   UNL     1     -10.524  10.408  66.920  1.00  0.00    -0.300 A  
HETATM   11  C   UNL     1     -11.543  11.354  66.879  1.00  0.00    -0.004 A  
HETATM   12  C   UNL     1     -11.884  11.974  65.679  1.00  0.00    -0.172 A  
HETATM   13  O   UNL     1     -12.249  11.700  67.997  1.00  0.00    -0.551 OA 
HETATM   14  H   UNL     1     -12.945  12.347  67.968  1.00  0.00     0.000 HD 
HETATM   15  O   UNL     1     -12.897  12.888  65.650  1.00  0.00    -0.468 OA 
HETATM   16  C   UNL     1     -11.215  11.668  64.505  1.00  0.00    -0.335 A  
HETATM   17  C   UNL     1     -10.199  10.718  64.547  1.00  0.00    -0.359 A  
HETATM   18  H   UNL     1     -13.130  13.312  64.832  1.00  0.00     0.000 HD 
HETATM   19  F   UNL     1      -9.574  10.388  63.407  1.00  0.00    -0.275 F  
ENDBRANCH   8   9
ENDBRANCH   2   8
TORSDOF 2
ENDMDL
MODEL      273
REMARK 921   NORMALIZED FREE ENERGY PREDICTED BY IDOCK:   -2.25 KCAL/MOL
REMARK 922        TOTAL FREE ENERGY PREDICTED BY IDOCK:   -2.83 KCAL/MOL
REMARK 923 INTER-LIGAND FREE ENERGY PREDICTED BY IDOCK:   -3.26 KCAL/MOL
REMARK 924 INTRA-LIGAND FREE ENERGY PREDICTED BY IDOCK:    0.43 KCAL/MOL
REMARK 927      BINDING AFFINITY PREDICTED BY RF-SCORE:    0.00 PKD
ROOT
HETATM    1  N   UNL     1      -9.758   9.185  65.227  1.00  0.00    -0.443 NA 
HETATM    2  CA  UNL     1      -9.611  10.042  66.447  1.00  0.00    -0.196 C  
HETATM    3  H2  UNL     1     -10.624   9.409  64.737  1.00  0.00     0.000 HD 
HETATM    4  H1  UNL     1      -8.965   9.229  64.588  1.00  0.00     0.000 HD 
HETATM    5  OXT UNL     1      -7.915  10.141  68.220  1.00  0.00    -0.098 OA 
HETATM    6  C   UNL     1      -8.295   9.678  67.156  1.00  0.00    -0.121 C  
HETATM    7  O   UNL     1      -7.584   8.769  66.440  1.00  0.00    -0.089 OA 
ENDROOT
BRANCH   2   8
HETATM    8  C   UNL     1     -10.809   9.977  67.412  1.00  0.00    -0.313 C  
BRANCH   8   9
HETATM    9  C   UNL     1     -10.686   8.960  68.525  1.00  0.00    -0.124 A  
HETATM   10  C   UNL     1     -10.510   9.378  69.855  1.00  0.00    -0.257 A  
HETATM   11  C   UNL     1     -10.356   8.428  70.859  1.00  0.00    -0.194 A  
HETATM   12  C   UNL     1     -10.382   7.069  70.557  1.00  0.00    -0.201 A  
HETATM   13  O   UNL     1     -10.165   8.786  72.165  1.00  0.00    -0.325 OA 
HETATM   14  H   UNL     1     -10.060   8.137  72.851  1.00  0.00     0.000 HD 
HETATM   15  O   UNL     1     -10.212   6.148  71.551  1.00  0.00    -0.196 OA 
HETATM   16  C   UNL     1     -10.566   6.633  69.255  1.00  0.00    -0.276 A  
HETATM   17  C   UNL     1     -10.716   7.584  68.251  1.00  0.00    -0.073 A  
HETATM   18  H   UNL     1     -10.230   5.221  71.345  1.00  0.00     0.000 HD 
HETATM   19  F   UNL     1     -10.855   7.171  66.982  1.00  0.00    -0.354 F  
ENDBRANCH   8   9
ENDBRANCH   2   8
TORSDOF 2
ENDMDL
MODEL      274
REMARK 921   NORMALIZED FREE ENERGY PREDICTED BY IDOCK:   -2.25 KCAL/MOL
REMARK 922        TOTAL FREE ENERGY PREDICTED BY IDOCK:   -2.82 KCAL/MOL
REMARK 923 INTER-LIGAND FREE ENERGY PREDICTED BY IDOCK:   -2.97 KCAL/MOL
REMARK 924 INTRA-LIGAND FREE ENERGY PREDICTED BY IDOCK:    0.15 KCAL/MOL
REMARK 927      BINDING AFFINITY PREDICTED BY RF-SCORE:    0.00 PKD
ROOT
HETATM    1  N   UNL     1      -8.831   6.049  67.489  1.00  0.00    -0.111 NA 
HETATM    2  CA  UNL     1      -9.112   7.513  67.632  1.00  0.00    -0.125 C  
HETATM    3  H2  UNL     1      -8.015   5.899  66.895  1.00  0.00     0.000 HD 
HETATM    4  H1  UNL     1      -8.722   5.556  68.375  1.00  0.00     0.000 HD 
HETATM    5  OXT UNL     1     -10.876   8.766  68.791  1.00  0.00    -0.127 OA 
HETATM    6  C   UNL     1     -10.343   7.698  68.536  1.00  0.00    -0.198 C  
HETATM    7  O   UNL     1     -10.771   6.510  69.036  1.00  0.00    -0.225 OA 
ENDROOT
BRANCH   2   8
HETATM    8  C   UNL     1      -9.275   8.258  66.295  1.00  0.00    -0.258 C  
BRANCH   8   9
HETATM    9  C   UNL     1      -9.350   9.765  66.401  1.00  0.00    -0.218 A  
HETATM   10  C   UNL     1     -10.506  10.452  65.994  1.00  0.00    -0.211 A  
HETATM   11  C   UNL     1     -10.539  11.841  66.059  1.00  0.00    -0.260 A  
HETATM   12  C   UNL     1      -9.439  12.554  66.530  1.00  0.00    -0.240 A  
HETATM   13  O   UNL     1     -11.635  12.554  65.658  1.00  0.00    -0.350 OA 
HETATM   14  H   UNL     1     -11.657  13.502  65.703  1.00  0.00     0.000 HD 
HETATM   15  O   UNL     1      -9.480  13.917  66.572  1.00  0.00    -0.276 OA 
HETATM   16  C   UNL     1      -8.293  11.897  66.948  1.00  0.00    -0.169 A  
HETATM   17  C   UNL     1      -8.259  10.508  66.878  1.00  0.00    -0.123 A  
HETATM   18  H   UNL     1      -8.729  14.404  66.893  1.00  0.00     0.000 HD 
HETATM   19  F   UNL     1      -7.138   9.868  67.244  1.00  0.00    -0.081 F  
ENDBRANCH   8   9
ENDBRANCH   2   8
TORSDOF 2
ENDMDL
MODEL      275
REMARK 921   NORMALIZED FREE ENERGY PREDICTED BY IDOCK:   -2.25 KCAL/MOL
REMARK 922        TOTAL FREE ENERGY PREDICTED BY IDOCK:   -2.82 KCAL/MOL
REMARK 923 INTER-LIGAND FREE ENERGY PREDICTED BY IDOCK:   -2.57 KCAL/MOL
REMARK 924 INTRA-LIGAND FREE ENERGY PREDICTED BY IDOCK:   -0.25 KCAL/MOL
REMARK 927      BINDING AFFINITY PREDICTED BY RF-SCORE:    0.00 PKD
ROOT
HETATM    1  N   UNL     1      -8.018   4.586  65.278  1.00  0.00    -0.097 NA 
HETATM    2  CA  UNL     1      -8.296   5.126  66.648  1.00  0.00    -0.108 C  
HETATM    3  H2  UNL     1      -8.293   5.263  64.566  1.00  0.00     0.000 HD 
HETATM    4  H1  UNL     1      -7.054   4.289  65.134  1.00  0.00     0.000 HD 
HETATM    5  OXT UNL     1      -8.026   4.181  68.897  1.00  0.00    -0.070 OA 
HETATM    6  C   UNL     1      -7.865   4.080  67.691  1.00  0.00    -0.090 C  
HETATM    7  O   UNL     1      -7.264   3.014  67.103  1.00  0.00    -0.056 OA 
ENDROOT
BRANCH   2   8
HETATM    8  C   UNL     1      -9.752   5.575  66.866  1.00  0.00    -0.163 C  
BRANCH   8   9
HETATM    9  C   UNL     1      -9.923   6.825  67.700  1.00  0.00    -0.171 A  
HETATM   10  C   UNL     1      -9.646   8.089  67.153  1.00  0.00    -0.227 A  
HETATM   11  C   UNL     1      -9.768   9.224  67.948  1.00  0.00    -0.153 A  
HETATM   12  C   UNL     1     -10.169   9.116  69.278  1.00  0.00    -0.210 A  
HETATM   13  O   UNL     1      -9.493  10.474  67.466  1.00  0.00    -0.148 OA 
HETATM   14  H   UNL     1      -9.577  11.248  68.010  1.00  0.00     0.000 HD 
HETATM   15  O   UNL     1     -10.268  10.237  70.051  1.00  0.00    -0.354 OA 
HETATM   16  C   UNL     1     -10.459   7.881  69.835  1.00  0.00    -0.229 A  
HETATM   17  C   UNL     1     -10.332   6.747  69.040  1.00  0.00    -0.195 A  
HETATM   18  H   UNL     1     -10.541  10.163  70.958  1.00  0.00     0.000 HD 
HETATM   19  F   UNL     1     -10.573   5.544  69.583  1.00  0.00    -0.303 F  
ENDBRANCH   8   9
ENDBRANCH   2   8
TORSDOF 2
ENDMDL
MODEL      276
REMARK 921   NORMALIZED FREE ENERGY PREDICTED BY IDOCK:   -2.23 KCAL/MOL
REMARK 922        TOTAL FREE ENERGY PREDICTED BY IDOCK:   -2.80 KCAL/MOL
REMARK 923 INTER-LIGAND FREE ENERGY PREDICTED BY IDOCK:   -2.59 KCAL/MOL
REMARK 924 INTRA-LIGAND FREE ENERGY PREDICTED BY IDOCK:   -0.21 KCAL/MOL
REMARK 927      BINDING AFFINITY PREDICTED BY RF-SCORE:    0.00 PKD
ROOT
HETATM    1  N   UNL     1      -7.610   5.064  69.987  1.00  0.00    -0.059 NA 
HETATM    2  CA  UNL     1      -8.554   3.925  69.754  1.00  0.00    -0.065 C  
HETATM    3  H2  UNL     1      -7.501   5.617  69.137  1.00  0.00     0.000 HD 
HETATM    4  H1  UNL     1      -7.864   5.664  70.772  1.00  0.00     0.000 HD 
HETATM    5  OXT UNL     1      -9.333   2.086  71.182  1.00  0.00    -0.106 OA 
HETATM    6  C   UNL     1      -8.694   3.119  71.057  1.00  0.00    -0.075 C  
HETATM    7  O   UNL     1      -8.018   3.709  72.077  1.00  0.00    -0.065 OA 
ENDROOT
BRANCH   2   8
HETATM    8  C   UNL     1      -8.171   3.020  68.569  1.00  0.00    -0.079 C  
BRANCH   8   9
HETATM    9  C   UNL     1      -8.749   3.429  67.232  1.00  0.00    -0.132 A  
HETATM   10  C   UNL     1      -9.796   4.363  67.164  1.00  0.00    -0.217 A  
HETATM   11  C   UNL     1     -10.343   4.695  65.929  1.00  0.00    -0.283 A  
HETATM   12  C   UNL     1      -9.856   4.113  64.761  1.00  0.00    -0.188 A  
HETATM   13  O   UNL     1     -11.374   5.585  65.814  1.00  0.00    -0.649 OA 
HETATM   14  H   UNL     1     -11.748   5.811  64.971  1.00  0.00     0.000 HD 
HETATM   15  O   UNL     1     -10.414   4.435  63.558  1.00  0.00    -0.416 OA 
HETATM   16  C   UNL     1      -8.816   3.199  64.802  1.00  0.00    -0.118 A  
HETATM   17  C   UNL     1      -8.273   2.865  66.039  1.00  0.00    -0.089 A  
HETATM   18  H   UNL     1     -10.082   4.039  62.761  1.00  0.00     0.000 HD 
HETATM   19  F   UNL     1      -7.292   1.951  66.090  1.00  0.00    -0.055 F  
ENDBRANCH   8   9
ENDBRANCH   2   8
TORSDOF 2
ENDMDL
MODEL      277
REMARK 921   NORMALIZED FREE ENERGY PREDICTED BY IDOCK:   -2.20 KCAL/MOL
REMARK 922        TOTAL FREE ENERGY PREDICTED BY IDOCK:   -2.77 KCAL/MOL
REMARK 923 INTER-LIGAND FREE ENERGY PREDICTED BY IDOCK:   -2.88 KCAL/MOL
REMARK 924 INTRA-LIGAND FREE ENERGY PREDICTED BY IDOCK:    0.11 KCAL/MOL
REMARK 927      BINDING AFFINITY PREDICTED BY RF-SCORE:    0.00 PKD
ROOT
HETATM    1  N   UNL     1      -5.791  10.277  67.698  1.00  0.00    -0.045 NA 
HETATM    2  CA  UNL     1      -6.275  11.090  68.861  1.00  0.00    -0.042 C  
HETATM    3  H2  UNL     1      -6.008  10.748  66.820  1.00  0.00     0.000 HD 
HETATM    4  H1  UNL     1      -4.801  10.038  67.739  1.00  0.00     0.000 HD 
HETATM    5  OXT UNL     1      -6.249  10.709  71.286  1.00  0.00    -0.329 OA 
HETATM    6  C   UNL     1      -5.927  10.350  70.164  1.00  0.00    -0.083 C  
HETATM    7  O   UNL     1      -5.195   9.232  69.917  1.00  0.00    -0.032 OA 
ENDROOT
BRANCH   2   8
HETATM    8  C   UNL     1      -7.769  11.452  68.799  1.00  0.00    -0.135 C  
BRANCH   8   9
HETATM    9  C   UNL     1      -8.468  11.091  67.506  1.00  0.00    -0.127 A  
HETATM   10  C   UNL     1      -8.752   9.750  67.201  1.00  0.00    -0.137 A  
HETATM   11  C   UNL     1      -9.356   9.434  65.988  1.00  0.00    -0.220 A  
HETATM   12  C   UNL     1      -9.686  10.437  65.080  1.00  0.00    -0.300 A  
HETATM   13  O   UNL     1      -9.637   8.142  65.639  1.00  0.00    -0.433 OA 
HETATM   14  H   UNL     1     -10.049   7.927  64.811  1.00  0.00     0.000 HD 
HETATM   15  O   UNL     1     -10.262  10.111  63.886  1.00  0.00    -0.464 OA 
HETATM   16  C   UNL     1      -9.425  11.768  65.365  1.00  0.00    -0.157 A  
HETATM   17  C   UNL     1      -8.818  12.082  66.576  1.00  0.00    -0.172 A  
HETATM   18  H   UNL     1     -10.488  10.795  63.267  1.00  0.00     0.000 HD 
HETATM   19  F   UNL     1      -8.527  13.364  66.841  1.00  0.00    -0.198 F  
ENDBRANCH   8   9
ENDBRANCH   2   8
TORSDOF 2
ENDMDL
MODEL      278
REMARK 921   NORMALIZED FREE ENERGY PREDICTED BY IDOCK:   -2.18 KCAL/MOL
REMARK 922        TOTAL FREE ENERGY PREDICTED BY IDOCK:   -2.75 KCAL/MOL
REMARK 923 INTER-LIGAND FREE ENERGY PREDICTED BY IDOCK:   -2.49 KCAL/MOL
REMARK 924 INTRA-LIGAND FREE ENERGY PREDICTED BY IDOCK:   -0.26 KCAL/MOL
REMARK 927      BINDING AFFINITY PREDICTED BY RF-SCORE:    0.00 PKD
ROOT
HETATM    1  N   UNL     1      -9.755  10.906  66.920  1.00  0.00    -0.178 NA 
HETATM    2  CA  UNL     1      -8.429  11.504  67.279  1.00  0.00    -0.152 C  
HETATM    3  H2  UNL     1     -10.431  11.640  66.707  1.00  0.00     0.000 HD 
HETATM    4  H1  UNL     1      -9.715  10.227  66.160  1.00  0.00     0.000 HD 
HETATM    5  OXT UNL     1      -6.294  10.520  67.986  1.00  0.00    -0.058 OA 
HETATM    6  C   UNL     1      -7.439  10.368  67.589  1.00  0.00    -0.089 C  
HETATM    7  O   UNL     1      -7.994   9.151  67.355  1.00  0.00    -0.102 OA 
ENDROOT
BRANCH   2   8
HETATM    8  C   UNL     1      -8.489  12.529  68.425  1.00  0.00    -0.125 C  
BRANCH   8   9
HETATM    9  C   UNL     1      -8.468  13.980  67.995  1.00  0.00    -0.171 A  
HETATM   10  C   UNL     1      -7.248  14.643  67.787  1.00  0.00    -0.191 A  
HETATM   11  C   UNL     1      -7.248  15.988  67.434  1.00  0.00    -0.187 A  
HETATM   12  C   UNL     1      -8.447  16.679  67.278  1.00  0.00    -0.194 A  
HETATM   13  O   UNL     1      -6.085  16.681  67.238  1.00  0.00    -0.133 OA 
HETATM   14  H   UNL     1      -6.086  17.600  66.996  1.00  0.00     0.000 HD 
HETATM   15  O   UNL     1      -8.432  18.003  66.947  1.00  0.00    -0.234 OA 
HETATM   16  C   UNL     1      -9.663  16.042  67.466  1.00  0.00    -0.228 A  
HETATM   17  C   UNL     1      -9.662  14.697  67.823  1.00  0.00    -0.215 A  
HETATM   18  H   UNL     1      -9.250  18.474  66.841  1.00  0.00     0.000 HD 
HETATM   19  F   UNL     1     -10.834  14.085  68.046  1.00  0.00    -0.233 F  
ENDBRANCH   8   9
ENDBRANCH   2   8
TORSDOF 2
ENDMDL
MODEL      279
REMARK 921   NORMALIZED FREE ENERGY PREDICTED BY IDOCK:   -2.18 KCAL/MOL
REMARK 922        TOTAL FREE ENERGY PREDICTED BY IDOCK:   -2.75 KCAL/MOL
REMARK 923 INTER-LIGAND FREE ENERGY PREDICTED BY IDOCK:   -2.57 KCAL/MOL
REMARK 924 INTRA-LIGAND FREE ENERGY PREDICTED BY IDOCK:   -0.18 KCAL/MOL
REMARK 927      BINDING AFFINITY PREDICTED BY RF-SCORE:    0.00 PKD
ROOT
HETATM    1  N   UNL     1     -10.573  10.917  66.052  1.00  0.00    -0.224 NA 
HETATM    2  CA  UNL     1      -9.085  11.070  65.970  1.00  0.00    -0.195 C  
HETATM    3  H2  UNL     1     -10.955  11.527  66.774  1.00  0.00     0.000 HD 
HETATM    4  H1  UNL     1     -11.057  11.066  65.167  1.00  0.00     0.000 HD 
HETATM    5  OXT UNL     1      -7.369   9.972  64.601  1.00  0.00    -0.136 OA 
HETATM    6  C   UNL     1      -8.548  10.140  64.869  1.00  0.00    -0.178 C  
HETATM    7  O   UNL     1      -9.561   9.520  64.209  1.00  0.00    -0.061 OA 
ENDROOT
BRANCH   2   8
HETATM    8  C   UNL     1      -8.354  10.846  67.306  1.00  0.00    -0.123 C  
BRANCH   8   9
HETATM    9  C   UNL     1      -9.001   9.843  68.235  1.00  0.00    -0.119 A  
HETATM   10  C   UNL     1      -8.680   8.478  68.145  1.00  0.00    -0.142 A  
HETATM   11  C   UNL     1      -9.317   7.566  68.979  1.00  0.00    -0.146 A  
HETATM   12  C   UNL     1     -10.264   7.996  69.906  1.00  0.00    -0.204 A  
HETATM   13  O   UNL     1      -9.052   6.226  68.917  1.00  0.00    -0.125 OA 
HETATM   14  H   UNL     1      -9.487   5.603  69.487  1.00  0.00     0.000 HD 
HETATM   15  O   UNL     1     -10.894   7.087  70.706  1.00  0.00    -0.234 OA 
HETATM   16  C   UNL     1     -10.588   9.338  70.020  1.00  0.00    -0.256 A  
HETATM   17  C   UNL     1      -9.953  10.249  69.183  1.00  0.00    -0.222 A  
HETATM   18  H   UNL     1     -11.540   7.380  71.338  1.00  0.00     0.000 HD 
HETATM   19  F   UNL     1     -10.290  11.545  69.261  1.00  0.00    -0.210 F  
ENDBRANCH   8   9
ENDBRANCH   2   8
TORSDOF 2
ENDMDL
MODEL      280
REMARK 921   NORMALIZED FREE ENERGY PREDICTED BY IDOCK:   -2.13 KCAL/MOL
REMARK 922        TOTAL FREE ENERGY PREDICTED BY IDOCK:   -2.70 KCAL/MOL
REMARK 923 INTER-LIGAND FREE ENERGY PREDICTED BY IDOCK:   -2.65 KCAL/MOL
REMARK 924 INTRA-LIGAND FREE ENERGY PREDICTED BY IDOCK:   -0.04 KCAL/MOL
REMARK 927      BINDING AFFINITY PREDICTED BY RF-SCORE:    0.00 PKD
ROOT
HETATM    1  N   UNL     1      -9.956   4.868  73.470  1.00  0.00    -0.149 NA 
HETATM    2  CA  UNL     1      -9.476   4.470  72.108  1.00  0.00    -0.140 C  
HETATM    3  H2  UNL     1     -10.372   5.799  73.444  1.00  0.00     0.000 HD 
HETATM    4  H1  UNL     1     -10.600   4.202  73.896  1.00  0.00     0.000 HD 
HETATM    5  OXT UNL     1      -8.312   2.480  71.265  1.00  0.00    -0.056 OA 
HETATM    6  C   UNL     1      -8.861   3.063  72.187  1.00  0.00    -0.082 C  
HETATM    7  O   UNL     1      -9.012   2.527  73.427  1.00  0.00    -0.076 OA 
ENDROOT
BRANCH   2   8
HETATM    8  C   UNL     1      -8.505   5.476  71.463  1.00  0.00    -0.127 C  
BRANCH   8   9
HETATM    9  C   UNL     1      -9.108   6.815  71.102  1.00  0.00    -0.151 A  
HETATM   10  C   UNL     1      -9.531   7.074  69.787  1.00  0.00    -0.145 A  
HETATM   11  C   UNL     1     -10.044   8.326  69.464  1.00  0.00    -0.197 A  
HETATM   12  C   UNL     1     -10.146   9.320  70.434  1.00  0.00    -0.236 A  
HETATM   13  O   UNL     1     -10.452   8.630  68.195  1.00  0.00    -0.246 OA 
HETATM   14  H   UNL     1     -10.802   9.486  67.975  1.00  0.00     0.000 HD 
HETATM   15  O   UNL     1     -10.635  10.549  70.099  1.00  0.00    -0.426 OA 
HETATM   16  C   UNL     1      -9.747   9.083  71.739  1.00  0.00    -0.311 A  
HETATM   17  C   UNL     1      -9.230   7.832  72.060  1.00  0.00    -0.144 A  
HETATM   18  H   UNL     1     -10.706  11.228  70.760  1.00  0.00     0.000 HD 
HETATM   19  F   UNL     1      -8.804   7.609  73.313  1.00  0.00    -0.166 F  
ENDBRANCH   8   9
ENDBRANCH   2   8
TORSDOF 2
ENDMDL
MODEL      281
REMARK 921   NORMALIZED FREE ENERGY PREDICTED BY IDOCK:   -2.06 KCAL/MOL
REMARK 922        TOTAL FREE ENERGY PREDICTED BY IDOCK:   -2.62 KCAL/MOL
REMARK 923 INTER-LIGAND FREE ENERGY PREDICTED BY IDOCK:   -2.71 KCAL/MOL
REMARK 924 INTRA-LIGAND FREE ENERGY PREDICTED BY IDOCK:    0.09 KCAL/MOL
REMARK 927      BINDING AFFINITY PREDICTED BY RF-SCORE:    0.00 PKD
ROOT
HETATM    1  N   UNL     1      -5.613   8.983  71.432  1.00  0.00    -0.045 NA 
HETATM    2  CA  UNL     1      -5.747   7.629  72.059  1.00  0.00    -0.036 C  
HETATM    3  H2  UNL     1      -5.246   9.654  72.107  1.00  0.00     0.000 HD 
HETATM    4  H1  UNL     1      -5.054   8.994  70.579  1.00  0.00     0.000 HD 
HETATM    5  OXT UNL     1      -6.591   5.481  71.223  1.00  0.00    -0.038 OA 
HETATM    6  C   UNL     1      -6.297   6.647  71.011  1.00  0.00    -0.041 C  
HETATM    7  O   UNL     1      -6.411   7.237  69.793  1.00  0.00    -0.034 OA 
ENDROOT
BRANCH   2   8
HETATM    8  C   UNL     1      -6.589   7.611  73.347  1.00  0.00    -0.073 C  
BRANCH   8   9
HETATM    9  C   UNL     1      -8.088   7.610  73.138  1.00  0.00    -0.163 A  
HETATM   10  C   UNL     1      -8.697   8.602  72.353  1.00  0.00    -0.167 A  
HETATM   11  C   UNL     1     -10.081   8.610  72.207  1.00  0.00    -0.292 A  
HETATM   12  C   UNL     1     -10.863   7.639  72.828  1.00  0.00    -0.360 A  
HETATM   13  O   UNL     1     -10.721   9.565  71.468  1.00  0.00    -0.340 OA 
HETATM   14  H   UNL     1     -11.666   9.570  71.369  1.00  0.00     0.000 HD 
HETATM   15  O   UNL     1     -12.220   7.669  72.691  1.00  0.00    -0.549 OA 
HETATM   16  C   UNL     1     -10.282   6.644  73.597  1.00  0.00    -0.325 A  
HETATM   17  C   UNL     1      -8.899   6.640  73.746  1.00  0.00    -0.137 A  
HETATM   18  H   UNL     1     -12.754   7.007  73.114  1.00  0.00     0.000 HD 
HETATM   19  F   UNL     1      -8.333   5.702  74.521  1.00  0.00    -0.105 F  
ENDBRANCH   8   9
ENDBRANCH   2   8
TORSDOF 2
ENDMDL
MODEL      282
REMARK 921   NORMALIZED FREE ENERGY PREDICTED BY IDOCK:   -2.02 KCAL/MOL
REMARK 922        TOTAL FREE ENERGY PREDICTED BY IDOCK:   -2.57 KCAL/MOL
REMARK 923 INTER-LIGAND FREE ENERGY PREDICTED BY IDOCK:   -2.75 KCAL/MOL
REMARK 924 INTRA-LIGAND FREE ENERGY PREDICTED BY IDOCK:    0.18 KCAL/MOL
REMARK 927      BINDING AFFINITY PREDICTED BY RF-SCORE:    0.00 PKD
ROOT
HETATM    1  N   UNL     1      -8.503   5.278  74.072  1.00  0.00    -0.113 NA 
HETATM    2  CA  UNL     1      -9.981   5.466  74.225  1.00  0.00    -0.226 C  
HETATM    3  H2  UNL     1      -7.997   6.045  74.515  1.00  0.00     0.000 HD 
HETATM    4  H1  UNL     1      -8.158   4.381  74.413  1.00  0.00     0.000 HD 
HETATM    5  OXT UNL     1     -11.916   4.182  73.433  1.00  0.00    -0.057 OA 
HETATM    6  C   UNL     1     -10.706   4.290  73.549  1.00  0.00    -0.242 C  
HETATM    7  O   UNL     1      -9.824   3.361  73.096  1.00  0.00    -0.115 OA 
ENDROOT
BRANCH   2   8
HETATM    8  C   UNL     1     -10.500   6.821  73.711  1.00  0.00    -0.383 C  
BRANCH   8   9
HETATM    9  C   UNL     1      -9.644   7.482  72.654  1.00  0.00    -0.220 A  
HETATM   10  C   UNL     1      -8.397   8.034  72.990  1.00  0.00    -0.243 A  
HETATM   11  C   UNL     1      -7.643   8.675  72.013  1.00  0.00    -0.038 A  
HETATM   12  C   UNL     1      -8.111   8.767  70.705  1.00  0.00    -0.133 A  
HETATM   13  O   UNL     1      -6.432   9.243  72.296  1.00  0.00    -0.296 OA 
HETATM   14  H   UNL     1      -5.917   9.681  71.629  1.00  0.00     0.000 HD 
HETATM   15  O   UNL     1      -7.368   9.414  69.760  1.00  0.00    -0.067 OA 
HETATM   16  C   UNL     1      -9.332   8.219  70.347  1.00  0.00    -0.162 A  
HETATM   17  C   UNL     1     -10.088   7.582  71.327  1.00  0.00    -0.187 A  
HETATM   18  H   UNL     1      -7.687   9.476  68.868  1.00  0.00     0.000 HD 
HETATM   19  F   UNL     1     -11.289   7.084  70.996  1.00  0.00    -0.268 F  
ENDBRANCH   8   9
ENDBRANCH   2   8
TORSDOF 2
ENDMDL
MODEL      283
REMARK 921   NORMALIZED FREE ENERGY PREDICTED BY IDOCK:   -1.99 KCAL/MOL
REMARK 922        TOTAL FREE ENERGY PREDICTED BY IDOCK:   -2.54 KCAL/MOL
REMARK 923 INTER-LIGAND FREE ENERGY PREDICTED BY IDOCK:   -2.42 KCAL/MOL
REMARK 924 INTRA-LIGAND FREE ENERGY PREDICTED BY IDOCK:   -0.12 KCAL/MOL
REMARK 927      BINDING AFFINITY PREDICTED BY RF-SCORE:    0.00 PKD
ROOT
HETATM    1  N   UNL     1     -10.407   8.876  68.322  1.00  0.00    -0.205 NA 
HETATM    2  CA  UNL     1      -8.938   9.098  68.130  1.00  0.00    -0.129 C  
HETATM    3  H2  UNL     1     -10.628   8.782  69.313  1.00  0.00     0.000 HD 
HETATM    4  H1  UNL     1     -10.997   9.589  67.892  1.00  0.00     0.000 HD 
HETATM    5  OXT UNL     1      -7.538   9.353  66.130  1.00  0.00    -0.095 OA 
HETATM    6  C   UNL     1      -8.648   9.238  66.626  1.00  0.00    -0.127 C  
HETATM    7  O   UNL     1      -9.795   9.229  65.899  1.00  0.00    -0.281 OA 
ENDROOT
BRANCH   2   8
HETATM    8  C   UNL     1      -8.048   8.023  68.780  1.00  0.00    -0.125 C  
BRANCH   8   9
HETATM    9  C   UNL     1      -8.767   7.057  69.696  1.00  0.00    -0.141 A  
HETATM   10  C   UNL     1      -8.964   7.373  71.050  1.00  0.00    -0.151 A  
HETATM   11  C   UNL     1      -9.589   6.454  71.887  1.00  0.00    -0.151 A  
HETATM   12  C   UNL     1     -10.026   5.228  71.390  1.00  0.00    -0.185 A  
HETATM   13  O   UNL     1      -9.787   6.709  73.215  1.00  0.00    -0.161 OA 
HETATM   14  H   UNL     1     -10.214   6.081  73.786  1.00  0.00     0.000 HD 
HETATM   15  O   UNL     1     -10.622   4.329  72.226  1.00  0.00    -0.138 OA 
HETATM   16  C   UNL     1      -9.853   4.901  70.055  1.00  0.00    -0.304 A  
HETATM   17  C   UNL     1      -9.224   5.819  69.220  1.00  0.00    -0.117 A  
HETATM   18  H   UNL     1     -10.920   3.494  71.887  1.00  0.00     0.000 HD 
HETATM   19  F   UNL     1      -9.018   5.492  67.936  1.00  0.00    -0.111 F  
ENDBRANCH   8   9
ENDBRANCH   2   8
TORSDOF 2
ENDMDL
MODEL      284
REMARK 921   NORMALIZED FREE ENERGY PREDICTED BY IDOCK:   -1.84 KCAL/MOL
REMARK 922        TOTAL FREE ENERGY PREDICTED BY IDOCK:   -2.37 KCAL/MOL
REMARK 923 INTER-LIGAND FREE ENERGY PREDICTED BY IDOCK:   -2.58 KCAL/MOL
REMARK 924 INTRA-LIGAND FREE ENERGY PREDICTED BY IDOCK:    0.20 KCAL/MOL
REMARK 927      BINDING AFFINITY PREDICTED BY RF-SCORE:    0.00 PKD
ROOT
HETATM    1  N   UNL     1      -9.280   4.999  67.789  1.00  0.00    -0.114 NA 
HETATM    2  CA  UNL     1      -9.710   4.812  69.211  1.00  0.00    -0.196 C  
HETATM    3  H2  UNL     1      -8.559   4.321  67.542  1.00  0.00     0.000 HD 
HETATM    4  H1  UNL     1     -10.043   4.969  67.114  1.00  0.00     0.000 HD 
HETATM    5  OXT UNL     1     -11.305   6.010  70.642  1.00  0.00    -0.311 OA 
HETATM    6  C   UNL     1     -10.797   5.848  69.543  1.00  0.00    -0.372 C  
HETATM    7  O   UNL     1     -11.143   6.570  68.446  1.00  0.00    -0.293 OA 
ENDROOT
BRANCH   2   8
HETATM    8  C   UNL     1      -8.557   4.857  70.230  1.00  0.00    -0.111 C  
BRANCH   8   9
HETATM    9  C   UNL     1      -8.012   6.236  70.527  1.00  0.00    -0.112 A  
HETATM   10  C   UNL     1      -8.463   6.955  71.646  1.00  0.00    -0.117 A  
HETATM   11  C   UNL     1      -7.982   8.239  71.879  1.00  0.00    -0.127 A  
HETATM   12  C   UNL     1      -7.052   8.813  71.015  1.00  0.00    -0.084 A  
HETATM   13  O   UNL     1      -8.405   8.984  72.944  1.00  0.00    -0.258 OA 
HETATM   14  H   UNL     1      -8.076   9.861  73.103  1.00  0.00     0.000 HD 
HETATM   15  O   UNL     1      -6.602  10.081  71.246  1.00  0.00    -0.327 OA 
HETATM   16  C   UNL     1      -6.584   8.118  69.911  1.00  0.00    -0.039 A  
HETATM   17  C   UNL     1      -7.069   6.836  69.678  1.00  0.00    -0.068 A  
HETATM   18  H   UNL     1      -5.968  10.472  70.657  1.00  0.00     0.000 HD 
HETATM   19  F   UNL     1      -6.650   6.173  68.590  1.00  0.00    -0.047 F  
ENDBRANCH   8   9
ENDBRANCH   2   8
TORSDOF 2
ENDMDL
MODEL      285
REMARK 921   NORMALIZED FREE ENERGY PREDICTED BY IDOCK:   -1.82 KCAL/MOL
REMARK 922        TOTAL FREE ENERGY PREDICTED BY IDOCK:   -2.34 KCAL/MOL
REMARK 923 INTER-LIGAND FREE ENERGY PREDICTED BY IDOCK:   -2.26 KCAL/MOL
REMARK 924 INTRA-LIGAND FREE ENERGY PREDICTED BY IDOCK:   -0.08 KCAL/MOL
REMARK 927      BINDING AFFINITY PREDICTED BY RF-SCORE:    0.00 PKD
ROOT
HETATM    1  N   UNL     1     -10.754   7.811  68.389  1.00  0.00    -0.402 NA 
HETATM    2  CA  UNL     1      -9.576   7.608  67.486  1.00  0.00    -0.143 C  
HETATM    3  H2  UNL     1     -10.651   8.674  68.922  1.00  0.00     0.000 HD 
HETATM    4  H1  UNL     1     -11.655   7.794  67.910  1.00  0.00     0.000 HD 
HETATM    5  OXT UNL     1      -8.957   5.812  65.932  1.00  0.00    -0.154 OA 
HETATM    6  C   UNL     1      -9.771   6.302  66.698  1.00  0.00    -0.155 C  
HETATM    7  O   UNL     1     -10.986   5.750  66.951  1.00  0.00    -0.279 OA 
ENDROOT
BRANCH   2   8
HETATM    8  C   UNL     1      -8.217   7.635  68.208  1.00  0.00    -0.125 C  
BRANCH   8   9
HETATM    9  C   UNL     1      -7.824   8.973  68.795  1.00  0.00    -0.096 A  
HETATM   10  C   UNL     1      -8.380  10.161  68.293  1.00  0.00    -0.115 A  
HETATM   11  C   UNL     1      -7.974  11.384  68.816  1.00  0.00    -0.122 A  
HETATM   12  C   UNL     1      -7.027  11.438  69.837  1.00  0.00     0.127 A  
HETATM   13  O   UNL     1      -8.473  12.568  68.349  1.00  0.00    -0.196 OA 
HETATM   14  H   UNL     1      -8.196  13.403  68.706  1.00  0.00     0.000 HD 
HETATM   15  O   UNL     1      -6.626  12.646  70.329  1.00  0.00    -0.385 OA 
HETATM   16  C   UNL     1      -6.475  10.278  70.355  1.00  0.00    -0.131 A  
HETATM   17  C   UNL     1      -6.878   9.056  69.828  1.00  0.00    -0.050 A  
HETATM   18  H   UNL     1      -5.981  12.683  71.025  1.00  0.00     0.000 HD 
HETATM   19  F   UNL     1      -6.318   7.931  70.298  1.00  0.00    -0.035 F  
ENDBRANCH   8   9
ENDBRANCH   2   8
TORSDOF 2
ENDMDL
MODEL      286
REMARK 921   NORMALIZED FREE ENERGY PREDICTED BY IDOCK:   -1.75 KCAL/MOL
REMARK 922        TOTAL FREE ENERGY PREDICTED BY IDOCK:   -2.27 KCAL/MOL
REMARK 923 INTER-LIGAND FREE ENERGY PREDICTED BY IDOCK:   -2.82 KCAL/MOL
REMARK 924 INTRA-LIGAND FREE ENERGY PREDICTED BY IDOCK:    0.55 KCAL/MOL
REMARK 927      BINDING AFFINITY PREDICTED BY RF-SCORE:    0.00 PKD
ROOT
HETATM    1  N   UNL     1      -9.610  11.840  67.923  1.00  0.00    -0.181 NA 
HETATM    2  CA  UNL     1      -8.842  10.698  68.517  1.00  0.00    -0.148 C  
HETATM    3  H2  UNL     1     -10.487  11.979  68.425  1.00  0.00     0.000 HD 
HETATM    4  H1  UNL     1      -9.086  12.714  67.873  1.00  0.00     0.000 HD 
HETATM    5  OXT UNL     1      -6.711   9.634  67.922  1.00  0.00    -0.065 OA 
HETATM    6  C   UNL     1      -7.527  10.524  67.737  1.00  0.00    -0.087 C  
HETATM    7  O   UNL     1      -7.371  11.501  66.807  1.00  0.00    -0.141 OA 
ENDROOT
BRANCH   2   8
HETATM    8  C   UNL     1      -9.633   9.380  68.593  1.00  0.00    -0.152 C  
BRANCH   8   9
HETATM    9  C   UNL     1      -9.717   8.757  69.970  1.00  0.00    -0.182 A  
HETATM   10  C   UNL     1     -10.845   8.008  70.344  1.00  0.00    -0.247 A  
HETATM   11  C   UNL     1     -10.924   7.480  71.628  1.00  0.00    -0.232 A  
HETATM   12  C   UNL     1      -9.892   7.683  72.542  1.00  0.00    -0.196 A  
HETATM   13  O   UNL     1     -12.009   6.759  72.044  1.00  0.00    -0.307 OA 
HETATM   14  H   UNL     1     -12.062   6.398  72.922  1.00  0.00     0.000 HD 
HETATM   15  O   UNL     1      -9.991   7.173  73.804  1.00  0.00    -0.278 OA 
HETATM   16  C   UNL     1      -8.765   8.408  72.190  1.00  0.00    -0.272 A  
HETATM   17  C   UNL     1      -8.689   8.940  70.907  1.00  0.00    -0.210 A  
HETATM   18  H   UNL     1      -9.287   7.311  74.426  1.00  0.00     0.000 HD 
HETATM   19  F   UNL     1      -7.619   9.676  70.573  1.00  0.00    -0.119 F  
ENDBRANCH   8   9
ENDBRANCH   2   8
TORSDOF 2
ENDMDL
MODEL      287
REMARK 921   NORMALIZED FREE ENERGY PREDICTED BY IDOCK:   -1.71 KCAL/MOL
REMARK 922        TOTAL FREE ENERGY PREDICTED BY IDOCK:   -2.22 KCAL/MOL
REMARK 923 INTER-LIGAND FREE ENERGY PREDICTED BY IDOCK:   -2.25 KCAL/MOL
REMARK 924 INTRA-LIGAND FREE ENERGY PREDICTED BY IDOCK:    0.03 KCAL/MOL
REMARK 927      BINDING AFFINITY PREDICTED BY RF-SCORE:    0.00 PKD
ROOT
HETATM    1  N   UNL     1     -10.373  20.486  65.723  1.00  0.00    -0.355 NA 
HETATM    2  CA  UNL     1      -9.755  19.567  66.732  1.00  0.00    -0.366 C  
HETATM    3  H2  UNL     1      -9.752  20.606  64.922  1.00  0.00     0.000 HD 
HETATM    4  H1  UNL     1     -11.302  20.202  65.413  1.00  0.00     0.000 HD 
HETATM    5  OXT UNL     1     -10.484  18.786  68.942  1.00  0.00    -0.180 OA 
HETATM    6  C   UNL     1     -10.721  19.409  67.919  1.00  0.00    -0.310 C  
HETATM    7  O   UNL     1     -11.896  20.049  67.687  1.00  0.00     1.039 OA 
ENDROOT
BRANCH   2   8
HETATM    8  C   UNL     1      -8.352  19.996  67.198  1.00  0.00    -0.381 C  
BRANCH   8   9
HETATM    9  C   UNL     1      -7.480  18.879  67.730  1.00  0.00    -0.260 A  
HETATM   10  C   UNL     1      -7.813  17.537  67.484  1.00  0.00    -0.210 A  
HETATM   11  C   UNL     1      -7.024  16.524  68.018  1.00  0.00    -0.143 A  
HETATM   12  C   UNL     1      -5.904  16.831  68.787  1.00  0.00    -0.141 A  
HETATM   13  O   UNL     1      -7.317  15.203  67.821  1.00  0.00    -0.132 OA 
HETATM   14  H   UNL     1      -6.778  14.512  68.185  1.00  0.00     0.000 HD 
HETATM   15  O   UNL     1      -5.148  15.826  69.319  1.00  0.00    -0.104 OA 
HETATM   16  C   UNL     1      -5.549  18.147  69.033  1.00  0.00    -0.194 A  
HETATM   17  C   UNL     1      -6.342  19.160  68.502  1.00  0.00    -0.236 A  
HETATM   18  H   UNL     1      -4.384  16.035  69.843  1.00  0.00     0.000 HD 
HETATM   19  F   UNL     1      -6.028  20.436  68.769  1.00  0.00    -0.281 F  
ENDBRANCH   8   9
ENDBRANCH   2   8
TORSDOF 2
ENDMDL
MODEL      288
REMARK 921   NORMALIZED FREE ENERGY PREDICTED BY IDOCK:   -1.59 KCAL/MOL
REMARK 922        TOTAL FREE ENERGY PREDICTED BY IDOCK:   -2.09 KCAL/MOL
REMARK 923 INTER-LIGAND FREE ENERGY PREDICTED BY IDOCK:   -1.92 KCAL/MOL
REMARK 924 INTRA-LIGAND FREE ENERGY PREDICTED BY IDOCK:   -0.17 KCAL/MOL
REMARK 927      BINDING AFFINITY PREDICTED BY RF-SCORE:    0.00 PKD
ROOT
HETATM    1  N   UNL     1      -9.982   8.379  69.078  1.00  0.00    -0.185 NA 
HETATM    2  CA  UNL     1      -9.200   7.336  68.339  1.00  0.00    -0.137 C  
HETATM    3  H2  UNL     1      -9.374   9.148  69.359  1.00  0.00     0.000 HD 
HETATM    4  H1  UNL     1     -10.792   8.732  68.568  1.00  0.00     0.000 HD 
HETATM    5  OXT UNL     1      -9.812   5.162  67.379  1.00  0.00    -0.146 OA 
HETATM    6  C   UNL     1     -10.150   6.198  67.930  1.00  0.00    -0.153 C  
HETATM    7  O   UNL     1     -11.437   6.489  68.250  1.00  0.00    -0.150 OA 
ENDROOT
BRANCH   2   8
HETATM    8  C   UNL     1      -7.977   6.803  69.108  1.00  0.00    -0.112 C  
BRANCH   8   9
HETATM    9  C   UNL     1      -8.227   6.459  70.560  1.00  0.00    -0.118 A  
HETATM   10  C   UNL     1      -8.763   5.210  70.914  1.00  0.00    -0.142 A  
HETATM   11  C   UNL     1      -9.026   4.929  72.250  1.00  0.00    -0.130 A  
HETATM   12  C   UNL     1      -8.756   5.872  73.238  1.00  0.00    -0.117 A  
HETATM   13  O   UNL     1      -9.564   3.734  72.641  1.00  0.00    -0.123 OA 
HETATM   14  H   UNL     1      -9.744   3.542  73.554  1.00  0.00     0.000 HD 
HETATM   15  O   UNL     1      -9.035   5.589  74.544  1.00  0.00    -0.119 OA 
HETATM   16  C   UNL     1      -8.216   7.106  72.914  1.00  0.00    -0.122 A  
HETATM   17  C   UNL     1      -7.957   7.388  71.576  1.00  0.00    -0.095 A  
HETATM   18  H   UNL     1      -8.851   6.232  75.218  1.00  0.00     0.000 HD 
HETATM   19  F   UNL     1      -7.471   8.595  71.251  1.00  0.00    -0.067 F  
ENDBRANCH   8   9
ENDBRANCH   2   8
TORSDOF 2
ENDMDL
MODEL      289
REMARK 921   NORMALIZED FREE ENERGY PREDICTED BY IDOCK:   -1.53 KCAL/MOL
REMARK 922        TOTAL FREE ENERGY PREDICTED BY IDOCK:   -2.03 KCAL/MOL
REMARK 923 INTER-LIGAND FREE ENERGY PREDICTED BY IDOCK:   -1.92 KCAL/MOL
REMARK 924 INTRA-LIGAND FREE ENERGY PREDICTED BY IDOCK:   -0.11 KCAL/MOL
REMARK 927      BINDING AFFINITY PREDICTED BY RF-SCORE:    0.00 PKD
ROOT
HETATM    1  N   UNL     1      -9.425  11.664  68.905  1.00  0.00    -0.407 NA 
HETATM    2  CA  UNL     1      -8.567  10.438  68.841  1.00  0.00    -0.149 C  
HETATM    3  H2  UNL     1     -10.144  11.559  69.621  1.00  0.00     0.000 HD 
HETATM    4  H1  UNL     1      -8.906  12.530  69.047  1.00  0.00     0.000 HD 
HETATM    5  OXT UNL     1      -6.684   9.795  67.402  1.00  0.00    -0.072 OA 
HETATM    6  C   UNL     1      -7.495  10.637  67.755  1.00  0.00    -0.091 C  
HETATM    7  O   UNL     1      -7.549  11.890  67.232  1.00  0.00    -0.137 OA 
ENDROOT
BRANCH   2   8
HETATM    8  C   UNL     1      -9.350   9.130  68.627  1.00  0.00    -0.135 C  
BRANCH   8   9
HETATM    9  C   UNL     1      -8.673   7.881  69.146  1.00  0.00    -0.138 A  
HETATM   10  C   UNL     1      -8.220   6.895  68.255  1.00  0.00    -0.123 A  
HETATM   11  C   UNL     1      -7.639   5.733  68.752  1.00  0.00    -0.089 A  
HETATM   12  C   UNL     1      -7.497   5.545  70.125  1.00  0.00    -0.070 A  
HETATM   13  O   UNL     1      -7.198   4.737  67.925  1.00  0.00    -0.064 OA 
HETATM   14  H   UNL     1      -6.801   3.944  68.265  1.00  0.00     0.000 HD 
HETATM   15  O   UNL     1      -6.941   4.393  70.600  1.00  0.00    -0.035 OA 
HETATM   16  C   UNL     1      -7.926   6.509  71.022  1.00  0.00    -0.111 A  
HETATM   17  C   UNL     1      -8.511   7.669  70.524  1.00  0.00    -0.128 A  
HETATM   18  H   UNL     1      -6.844   4.264  71.536  1.00  0.00     0.000 HD 
HETATM   19  F   UNL     1      -8.964   8.589  71.388  1.00  0.00    -0.167 F  
ENDBRANCH   8   9
ENDBRANCH   2   8
TORSDOF 2
ENDMDL
MODEL      290
REMARK 921   NORMALIZED FREE ENERGY PREDICTED BY IDOCK:   -1.48 KCAL/MOL
REMARK 922        TOTAL FREE ENERGY PREDICTED BY IDOCK:   -1.97 KCAL/MOL
REMARK 923 INTER-LIGAND FREE ENERGY PREDICTED BY IDOCK:   -1.77 KCAL/MOL
REMARK 924 INTRA-LIGAND FREE ENERGY PREDICTED BY IDOCK:   -0.20 KCAL/MOL
REMARK 927      BINDING AFFINITY PREDICTED BY RF-SCORE:    0.00 PKD
ROOT
HETATM    1  N   UNL     1      -6.927   9.576  67.162  1.00  0.00    -0.084 NA 
HETATM    2  CA  UNL     1      -8.330   9.866  67.599  1.00  0.00    -0.114 C  
HETATM    3  H2  UNL     1      -6.787   9.869  66.195  1.00  0.00     0.000 HD 
HETATM    4  H1  UNL     1      -6.210   9.980  67.764  1.00  0.00     0.000 HD 
HETATM    5  OXT UNL     1      -9.545   9.443  69.690  1.00  0.00    -0.167 OA 
HETATM    6  C   UNL     1      -8.500   9.414  69.060  1.00  0.00    -0.129 C  
HETATM    7  O   UNL     1      -7.323   8.979  69.582  1.00  0.00    -0.060 OA 
ENDROOT
BRANCH   2   8
HETATM    8  C   UNL     1      -9.413   9.257  66.690  1.00  0.00    -0.246 C  
BRANCH   8   9
HETATM    9  C   UNL     1      -9.016   7.981  65.980  1.00  0.00    -0.205 A  
HETATM   10  C   UNL     1      -8.420   8.029  64.710  1.00  0.00    -0.037 A  
HETATM   11  C   UNL     1      -8.102   6.844  64.054  1.00  0.00    -0.008 A  
HETATM   12  C   UNL     1      -8.364   5.613  64.651  1.00  0.00    -0.119 A  
HETATM   13  O   UNL     1      -7.536   6.840  62.810  1.00  0.00    -0.068 OA 
HETATM   14  H   UNL     1      -7.318   6.030  62.362  1.00  0.00     0.000 HD 
HETATM   15  O   UNL     1      -8.063   4.459  63.989  1.00  0.00    -0.088 OA 
HETATM   16  C   UNL     1      -8.941   5.542  65.908  1.00  0.00    -0.158 A  
HETATM   17  C   UNL     1      -9.263   6.728  66.561  1.00  0.00    -0.162 A  
HETATM   18  H   UNL     1      -8.241   3.619  64.396  1.00  0.00     0.000 HD 
HETATM   19  F   UNL     1      -9.858   6.666  67.762  1.00  0.00    -0.123 F  
ENDBRANCH   8   9
ENDBRANCH   2   8
TORSDOF 2
ENDMDL
MODEL      291
REMARK 921   NORMALIZED FREE ENERGY PREDICTED BY IDOCK:   -1.43 KCAL/MOL
REMARK 922        TOTAL FREE ENERGY PREDICTED BY IDOCK:   -1.91 KCAL/MOL
REMARK 923 INTER-LIGAND FREE ENERGY PREDICTED BY IDOCK:   -1.76 KCAL/MOL
REMARK 924 INTRA-LIGAND FREE ENERGY PREDICTED BY IDOCK:   -0.16 KCAL/MOL
REMARK 927      BINDING AFFINITY PREDICTED BY RF-SCORE:    0.00 PKD
ROOT
HETATM    1  N   UNL     1      -6.507   6.189  69.879  1.00  0.00    -0.041 NA 
HETATM    2  CA  UNL     1      -7.707   5.314  70.072  1.00  0.00    -0.076 C  
HETATM    3  H2  UNL     1      -6.426   6.473  68.902  1.00  0.00     0.000 HD 
HETATM    4  H1  UNL     1      -6.482   7.005  70.490  1.00  0.00     0.000 HD 
HETATM    5  OXT UNL     1      -8.617   4.141  72.028  1.00  0.00    -0.102 OA 
HETATM    6  C   UNL     1      -7.795   4.911  71.554  1.00  0.00    -0.105 C  
HETATM    7  O   UNL     1      -6.839   5.532  72.293  1.00  0.00    -0.073 OA 
ENDROOT
BRANCH   2   8
HETATM    8  C   UNL     1      -7.745   4.083  69.149  1.00  0.00    -0.053 C  
BRANCH   8   9
HETATM    9  C   UNL     1      -8.198   4.353  67.731  1.00  0.00    -0.098 A  
HETATM   10  C   UNL     1      -7.304   4.207  66.658  1.00  0.00    -0.076 A  
HETATM   11  C   UNL     1      -7.726   4.502  65.366  1.00  0.00    -0.086 A  
HETATM   12  C   UNL     1      -9.029   4.934  65.129  1.00  0.00    -0.152 A  
HETATM   13  O   UNL     1      -6.887   4.391  64.292  1.00  0.00    -0.043 OA 
HETATM   14  H   UNL     1      -7.176   4.593  63.410  1.00  0.00     0.000 HD 
HETATM   15  O   UNL     1      -9.424   5.236  63.858  1.00  0.00    -0.242 OA 
HETATM   16  C   UNL     1      -9.931   5.074  66.171  1.00  0.00    -0.240 A  
HETATM   17  C   UNL     1      -9.507   4.783  67.463  1.00  0.00    -0.146 A  
HETATM   18  H   UNL     1     -10.313   5.531  63.696  1.00  0.00     0.000 HD 
HETATM   19  F   UNL     1     -10.363   4.955  68.481  1.00  0.00    -0.222 F  
ENDBRANCH   8   9
ENDBRANCH   2   8
TORSDOF 2
ENDMDL
MODEL      292
REMARK 921   NORMALIZED FREE ENERGY PREDICTED BY IDOCK:   -0.60 KCAL/MOL
REMARK 922        TOTAL FREE ENERGY PREDICTED BY IDOCK:   -0.99 KCAL/MOL
REMARK 923 INTER-LIGAND FREE ENERGY PREDICTED BY IDOCK:   -0.78 KCAL/MOL
REMARK 924 INTRA-LIGAND FREE ENERGY PREDICTED BY IDOCK:   -0.21 KCAL/MOL
REMARK 927      BINDING AFFINITY PREDICTED BY RF-SCORE:    0.00 PKD
ROOT
HETATM    1  N   UNL     1      -8.819  13.770  68.542  1.00  0.00    -0.291 NA 
HETATM    2  CA  UNL     1     -10.060  13.036  68.949  1.00  0.00     0.046 C  
HETATM    3  H2  UNL     1      -8.197  13.156  68.016  1.00  0.00     0.000 HD 
HETATM    4  H1  UNL     1      -8.994  14.630  68.021  1.00  0.00     0.000 HD 
HETATM    5  OXT UNL     1     -12.025  13.686  70.269  1.00  0.00    -0.325 OA 
HETATM    6  C   UNL     1     -10.971  13.995  69.734  1.00  0.00     0.028 C  
HETATM    7  O   UNL     1     -10.462  15.254  69.754  1.00  0.00    -0.260 OA 
ENDROOT
BRANCH   2   8
HETATM    8  C   UNL     1      -9.796  11.738  69.733  1.00  0.00     1.338 C  
BRANCH   8   9
HETATM    9  C   UNL     1      -9.269  10.583  68.911  1.00  0.00    -0.188 A  
HETATM   10  C   UNL     1      -7.891  10.317  68.858  1.00  0.00    -0.106 A  
HETATM   11  C   UNL     1      -7.422   9.277  68.063  1.00  0.00    -0.083 A  
HETATM   12  C   UNL     1      -8.308   8.495  67.325  1.00  0.00    -0.115 A  
HETATM   13  O   UNL     1      -6.088   8.990  67.965  1.00  0.00    -0.049 OA 
HETATM   14  H   UNL     1      -5.768   8.280  67.422  1.00  0.00     0.000 HD 
HETATM   15  O   UNL     1      -7.832   7.489  66.536  1.00  0.00    -0.097 OA 
HETATM   16  C   UNL     1      -9.672   8.731  67.372  1.00  0.00    -0.225 A  
HETATM   17  C   UNL     1     -10.140   9.775  68.165  1.00  0.00    -0.165 A  
HETATM   18  H   UNL     1      -8.436   6.955  66.033  1.00  0.00     0.000 HD 
HETATM   19  F   UNL     1     -11.456  10.035  68.183  1.00  0.00    -0.283 F  
ENDBRANCH   8   9
ENDBRANCH   2   8
TORSDOF 2
ENDMDL
MODEL      293
REMARK 921   NORMALIZED FREE ENERGY PREDICTED BY IDOCK:   -0.48 KCAL/MOL
REMARK 922        TOTAL FREE ENERGY PREDICTED BY IDOCK:   -0.85 KCAL/MOL
REMARK 923 INTER-LIGAND FREE ENERGY PREDICTED BY IDOCK:   -1.74 KCAL/MOL
REMARK 924 INTRA-LIGAND FREE ENERGY PREDICTED BY IDOCK:    0.89 KCAL/MOL
REMARK 927      BINDING AFFINITY PREDICTED BY RF-SCORE:    0.00 PKD
ROOT
HETATM    1  N   UNL     1     -11.364  17.452  70.313  1.00  0.00     0.683 NA 
HETATM    2  CA  UNL     1     -10.617  17.779  69.056  1.00  0.00    -0.012 C  
HETATM    3  H2  UNL     1     -11.280  18.214  70.986  1.00  0.00     0.000 HD 
HETATM    4  H1  UNL     1     -12.344  17.213  70.167  1.00  0.00     0.000 HD 
HETATM    5  OXT UNL     1     -10.223  16.530  66.980  1.00  0.00    -0.277 OA 
HETATM    6  C   UNL     1     -10.771  16.610  68.068  1.00  0.00    -0.350 C  
HETATM    7  O   UNL     1     -11.614  15.662  68.552  1.00  0.00    -0.360 OA 
ENDROOT
BRANCH   2   8
HETATM    8  C   UNL     1      -9.137  18.140  69.278  1.00  0.00     0.222 C  
BRANCH   8   9
HETATM    9  C   UNL     1      -8.142  17.102  68.808  1.00  0.00    -0.252 A  
HETATM   10  C   UNL     1      -7.254  17.390  67.759  1.00  0.00    -0.177 A  
HETATM   11  C   UNL     1      -6.375  16.408  67.313  1.00  0.00    -0.180 A  
HETATM   12  C   UNL     1      -6.366  15.146  67.903  1.00  0.00    -0.160 A  
HETATM   13  O   UNL     1      -5.505  16.636  66.284  1.00  0.00    -0.259 OA 
HETATM   14  H   UNL     1      -4.905  15.965  65.980  1.00  0.00     0.000 HD 
HETATM   15  O   UNL     1      -5.511  14.187  67.443  1.00  0.00    -0.339 OA 
HETATM   16  C   UNL     1      -7.225  14.844  68.947  1.00  0.00    -0.128 A  
HETATM   17  C   UNL     1      -8.106  15.825  69.389  1.00  0.00    -0.209 A  
HETATM   18  H   UNL     1      -5.504  13.327  67.845  1.00  0.00     0.000 HD 
HETATM   19  F   UNL     1      -8.968  15.526  70.373  1.00  0.00     0.056 F  
ENDBRANCH   8   9
ENDBRANCH   2   8
TORSDOF 2
ENDMDL
MODEL      294
REMARK 921   NORMALIZED FREE ENERGY PREDICTED BY IDOCK:    1.48 KCAL/MOL
REMARK 922        TOTAL FREE ENERGY PREDICTED BY IDOCK:    1.34 KCAL/MOL
REMARK 923 INTER-LIGAND FREE ENERGY PREDICTED BY IDOCK:    0.40 KCAL/MOL
REMARK 924 INTRA-LIGAND FREE ENERGY PREDICTED BY IDOCK:    0.94 KCAL/MOL
REMARK 927      BINDING AFFINITY PREDICTED BY RF-SCORE:    0.00 PKD
ROOT
HETATM    1  N   UNL     1      -6.648  21.147  67.666  1.00  0.00    -0.405 NA 
HETATM    2  CA  UNL     1      -6.477  20.069  68.692  1.00  0.00    -0.301 C  
HETATM    3  H2  UNL     1      -7.212  21.910  68.040  1.00  0.00     0.000 HD 
HETATM    4  H1  UNL     1      -5.772  21.505  67.286  1.00  0.00     0.000 HD 
HETATM    5  OXT UNL     1      -5.359  17.884  68.645  1.00  0.00    -0.151 OA 
HETATM    6  C   UNL     1      -5.621  18.941  68.092  1.00  0.00    -0.185 C  
HETATM    7  O   UNL     1      -5.170  19.269  66.853  1.00  0.00    -0.157 OA 
ENDROOT
BRANCH   2   8
HETATM    8  C   UNL     1      -7.800  19.529  69.266  1.00  0.00    -0.152 C  
BRANCH   8   9
HETATM    9  C   UNL     1      -8.987  19.602  68.330  1.00  0.00    -0.372 A  
HETATM   10  C   UNL     1      -8.831  20.079  67.018  1.00  0.00    -0.433 A  
HETATM   11  C   UNL     1      -9.941  20.180  66.187  1.00  0.00    -0.414 A  
HETATM   12  C   UNL     1     -11.203  19.805  66.643  1.00  0.00     0.215 A  
HETATM   13  O   UNL     1      -9.842  20.654  64.909  1.00  0.00     0.009 OA 
HETATM   14  H   UNL     1     -10.601  20.723  64.341  1.00  0.00     0.000 HD 
HETATM   15  O   UNL     1     -12.286  19.925  65.822  1.00  0.00     2.386 OA 
HETATM   16  C   UNL     1     -11.378  19.320  67.929  1.00  0.00     0.528 A  
HETATM   17  C   UNL     1     -10.267  19.225  68.761  1.00  0.00    -0.309 A  
HETATM   18  H   UNL     1     -13.146  19.669  66.132  1.00  0.00     0.000 HD 
HETATM   19  F   UNL     1     -10.436  18.794  70.020  1.00  0.00     0.143 F  
ENDBRANCH   8   9
ENDBRANCH   2   8
TORSDOF 2
ENDMDL
MODEL      295
REMARK 921   NORMALIZED FREE ENERGY PREDICTED BY IDOCK:    2.30 KCAL/MOL
REMARK 922        TOTAL FREE ENERGY PREDICTED BY IDOCK:    2.26 KCAL/MOL
REMARK 923 INTER-LIGAND FREE ENERGY PREDICTED BY IDOCK:   -3.76 KCAL/MOL
REMARK 924 INTRA-LIGAND FREE ENERGY PREDICTED BY IDOCK:    6.02 KCAL/MOL
REMARK 927      BINDING AFFINITY PREDICTED BY RF-SCORE:    0.00 PKD
ROOT
HETATM    1  N   UNL     1      -7.007  21.285  67.164  1.00  0.00    -0.724 NA 
HETATM    2  CA  UNL     1      -6.639  20.084  67.980  1.00  0.00    -0.267 C  
HETATM    3  H2  UNL     1      -7.680  21.864  67.665  1.00  0.00     0.000 HD 
HETATM    4  H1  UNL     1      -6.210  21.845  66.863  1.00  0.00     0.000 HD 
HETATM    5  OXT UNL     1      -5.178  18.159  67.549  1.00  0.00    -0.136 OA 
HETATM    6  C   UNL     1      -5.621  19.240  67.194  1.00  0.00    -0.171 C  
HETATM    7  O   UNL     1      -5.258  19.855  66.039  1.00  0.00    -0.158 OA 
ENDROOT
BRANCH   2   8
HETATM    8  C   UNL     1      -7.842  19.239  68.436  1.00  0.00    -0.377 C  
BRANCH   8   9
HETATM    9  C   UNL     1      -7.759  17.765  68.103  1.00  0.00    -0.254 A  
HETATM   10  C   UNL     1      -6.534  17.188  67.728  1.00  0.00    -0.158 A  
HETATM   11  C   UNL     1      -6.485  15.842  67.384  1.00  0.00    -0.158 A  
HETATM   12  C   UNL     1      -7.638  15.061  67.415  1.00  0.00    -0.205 A  
HETATM   13  O   UNL     1      -5.320  15.240  66.996  1.00  0.00    -0.118 OA 
HETATM   14  H   UNL     1      -5.287  14.320  66.761  1.00  0.00     0.000 HD 
HETATM   15  O   UNL     1      -7.579  13.745  67.059  1.00  0.00    -0.361 OA 
HETATM   16  C   UNL     1      -8.855  15.606  67.794  1.00  0.00    -0.173 A  
HETATM   17  C   UNL     1      -8.903  16.954  68.133  1.00  0.00    -0.223 A  
HETATM   18  H   UNL     1      -8.365  13.213  67.080  1.00  0.00     0.000 HD 
HETATM   19  F   UNL     1     -10.085  17.497  68.462  1.00  0.00    -0.281 F  
ENDBRANCH   8   9
ENDBRANCH   2   8
TORSDOF 2
ENDMDL
MODEL      296
REMARK 921   NORMALIZED FREE ENERGY PREDICTED BY IDOCK:    2.84 KCAL/MOL
REMARK 922        TOTAL FREE ENERGY PREDICTED BY IDOCK:    2.86 KCAL/MOL
REMARK 923 INTER-LIGAND FREE ENERGY PREDICTED BY IDOCK:   -1.48 KCAL/MOL
REMARK 924 INTRA-LIGAND FREE ENERGY PREDICTED BY IDOCK:    4.33 KCAL/MOL
REMARK 927      BINDING AFFINITY PREDICTED BY RF-SCORE:    0.00 PKD
ROOT
HETATM    1  N   UNL     1     -11.521  17.556  70.433  1.00  0.00     1.318 NA 
HETATM    2  CA  UNL     1     -10.692  17.634  69.188  1.00  0.00     0.149 C  
HETATM    3  H2  UNL     1     -11.312  18.340  71.051  1.00  0.00     0.000 HD 
HETATM    4  H1  UNL     1     -12.525  17.495  70.263  1.00  0.00     0.000 HD 
HETATM    5  OXT UNL     1     -10.486  16.171  67.227  1.00  0.00    -0.300 OA 
HETATM    6  C   UNL     1     -11.039  16.440  68.283  1.00  0.00    -0.337 C  
HETATM    7  O   UNL     1     -12.061  15.709  68.800  1.00  0.00    -0.301 OA 
ENDROOT
BRANCH   2   8
HETATM    8  C   UNL     1      -9.177  17.727  69.444  1.00  0.00     0.369 C  
BRANCH   8   9
HETATM    9  C   UNL     1      -8.373  18.366  68.333  1.00  0.00    -0.328 A  
HETATM   10  C   UNL     1      -7.568  19.488  68.591  1.00  0.00    -0.389 A  
HETATM   11  C   UNL     1      -6.870  20.087  67.548  1.00  0.00    -0.237 A  
HETATM   12  C   UNL     1      -6.957  19.580  66.254  1.00  0.00    -0.232 A  
HETATM   13  O   UNL     1      -6.088  21.191  67.747  1.00  0.00    -0.322 OA 
HETATM   14  H   UNL     1      -5.611  21.600  67.034  1.00  0.00     0.000 HD 
HETATM   15  O   UNL     1      -6.280  20.188  65.238  1.00  0.00    -0.213 OA 
HETATM   16  C   UNL     1      -7.736  18.467  65.979  1.00  0.00    -0.200 A  
HETATM   17  C   UNL     1      -8.437  17.871  67.022  1.00  0.00    -0.236 A  
HETATM   18  H   UNL     1      -6.340  19.842  64.355  1.00  0.00     0.000 HD 
HETATM   19  F   UNL     1      -9.223  16.817  66.755  1.00  0.00    -0.216 F  
ENDBRANCH   8   9
ENDBRANCH   2   8
TORSDOF 2
ENDMDL
MODEL      297
REMARK 921   NORMALIZED FREE ENERGY PREDICTED BY IDOCK:    6.72 KCAL/MOL
REMARK 922        TOTAL FREE ENERGY PREDICTED BY IDOCK:    7.19 KCAL/MOL
REMARK 923 INTER-LIGAND FREE ENERGY PREDICTED BY IDOCK:    5.90 KCAL/MOL
REMARK 924 INTRA-LIGAND FREE ENERGY PREDICTED BY IDOCK:    1.29 KCAL/MOL
REMARK 927      BINDING AFFINITY PREDICTED BY RF-SCORE:    0.00 PKD
ROOT
HETATM    1  N   UNL     1      -6.291  20.917  68.631  1.00  0.00    -0.227 NA 
HETATM    2  CA  UNL     1      -6.143  19.891  69.712  1.00  0.00    -0.341 C  
HETATM    3  H2  UNL     1      -6.718  21.766  69.000  1.00  0.00     0.000 HD 
HETATM    4  H1  UNL     1      -5.423  21.138  68.143  1.00  0.00     0.000 HD 
HETATM    5  OXT UNL     1      -5.302  17.584  69.718  1.00  0.00    -0.182 OA 
HETATM    6  C   UNL     1      -5.493  18.630  69.117  1.00  0.00    -0.205 C  
HETATM    7  O   UNL     1      -5.138  18.823  67.820  1.00  0.00    -0.162 OA 
ENDROOT
BRANCH   2   8
HETATM    8  C   UNL     1      -7.453  19.557  70.448  1.00  0.00     0.852 C  
BRANCH   8   9
HETATM    9  C   UNL     1      -8.710  19.680  69.616  1.00  0.00     0.490 A  
HETATM   10  C   UNL     1      -9.837  20.349  70.122  1.00  0.00     0.835 A  
HETATM   11  C   UNL     1     -10.998  20.414  69.359  1.00  0.00     1.322 A  
HETATM   12  C   UNL     1     -11.049  19.828  68.096  1.00  0.00     0.559 A  
HETATM   13  O   UNL     1     -12.125  21.039  69.816  1.00  0.00     2.281 OA 
HETATM   14  H   UNL     1     -12.918  21.084  69.294  1.00  0.00     0.000 HD 
HETATM   15  O   UNL     1     -12.200  19.886  67.366  1.00  0.00     1.693 OA 
HETATM   16  C   UNL     1      -9.946  19.174  67.572  1.00  0.00    -0.433 A  
HETATM   17  C   UNL     1      -8.787  19.105  68.338  1.00  0.00    -0.347 A  
HETATM   18  H   UNL     1     -12.235  19.486  66.505  1.00  0.00     0.000 HD 
HETATM   19  F   UNL     1      -7.728  18.439  67.853  1.00  0.00    -0.232 F  
ENDBRANCH   8   9
ENDBRANCH   2   8
TORSDOF 2
ENDMDL
