MODEL        1
REMARK 921   NORMALIZED FREE ENERGY PREDICTED BY IDOCK:   -8.08 KCAL/MOL
REMARK 922        TOTAL FREE ENERGY PREDICTED BY IDOCK:   -8.39 KCAL/MOL
REMARK 923 INTER-LIGAND FREE ENERGY PREDICTED BY IDOCK:   -9.03 KCAL/MOL
REMARK 924 INTRA-LIGAND FREE ENERGY PREDICTED BY IDOCK:    0.64 KCAL/MOL
REMARK 927      BINDING AFFINITY PREDICTED BY RF-SCORE:    0.00 PKD
ROOT
HETATM    1  C   UNL     1     -11.656  14.770  69.020  1.00  0.00    -0.324 C  
HETATM    2  C   UNL     1     -10.806  15.298  70.021  1.00  0.00    -0.303 C  
HETATM    3  C   UNL     1     -10.121  14.561  68.907  1.00  0.00    -0.224 C  
HETATM    4  C   UNL     1     -11.182  14.214  67.157  1.00  0.00    -0.317 C  
HETATM    5  O   UNL     1     -12.596  14.651  67.066  1.00  0.00    -0.431 OA 
HETATM    6  C   UNL     1     -11.392   9.866  68.142  1.00  0.00    -0.027 C  
HETATM    7  C   UNL     1     -10.445  15.270  67.601  1.00  0.00    -0.263 C  
HETATM    8  C   UNL     1      -9.056  14.024  67.166  1.00  0.00    -0.239 C  
HETATM    9  C   UNL     1     -10.496  16.732  67.278  1.00  0.00    -0.310 C  
HETATM   10  C   UNL     1     -10.537  10.497  69.234  1.00  0.00    -0.265 C  
HETATM   11  C   UNL     1      -9.061   9.918  69.441  1.00  0.00    -0.216 C  
HETATM   12  H   UNL     1     -13.081  14.492  66.266  1.00  0.00     0.000 HD 
HETATM   13  C   UNL     1      -9.555  12.400  67.500  1.00  0.00    -0.185 C  
HETATM   14  C   UNL     1      -8.536   9.390  70.549  1.00  0.00    -0.251 C  
HETATM   15  O   UNL     1      -9.926   7.423  70.483  1.00  0.00    -0.184 OA 
HETATM   16  O   UNL     1     -10.334  11.986  66.367  1.00  0.00    -0.210 OA 
HETATM   17  C   UNL     1     -10.372  12.019  68.910  1.00  0.00    -0.117 C  
HETATM   18  H   UNL     1     -10.607  11.095  66.551  1.00  0.00     0.000 HD 
HETATM   19  C   UNL     1     -11.784  12.950  69.200  1.00  0.00    -0.376 C  
HETATM   20  C   UNL     1     -12.347  12.643  70.590  1.00  0.00    -0.375 C  
HETATM   21  C   UNL     1     -12.531  11.153  70.820  1.00  0.00    -0.384 C  
HETATM   22  F   UNL     1     -12.978  10.990  72.099  1.00  0.00    -0.553 F  
HETATM   23  C   UNL     1     -11.296  10.328  70.572  1.00  0.00    -0.422 C  
HETATM   24  C   UNL     1     -10.862   9.398  71.440  1.00  0.00    -0.430 C  
HETATM   25  C   UNL     1      -9.791   8.581  70.854  1.00  0.00    -0.189 C  
ENDROOT
BRANCH   4  26
HETATM   26  C   UNL     1     -10.883  14.512  65.405  1.00  0.00    -0.354 C  
HETATM   27  O   UNL     1      -9.787  14.370  64.840  1.00  0.00    -0.207 OA 
BRANCH  26  28
HETATM   28  C   UNL     1     -11.984  15.119  64.449  1.00  0.00    -0.310 C  
HETATM   29  O   UNL     1     -11.582  16.374  63.869  1.00  0.00    -1.564 OA 
HETATM   30  H   UNL     1     -12.244  16.739  63.294  1.00  0.00     0.000 HD 
ENDBRANCH  26  28
ENDBRANCH   4  26
TORSDOF 2
ENDMDL
MODEL        2
REMARK 921   NORMALIZED FREE ENERGY PREDICTED BY IDOCK:   -7.64 KCAL/MOL
REMARK 922        TOTAL FREE ENERGY PREDICTED BY IDOCK:   -7.90 KCAL/MOL
REMARK 923 INTER-LIGAND FREE ENERGY PREDICTED BY IDOCK:   -8.42 KCAL/MOL
REMARK 924 INTRA-LIGAND FREE ENERGY PREDICTED BY IDOCK:    0.52 KCAL/MOL
REMARK 927      BINDING AFFINITY PREDICTED BY RF-SCORE:    0.00 PKD
ROOT
HETATM    1  C   UNL     1     -11.813  13.672  68.053  1.00  0.00    -0.397 C  
HETATM    2  C   UNL     1     -11.109  14.547  68.914  1.00  0.00    -0.273 C  
HETATM    3  C   UNL     1     -10.263  13.738  67.975  1.00  0.00    -0.248 C  
HETATM    4  C   UNL     1     -11.184  12.839  66.346  1.00  0.00    -0.299 C  
HETATM    5  O   UNL     1     -12.650  12.973  66.176  1.00  0.00    -0.421 OA 
HETATM    6  C   UNL     1     -10.614   8.832  68.228  1.00  0.00    -0.194 C  
HETATM    7  C   UNL     1     -10.670  14.085  66.551  1.00  0.00    -0.281 C  
HETATM    8  C   UNL     1      -9.061  13.060  66.378  1.00  0.00    -0.073 C  
HETATM    9  C   UNL     1     -10.982  15.410  65.928  1.00  0.00    -0.293 C  
HETATM   10  C   UNL     1      -9.926   9.827  69.154  1.00  0.00    -0.195 C  
HETATM   11  C   UNL     1      -8.376   9.593  69.468  1.00  0.00    -0.154 C  
HETATM   12  H   UNL     1     -13.072  12.562  65.431  1.00  0.00     0.000 HD 
HETATM   13  C   UNL     1      -9.259  11.477  67.051  1.00  0.00    -0.176 C  
HETATM   14  C   UNL     1      -7.798   9.416  70.659  1.00  0.00    -0.178 C  
HETATM   15  O   UNL     1      -8.795   7.253  71.019  1.00  0.00    -0.142 OA 
HETATM   16  O   UNL     1      -9.911  10.697  66.037  1.00  0.00    -0.208 OA 
HETATM   17  C   UNL     1     -10.036  11.251  68.516  1.00  0.00    -0.210 C  
HETATM   18  H   UNL     1     -10.020   9.828  66.406  1.00  0.00     0.000 HD 
HETATM   19  C   UNL     1     -11.606  11.939  68.614  1.00  0.00    -0.366 C  
HETATM   20  C   UNL     1     -12.147  11.828  70.042  1.00  0.00    -0.387 C  
HETATM   21  C   UNL     1     -12.058  10.412  70.583  1.00  0.00    -0.348 C  
HETATM   22  F   UNL     1     -12.508  10.437  71.871  1.00  0.00    -0.463 F  
HETATM   23  C   UNL     1     -10.684   9.801  70.504  1.00  0.00    -0.381 C  
HETATM   24  C   UNL     1     -10.113   9.171  71.545  1.00  0.00    -0.381 C  
HETATM   25  C   UNL     1      -8.890   8.467  71.137  1.00  0.00    -0.179 C  
ENDROOT
BRANCH   4  26
HETATM   26  C   UNL     1     -10.889  12.817  64.568  1.00  0.00    -0.347 C  
HETATM   27  O   UNL     1      -9.772  12.909  64.035  1.00  0.00    -0.145 OA 
BRANCH  26  28
HETATM   28  C   UNL     1     -12.065  12.810  63.515  1.00  0.00    -0.559 C  
HETATM   29  O   UNL     1     -12.480  14.138  63.141  1.00  0.00    -1.126 OA 
HETATM   30  H   UNL     1     -13.188  14.134  62.507  1.00  0.00     0.000 HD 
ENDBRANCH  26  28
ENDBRANCH   4  26
TORSDOF 2
ENDMDL
MODEL        3
REMARK 921   NORMALIZED FREE ENERGY PREDICTED BY IDOCK:   -7.30 KCAL/MOL
REMARK 922        TOTAL FREE ENERGY PREDICTED BY IDOCK:   -7.52 KCAL/MOL
REMARK 923 INTER-LIGAND FREE ENERGY PREDICTED BY IDOCK:   -8.01 KCAL/MOL
REMARK 924 INTRA-LIGAND FREE ENERGY PREDICTED BY IDOCK:    0.50 KCAL/MOL
REMARK 927      BINDING AFFINITY PREDICTED BY RF-SCORE:    0.00 PKD
ROOT
HETATM    1  C   UNL     1     -10.972  12.680  63.848  1.00  0.00    -0.468 C  
HETATM    2  C   UNL     1     -12.170  12.028  63.471  1.00  0.00    -0.653 C  
HETATM    3  C   UNL     1     -12.028  12.333  64.934  1.00  0.00    -0.420 C  
HETATM    4  C   UNL     1     -10.598  13.722  65.514  1.00  0.00    -0.307 C  
HETATM    5  O   UNL     1      -9.724  14.337  64.487  1.00  0.00    -0.539 OA 
HETATM    6  C   UNL     1      -8.138  10.453  67.298  1.00  0.00    -0.114 C  
HETATM    7  C   UNL     1     -11.888  13.840  65.091  1.00  0.00    -0.365 C  
HETATM    8  C   UNL     1     -12.154  13.171  66.867  1.00  0.00    -0.377 C  
HETATM    9  C   UNL     1     -12.622  14.957  64.416  1.00  0.00    -0.050 C  
HETATM   10  C   UNL     1      -9.421   9.790  66.814  1.00  0.00    -0.209 C  
HETATM   11  C   UNL     1     -10.288   8.987  67.891  1.00  0.00    -0.290 C  
HETATM   12  H   UNL     1      -9.070  14.973  64.752  1.00  0.00     0.000 HD 
HETATM   13  C   UNL     1     -10.899  12.062  67.306  1.00  0.00    -0.246 C  
HETATM   14  C   UNL     1     -10.645   7.701  67.863  1.00  0.00    -0.233 C  
HETATM   15  O   UNL     1      -8.402   6.888  68.203  1.00  0.00    -0.117 OA 
HETATM   16  O   UNL     1      -9.792  12.870  67.735  1.00  0.00    -0.209 OA 
HETATM   17  C   UNL     1     -10.359  10.899  66.231  1.00  0.00    -0.306 C  
HETATM   18  H   UNL     1      -9.103  12.261  67.975  1.00  0.00     0.000 HD 
HETATM   19  C   UNL     1      -9.858  11.502  64.704  1.00  0.00    -0.283 C  
HETATM   20  C   UNL     1      -9.555  10.346  63.748  1.00  0.00    -0.366 C  
HETATM   21  C   UNL     1      -8.601   9.332  64.356  1.00  0.00    -0.195 C  
HETATM   22  F   UNL     1      -8.446   8.323  63.450  1.00  0.00    -0.155 F  
HETATM   23  C   UNL     1      -9.032   8.794  65.694  1.00  0.00    -0.248 C  
HETATM   24  C   UNL     1      -9.030   7.481  65.979  1.00  0.00    -0.164 C  
HETATM   25  C   UNL     1      -9.263   7.246  67.410  1.00  0.00    -0.128 C  
ENDROOT
BRANCH   4  26
HETATM   26  C   UNL     1     -10.608  15.213  66.528  1.00  0.00    -0.304 C  
HETATM   27  O   UNL     1     -11.401  15.431  67.457  1.00  0.00    -0.328 OA 
BRANCH  26  28
HETATM   28  C   UNL     1      -9.672  16.448  66.226  1.00  0.00    -0.308 C  
HETATM   29  O   UNL     1     -10.288  17.406  65.345  1.00  0.00    -0.631 OA 
HETATM   30  H   UNL     1      -9.725  18.149  65.163  1.00  0.00     0.000 HD 
ENDBRANCH  26  28
ENDBRANCH   4  26
TORSDOF 2
ENDMDL
MODEL        4
REMARK 921   NORMALIZED FREE ENERGY PREDICTED BY IDOCK:   -7.28 KCAL/MOL
REMARK 922        TOTAL FREE ENERGY PREDICTED BY IDOCK:   -7.49 KCAL/MOL
REMARK 923 INTER-LIGAND FREE ENERGY PREDICTED BY IDOCK:   -8.13 KCAL/MOL
REMARK 924 INTRA-LIGAND FREE ENERGY PREDICTED BY IDOCK:    0.64 KCAL/MOL
REMARK 927      BINDING AFFINITY PREDICTED BY RF-SCORE:    0.00 PKD
ROOT
HETATM    1  C   UNL     1      -9.810  13.166  67.828  1.00  0.00    -0.228 C  
HETATM    2  C   UNL     1     -10.703  13.234  68.923  1.00  0.00    -0.215 C  
HETATM    3  C   UNL     1     -11.158  13.923  67.670  1.00  0.00    -0.295 C  
HETATM    4  C   UNL     1     -10.204  13.452  65.887  1.00  0.00    -0.299 C  
HETATM    5  O   UNL     1      -9.073  12.494  65.900  1.00  0.00    -0.433 OA 
HETATM    6  C   UNL     1      -8.286  17.482  65.843  1.00  0.00     0.002 C  
HETATM    7  C   UNL     1     -11.242  12.883  66.562  1.00  0.00    -0.340 C  
HETATM    8  C   UNL     1     -12.092  14.446  65.851  1.00  0.00    -0.358 C  
HETATM    9  C   UNL     1     -11.774  11.483  66.585  1.00  0.00     0.048 C  
HETATM   10  C   UNL     1      -9.216  17.478  67.051  1.00  0.00    -0.253 C  
HETATM   11  C   UNL     1     -10.340  18.613  67.119  1.00  0.00    -0.442 C  
HETATM   12  H   UNL     1      -8.636  12.278  65.084  1.00  0.00     0.000 HD 
HETATM   13  C   UNL     1     -10.992  15.782  65.802  1.00  0.00    -0.214 C  
HETATM   14  C   UNL     1     -10.528  19.526  68.075  1.00  0.00    -0.528 C  
HETATM   15  O   UNL     1      -8.511  20.739  67.557  1.00  0.00    -0.261 OA 
HETATM   16  O   UNL     1     -10.218  15.611  64.604  1.00  0.00    -0.505 OA 
HETATM   17  C   UNL     1      -9.970  16.108  67.086  1.00  0.00    -0.251 C  
HETATM   18  H   UNL     1      -9.614  16.344  64.578  1.00  0.00     0.000 HD 
HETATM   19  C   UNL     1      -8.991  14.787  67.584  1.00  0.00    -0.183 C  
HETATM   20  C   UNL     1      -8.233  15.141  68.866  1.00  0.00    -0.181 C  
HETATM   21  C   UNL     1      -7.483  16.456  68.746  1.00  0.00    -0.207 C  
HETATM   22  F   UNL     1      -6.895  16.702  69.953  1.00  0.00    -0.205 F  
HETATM   23  C   UNL     1      -8.333  17.620  68.314  1.00  0.00    -0.274 C  
HETATM   24  C   UNL     1      -8.306  18.808  68.944  1.00  0.00    -0.244 C  
HETATM   25  C   UNL     1      -9.039  19.830  68.185  1.00  0.00    -0.314 C  
ENDROOT
BRANCH   4  26
HETATM   26  C   UNL     1     -10.748  12.926  64.250  1.00  0.00    -0.406 C  
HETATM   27  O   UNL     1     -11.811  13.275  63.713  1.00  0.00    -0.453 OA 
BRANCH  26  28
HETATM   28  C   UNL     1      -9.962  11.852  63.402  1.00  0.00    -0.410 C  
HETATM   29  O   UNL     1     -10.828  10.840  62.854  1.00  0.00    -0.686 OA 
HETATM   30  H   UNL     1     -10.355  10.194  62.343  1.00  0.00     0.000 HD 
ENDBRANCH  26  28
ENDBRANCH   4  26
TORSDOF 2
ENDMDL
MODEL        5
REMARK 921   NORMALIZED FREE ENERGY PREDICTED BY IDOCK:   -7.26 KCAL/MOL
REMARK 922        TOTAL FREE ENERGY PREDICTED BY IDOCK:   -7.47 KCAL/MOL
REMARK 923 INTER-LIGAND FREE ENERGY PREDICTED BY IDOCK:   -7.93 KCAL/MOL
REMARK 924 INTRA-LIGAND FREE ENERGY PREDICTED BY IDOCK:    0.46 KCAL/MOL
REMARK 927      BINDING AFFINITY PREDICTED BY RF-SCORE:    0.00 PKD
ROOT
HETATM    1  C   UNL     1     -10.160   9.981  65.741  1.00  0.00    -0.320 C  
HETATM    2  C   UNL     1      -9.110  10.006  64.793  1.00  0.00    -0.268 C  
HETATM    3  C   UNL     1      -8.774  10.554  66.149  1.00  0.00    -0.167 C  
HETATM    4  C   UNL     1     -10.033  10.095  67.735  1.00  0.00    -0.168 C  
HETATM    5  O   UNL     1     -11.251   9.287  67.485  1.00  0.00    -0.410 OA 
HETATM    6  C   UNL     1     -11.466  14.321  67.827  1.00  0.00    -0.354 C  
HETATM    7  C   UNL     1      -8.976   9.445  67.171  1.00  0.00    -0.144 C  
HETATM    8  C   UNL     1      -8.071  10.843  68.118  1.00  0.00    -0.119 C  
HETATM    9  C   UNL     1      -8.610   7.994  67.112  1.00  0.00    -0.124 C  
HETATM   10  C   UNL     1     -10.371  14.277  66.768  1.00  0.00    -0.274 C  
HETATM   11  C   UNL     1      -9.128  15.265  66.951  1.00  0.00    -0.263 C  
HETATM   12  H   UNL     1     -11.827   9.077  68.211  1.00  0.00     0.000 HD 
HETATM   13  C   UNL     1      -9.008  12.299  68.117  1.00  0.00    -0.192 C  
HETATM   14  C   UNL     1      -8.697  16.206  66.107  1.00  0.00    -0.358 C  
HETATM   15  O   UNL     1     -10.617  17.625  66.427  1.00  0.00    -0.308 OA 
HETATM   16  O   UNL     1      -9.967  12.151  69.175  1.00  0.00    -0.411 OA 
HETATM   17  C   UNL     1      -9.781  12.829  66.730  1.00  0.00    -0.243 C  
HETATM   18  H   UNL     1     -10.482  12.950  69.174  1.00  0.00     0.000 HD 
HETATM   19  C   UNL     1     -10.817  11.673  65.995  1.00  0.00    -0.339 C  
HETATM   20  C   UNL     1     -11.328  12.197  64.651  1.00  0.00    -0.382 C  
HETATM   21  C   UNL     1     -11.934  13.585  64.767  1.00  0.00    -0.390 C  
HETATM   22  F   UNL     1     -12.301  13.976  63.512  1.00  0.00    -0.518 F  
HETATM   23  C   UNL     1     -11.032  14.606  65.407  1.00  0.00    -0.358 C  
HETATM   24  C   UNL     1     -10.829  15.825  64.876  1.00  0.00    -0.433 C  
HETATM   25  C   UNL     1     -10.108  16.699  65.811  1.00  0.00    -0.277 C  
ENDROOT
BRANCH   4  26
HETATM   26  C   UNL     1      -9.805   9.405  69.385  1.00  0.00    -0.178 C  
HETATM   27  O   UNL     1      -8.830   9.634  70.118  1.00  0.00    -0.213 OA 
BRANCH  26  28
HETATM   28  C   UNL     1     -10.784   8.327  69.995  1.00  0.00    -0.239 C  
HETATM   29  O   UNL     1     -12.063   8.883  70.354  1.00  0.00    -0.476 OA 
HETATM   30  H   UNL     1     -12.652   8.234  70.721  1.00  0.00     0.000 HD 
ENDBRANCH  26  28
ENDBRANCH   4  26
TORSDOF 2
ENDMDL
MODEL        6
REMARK 921   NORMALIZED FREE ENERGY PREDICTED BY IDOCK:   -7.18 KCAL/MOL
REMARK 922        TOTAL FREE ENERGY PREDICTED BY IDOCK:   -7.38 KCAL/MOL
REMARK 923 INTER-LIGAND FREE ENERGY PREDICTED BY IDOCK:   -7.84 KCAL/MOL
REMARK 924 INTRA-LIGAND FREE ENERGY PREDICTED BY IDOCK:    0.45 KCAL/MOL
REMARK 927      BINDING AFFINITY PREDICTED BY RF-SCORE:    0.00 PKD
ROOT
HETATM    1  C   UNL     1     -11.533  15.335  65.874  1.00  0.00    -0.092 C  
HETATM    2  C   UNL     1     -11.284  15.177  64.490  1.00  0.00    -0.283 C  
HETATM    3  C   UNL     1     -10.253  14.587  65.408  1.00  0.00    -0.415 C  
HETATM    4  C   UNL     1     -10.761  14.295  67.400  1.00  0.00    -0.282 C  
HETATM    5  O   UNL     1     -12.099  14.719  67.878  1.00  0.00    -0.560 OA 
HETATM    6  C   UNL     1      -8.021  17.611  68.591  1.00  0.00    -0.275 C  
HETATM    7  C   UNL     1     -10.936  13.542  66.277  1.00  0.00    -0.293 C  
HETATM    8  C   UNL     1      -9.061  13.300  66.581  1.00  0.00    -0.181 C  
HETATM    9  C   UNL     1     -11.948  12.497  65.922  1.00  0.00    -0.472 C  
HETATM   10  C   UNL     1      -7.840  17.442  67.087  1.00  0.00    -0.226 C  
HETATM   11  C   UNL     1      -6.363  17.142  66.552  1.00  0.00    -0.253 C  
HETATM   12  H   UNL     1     -12.332  14.585  68.789  1.00  0.00     0.000 HD 
HETATM   13  C   UNL     1      -8.347  14.738  67.229  1.00  0.00    -0.212 C  
HETATM   14  C   UNL     1      -5.647  17.853  65.678  1.00  0.00    -0.181 C  
HETATM   15  O   UNL     1      -5.354  19.723  67.169  1.00  0.00    -0.164 OA 
HETATM   16  O   UNL     1      -8.617  14.711  68.639  1.00  0.00    -0.165 OA 
HETATM   17  C   UNL     1      -8.731  16.247  66.615  1.00  0.00    -0.294 C  
HETATM   18  H   UNL     1      -8.226  15.500  68.995  1.00  0.00     0.000 HD 
HETATM   19  C   UNL     1     -10.410  16.603  66.575  1.00  0.00    -0.300 C  
HETATM   20  C   UNL     1     -10.656  17.922  65.837  1.00  0.00    -0.216 C  
HETATM   21  C   UNL     1      -9.797  19.052  66.378  1.00  0.00    -0.378 C  
HETATM   22  F   UNL     1     -10.050  20.157  65.618  1.00  0.00    -0.519 F  
HETATM   23  C   UNL     1      -8.322  18.750  66.414  1.00  0.00    -0.294 C  
HETATM   24  C   UNL     1      -7.398  19.606  65.944  1.00  0.00    -0.320 C  
HETATM   25  C   UNL     1      -6.041  19.181  66.314  1.00  0.00    -0.170 C  
ENDROOT
BRANCH   4  26
HETATM   26  C   UNL     1     -10.697  12.901  68.540  1.00  0.00    -0.254 C  
HETATM   27  O   UNL     1      -9.847  11.997  68.504  1.00  0.00    -0.209 OA 
BRANCH  26  28
HETATM   28  C   UNL     1     -11.817  12.638  69.621  1.00  0.00    -0.311 C  
HETATM   29  O   UNL     1     -11.774  13.586  70.703  1.00  0.00    -0.517 OA 
HETATM   30  H   UNL     1     -12.449  13.428  71.354  1.00  0.00     0.000 HD 
ENDBRANCH  26  28
ENDBRANCH   4  26
TORSDOF 2
ENDMDL
MODEL        7
REMARK 921   NORMALIZED FREE ENERGY PREDICTED BY IDOCK:   -6.99 KCAL/MOL
REMARK 922        TOTAL FREE ENERGY PREDICTED BY IDOCK:   -7.17 KCAL/MOL
REMARK 923 INTER-LIGAND FREE ENERGY PREDICTED BY IDOCK:   -7.73 KCAL/MOL
REMARK 924 INTRA-LIGAND FREE ENERGY PREDICTED BY IDOCK:    0.56 KCAL/MOL
REMARK 927      BINDING AFFINITY PREDICTED BY RF-SCORE:    0.00 PKD
ROOT
HETATM    1  C   UNL     1      -9.015  15.500  69.149  1.00  0.00    -0.256 C  
HETATM    2  C   UNL     1      -7.860  14.683  69.141  1.00  0.00    -0.107 C  
HETATM    3  C   UNL     1      -8.101  15.480  67.893  1.00  0.00    -0.147 C  
HETATM    4  C   UNL     1      -9.429  17.074  67.985  1.00  0.00    -0.256 C  
HETATM    5  O   UNL     1     -10.141  17.353  69.255  1.00  0.00    -0.264 OA 
HETATM    6  C   UNL     1     -12.357  14.782  65.515  1.00  0.00    -0.059 C  
HETATM    7  C   UNL     1      -8.101  16.955  68.266  1.00  0.00    -0.217 C  
HETATM    8  C   UNL     1      -8.064  16.922  66.351  1.00  0.00    -0.350 C  
HETATM    9  C   UNL     1      -7.201  17.722  69.185  1.00  0.00    -0.147 C  
HETATM   10  C   UNL     1     -11.109  13.911  65.593  1.00  0.00    -0.298 C  
HETATM   11  C   UNL     1     -10.428  13.474  64.215  1.00  0.00    -0.258 C  
HETATM   12  H   UNL     1     -10.748  18.082  69.297  1.00  0.00     0.000 HD 
HETATM   13  C   UNL     1      -9.459  16.114  65.719  1.00  0.00    -0.219 C  
HETATM   14  C   UNL     1     -10.202  12.236  63.768  1.00  0.00    -0.427 C  
HETATM   15  O   UNL     1     -12.536  11.736  63.444  1.00  0.00    -0.558 OA 
HETATM   16  O   UNL     1     -10.513  17.090  65.719  1.00  0.00    -0.448 OA 
HETATM   17  C   UNL     1     -10.016  14.690  66.398  1.00  0.00    -0.296 C  
HETATM   18  H   UNL     1     -11.278  16.647  65.373  1.00  0.00     0.000 HD 
HETATM   19  C   UNL     1     -10.314  14.763  68.087  1.00  0.00    -0.239 C  
HETATM   20  C   UNL     1     -10.645  13.371  68.629  1.00  0.00    -0.257 C  
HETATM   21  C   UNL     1     -11.748  12.691  67.836  1.00  0.00    -0.358 C  
HETATM   22  F   UNL     1     -11.922  11.444  68.362  1.00  0.00    -0.369 F  
HETATM   23  C   UNL     1     -11.494  12.619  66.353  1.00  0.00    -0.409 C  
HETATM   24  C   UNL     1     -11.655  11.486  65.647  1.00  0.00     0.034 C  
HETATM   25  C   UNL     1     -11.576  11.743  64.203  1.00  0.00    -0.307 C  
ENDROOT
BRANCH   4  26
HETATM   26  C   UNL     1      -9.360  18.818  67.535  1.00  0.00    -0.290 C  
HETATM   27  O   UNL     1      -8.506  19.322  66.789  1.00  0.00    -0.280 OA 
BRANCH  26  28
HETATM   28  C   UNL     1     -10.324  19.895  68.170  1.00  0.00    -0.397 C  
HETATM   29  O   UNL     1     -10.177  19.993  69.600  1.00  0.00    -0.552 OA 
HETATM   30  H   UNL     1     -10.757  20.641  69.982  1.00  0.00     0.000 HD 
ENDBRANCH  26  28
ENDBRANCH   4  26
TORSDOF 2
ENDMDL
MODEL        8
REMARK 921   NORMALIZED FREE ENERGY PREDICTED BY IDOCK:   -6.98 KCAL/MOL
REMARK 922        TOTAL FREE ENERGY PREDICTED BY IDOCK:   -7.16 KCAL/MOL
REMARK 923 INTER-LIGAND FREE ENERGY PREDICTED BY IDOCK:   -7.72 KCAL/MOL
REMARK 924 INTRA-LIGAND FREE ENERGY PREDICTED BY IDOCK:    0.55 KCAL/MOL
REMARK 927      BINDING AFFINITY PREDICTED BY RF-SCORE:    0.00 PKD
ROOT
HETATM    1  C   UNL     1      -8.038  13.631  67.300  1.00  0.00    -0.152 C  
HETATM    2  C   UNL     1      -7.494  13.651  68.607  1.00  0.00    -0.113 C  
HETATM    3  C   UNL     1      -8.965  13.932  68.510  1.00  0.00    -0.141 C  
HETATM    4  C   UNL     1      -9.952  13.419  66.757  1.00  0.00    -0.264 C  
HETATM    5  O   UNL     1      -9.180  12.840  65.632  1.00  0.00    -0.446 OA 
HETATM    6  C   UNL     1     -10.392  17.741  65.734  1.00  0.00    -0.190 C  
HETATM    7  C   UNL     1      -9.638  12.720  67.885  1.00  0.00    -0.211 C  
HETATM    8  C   UNL     1     -11.072  13.814  68.531  1.00  0.00    -0.292 C  
HETATM    9  C   UNL     1      -9.422  11.258  68.128  1.00  0.00    -0.184 C  
HETATM   10  C   UNL     1      -9.746  17.705  67.114  1.00  0.00    -0.291 C  
HETATM   11  C   UNL     1     -10.499  18.468  68.301  1.00  0.00    -0.326 C  
HETATM   12  H   UNL     1      -9.631  12.605  64.831  1.00  0.00     0.000 HD 
HETATM   13  C   UNL     1     -11.053  15.371  67.774  1.00  0.00    -0.320 C  
HETATM   14  C   UNL     1     -10.032  19.455  69.067  1.00  0.00    -0.477 C  
HETATM   15  O   UNL     1      -9.993  21.066  67.276  1.00  0.00    -0.315 OA 
HETATM   16  O   UNL     1     -11.704  15.200  66.505  1.00  0.00    -0.202 OA 
HETATM   17  C   UNL     1      -9.621  16.210  67.559  1.00  0.00    -0.229 C  
HETATM   18  H   UNL     1     -11.693  16.055  66.090  1.00  0.00     0.000 HD 
HETATM   19  C   UNL     1      -8.389  15.340  66.739  1.00  0.00    -0.258 C  
HETATM   20  C   UNL     1      -7.079  16.130  66.756  1.00  0.00    -0.152 C  
HETATM   21  C   UNL     1      -7.260  17.556  66.264  1.00  0.00    -0.316 C  
HETATM   22  F   UNL     1      -6.053  18.183  66.375  1.00  0.00    -0.167 F  
HETATM   23  C   UNL     1      -8.336  18.329  66.979  1.00  0.00    -0.256 C  
HETATM   24  C   UNL     1      -8.140  19.573  67.450  1.00  0.00    -0.315 C  
HETATM   25  C   UNL     1      -9.404  20.183  67.885  1.00  0.00    -0.290 C  
ENDROOT
BRANCH   4  26
HETATM   26  C   UNL     1     -11.425  12.459  66.359  1.00  0.00    -0.373 C  
HETATM   27  O   UNL     1     -12.022  11.717  67.154  1.00  0.00    -0.614 OA 
BRANCH  26  28
HETATM   28  C   UNL     1     -12.014  12.382  64.896  1.00  0.00    -0.398 C  
HETATM   29  O   UNL     1     -11.563  13.464  64.060  1.00  0.00    -0.423 OA 
HETATM   30  H   UNL     1     -11.918  13.417  63.180  1.00  0.00     0.000 HD 
ENDBRANCH  26  28
ENDBRANCH   4  26
TORSDOF 2
ENDMDL
MODEL        9
REMARK 921   NORMALIZED FREE ENERGY PREDICTED BY IDOCK:   -6.81 KCAL/MOL
REMARK 922        TOTAL FREE ENERGY PREDICTED BY IDOCK:   -6.97 KCAL/MOL
REMARK 923 INTER-LIGAND FREE ENERGY PREDICTED BY IDOCK:   -7.61 KCAL/MOL
REMARK 924 INTRA-LIGAND FREE ENERGY PREDICTED BY IDOCK:    0.64 KCAL/MOL
REMARK 927      BINDING AFFINITY PREDICTED BY RF-SCORE:    0.00 PKD
ROOT
HETATM    1  C   UNL     1     -11.027  12.687  64.986  1.00  0.00    -0.323 C  
HETATM    2  C   UNL     1     -12.352  12.253  64.742  1.00  0.00    -0.416 C  
HETATM    3  C   UNL     1     -12.119  12.915  66.068  1.00  0.00    -0.484 C  
HETATM    4  C   UNL     1     -10.391  14.040  66.316  1.00  0.00    -0.293 C  
HETATM    5  O   UNL     1      -9.412  14.120  65.207  1.00  0.00    -0.514 OA 
HETATM    6  C   UNL     1      -8.753  10.926  69.062  1.00  0.00    -0.108 C  
HETATM    7  C   UNL     1     -11.623  14.330  65.810  1.00  0.00    -0.346 C  
HETATM    8  C   UNL     1     -12.013  14.269  67.684  1.00  0.00    -0.400 C  
HETATM    9  C   UNL     1     -12.079  15.351  64.814  1.00  0.00    -0.034 C  
HETATM   10  C   UNL     1     -10.165  10.470  68.714  1.00  0.00    -0.205 C  
HETATM   11  C   UNL     1     -11.181  10.228  69.924  1.00  0.00    -0.360 C  
HETATM   12  H   UNL     1      -8.621  14.635  65.320  1.00  0.00     0.000 HD 
HETATM   13  C   UNL     1     -11.051  13.068  68.479  1.00  0.00    -0.266 C  
HETATM   14  C   UNL     1     -11.834   9.105  70.234  1.00  0.00     0.032 C  
HETATM   15  O   UNL     1      -9.844   7.924  70.904  1.00  0.00    -0.178 OA 
HETATM   16  O   UNL     1      -9.778  13.684  68.726  1.00  0.00    -0.375 OA 
HETATM   17  C   UNL     1     -10.820  11.557  67.799  1.00  0.00    -0.270 C  
HETATM   18  H   UNL     1      -9.250  13.025  69.161  1.00  0.00     0.000 HD 
HETATM   19  C   UNL     1     -10.213  11.573  66.193  1.00  0.00    -0.272 C  
HETATM   20  C   UNL     1     -10.208  10.157  65.612  1.00  0.00    -0.288 C  
HETATM   21  C   UNL     1      -9.513   9.162  66.525  1.00  0.00    -0.208 C  
HETATM   22  F   UNL     1      -9.617   7.932  65.944  1.00  0.00    -0.197 F  
HETATM   23  C   UNL     1     -10.040   9.139  67.935  1.00  0.00    -0.246 C  
HETATM   24  C   UNL     1     -10.346   7.995  68.572  1.00  0.00    -0.229 C  
HETATM   25  C   UNL     1     -10.607   8.233  69.999  1.00  0.00    -0.235 C  
ENDROOT
BRANCH   4  26
HETATM   26  C   UNL     1     -10.030  15.715  66.876  1.00  0.00    -0.248 C  
HETATM   27  O   UNL     1     -10.693  16.336  67.722  1.00  0.00    -0.315 OA 
BRANCH  26  28
HETATM   28  C   UNL     1      -8.895  16.599  66.226  1.00  0.00    -0.312 C  
HETATM   29  O   UNL     1      -9.361  17.908  65.849  1.00  0.00    -0.520 OA 
HETATM   30  H   UNL     1      -8.678  18.440  65.458  1.00  0.00     0.000 HD 
ENDBRANCH  26  28
ENDBRANCH   4  26
TORSDOF 2
ENDMDL
MODEL       10
REMARK 921   NORMALIZED FREE ENERGY PREDICTED BY IDOCK:   -6.81 KCAL/MOL
REMARK 922        TOTAL FREE ENERGY PREDICTED BY IDOCK:   -6.97 KCAL/MOL
REMARK 923 INTER-LIGAND FREE ENERGY PREDICTED BY IDOCK:   -8.10 KCAL/MOL
REMARK 924 INTRA-LIGAND FREE ENERGY PREDICTED BY IDOCK:    1.13 KCAL/MOL
REMARK 927      BINDING AFFINITY PREDICTED BY RF-SCORE:    0.00 PKD
ROOT
HETATM    1  C   UNL     1      -9.207  16.275  69.227  1.00  0.00    -0.192 C  
HETATM    2  C   UNL     1      -8.097  15.407  69.360  1.00  0.00    -0.249 C  
HETATM    3  C   UNL     1      -8.244  16.075  68.024  1.00  0.00    -0.151 C  
HETATM    4  C   UNL     1      -9.490  17.730  67.884  1.00  0.00    -0.270 C  
HETATM    5  O   UNL     1     -10.238  18.180  69.082  1.00  0.00    -0.413 OA 
HETATM    6  C   UNL     1     -12.428  15.326  65.538  1.00  0.00     0.635 C  
HETATM    7  C   UNL     1      -8.182  17.580  68.238  1.00  0.00    -0.263 C  
HETATM    8  C   UNL     1      -8.068  17.337  66.341  1.00  0.00    -0.328 C  
HETATM    9  C   UNL     1      -7.282  18.399  69.111  1.00  0.00    -0.193 C  
HETATM   10  C   UNL     1     -11.232  14.410  65.767  1.00  0.00    -0.326 C  
HETATM   11  C   UNL     1     -10.518  13.793  64.476  1.00  0.00    -0.378 C  
HETATM   12  H   UNL     1     -10.807  18.937  69.018  1.00  0.00     0.000 HD 
HETATM   13  C   UNL     1      -9.476  16.533  65.734  1.00  0.00    -0.114 C  
HETATM   14  C   UNL     1     -10.339  12.505  64.175  1.00  0.00    -0.416 C  
HETATM   15  O   UNL     1     -12.681  12.085  63.798  1.00  0.00    -0.608 OA 
HETATM   16  O   UNL     1     -10.476  17.552  65.581  1.00  0.00    -0.588 OA 
HETATM   17  C   UNL     1     -10.134  15.219  66.534  1.00  0.00    -0.280 C  
HETATM   18  H   UNL     1     -11.249  17.110  65.248  1.00  0.00     0.000 HD 
HETATM   19  C   UNL     1     -10.498  15.489  68.190  1.00  0.00    -0.259 C  
HETATM   20  C   UNL     1     -10.923  14.181  68.861  1.00  0.00    -0.280 C  
HETATM   21  C   UNL     1     -12.026  13.473  68.094  1.00  0.00    -0.341 C  
HETATM   22  F   UNL     1     -12.287  12.300  68.742  1.00  0.00    -0.279 F  
HETATM   23  C   UNL     1     -11.716  13.228  66.641  1.00  0.00    -0.425 C  
HETATM   24  C   UNL     1     -11.906  12.034  66.053  1.00  0.00    -0.223 C  
HETATM   25  C   UNL     1     -11.754  12.128  64.595  1.00  0.00    -0.332 C  
ENDROOT
BRANCH   4  26
HETATM   26  C   UNL     1      -9.311  19.410  67.254  1.00  0.00    -0.314 C  
HETATM   27  O   UNL     1     -10.254  20.183  67.024  1.00  0.00    -0.432 OA 
BRANCH  26  28
HETATM   28  C   UNL     1      -7.917  20.004  66.810  1.00  0.00    -0.314 C  
HETATM   29  O   UNL     1      -7.754  21.381  67.198  1.00  0.00    -0.767 OA 
HETATM   30  H   UNL     1      -6.915  21.738  66.931  1.00  0.00     0.000 HD 
ENDBRANCH  26  28
ENDBRANCH   4  26
TORSDOF 2
ENDMDL
MODEL       11
REMARK 921   NORMALIZED FREE ENERGY PREDICTED BY IDOCK:   -6.70 KCAL/MOL
REMARK 922        TOTAL FREE ENERGY PREDICTED BY IDOCK:   -6.84 KCAL/MOL
REMARK 923 INTER-LIGAND FREE ENERGY PREDICTED BY IDOCK:   -8.06 KCAL/MOL
REMARK 924 INTRA-LIGAND FREE ENERGY PREDICTED BY IDOCK:    1.21 KCAL/MOL
REMARK 927      BINDING AFFINITY PREDICTED BY RF-SCORE:    0.00 PKD
ROOT
HETATM    1  C   UNL     1     -11.264  14.727  65.816  1.00  0.00    -0.337 C  
HETATM    2  C   UNL     1     -10.383  14.447  64.744  1.00  0.00    -0.352 C  
HETATM    3  C   UNL     1      -9.849  14.161  66.117  1.00  0.00    -0.326 C  
HETATM    4  C   UNL     1     -11.198  14.031  67.690  1.00  0.00    -0.297 C  
HETATM    5  O   UNL     1     -12.638  14.272  67.434  1.00  0.00    -0.531 OA 
HETATM    6  C   UNL     1      -9.667  17.891  69.328  1.00  0.00     0.004 C  
HETATM    7  C   UNL     1     -10.754  13.128  66.771  1.00  0.00    -0.274 C  
HETATM    8  C   UNL     1      -9.224  13.252  67.917  1.00  0.00    -0.213 C  
HETATM    9  C   UNL     1     -11.376  11.887  66.207  1.00  0.00    -0.394 C  
HETATM   10  C   UNL     1      -8.789  17.573  68.124  1.00  0.00    -0.263 C  
HETATM   11  C   UNL     1      -7.212  17.469  68.368  1.00  0.00    -0.226 C  
HETATM   12  H   UNL     1     -13.255  14.213  68.153  1.00  0.00     0.000 HD 
HETATM   13  C   UNL     1      -9.039  14.860  68.531  1.00  0.00    -0.191 C  
HETATM   14  C   UNL     1      -6.243  18.181  67.787  1.00  0.00    -0.176 C  
HETATM   15  O   UNL     1      -6.863  20.241  68.872  1.00  0.00    -0.266 OA 
HETATM   16  O   UNL     1      -9.932  14.959  69.651  1.00  0.00    -0.392 OA 
HETATM   17  C   UNL     1      -9.236  16.193  67.539  1.00  0.00    -0.210 C  
HETATM   18  H   UNL     1      -9.831  15.842  69.988  1.00  0.00     0.000 HD 
HETATM   19  C   UNL     1     -10.727  16.247  66.690  1.00  0.00    -0.197 C  
HETATM   20  C   UNL     1     -10.726  17.403  65.687  1.00  0.00    -0.113 C  
HETATM   21  C   UNL     1     -10.333  18.722  66.329  1.00  0.00    -0.448 C  
HETATM   22  F   UNL     1     -10.308  19.665  65.343  1.00  0.00    -0.407 F  
HETATM   23  C   UNL     1      -9.025  18.686  67.074  1.00  0.00    -0.289 C  
HETATM   24  C   UNL     1      -8.076  19.624  66.912  1.00  0.00    -0.315 C  
HETATM   25  C   UNL     1      -7.015  19.488  67.920  1.00  0.00    -0.253 C  
ENDROOT
BRANCH   4  26
HETATM   26  C   UNL     1     -11.539  12.819  68.980  1.00  0.00    -0.316 C  
HETATM   27  O   UNL     1     -12.046  13.082  70.082  1.00  0.00    -0.336 OA 
BRANCH  26  28
HETATM   28  C   UNL     1     -11.089  11.310  68.864  1.00  0.00    -0.238 C  
HETATM   29  O   UNL     1     -12.183  10.392  69.050  1.00  0.00    -0.701 OA 
HETATM   30  H   UNL     1     -11.913   9.483  68.980  1.00  0.00     0.000 HD 
ENDBRANCH  26  28
ENDBRANCH   4  26
TORSDOF 2
ENDMDL
MODEL       12
REMARK 921   NORMALIZED FREE ENERGY PREDICTED BY IDOCK:   -6.68 KCAL/MOL
REMARK 922        TOTAL FREE ENERGY PREDICTED BY IDOCK:   -6.82 KCAL/MOL
REMARK 923 INTER-LIGAND FREE ENERGY PREDICTED BY IDOCK:   -7.43 KCAL/MOL
REMARK 924 INTRA-LIGAND FREE ENERGY PREDICTED BY IDOCK:    0.61 KCAL/MOL
REMARK 927      BINDING AFFINITY PREDICTED BY RF-SCORE:    0.00 PKD
ROOT
HETATM    1  C   UNL     1     -11.657  15.059  66.063  1.00  0.00    -0.158 C  
HETATM    2  C   UNL     1     -11.266  15.363  64.737  1.00  0.00    -0.404 C  
HETATM    3  C   UNL     1     -10.427  14.338  65.444  1.00  0.00    -0.382 C  
HETATM    4  C   UNL     1     -11.198  13.444  67.152  1.00  0.00    -0.302 C  
HETATM    5  O   UNL     1     -12.524  13.870  67.659  1.00  0.00    -0.449 OA 
HETATM    6  C   UNL     1      -8.248  15.670  69.654  1.00  0.00    -0.068 C  
HETATM    7  C   UNL     1     -11.326  13.171  65.823  1.00  0.00    -0.331 C  
HETATM    8  C   UNL     1      -9.541  12.555  66.143  1.00  0.00    -0.230 C  
HETATM    9  C   UNL     1     -12.404  12.484  65.042  1.00  0.00    -0.522 C  
HETATM   10  C   UNL     1      -7.911  16.017  68.209  1.00  0.00    -0.145 C  
HETATM   11  C   UNL     1      -6.427  15.704  67.702  1.00  0.00    -0.191 C  
HETATM   12  H   UNL     1     -12.876  13.461  68.441  1.00  0.00     0.000 HD 
HETATM   13  C   UNL     1      -8.745  13.547  67.319  1.00  0.00    -0.225 C  
HETATM   14  C   UNL     1      -5.535  16.560  67.199  1.00  0.00    -0.139 C  
HETATM   15  O   UNL     1      -5.202  17.716  69.286  1.00  0.00    -0.169 OA 
HETATM   16  O   UNL     1      -9.181  13.065  68.599  1.00  0.00    -0.375 OA 
HETATM   17  C   UNL     1      -8.875  15.214  67.274  1.00  0.00    -0.216 C  
HETATM   18  H   UNL     1      -8.745  13.610  69.244  1.00  0.00     0.000 HD 
HETATM   19  C   UNL     1     -10.484  15.813  67.253  1.00  0.00    -0.308 C  
HETATM   20  C   UNL     1     -10.485  17.328  67.033  1.00  0.00    -0.287 C  
HETATM   21  C   UNL     1      -9.569  18.051  68.006  1.00  0.00    -0.295 C  
HETATM   22  F   UNL     1      -9.599  19.377  67.687  1.00  0.00    -0.337 F  
HETATM   23  C   UNL     1      -8.155  17.535  68.029  1.00  0.00    -0.237 C  
HETATM   24  C   UNL     1      -7.087  18.350  67.968  1.00  0.00    -0.237 C  
HETATM   25  C   UNL     1      -5.843  17.621  68.248  1.00  0.00    -0.160 C  
ENDROOT
BRANCH   4  26
HETATM   26  C   UNL     1     -11.432  11.744  67.706  1.00  0.00    -0.311 C  
HETATM   27  O   UNL     1     -11.265  10.740  66.996  1.00  0.00    -0.288 OA 
BRANCH  26  28
HETATM   28  C   UNL     1     -12.008  11.391  69.132  1.00  0.00    -0.328 C  
HETATM   29  O   UNL     1     -12.007  12.521  70.024  1.00  0.00    -0.332 OA 
HETATM   30  H   UNL     1     -12.354  12.308  70.883  1.00  0.00     0.000 HD 
ENDBRANCH  26  28
ENDBRANCH   4  26
TORSDOF 2
ENDMDL
MODEL       13
REMARK 921   NORMALIZED FREE ENERGY PREDICTED BY IDOCK:   -6.59 KCAL/MOL
REMARK 922        TOTAL FREE ENERGY PREDICTED BY IDOCK:   -6.72 KCAL/MOL
REMARK 923 INTER-LIGAND FREE ENERGY PREDICTED BY IDOCK:   -7.41 KCAL/MOL
REMARK 924 INTRA-LIGAND FREE ENERGY PREDICTED BY IDOCK:    0.69 KCAL/MOL
REMARK 927      BINDING AFFINITY PREDICTED BY RF-SCORE:    0.00 PKD
ROOT
HETATM    1  C   UNL     1     -11.925  12.545  68.677  1.00  0.00    -0.268 C  
HETATM    2  C   UNL     1     -11.583  13.485  69.678  1.00  0.00    -0.340 C  
HETATM    3  C   UNL     1     -10.453  12.639  69.167  1.00  0.00     0.081 C  
HETATM    4  C   UNL     1     -10.716  11.625  67.374  1.00  0.00    -0.234 C  
HETATM    5  O   UNL     1     -12.018  11.719  66.671  1.00  0.00    -0.561 OA 
HETATM    6  C   UNL     1     -10.885   7.750  69.583  1.00  0.00    -0.185 C  
HETATM    7  C   UNL     1     -10.310  12.892  67.674  1.00  0.00    -0.218 C  
HETATM    8  C   UNL     1      -8.752  11.892  68.166  1.00  0.00    -0.173 C  
HETATM    9  C   UNL     1     -10.368  14.171  66.898  1.00  0.00    -0.269 C  
HETATM   10  C   UNL     1     -10.582   8.813  70.632  1.00  0.00    -0.258 C  
HETATM   11  C   UNL     1      -9.255   8.630  71.505  1.00  0.00    -0.316 C  
HETATM   12  H   UNL     1     -12.138  11.255  65.851  1.00  0.00     0.000 HD 
HETATM   13  C   UNL     1      -9.187  10.348  68.819  1.00  0.00    -0.172 C  
HETATM   14  C   UNL     1      -9.154   8.536  72.833  1.00  0.00    -0.177 C  
HETATM   15  O   UNL     1     -10.220   6.378  72.940  1.00  0.00    -0.179 OA 
HETATM   16  O   UNL     1      -9.423   9.495  67.688  1.00  0.00    -0.130 OA 
HETATM   17  C   UNL     1     -10.447  10.194  69.909  1.00  0.00    -0.322 C  
HETATM   18  H   UNL     1      -9.663   8.648  68.046  1.00  0.00     0.000 HD 
HETATM   19  C   UNL     1     -11.942  10.853  69.382  1.00  0.00    -0.393 C  
HETATM   20  C   UNL     1     -12.969  10.817  70.517  1.00  0.00    -0.258 C  
HETATM   21  C   UNL     1     -13.087   9.437  71.142  1.00  0.00    -0.228 C  
HETATM   22  F   UNL     1     -13.978   9.530  72.171  1.00  0.00    -0.401 F  
HETATM   23  C   UNL     1     -11.782   8.852  71.609  1.00  0.00    -0.411 C  
HETATM   24  C   UNL     1     -11.634   8.297  72.825  1.00  0.00    -0.326 C  
HETATM   25  C   UNL     1     -10.348   7.595  72.937  1.00  0.00    -0.322 C  
ENDROOT
BRANCH   4  26
HETATM   26  C   UNL     1      -9.790  11.503  65.832  1.00  0.00    -0.231 C  
HETATM   27  O   UNL     1      -8.562  11.342  65.756  1.00  0.00    -0.131 OA 
BRANCH  26  28
HETATM   28  C   UNL     1     -10.462  11.727  64.422  1.00  0.00    -0.311 C  
HETATM   29  O   UNL     1      -9.741  12.674  63.610  1.00  0.00    -0.672 OA 
HETATM   30  H   UNL     1     -10.145  12.809  62.761  1.00  0.00     0.000 HD 
ENDBRANCH  26  28
ENDBRANCH   4  26
TORSDOF 2
ENDMDL
MODEL       14
REMARK 921   NORMALIZED FREE ENERGY PREDICTED BY IDOCK:   -6.55 KCAL/MOL
REMARK 922        TOTAL FREE ENERGY PREDICTED BY IDOCK:   -6.68 KCAL/MOL
REMARK 923 INTER-LIGAND FREE ENERGY PREDICTED BY IDOCK:   -7.13 KCAL/MOL
REMARK 924 INTRA-LIGAND FREE ENERGY PREDICTED BY IDOCK:    0.45 KCAL/MOL
REMARK 927      BINDING AFFINITY PREDICTED BY RF-SCORE:    0.00 PKD
ROOT
HETATM    1  C   UNL     1     -11.504  14.781  66.531  1.00  0.00    -0.328 C  
HETATM    2  C   UNL     1     -11.394  15.033  65.142  1.00  0.00    -0.372 C  
HETATM    3  C   UNL     1     -10.276  14.236  65.749  1.00  0.00    -0.351 C  
HETATM    4  C   UNL     1     -10.582  13.371  67.611  1.00  0.00    -0.243 C  
HETATM    5  O   UNL     1     -11.866  13.600  68.316  1.00  0.00    -0.338 OA 
HETATM    6  C   UNL     1      -7.740  16.289  69.438  1.00  0.00    -0.108 C  
HETATM    7  C   UNL     1     -10.868  12.966  66.342  1.00  0.00    -0.293 C  
HETATM    8  C   UNL     1      -8.971  12.704  66.381  1.00  0.00    -0.056 C  
HETATM    9  C   UNL     1     -11.908  12.036  65.799  1.00  0.00    -0.236 C  
HETATM   10  C   UNL     1      -7.710  16.563  67.939  1.00  0.00    -0.162 C  
HETATM   11  C   UNL     1      -6.295  16.473  67.201  1.00  0.00    -0.220 C  
HETATM   12  H   UNL     1     -12.006  13.205  69.168  1.00  0.00     0.000 HD 
HETATM   13  C   UNL     1      -8.197  13.917  67.345  1.00  0.00    -0.187 C  
HETATM   14  C   UNL     1      -5.671  17.425  66.504  1.00  0.00    -0.241 C  
HETATM   15  O   UNL     1      -5.232  18.798  68.435  1.00  0.00    -0.178 OA 
HETATM   16  O   UNL     1      -8.325  13.479  68.707  1.00  0.00    -0.324 OA 
HETATM   17  C   UNL     1      -8.643  15.526  67.231  1.00  0.00    -0.215 C  
HETATM   18  H   UNL     1      -7.901  14.145  69.235  1.00  0.00     0.000 HD 
HETATM   19  C   UNL     1     -10.318  15.829  67.455  1.00  0.00    -0.280 C  
HETATM   20  C   UNL     1     -10.638  17.295  67.155  1.00  0.00    -0.256 C  
HETATM   21  C   UNL     1      -9.731  18.249  67.913  1.00  0.00    -0.303 C  
HETATM   22  F   UNL     1     -10.060  19.517  67.531  1.00  0.00    -0.399 F  
HETATM   23  C   UNL     1      -8.260  17.993  67.720  1.00  0.00    -0.238 C  
HETATM   24  C   UNL     1      -7.388  18.975  67.430  1.00  0.00    -0.245 C  
HETATM   25  C   UNL     1      -6.001  18.503  67.530  1.00  0.00    -0.171 C  
ENDROOT
BRANCH   4  26
HETATM   26  C   UNL     1     -10.401  11.711  68.291  1.00  0.00    -0.200 C  
HETATM   27  O   UNL     1      -9.599  10.861  67.875  1.00  0.00    -0.161 OA 
BRANCH  26  28
HETATM   28  C   UNL     1     -11.361  11.146  69.409  1.00  0.00    -0.283 C  
HETATM   29  O   UNL     1     -12.611  10.669  68.876  1.00  0.00    -0.742 OA 
HETATM   30  H   UNL     1     -13.188  10.328  69.550  1.00  0.00     0.000 HD 
ENDBRANCH  26  28
ENDBRANCH   4  26
TORSDOF 2
ENDMDL
MODEL       15
REMARK 921   NORMALIZED FREE ENERGY PREDICTED BY IDOCK:   -6.55 KCAL/MOL
REMARK 922        TOTAL FREE ENERGY PREDICTED BY IDOCK:   -6.68 KCAL/MOL
REMARK 923 INTER-LIGAND FREE ENERGY PREDICTED BY IDOCK:   -7.14 KCAL/MOL
REMARK 924 INTRA-LIGAND FREE ENERGY PREDICTED BY IDOCK:    0.47 KCAL/MOL
REMARK 927      BINDING AFFINITY PREDICTED BY RF-SCORE:    0.00 PKD
ROOT
HETATM    1  C   UNL     1     -10.322  12.539  64.672  1.00  0.00    -0.341 C  
HETATM    2  C   UNL     1     -11.353  11.742  64.119  1.00  0.00    -0.430 C  
HETATM    3  C   UNL     1     -11.546  12.157  65.549  1.00  0.00    -0.398 C  
HETATM    4  C   UNL     1     -10.398  13.723  66.283  1.00  0.00    -0.294 C  
HETATM    5  O   UNL     1      -9.387  14.356  65.403  1.00  0.00    -0.469 OA 
HETATM    6  C   UNL     1      -8.085  10.854  68.801  1.00  0.00    -0.145 C  
HETATM    7  C   UNL     1     -11.577  13.677  65.600  1.00  0.00    -0.342 C  
HETATM    8  C   UNL     1     -12.147  13.104  67.336  1.00  0.00    -0.316 C  
HETATM    9  C   UNL     1     -12.249  14.664  64.696  1.00  0.00    -0.447 C  
HETATM   10  C   UNL     1      -9.176  10.029  68.127  1.00  0.00    -0.130 C  
HETATM   11  C   UNL     1     -10.174   9.214  69.074  1.00  0.00    -0.219 C  
HETATM   12  H   UNL     1      -8.862  15.073  65.739  1.00  0.00     0.000 HD 
HETATM   13  C   UNL     1     -10.918  12.163  68.113  1.00  0.00    -0.230 C  
HETATM   14  C   UNL     1     -10.402   7.899  69.086  1.00  0.00    -0.225 C  
HETATM   15  O   UNL     1      -8.217   7.349  69.939  1.00  0.00    -0.127 OA 
HETATM   16  O   UNL     1     -10.001  13.109  68.685  1.00  0.00    -0.346 OA 
HETATM   17  C   UNL     1     -10.065  10.994  67.275  1.00  0.00    -0.222 C  
HETATM   18  H   UNL     1      -9.327  12.593  69.111  1.00  0.00     0.000 HD 
HETATM   19  C   UNL     1      -9.312  11.543  65.833  1.00  0.00    -0.242 C  
HETATM   20  C   UNL     1      -8.716  10.364  65.061  1.00  0.00    -0.195 C  
HETATM   21  C   UNL     1      -7.823   9.498  65.934  1.00  0.00    -0.100 C  
HETATM   22  F   UNL     1      -7.394   8.452  65.169  1.00  0.00    -0.075 F  
HETATM   23  C   UNL     1      -8.475   9.008  67.199  1.00  0.00    -0.113 C  
HETATM   24  C   UNL     1      -8.416   7.723  67.591  1.00  0.00    -0.121 C  
HETATM   25  C   UNL     1      -8.921   7.561  68.961  1.00  0.00    -0.131 C  
ENDROOT
BRANCH   4  26
HETATM   26  C   UNL     1     -10.751  15.269  67.141  1.00  0.00    -0.316 C  
HETATM   27  O   UNL     1     -11.712  15.450  67.904  1.00  0.00    -0.319 OA 
BRANCH  26  28
HETATM   28  C   UNL     1      -9.922  16.587  66.884  1.00  0.00    -0.271 C  
HETATM   29  O   UNL     1     -10.348  17.286  65.699  1.00  0.00    -0.580 OA 
HETATM   30  H   UNL     1      -9.849  18.080  65.545  1.00  0.00     0.000 HD 
ENDBRANCH  26  28
ENDBRANCH   4  26
TORSDOF 2
ENDMDL
MODEL       16
REMARK 921   NORMALIZED FREE ENERGY PREDICTED BY IDOCK:   -6.31 KCAL/MOL
REMARK 922        TOTAL FREE ENERGY PREDICTED BY IDOCK:   -6.41 KCAL/MOL
REMARK 923 INTER-LIGAND FREE ENERGY PREDICTED BY IDOCK:   -7.08 KCAL/MOL
REMARK 924 INTRA-LIGAND FREE ENERGY PREDICTED BY IDOCK:    0.67 KCAL/MOL
REMARK 927      BINDING AFFINITY PREDICTED BY RF-SCORE:    0.00 PKD
ROOT
HETATM    1  C   UNL     1     -10.678   5.957  70.539  1.00  0.00    -0.363 C  
HETATM    2  C   UNL     1      -9.440   5.545  71.088  1.00  0.00    -0.197 C  
HETATM    3  C   UNL     1      -9.632   7.028  70.958  1.00  0.00    -0.170 C  
HETATM    4  C   UNL     1     -11.558   7.749  70.673  1.00  0.00    -0.218 C  
HETATM    5  O   UNL     1     -12.682   6.791  70.555  1.00  0.00    -0.502 OA 
HETATM    6  C   UNL     1     -10.535   8.836  66.467  1.00  0.00    -0.152 C  
HETATM    7  C   UNL     1     -10.844   7.422  71.788  1.00  0.00    -0.253 C  
HETATM    8  C   UNL     1     -10.008   9.076  71.302  1.00  0.00    -0.381 C  
HETATM    9  C   UNL     1     -11.270   6.980  73.154  1.00  0.00    -0.190 C  
HETATM   10  C   UNL     1      -9.242   8.320  67.088  1.00  0.00    -0.175 C  
HETATM   11  C   UNL     1      -7.977   9.297  67.075  1.00  0.00    -0.102 C  
HETATM   12  H   UNL     1     -13.563   7.121  70.425  1.00  0.00     0.000 HD 
HETATM   13  C   UNL     1      -9.950   9.258  69.580  1.00  0.00    -0.191 C  
HETATM   14  C   UNL     1      -6.777   9.078  66.530  1.00  0.00    -0.075 C  
HETATM   15  O   UNL     1      -7.594   9.158  64.265  1.00  0.00    -0.108 OA 
HETATM   16  O   UNL     1     -11.241   9.753  69.193  1.00  0.00    -0.392 OA 
HETATM   17  C   UNL     1      -9.521   7.980  68.590  1.00  0.00    -0.147 C  
HETATM   18  H   UNL     1     -11.209   9.852  68.249  1.00  0.00     0.000 HD 
HETATM   19  C   UNL     1     -10.438   6.547  68.820  1.00  0.00    -0.245 C  
HETATM   20  C   UNL     1      -9.849   5.400  67.997  1.00  0.00    -0.183 C  
HETATM   21  C   UNL     1      -9.652   5.780  66.539  1.00  0.00    -0.156 C  
HETATM   22  F   UNL     1      -9.073   4.714  65.914  1.00  0.00    -0.120 F  
HETATM   23  C   UNL     1      -8.846   7.033  66.326  1.00  0.00    -0.164 C  
HETATM   24  C   UNL     1      -7.831   7.098  65.446  1.00  0.00    -0.119 C  
HETATM   25  C   UNL     1      -7.374   8.482  65.262  1.00  0.00    -0.084 C  
ENDROOT
BRANCH   4  26
HETATM   26  C   UNL     1     -12.585   8.993  71.479  1.00  0.00    -0.338 C  
HETATM   27  O   UNL     1     -12.191  10.117  71.828  1.00  0.00    -0.374 OA 
BRANCH  26  28
HETATM   28  C   UNL     1     -14.067   8.700  71.937  1.00  0.00    -0.443 C  
HETATM   29  O   UNL     1     -14.273   8.954  73.339  1.00  0.00    -1.241 OA 
HETATM   30  H   UNL     1     -15.165   8.778  73.614  1.00  0.00     0.000 HD 
ENDBRANCH  26  28
ENDBRANCH   4  26
TORSDOF 2
ENDMDL
MODEL       17
REMARK 921   NORMALIZED FREE ENERGY PREDICTED BY IDOCK:   -6.29 KCAL/MOL
REMARK 922        TOTAL FREE ENERGY PREDICTED BY IDOCK:   -6.39 KCAL/MOL
REMARK 923 INTER-LIGAND FREE ENERGY PREDICTED BY IDOCK:   -7.08 KCAL/MOL
REMARK 924 INTRA-LIGAND FREE ENERGY PREDICTED BY IDOCK:    0.69 KCAL/MOL
REMARK 927      BINDING AFFINITY PREDICTED BY RF-SCORE:    0.00 PKD
ROOT
HETATM    1  C   UNL     1     -10.347  12.583  65.073  1.00  0.00    -0.323 C  
HETATM    2  C   UNL     1     -11.544  12.184  64.432  1.00  0.00    -0.422 C  
HETATM    3  C   UNL     1     -11.550  12.100  65.930  1.00  0.00    -0.425 C  
HETATM    4  C   UNL     1     -10.086  13.132  66.980  1.00  0.00    -0.241 C  
HETATM    5  O   UNL     1      -9.047  13.880  66.232  1.00  0.00    -0.468 OA 
HETATM    6  C   UNL     1      -8.144   9.268  68.081  1.00  0.00    -0.107 C  
HETATM    7  C   UNL     1     -11.302  13.496  66.483  1.00  0.00    -0.340 C  
HETATM    8  C   UNL     1     -11.833  12.444  67.993  1.00  0.00    -0.376 C  
HETATM    9  C   UNL     1     -11.852  14.821  66.053  1.00  0.00    -0.201 C  
HETATM   10  C   UNL     1      -9.413   8.894  67.325  1.00  0.00    -0.195 C  
HETATM   11  C   UNL     1     -10.467   7.953  68.073  1.00  0.00    -0.245 C  
HETATM   12  H   UNL     1      -8.377  14.352  66.712  1.00  0.00     0.000 HD 
HETATM   13  C   UNL     1     -10.738  11.126  68.246  1.00  0.00    -0.196 C  
HETATM   14  C   UNL     1     -10.926   6.762  67.682  1.00  0.00    -0.346 C  
HETATM   15  O   UNL     1      -8.817   5.643  68.008  1.00  0.00    -0.107 OA 
HETATM   16  O   UNL     1      -9.625  11.673  68.970  1.00  0.00    -0.405 OA 
HETATM   17  C   UNL     1     -10.176  10.211  66.963  1.00  0.00    -0.290 C  
HETATM   18  H   UNL     1      -9.024  10.950  69.109  1.00  0.00     0.000 HD 
HETATM   19  C   UNL     1      -9.448  11.113  65.697  1.00  0.00    -0.252 C  
HETATM   20  C   UNL     1      -9.134  10.202  64.508  1.00  0.00    -0.280 C  
HETATM   21  C   UNL     1      -8.348   8.968  64.919  1.00  0.00    -0.169 C  
HETATM   22  F   UNL     1      -8.174   8.203  63.803  1.00  0.00    -0.157 F  
HETATM   23  C   UNL     1      -8.980   8.169  66.027  1.00  0.00    -0.213 C  
HETATM   24  C   UNL     1      -9.124   6.834  65.963  1.00  0.00    -0.103 C  
HETATM   25  C   UNL     1      -9.544   6.280  67.257  1.00  0.00    -0.123 C  
ENDROOT
BRANCH   4  26
HETATM   26  C   UNL     1     -10.088  14.318  68.338  1.00  0.00    -0.243 C  
HETATM   27  O   UNL     1     -11.047  14.517  69.101  1.00  0.00    -0.244 OA 
BRANCH  26  28
HETATM   28  C   UNL     1      -8.892  15.315  68.593  1.00  0.00    -0.188 C  
HETATM   29  O   UNL     1      -8.073  14.923  69.711  1.00  0.00    -0.421 OA 
HETATM   30  H   UNL     1      -7.353  15.523  69.865  1.00  0.00     0.000 HD 
ENDBRANCH  26  28
ENDBRANCH   4  26
TORSDOF 2
ENDMDL
MODEL       18
REMARK 921   NORMALIZED FREE ENERGY PREDICTED BY IDOCK:   -6.29 KCAL/MOL
REMARK 922        TOTAL FREE ENERGY PREDICTED BY IDOCK:   -6.39 KCAL/MOL
REMARK 923 INTER-LIGAND FREE ENERGY PREDICTED BY IDOCK:   -7.07 KCAL/MOL
REMARK 924 INTRA-LIGAND FREE ENERGY PREDICTED BY IDOCK:    0.68 KCAL/MOL
REMARK 927      BINDING AFFINITY PREDICTED BY RF-SCORE:    0.00 PKD
ROOT
HETATM    1  C   UNL     1     -11.865  11.925  68.060  1.00  0.00    -0.323 C  
HETATM    2  C   UNL     1     -11.498  12.035  69.422  1.00  0.00    -0.361 C  
HETATM    3  C   UNL     1     -10.487  12.538  68.433  1.00  0.00    -0.250 C  
HETATM    4  C   UNL     1     -11.114  12.910  66.489  1.00  0.00    -0.286 C  
HETATM    5  O   UNL     1     -12.519  12.625  66.112  1.00  0.00    -0.520 OA 
HETATM    6  C   UNL     1      -8.805   9.367  65.062  1.00  0.00    -0.234 C  
HETATM    7  C   UNL     1     -11.130  13.658  67.629  1.00  0.00    -0.293 C  
HETATM    8  C   UNL     1      -9.268  13.725  67.185  1.00  0.00    -0.245 C  
HETATM    9  C   UNL     1     -12.005  14.790  68.070  1.00  0.00    -0.261 C  
HETATM   10  C   UNL     1      -8.495   9.493  66.549  1.00  0.00    -0.130 C  
HETATM   11  C   UNL     1      -6.960   9.641  66.972  1.00  0.00    -0.085 C  
HETATM   12  H   UNL     1     -12.805  12.795  65.223  1.00  0.00     0.000 HD 
HETATM   13  C   UNL     1      -8.747  12.235  66.470  1.00  0.00    -0.084 C  
HETATM   14  C   UNL     1      -6.253   8.851  67.782  1.00  0.00    -0.055 C  
HETATM   15  O   UNL     1      -6.255   6.986  66.256  1.00  0.00    -0.037 OA 
HETATM   16  O   UNL     1      -9.119  12.312  65.085  1.00  0.00    -0.338 OA 
HETATM   17  C   UNL     1      -9.229  10.761  67.098  1.00  0.00    -0.160 C  
HETATM   18  H   UNL     1      -8.834  11.494  64.694  1.00  0.00     0.000 HD 
HETATM   19  C   UNL     1     -10.926  10.566  67.264  1.00  0.00    -0.325 C  
HETATM   20  C   UNL     1     -11.242   9.265  68.006  1.00  0.00     0.237 C  
HETATM   21  C   UNL     1     -10.540   8.067  67.392  1.00  0.00    -0.267 C  
HETATM   22  F   UNL     1     -10.841   6.979  68.159  1.00  0.00    -0.236 F  
HETATM   23  C   UNL     1      -9.050   8.227  67.245  1.00  0.00    -0.157 C  
HETATM   24  C   UNL     1      -8.180   7.279  67.635  1.00  0.00    -0.114 C  
HETATM   25  C   UNL     1      -6.820   7.578  67.166  1.00  0.00    -0.071 C  
ENDROOT
BRANCH   4  26
HETATM   26  C   UNL     1     -11.000  14.311  65.360  1.00  0.00    -0.333 C  
HETATM   27  O   UNL     1     -10.059  15.120  65.328  1.00  0.00    -0.348 OA 
BRANCH  26  28
HETATM   28  C   UNL     1     -12.176  14.709  64.385  1.00  0.00    -0.452 C  
HETATM   29  O   UNL     1     -11.949  15.973  63.733  1.00  0.00    -1.339 OA 
HETATM   30  H   UNL     1     -12.657  16.213  63.146  1.00  0.00     0.000 HD 
ENDBRANCH  26  28
ENDBRANCH   4  26
TORSDOF 2
ENDMDL
MODEL       19
REMARK 921   NORMALIZED FREE ENERGY PREDICTED BY IDOCK:   -6.26 KCAL/MOL
REMARK 922        TOTAL FREE ENERGY PREDICTED BY IDOCK:   -6.35 KCAL/MOL
REMARK 923 INTER-LIGAND FREE ENERGY PREDICTED BY IDOCK:   -6.79 KCAL/MOL
REMARK 924 INTRA-LIGAND FREE ENERGY PREDICTED BY IDOCK:    0.44 KCAL/MOL
REMARK 927      BINDING AFFINITY PREDICTED BY RF-SCORE:    0.00 PKD
ROOT
HETATM    1  C   UNL     1     -12.162   7.712  72.180  1.00  0.00    -0.301 C  
HETATM    2  C   UNL     1     -13.324   7.286  71.494  1.00  0.00    -0.435 C  
HETATM    3  C   UNL     1     -12.022   6.781  70.944  1.00  0.00    -0.437 C  
HETATM    4  C   UNL     1     -10.334   6.899  72.147  1.00  0.00    -0.199 C  
HETATM    5  O   UNL     1     -10.441   7.519  73.489  1.00  0.00    -0.357 OA 
HETATM    6  C   UNL     1      -8.685  10.116  69.530  1.00  0.00    -0.189 C  
HETATM    7  C   UNL     1     -11.329   5.975  72.033  1.00  0.00    -0.345 C  
HETATM    8  C   UNL     1     -10.332   5.624  70.436  1.00  0.00    -0.330 C  
HETATM    9  C   UNL     1     -11.885   4.977  73.001  1.00  0.00    -0.141 C  
HETATM   10  C   UNL     1      -9.981   9.664  68.866  1.00  0.00    -0.186 C  
HETATM   11  C   UNL     1      -9.893   9.142  67.358  1.00  0.00    -0.237 C  
HETATM   12  H   UNL     1      -9.669   7.572  74.040  1.00  0.00     0.000 HD 
HETATM   13  C   UNL     1      -9.668   7.086  69.786  1.00  0.00    -0.168 C  
HETATM   14  C   UNL     1     -10.533   9.617  66.286  1.00  0.00    -0.149 C  
HETATM   15  O   UNL     1      -9.306  11.690  66.254  1.00  0.00    -0.206 OA 
HETATM   16  O   UNL     1      -8.465   7.336  70.528  1.00  0.00    -0.134 OA 
HETATM   17  C   UNL     1     -10.579   8.487  69.706  1.00  0.00    -0.224 C  
HETATM   18  H   UNL     1      -8.102   8.139  70.172  1.00  0.00     0.000 HD 
HETATM   19  C   UNL     1     -11.279   8.980  71.194  1.00  0.00    -0.375 C  
HETATM   20  C   UNL     1     -12.226  10.161  70.972  1.00  0.00    -0.474 C  
HETATM   21  C   UNL     1     -11.568  11.288  70.195  1.00  0.00    -0.305 C  
HETATM   22  F   UNL     1     -12.510  12.257  70.004  1.00  0.00    -0.275 F  
HETATM   23  C   UNL     1     -10.954  10.867  68.887  1.00  0.00    -0.278 C  
HETATM   24  C   UNL     1     -11.165  11.538  67.741  1.00  0.00    -0.343 C  
HETATM   25  C   UNL     1     -10.271  11.067  66.675  1.00  0.00    -0.235 C  
ENDROOT
BRANCH   4  26
HETATM   26  C   UNL     1      -9.071   5.731  72.689  1.00  0.00    -0.131 C  
HETATM   27  O   UNL     1      -8.702   4.738  72.042  1.00  0.00    -0.121 OA 
BRANCH  26  28
HETATM   28  C   UNL     1      -8.409   5.804  74.119  1.00  0.00    -0.110 C  
HETATM   29  O   UNL     1      -7.667   7.022  74.324  1.00  0.00    -0.106 OA 
HETATM   30  H   UNL     1      -7.268   7.066  75.185  1.00  0.00     0.000 HD 
ENDBRANCH  26  28
ENDBRANCH   4  26
TORSDOF 2
ENDMDL
MODEL       20
REMARK 921   NORMALIZED FREE ENERGY PREDICTED BY IDOCK:   -6.26 KCAL/MOL
REMARK 922        TOTAL FREE ENERGY PREDICTED BY IDOCK:   -6.35 KCAL/MOL
REMARK 923 INTER-LIGAND FREE ENERGY PREDICTED BY IDOCK:   -6.80 KCAL/MOL
REMARK 924 INTRA-LIGAND FREE ENERGY PREDICTED BY IDOCK:    0.45 KCAL/MOL
REMARK 927      BINDING AFFINITY PREDICTED BY RF-SCORE:    0.00 PKD
ROOT
HETATM    1  C   UNL     1      -9.718   7.188  68.305  1.00  0.00    -0.148 C  
HETATM    2  C   UNL     1      -8.313   7.114  68.151  1.00  0.00    -0.124 C  
HETATM    3  C   UNL     1      -8.800   8.026  69.238  1.00  0.00    -0.141 C  
HETATM    4  C   UNL     1     -10.759   7.816  69.894  1.00  0.00    -0.245 C  
HETATM    5  O   UNL     1     -11.639   6.815  69.244  1.00  0.00    -0.600 OA 
HETATM    6  C   UNL     1     -11.826  11.697  67.964  1.00  0.00    -0.295 C  
HETATM    7  C   UNL     1      -9.595   7.193  70.233  1.00  0.00    -0.169 C  
HETATM    8  C   UNL     1      -9.351   8.893  71.082  1.00  0.00    -0.326 C  
HETATM    9  C   UNL     1      -9.316   5.838  70.804  1.00  0.00    -0.189 C  
HETATM   10  C   UNL     1     -10.323  11.535  67.768  1.00  0.00    -0.204 C  
HETATM   11  C   UNL     1      -9.377  12.696  68.329  1.00  0.00    -0.195 C  
HETATM   12  H   UNL     1     -12.535   6.719  69.544  1.00  0.00     0.000 HD 
HETATM   13  C   UNL     1     -10.061  10.163  70.142  1.00  0.00    -0.141 C  
HETATM   14  C   UNL     1      -8.504  13.442  67.649  1.00  0.00    -0.187 C  
HETATM   15  O   UNL     1     -10.204  14.625  66.417  1.00  0.00    -0.273 OA 
HETATM   16  O   UNL     1     -11.460  10.158  70.468  1.00  0.00    -0.287 OA 
HETATM   17  C   UNL     1      -9.874  10.217  68.481  1.00  0.00    -0.165 C  
HETATM   18  H   UNL     1     -11.849  10.855  69.952  1.00  0.00     0.000 HD 
HETATM   19  C   UNL     1     -10.338   8.785  67.654  1.00  0.00    -0.317 C  
HETATM   20  C   UNL     1      -9.961   8.880  66.174  1.00  0.00    -0.290 C  
HETATM   21  C   UNL     1     -10.471  10.158  65.530  1.00  0.00    -0.006 C  
HETATM   22  F   UNL     1     -10.033  10.167  64.238  1.00  0.00    -0.381 F  
HETATM   23  C   UNL     1     -10.066  11.419  66.246  1.00  0.00    -0.263 C  
HETATM   24  C   UNL     1      -9.550  12.480  65.602  1.00  0.00    -0.099 C  
HETATM   25  C   UNL     1      -9.467  13.651  66.486  1.00  0.00    -0.259 C  
ENDROOT
BRANCH   4  26
HETATM   26  C   UNL     1     -11.550   7.601  71.500  1.00  0.00    -0.274 C  
HETATM   27  O   UNL     1     -11.063   7.966  72.582  1.00  0.00    -0.329 OA 
BRANCH  26  28
HETATM   28  C   UNL     1     -12.896   6.797  71.680  1.00  0.00    -0.276 C  
HETATM   29  O   UNL     1     -13.991   7.383  70.951  1.00  0.00    -0.619 OA 
HETATM   30  H   UNL     1     -14.802   6.900  71.060  1.00  0.00     0.000 HD 
ENDBRANCH  26  28
ENDBRANCH   4  26
TORSDOF 2
ENDMDL
MODEL       21
REMARK 921   NORMALIZED FREE ENERGY PREDICTED BY IDOCK:   -6.22 KCAL/MOL
REMARK 922        TOTAL FREE ENERGY PREDICTED BY IDOCK:   -6.31 KCAL/MOL
REMARK 923 INTER-LIGAND FREE ENERGY PREDICTED BY IDOCK:   -6.93 KCAL/MOL
REMARK 924 INTRA-LIGAND FREE ENERGY PREDICTED BY IDOCK:    0.62 KCAL/MOL
REMARK 927      BINDING AFFINITY PREDICTED BY RF-SCORE:    0.00 PKD
ROOT
HETATM    1  C   UNL     1     -10.207   5.559  71.536  1.00  0.00    -0.270 C  
HETATM    2  C   UNL     1      -8.895   5.373  72.033  1.00  0.00    -0.139 C  
HETATM    3  C   UNL     1      -9.178   6.718  71.428  1.00  0.00    -0.153 C  
HETATM    4  C   UNL     1     -11.158   7.278  71.157  1.00  0.00    -0.253 C  
HETATM    5  O   UNL     1     -12.237   6.326  71.515  1.00  0.00    -0.246 OA 
HETATM    6  C   UNL     1     -10.679   6.851  66.740  1.00  0.00    -0.296 C  
HETATM    7  C   UNL     1     -10.307   7.363  72.218  1.00  0.00    -0.251 C  
HETATM    8  C   UNL     1      -9.619   8.754  71.095  1.00  0.00    -0.309 C  
HETATM    9  C   UNL     1     -10.550   7.417  73.695  1.00  0.00    -0.316 C  
HETATM   10  C   UNL     1      -9.299   6.595  67.334  1.00  0.00    -0.136 C  
HETATM   11  C   UNL     1      -8.096   7.519  66.829  1.00  0.00    -0.123 C  
HETATM   12  H   UNL     1     -13.143   6.582  71.391  1.00  0.00     0.000 HD 
HETATM   13  C   UNL     1      -9.767   8.330  69.422  1.00  0.00    -0.177 C  
HETATM   14  C   UNL     1      -6.957   7.137  66.247  1.00  0.00    -0.065 C  
HETATM   15  O   UNL     1      -8.030   6.420  64.213  1.00  0.00    -0.115 OA 
HETATM   16  O   UNL     1     -11.117   8.648  69.053  1.00  0.00    -0.433 OA 
HETATM   17  C   UNL     1      -9.387   6.792  68.883  1.00  0.00    -0.129 C  
HETATM   18  H   UNL     1     -11.198   8.415  68.136  1.00  0.00     0.000 HD 
HETATM   19  C   UNL     1     -10.196   5.519  69.703  1.00  0.00    -0.336 C  
HETATM   20  C   UNL     1      -9.645   4.163  69.255  1.00  0.00    -0.256 C  
HETATM   21  C   UNL     1      -9.636   4.017  67.743  1.00  0.00    -0.150 C  
HETATM   22  F   UNL     1      -9.076   2.807  67.453  1.00  0.00    -0.140 F  
HETATM   23  C   UNL     1      -8.925   5.127  67.015  1.00  0.00    -0.112 C  
HETATM   24  C   UNL     1      -8.022   4.894  66.047  1.00  0.00    -0.107 C  
HETATM   25  C   UNL     1      -7.663   6.133  65.344  1.00  0.00    -0.093 C  
ENDROOT
BRANCH   4  26
HETATM   26  C   UNL     1     -12.150   8.713  71.611  1.00  0.00    -0.326 C  
HETATM   27  O   UNL     1     -11.702   9.858  71.777  1.00  0.00    -0.336 OA 
BRANCH  26  28
HETATM   28  C   UNL     1     -13.684   8.603  71.969  1.00  0.00    -0.426 C  
HETATM   29  O   UNL     1     -13.958   8.957  73.337  1.00  0.00    -1.236 OA 
HETATM   30  H   UNL     1     -14.881   8.891  73.553  1.00  0.00     0.000 HD 
ENDBRANCH  26  28
ENDBRANCH   4  26
TORSDOF 2
ENDMDL
MODEL       22
REMARK 921   NORMALIZED FREE ENERGY PREDICTED BY IDOCK:   -6.18 KCAL/MOL
REMARK 922        TOTAL FREE ENERGY PREDICTED BY IDOCK:   -6.27 KCAL/MOL
REMARK 923 INTER-LIGAND FREE ENERGY PREDICTED BY IDOCK:   -6.79 KCAL/MOL
REMARK 924 INTRA-LIGAND FREE ENERGY PREDICTED BY IDOCK:    0.52 KCAL/MOL
REMARK 927      BINDING AFFINITY PREDICTED BY RF-SCORE:    0.00 PKD
ROOT
HETATM    1  C   UNL     1      -7.661  12.256  67.582  1.00  0.00    -0.144 C  
HETATM    2  C   UNL     1      -7.061  11.912  68.816  1.00  0.00    -0.111 C  
HETATM    3  C   UNL     1      -8.386  11.265  68.535  1.00  0.00    -0.155 C  
HETATM    4  C   UNL     1      -9.090  11.275  66.581  1.00  0.00    -0.179 C  
HETATM    5  O   UNL     1      -8.301  11.959  65.529  1.00  0.00    -0.167 OA 
HETATM    6  C   UNL     1     -12.249  14.212  67.730  1.00  0.00    -0.208 C  
HETATM    7  C   UNL     1      -8.250  10.444  67.261  1.00  0.00    -0.121 C  
HETATM    8  C   UNL     1      -9.938   9.935  68.009  1.00  0.00    -0.179 C  
HETATM    9  C   UNL     1      -7.145   9.544  66.801  1.00  0.00    -0.086 C  
HETATM   10  C   UNL     1     -11.524  13.855  69.023  1.00  0.00    -0.341 C  
HETATM   11  C   UNL     1     -12.402  13.264  70.221  1.00  0.00    -0.334 C  
HETATM   12  H   UNL     1      -8.623  11.964  64.635  1.00  0.00     0.000 HD 
HETATM   13  C   UNL     1     -10.996  11.300  68.138  1.00  0.00    -0.231 C  
HETATM   14  C   UNL     1     -12.537  13.751  71.457  1.00  0.00    -0.405 C  
HETATM   15  O   UNL     1     -13.766  15.698  70.745  1.00  0.00    -0.490 OA 
HETATM   16  O   UNL     1     -11.581  11.468  66.837  1.00  0.00    -0.503 OA 
HETATM   17  C   UNL     1     -10.440  12.776  68.696  1.00  0.00    -0.230 C  
HETATM   18  H   UNL     1     -12.161  12.218  66.907  1.00  0.00     0.000 HD 
HETATM   19  C   UNL     1      -9.071  13.393  67.864  1.00  0.00    -0.208 C  
HETATM   20  C   UNL     1      -8.543  14.647  68.565  1.00  0.00    -0.170 C  
HETATM   21  C   UNL     1      -9.636  15.675  68.806  1.00  0.00    -0.215 C  
HETATM   22  F   UNL     1      -9.073  16.718  69.483  1.00  0.00    -0.146 F  
HETATM   23  C   UNL     1     -10.839  15.144  69.538  1.00  0.00    -0.270 C  
HETATM   24  C   UNL     1     -11.386  15.782  70.587  1.00  0.00    -0.412 C  
HETATM   25  C   UNL     1     -12.676  15.185  70.961  1.00  0.00    -0.392 C  
ENDROOT
BRANCH   4  26
HETATM   26  C   UNL     1      -9.695  10.019  65.438  1.00  0.00    -0.302 C  
HETATM   27  O   UNL     1     -10.026   8.868  65.763  1.00  0.00    -0.188 OA 
BRANCH  26  28
HETATM   28  C   UNL     1      -9.731  10.244  63.876  1.00  0.00    -0.261 C  
HETATM   29  O   UNL     1     -10.175  11.566  63.518  1.00  0.00    -0.337 OA 
HETATM   30  H   UNL     1     -10.197  11.701  62.578  1.00  0.00     0.000 HD 
ENDBRANCH  26  28
ENDBRANCH   4  26
TORSDOF 2
ENDMDL
MODEL       23
REMARK 921   NORMALIZED FREE ENERGY PREDICTED BY IDOCK:   -6.06 KCAL/MOL
REMARK 922        TOTAL FREE ENERGY PREDICTED BY IDOCK:   -6.13 KCAL/MOL
REMARK 923 INTER-LIGAND FREE ENERGY PREDICTED BY IDOCK:   -6.63 KCAL/MOL
REMARK 924 INTRA-LIGAND FREE ENERGY PREDICTED BY IDOCK:    0.50 KCAL/MOL
REMARK 927      BINDING AFFINITY PREDICTED BY RF-SCORE:    0.00 PKD
ROOT
HETATM    1  C   UNL     1      -8.555  11.326  67.267  1.00  0.00    -0.143 C  
HETATM    2  C   UNL     1      -9.165  10.959  68.490  1.00  0.00    -0.181 C  
HETATM    3  C   UNL     1     -10.063  11.627  67.490  1.00  0.00    -0.209 C  
HETATM    4  C   UNL     1      -9.433  11.727  65.514  1.00  0.00    -0.168 C  
HETATM    5  O   UNL     1      -8.102  11.187  65.148  1.00  0.00    -0.363 OA 
HETATM    6  C   UNL     1      -8.807  16.127  65.931  1.00  0.00    -0.196 C  
HETATM    7  C   UNL     1     -10.089  10.772  66.232  1.00  0.00    -0.285 C  
HETATM    8  C   UNL     1     -11.486  12.061  65.993  1.00  0.00    -0.399 C  
HETATM    9  C   UNL     1     -10.179   9.286  66.072  1.00  0.00    -0.156 C  
HETATM   10  C   UNL     1      -9.406  15.666  67.254  1.00  0.00    -0.223 C  
HETATM   11  C   UNL     1     -10.764  16.362  67.731  1.00  0.00    -0.328 C  
HETATM   12  H   UNL     1      -7.814  11.233  64.245  1.00  0.00     0.000 HD 
HETATM   13  C   UNL     1     -10.853  13.673  66.019  1.00  0.00    -0.275 C  
HETATM   14  C   UNL     1     -10.988  17.032  68.864  1.00  0.00    -0.141 C  
HETATM   15  O   UNL     1      -9.569  18.883  68.259  1.00  0.00    -0.316 OA 
HETATM   16  O   UNL     1     -10.348  13.919  64.697  1.00  0.00    -0.458 OA 
HETATM   17  C   UNL     1      -9.709  14.134  67.150  1.00  0.00    -0.248 C  
HETATM   18  H   UNL     1     -10.000  14.803  64.712  1.00  0.00     0.000 HD 
HETATM   19  C   UNL     1      -8.309  13.142  67.208  1.00  0.00    -0.182 C  
HETATM   20  C   UNL     1      -7.420  13.545  68.386  1.00  0.00    -0.124 C  
HETATM   21  C   UNL     1      -7.123  15.035  68.400  1.00  0.00    -0.108 C  
HETATM   22  F   UNL     1      -6.378  15.292  69.514  1.00  0.00    -0.112 F  
HETATM   23  C   UNL     1      -8.344  15.913  68.353  1.00  0.00    -0.174 C  
HETATM   24  C   UNL     1      -8.519  16.952  69.188  1.00  0.00    -0.057 C  
HETATM   25  C   UNL     1      -9.662  17.779  68.778  1.00  0.00    -0.314 C  
ENDROOT
BRANCH   4  26
HETATM   26  C   UNL     1     -10.152  11.278  63.923  1.00  0.00    -0.340 C  
HETATM   27  O   UNL     1     -11.326  11.502  63.589  1.00  0.00    -0.411 OA 
BRANCH  26  28
HETATM   28  C   UNL     1      -9.367  10.427  62.850  1.00  0.00    -0.319 C  
HETATM   29  O   UNL     1      -8.214  11.118  62.333  1.00  0.00    -0.401 OA 
HETATM   30  H   UNL     1      -7.741  10.606  61.687  1.00  0.00     0.000 HD 
ENDBRANCH  26  28
ENDBRANCH   4  26
TORSDOF 2
ENDMDL
MODEL       24
REMARK 921   NORMALIZED FREE ENERGY PREDICTED BY IDOCK:   -6.00 KCAL/MOL
REMARK 922        TOTAL FREE ENERGY PREDICTED BY IDOCK:   -6.06 KCAL/MOL
REMARK 923 INTER-LIGAND FREE ENERGY PREDICTED BY IDOCK:   -6.58 KCAL/MOL
REMARK 924 INTRA-LIGAND FREE ENERGY PREDICTED BY IDOCK:    0.52 KCAL/MOL
REMARK 927      BINDING AFFINITY PREDICTED BY RF-SCORE:    0.00 PKD
ROOT
HETATM    1  C   UNL     1     -10.238  14.985  65.290  1.00  0.00    -0.409 C  
HETATM    2  C   UNL     1     -11.627  14.943  65.024  1.00  0.00    -0.357 C  
HETATM    3  C   UNL     1     -11.245  15.232  66.447  1.00  0.00    -0.224 C  
HETATM    4  C   UNL     1      -9.296  15.829  66.841  1.00  0.00    -0.227 C  
HETATM    5  O   UNL     1      -8.322  15.908  65.727  1.00  0.00    -0.061 OA 
HETATM    6  C   UNL     1      -8.482  11.901  68.797  1.00  0.00     0.036 C  
HETATM    7  C   UNL     1     -10.417  16.508  66.465  1.00  0.00    -0.270 C  
HETATM    8  C   UNL     1     -10.820  16.143  68.302  1.00  0.00    -0.326 C  
HETATM    9  C   UNL     1     -10.606  17.797  65.726  1.00  0.00    -0.175 C  
HETATM   10  C   UNL     1      -9.960  11.883  68.429  1.00  0.00    -0.203 C  
HETATM   11  C   UNL     1     -11.011  11.638  69.609  1.00  0.00    -0.097 C  
HETATM   12  H   UNL     1      -7.430  16.181  65.907  1.00  0.00     0.000 HD 
HETATM   13  C   UNL     1     -10.184  14.606  68.783  1.00  0.00    -0.242 C  
HETATM   14  C   UNL     1     -11.920  10.665  69.710  1.00  0.00    -0.363 C  
HETATM   15  O   UNL     1     -10.282   8.926  70.023  1.00  0.00    -0.187 OA 
HETATM   16  O   UNL     1      -8.800  14.831  69.091  1.00  0.00    -0.297 OA 
HETATM   17  C   UNL     1     -10.326  13.264  67.792  1.00  0.00    -0.233 C  
HETATM   18  H   UNL     1      -8.451  13.987  69.354  1.00  0.00     0.000 HD 
HETATM   19  C   UNL     1      -9.726  13.477  66.198  1.00  0.00    -0.264 C  
HETATM   20  C   UNL     1     -10.065  12.259  65.335  1.00  0.00    -0.292 C  
HETATM   21  C   UNL     1      -9.638  10.955  65.987  1.00  0.00    -0.209 C  
HETATM   22  F   UNL     1     -10.037   9.939  65.168  1.00  0.00    -0.381 F  
HETATM   23  C   UNL     1     -10.162  10.758  67.385  1.00  0.00    -0.241 C  
HETATM   24  C   UNL     1     -10.741   9.612  67.784  1.00  0.00    -0.316 C  
HETATM   25  C   UNL     1     -10.942   9.595  69.239  1.00  0.00    -0.168 C  
ENDROOT
BRANCH   4  26
HETATM   26  C   UNL     1      -8.540  17.210  67.719  1.00  0.00    -0.216 C  
HETATM   27  O   UNL     1      -9.015  17.750  68.731  1.00  0.00    -0.277 OA 
BRANCH  26  28
HETATM   28  C   UNL     1      -7.249  17.947  67.186  1.00  0.00    -0.185 C  
HETATM   29  O   UNL     1      -7.477  18.625  65.936  1.00  0.00    -0.397 OA 
HETATM   30  H   UNL     1      -6.701  19.069  65.615  1.00  0.00     0.000 HD 
ENDBRANCH  26  28
ENDBRANCH   4  26
TORSDOF 2
ENDMDL
MODEL       25
REMARK 921   NORMALIZED FREE ENERGY PREDICTED BY IDOCK:   -5.97 KCAL/MOL
REMARK 922        TOTAL FREE ENERGY PREDICTED BY IDOCK:   -6.03 KCAL/MOL
REMARK 923 INTER-LIGAND FREE ENERGY PREDICTED BY IDOCK:   -6.51 KCAL/MOL
REMARK 924 INTRA-LIGAND FREE ENERGY PREDICTED BY IDOCK:    0.48 KCAL/MOL
REMARK 927      BINDING AFFINITY PREDICTED BY RF-SCORE:    0.00 PKD
ROOT
HETATM    1  C   UNL     1      -8.198  12.874  68.124  1.00  0.00    -0.163 C  
HETATM    2  C   UNL     1      -7.279  12.545  67.100  1.00  0.00    -0.061 C  
HETATM    3  C   UNL     1      -8.728  12.366  66.755  1.00  0.00    -0.160 C  
HETATM    4  C   UNL     1     -10.147  13.295  67.954  1.00  0.00    -0.235 C  
HETATM    5  O   UNL     1      -9.703  14.064  69.141  1.00  0.00    -0.419 OA 
HETATM    6  C   UNL     1     -11.393   9.323  69.566  1.00  0.00     0.077 C  
HETATM    7  C   UNL     1      -9.416  13.717  66.884  1.00  0.00    -0.265 C  
HETATM    8  C   UNL     1     -10.694  12.583  66.017  1.00  0.00    -0.292 C  
HETATM    9  C   UNL     1      -8.964  15.079  66.456  1.00  0.00    -0.310 C  
HETATM   10  C   UNL     1     -10.348   9.028  68.497  1.00  0.00    -0.233 C  
HETATM   11  C   UNL     1     -10.775   8.066  67.293  1.00  0.00    -0.280 C  
HETATM   12  H   UNL     1     -10.352  14.489  69.689  1.00  0.00     0.000 HD 
HETATM   13  C   UNL     1     -11.097  11.227  67.016  1.00  0.00    -0.293 C  
HETATM   14  C   UNL     1     -10.211   6.914  66.924  1.00  0.00    -0.310 C  
HETATM   15  O   UNL     1     -10.926   5.728  68.896  1.00  0.00    -0.286 OA 
HETATM   16  O   UNL     1     -12.087  11.700  67.942  1.00  0.00    -0.613 OA 
HETATM   17  C   UNL     1      -9.914  10.383  67.845  1.00  0.00    -0.192 C  
HETATM   18  H   UNL     1     -12.308  10.956  68.490  1.00  0.00     0.000 HD 
HETATM   19  C   UNL     1      -8.907  11.346  68.848  1.00  0.00    -0.010 C  
HETATM   20  C   UNL     1      -7.760  10.506  69.414  1.00  0.00    -0.157 C  
HETATM   21  C   UNL     1      -8.253   9.231  70.077  1.00  0.00    -0.154 C  
HETATM   22  F   UNL     1      -7.155   8.535  70.491  1.00  0.00    -0.036 F  
HETATM   23  C   UNL     1      -9.134   8.378  69.204  1.00  0.00    -0.147 C  
HETATM   24  C   UNL     1      -8.949   7.053  69.068  1.00  0.00    -0.133 C  
HETATM   25  C   UNL     1     -10.076   6.428  68.362  1.00  0.00    -0.157 C  
ENDROOT
BRANCH   4  26
HETATM   26  C   UNL     1     -11.547  14.391  67.655  1.00  0.00    -0.370 C  
HETATM   27  O   UNL     1     -12.289  14.335  66.662  1.00  0.00    -0.446 OA 
BRANCH  26  28
HETATM   28  C   UNL     1     -11.872  15.622  68.588  1.00  0.00    -0.291 C  
HETATM   29  O   UNL     1     -12.554  15.236  69.795  1.00  0.00    -0.577 OA 
HETATM   30  H   UNL     1     -12.750  15.977  70.357  1.00  0.00     0.000 HD 
ENDBRANCH  26  28
ENDBRANCH   4  26
TORSDOF 2
ENDMDL
MODEL       26
REMARK 921   NORMALIZED FREE ENERGY PREDICTED BY IDOCK:   -5.96 KCAL/MOL
REMARK 922        TOTAL FREE ENERGY PREDICTED BY IDOCK:   -6.03 KCAL/MOL
REMARK 923 INTER-LIGAND FREE ENERGY PREDICTED BY IDOCK:   -6.46 KCAL/MOL
REMARK 924 INTRA-LIGAND FREE ENERGY PREDICTED BY IDOCK:    0.44 KCAL/MOL
REMARK 927      BINDING AFFINITY PREDICTED BY RF-SCORE:    0.00 PKD
ROOT
HETATM    1  C   UNL     1      -8.841  10.544  65.835  1.00  0.00    -0.180 C  
HETATM    2  C   UNL     1      -9.584   9.717  64.959  1.00  0.00    -0.333 C  
HETATM    3  C   UNL     1     -10.368  10.368  66.061  1.00  0.00    -0.262 C  
HETATM    4  C   UNL     1      -9.514  11.978  67.058  1.00  0.00    -0.198 C  
HETATM    5  O   UNL     1      -8.143  12.411  66.697  1.00  0.00    -0.391 OA 
HETATM    6  C   UNL     1      -8.992   9.452  70.700  1.00  0.00    -0.285 C  
HETATM    7  C   UNL     1     -10.238  11.876  65.907  1.00  0.00    -0.270 C  
HETATM    8  C   UNL     1     -11.613  11.621  67.217  1.00  0.00    -0.316 C  
HETATM    9  C   UNL     1     -10.292  12.733  64.680  1.00  0.00    -0.362 C  
HETATM   10  C   UNL     1      -9.735   8.581  69.695  1.00  0.00    -0.179 C  
HETATM   11  C   UNL     1     -11.147   7.979  70.142  1.00  0.00    -0.191 C  
HETATM   12  H   UNL     1      -7.753  13.147  67.152  1.00  0.00     0.000 HD 
HETATM   13  C   UNL     1     -11.006  10.763  68.593  1.00  0.00    -0.239 C  
HETATM   14  C   UNL     1     -11.509   6.695  70.204  1.00  0.00    -0.444 C  
HETATM   15  O   UNL     1     -10.051   6.190  72.055  1.00  0.00    -0.179 OA 
HETATM   16  O   UNL     1     -10.354  11.746  69.413  1.00  0.00    -0.429 OA 
HETATM   17  C   UNL     1     -10.006   9.434  68.411  1.00  0.00    -0.191 C  
HETATM   18  H   UNL     1     -10.020  11.275  70.168  1.00  0.00     0.000 HD 
HETATM   19  C   UNL     1      -8.611   9.705  67.448  1.00  0.00    -0.125 C  
HETATM   20  C   UNL     1      -7.869   8.389  67.204  1.00  0.00    -0.100 C  
HETATM   21  C   UNL     1      -7.593   7.636  68.494  1.00  0.00    -0.110 C  
HETATM   22  F   UNL     1      -6.985   6.461  68.159  1.00  0.00    -0.068 F  
HETATM   23  C   UNL     1      -8.810   7.390  69.344  1.00  0.00    -0.137 C  
HETATM   24  C   UNL     1      -9.093   6.186  69.870  1.00  0.00    -0.146 C  
HETATM   25  C   UNL     1     -10.191   6.273  70.842  1.00  0.00    -0.193 C  
ENDROOT
BRANCH   4  26
HETATM   26  C   UNL     1     -10.039  13.657  67.449  1.00  0.00    -0.241 C  
HETATM   27  O   UNL     1     -11.218  14.011  67.608  1.00  0.00    -0.277 OA 
BRANCH  26  28
HETATM   28  C   UNL     1      -9.030  14.870  67.494  1.00  0.00    -0.185 C  
HETATM   29  O   UNL     1      -8.539  15.230  66.189  1.00  0.00    -0.433 OA 
HETATM   30  H   UNL     1      -7.932  15.960  66.216  1.00  0.00     0.000 HD 
ENDBRANCH  26  28
ENDBRANCH   4  26
TORSDOF 2
ENDMDL
MODEL       27
REMARK 921   NORMALIZED FREE ENERGY PREDICTED BY IDOCK:   -5.92 KCAL/MOL
REMARK 922        TOTAL FREE ENERGY PREDICTED BY IDOCK:   -5.97 KCAL/MOL
REMARK 923 INTER-LIGAND FREE ENERGY PREDICTED BY IDOCK:   -6.68 KCAL/MOL
REMARK 924 INTRA-LIGAND FREE ENERGY PREDICTED BY IDOCK:    0.71 KCAL/MOL
REMARK 927      BINDING AFFINITY PREDICTED BY RF-SCORE:    0.00 PKD
ROOT
HETATM    1  C   UNL     1     -11.819  12.682  68.358  1.00  0.00    -0.347 C  
HETATM    2  C   UNL     1     -11.652  13.566  69.450  1.00  0.00    -0.369 C  
HETATM    3  C   UNL     1     -10.535  13.553  68.448  1.00  0.00    -0.252 C  
HETATM    4  C   UNL     1     -10.897  12.717  66.582  1.00  0.00    -0.264 C  
HETATM    5  O   UNL     1     -12.221  12.113  66.302  1.00  0.00    -0.604 OA 
HETATM    6  C   UNL     1      -8.260   9.266  67.611  1.00  0.00    -0.115 C  
HETATM    7  C   UNL     1     -11.105  13.962  67.098  1.00  0.00    -0.312 C  
HETATM    8  C   UNL     1      -9.204  13.985  66.869  1.00  0.00    -0.271 C  
HETATM    9  C   UNL     1     -12.082  15.040  66.745  1.00  0.00     0.125 C  
HETATM   10  C   UNL     1      -8.168  10.225  68.792  1.00  0.00    -0.119 C  
HETATM   11  C   UNL     1      -6.716  10.757  69.200  1.00  0.00    -0.074 C  
HETATM   12  H   UNL     1     -12.386  11.731  65.448  1.00  0.00     0.000 HD 
HETATM   13  C   UNL     1      -8.524  12.420  67.165  1.00  0.00    -0.185 C  
HETATM   14  C   UNL     1      -6.096  10.631  70.375  1.00  0.00    -0.132 C  
HETATM   15  O   UNL     1      -5.804   8.249  70.166  1.00  0.00    -0.025 OA 
HETATM   16  O   UNL     1      -8.700  11.677  65.949  1.00  0.00    -0.360 OA 
HETATM   17  C   UNL     1      -9.026  11.492  68.465  1.00  0.00    -0.146 C  
HETATM   18  H   UNL     1      -8.328  10.818  66.112  1.00  0.00     0.000 HD 
HETATM   19  C   UNL     1     -10.720  11.228  68.553  1.00  0.00    -0.235 C  
HETATM   20  C   UNL     1     -11.081  10.526  69.864  1.00  0.00    -0.371 C  
HETATM   21  C   UNL     1     -10.248   9.277  70.096  1.00  0.00    -0.215 C  
HETATM   22  F   UNL     1     -10.607   8.766  71.310  1.00  0.00    -0.247 F  
HETATM   23  C   UNL     1      -8.761   9.499  70.024  1.00  0.00    -0.242 C  
HETATM   24  C   UNL     1      -7.914   9.030  70.958  1.00  0.00    -0.186 C  
HETATM   25  C   UNL     1      -6.516   9.174  70.530  1.00  0.00    -0.056 C  
ENDROOT
BRANCH   4  26
HETATM   26  C   UNL     1     -10.686  13.266  64.878  1.00  0.00    -0.351 C  
HETATM   27  O   UNL     1     -10.167  14.342  64.541  1.00  0.00    -0.304 OA 
BRANCH  26  28
HETATM   28  C   UNL     1     -11.274  12.464  63.652  1.00  0.00    -0.474 C  
HETATM   29  O   UNL     1     -10.355  11.480  63.143  1.00  0.00    -0.546 OA 
HETATM   30  H   UNL     1     -10.709  10.997  62.405  1.00  0.00     0.000 HD 
ENDBRANCH  26  28
ENDBRANCH   4  26
TORSDOF 2
ENDMDL
MODEL       28
REMARK 921   NORMALIZED FREE ENERGY PREDICTED BY IDOCK:   -5.91 KCAL/MOL
REMARK 922        TOTAL FREE ENERGY PREDICTED BY IDOCK:   -5.97 KCAL/MOL
REMARK 923 INTER-LIGAND FREE ENERGY PREDICTED BY IDOCK:   -6.39 KCAL/MOL
REMARK 924 INTRA-LIGAND FREE ENERGY PREDICTED BY IDOCK:    0.43 KCAL/MOL
REMARK 927      BINDING AFFINITY PREDICTED BY RF-SCORE:    0.00 PKD
ROOT
HETATM    1  C   UNL     1     -11.071  10.206  70.478  1.00  0.00    -0.400 C  
HETATM    2  C   UNL     1     -12.428   9.803  70.480  1.00  0.00    -0.129 C  
HETATM    3  C   UNL     1     -11.620   9.359  69.296  1.00  0.00     0.368 C  
HETATM    4  C   UNL     1      -9.550   9.430  69.435  1.00  0.00    -0.173 C  
HETATM    5  O   UNL     1      -8.923   9.961  70.669  1.00  0.00    -0.343 OA 
HETATM    6  C   UNL     1      -9.469  12.840  66.556  1.00  0.00    -0.253 C  
HETATM    7  C   UNL     1     -10.473   8.497  69.802  1.00  0.00    -0.220 C  
HETATM    8  C   UNL     1     -10.472   8.269  67.900  1.00  0.00    -0.259 C  
HETATM    9  C   UNL     1     -10.453   7.429  70.851  1.00  0.00    -0.225 C  
HETATM   10  C   UNL     1     -10.928  12.408  66.646  1.00  0.00    -0.309 C  
HETATM   11  C   UNL     1     -11.657  11.985  65.287  1.00  0.00    -0.337 C  
HETATM   12  H   UNL     1      -7.976   9.993  70.732  1.00  0.00     0.000 HD 
HETATM   13  C   UNL     1     -10.225   9.782  67.095  1.00  0.00    -0.228 C  
HETATM   14  C   UNL     1     -12.757  12.517  64.747  1.00  0.00    -0.415 C  
HETATM   15  O   UNL     1     -11.694  14.610  64.207  1.00  0.00    -0.358 OA 
HETATM   16  O   UNL     1      -8.807  10.007  67.106  1.00  0.00    -0.134 OA 
HETATM   17  C   UNL     1     -11.015  11.168  67.597  1.00  0.00    -0.323 C  
HETATM   18  H   UNL     1      -8.671  10.837  66.665  1.00  0.00     0.000 HD 
HETATM   19  C   UNL     1     -10.817  11.551  69.259  1.00  0.00    -0.217 C  
HETATM   20  C   UNL     1     -11.718  12.726  69.646  1.00  0.00    -0.372 C  
HETATM   21  C   UNL     1     -11.547  13.913  68.714  1.00  0.00    -0.335 C  
HETATM   22  F   UNL     1     -12.431  14.874  69.110  1.00  0.00    -0.254 F  
HETATM   23  C   UNL     1     -11.722  13.589  67.254  1.00  0.00    -0.423 C  
HETATM   24  C   UNL     1     -12.493  14.328  66.437  1.00  0.00    -0.287 C  
HETATM   25  C   UNL     1     -12.303  13.943  65.032  1.00  0.00    -0.430 C  
ENDROOT
BRANCH   4  26
HETATM   26  C   UNL     1      -8.213   8.255  69.153  1.00  0.00    -0.121 C  
HETATM   27  O   UNL     1      -8.279   7.277  68.391  1.00  0.00    -0.123 OA 
BRANCH  26  28
HETATM   28  C   UNL     1      -6.862   8.298  69.969  1.00  0.00    -0.043 C  
HETATM   29  O   UNL     1      -7.019   7.832  71.322  1.00  0.00    -0.048 OA 
HETATM   30  H   UNL     1      -6.206   7.858  71.814  1.00  0.00     0.000 HD 
ENDBRANCH  26  28
ENDBRANCH   4  26
TORSDOF 2
ENDMDL
MODEL       29
REMARK 921   NORMALIZED FREE ENERGY PREDICTED BY IDOCK:   -5.87 KCAL/MOL
REMARK 922        TOTAL FREE ENERGY PREDICTED BY IDOCK:   -5.92 KCAL/MOL
REMARK 923 INTER-LIGAND FREE ENERGY PREDICTED BY IDOCK:   -6.35 KCAL/MOL
REMARK 924 INTRA-LIGAND FREE ENERGY PREDICTED BY IDOCK:    0.43 KCAL/MOL
REMARK 927      BINDING AFFINITY PREDICTED BY RF-SCORE:    0.00 PKD
ROOT
HETATM    1  C   UNL     1     -10.292   9.965  70.225  1.00  0.00    -0.339 C  
HETATM    2  C   UNL     1     -11.527   9.275  70.184  1.00  0.00    -0.138 C  
HETATM    3  C   UNL     1     -10.644   9.098  68.984  1.00  0.00    -0.219 C  
HETATM    4  C   UNL     1      -8.639   9.613  69.153  1.00  0.00    -0.146 C  
HETATM    5  O   UNL     1      -8.142  10.186  70.427  1.00  0.00    -0.403 OA 
HETATM    6  C   UNL     1      -9.317  13.140  66.502  1.00  0.00    -0.222 C  
HETATM    7  C   UNL     1      -9.334   8.478  69.448  1.00  0.00    -0.154 C  
HETATM    8  C   UNL     1      -9.287   8.382  67.535  1.00  0.00    -0.172 C  
HETATM    9  C   UNL     1      -9.077   7.373  70.425  1.00  0.00    -0.157 C  
HETATM   10  C   UNL     1     -10.644  12.392  66.546  1.00  0.00    -0.261 C  
HETATM   11  C   UNL     1     -11.265  11.911  65.154  1.00  0.00    -0.346 C  
HETATM   12  H   UNL     1      -7.225  10.422  70.504  1.00  0.00     0.000 HD 
HETATM   13  C   UNL     1      -9.380   9.962  66.832  1.00  0.00    -0.152 C  
HETATM   14  C   UNL     1     -12.455  12.222  64.635  1.00  0.00    -0.424 C  
HETATM   15  O   UNL     1     -11.880  14.529  64.245  1.00  0.00    -0.408 OA 
HETATM   16  O   UNL     1      -8.046  10.491  66.877  1.00  0.00    -0.116 OA 
HETATM   17  C   UNL     1     -10.455  11.104  67.414  1.00  0.00    -0.255 C  
HETATM   18  H   UNL     1      -8.097  11.358  66.492  1.00  0.00     0.000 HD 
HETATM   19  C   UNL     1     -10.343  11.410  69.099  1.00  0.00    -0.122 C  
HETATM   20  C   UNL     1     -11.480  12.330  69.550  1.00  0.00    -0.318 C  
HETATM   21  C   UNL     1     -11.576  13.585  68.699  1.00  0.00    -0.330 C  
HETATM   22  F   UNL     1     -12.649  14.300  69.145  1.00  0.00    -0.300 F  
HETATM   23  C   UNL     1     -11.678  13.327  67.219  1.00  0.00    -0.424 C  
HETATM   24  C   UNL     1     -12.594  13.931  66.442  1.00  0.00    -0.314 C  
HETATM   25  C   UNL     1     -12.326  13.691  65.018  1.00  0.00    -0.427 C  
ENDROOT
BRANCH   4  26
HETATM   26  C   UNL     1      -7.077   8.782  68.813  1.00  0.00    -0.063 C  
HETATM   27  O   UNL     1      -6.926   7.871  67.983  1.00  0.00    -0.069 OA 
BRANCH  26  28
HETATM   28  C   UNL     1      -5.770   9.058  69.654  1.00  0.00    -0.033 C  
HETATM   29  O   UNL     1      -5.823   8.470  70.967  1.00  0.00    -0.032 OA 
HETATM   30  H   UNL     1      -5.036   8.637  71.473  1.00  0.00     0.000 HD 
ENDBRANCH  26  28
ENDBRANCH   4  26
TORSDOF 2
ENDMDL
MODEL       30
REMARK 921   NORMALIZED FREE ENERGY PREDICTED BY IDOCK:   -5.86 KCAL/MOL
REMARK 922        TOTAL FREE ENERGY PREDICTED BY IDOCK:   -5.91 KCAL/MOL
REMARK 923 INTER-LIGAND FREE ENERGY PREDICTED BY IDOCK:   -6.49 KCAL/MOL
REMARK 924 INTRA-LIGAND FREE ENERGY PREDICTED BY IDOCK:    0.59 KCAL/MOL
REMARK 927      BINDING AFFINITY PREDICTED BY RF-SCORE:    0.00 PKD
ROOT
HETATM    1  C   UNL     1      -8.691  15.358  67.930  1.00  0.00    -0.160 C  
HETATM    2  C   UNL     1      -8.633  15.911  66.628  1.00  0.00    -0.320 C  
HETATM    3  C   UNL     1      -9.862  15.107  66.940  1.00  0.00    -0.243 C  
HETATM    4  C   UNL     1     -10.296  14.704  68.930  1.00  0.00    -0.245 C  
HETATM    5  O   UNL     1      -9.366  15.172  69.985  1.00  0.00    -0.456 OA 
HETATM    6  C   UNL     1      -9.243  10.414  68.298  1.00  0.00    -0.149 C  
HETATM    7  C   UNL     1     -10.571  15.762  68.115  1.00  0.00    -0.275 C  
HETATM    8  C   UNL     1     -11.808  14.463  67.443  1.00  0.00    -0.430 C  
HETATM    9  C   UNL     1     -10.832  17.208  68.406  1.00  0.00    -0.309 C  
HETATM   10  C   UNL     1      -9.132  11.074  66.929  1.00  0.00    -0.165 C  
HETATM   11  C   UNL     1     -10.019  10.468  65.744  1.00  0.00    -0.318 C  
HETATM   12  H   UNL     1      -9.564  14.988  70.895  1.00  0.00     0.000 HD 
HETATM   13  C   UNL     1     -11.136  12.869  67.522  1.00  0.00    -0.269 C  
HETATM   14  C   UNL     1      -9.601   9.979  64.574  1.00  0.00    -0.346 C  
HETATM   15  O   UNL     1      -8.549   8.047  65.556  1.00  0.00    -0.155 OA 
HETATM   16  O   UNL     1     -11.342  12.422  68.872  1.00  0.00    -0.254 OA 
HETATM   17  C   UNL     1      -9.552  12.574  67.071  1.00  0.00    -0.216 C  
HETATM   18  H   UNL     1     -10.973  11.547  68.915  1.00  0.00     0.000 HD 
HETATM   19  C   UNL     1      -8.382  13.553  67.860  1.00  0.00    -0.175 C  
HETATM   20  C   UNL     1      -6.998  13.325  67.248  1.00  0.00     0.003 C  
HETATM   21  C   UNL     1      -6.631  11.853  67.185  1.00  0.00    -0.148 C  
HETATM   22  F   UNL     1      -5.414  11.760  66.575  1.00  0.00    -0.134 F  
HETATM   23  C   UNL     1      -7.649  10.987  66.493  1.00  0.00    -0.146 C  
HETATM   24  C   UNL     1      -7.312  10.087  65.552  1.00  0.00    -0.137 C  
HETATM   25  C   UNL     1      -8.447   9.217  65.215  1.00  0.00    -0.154 C  
ENDROOT
BRANCH   4  26
HETATM   26  C   UNL     1     -11.742  14.914  69.986  1.00  0.00    -0.294 C  
HETATM   27  O   UNL     1     -12.885  14.520  69.706  1.00  0.00    -0.130 OA 
BRANCH  26  28
HETATM   28  C   UNL     1     -11.698  15.749  71.325  1.00  0.00    -0.440 C  
HETATM   29  O   UNL     1     -11.215  14.978  72.441  1.00  0.00    -0.429 OA 
HETATM   30  H   UNL     1     -11.189  15.481  73.247  1.00  0.00     0.000 HD 
ENDBRANCH  26  28
ENDBRANCH   4  26
TORSDOF 2
ENDMDL
MODEL       31
REMARK 921   NORMALIZED FREE ENERGY PREDICTED BY IDOCK:   -5.86 KCAL/MOL
REMARK 922        TOTAL FREE ENERGY PREDICTED BY IDOCK:   -5.91 KCAL/MOL
REMARK 923 INTER-LIGAND FREE ENERGY PREDICTED BY IDOCK:   -6.38 KCAL/MOL
REMARK 924 INTRA-LIGAND FREE ENERGY PREDICTED BY IDOCK:    0.48 KCAL/MOL
REMARK 927      BINDING AFFINITY PREDICTED BY RF-SCORE:    0.00 PKD
ROOT
HETATM    1  C   UNL     1      -9.340   8.566  67.144  1.00  0.00    -0.191 C  
HETATM    2  C   UNL     1      -8.040   8.589  66.585  1.00  0.00    -0.104 C  
HETATM    3  C   UNL     1      -8.245   9.461  67.789  1.00  0.00    -0.114 C  
HETATM    4  C   UNL     1      -9.908   9.116  68.982  1.00  0.00    -0.174 C  
HETATM    5  O   UNL     1     -10.874   8.060  68.594  1.00  0.00    -0.405 OA 
HETATM    6  C   UNL     1     -11.738  12.923  67.541  1.00  0.00    -0.422 C  
HETATM    7  C   UNL     1      -8.659   8.572  68.952  1.00  0.00    -0.127 C  
HETATM    8  C   UNL     1      -8.286  10.281  69.733  1.00  0.00    -0.111 C  
HETATM    9  C   UNL     1      -8.139   7.236  69.384  1.00  0.00    -0.130 C  
HETATM   10  C   UNL     1     -10.352  12.865  66.911  1.00  0.00    -0.247 C  
HETATM   11  C   UNL     1      -9.359  14.084  67.199  1.00  0.00    -0.244 C  
HETATM   12  H   UNL     1     -11.635   7.902  69.140  1.00  0.00     0.000 HD 
HETATM   13  C   UNL     1      -9.319  11.503  69.072  1.00  0.00     0.108 C  
HETATM   14  C   UNL     1      -8.773  14.892  66.312  1.00  0.00     0.000 C  
HETATM   15  O   UNL     1     -10.831  15.961  65.659  1.00  0.00    -0.329 OA 
HETATM   16  O   UNL     1     -10.558  11.403  69.791  1.00  0.00    -0.446 OA 
HETATM   17  C   UNL     1      -9.630  11.577  67.430  1.00  0.00    -0.177 C  
HETATM   18  H   UNL     1     -11.125  12.073  69.428  1.00  0.00     0.000 HD 
HETATM   19  C   UNL     1     -10.224  10.121  66.741  1.00  0.00    -0.289 C  
HETATM   20  C   UNL     1     -10.304  10.247  65.218  1.00  0.00    -0.218 C  
HETATM   21  C   UNL     1     -11.060  11.490  64.782  1.00  0.00    -0.233 C  
HETATM   22  F   UNL     1     -11.022  11.535  63.419  1.00  0.00    -0.415 F  
HETATM   23  C   UNL     1     -10.545  12.773  65.378  1.00  0.00    -0.309 C  
HETATM   24  C   UNL     1     -10.308  13.869  64.637  1.00  0.00    -0.366 C  
HETATM   25  C   UNL     1     -10.045  15.039  65.486  1.00  0.00    -0.369 C  
ENDROOT
BRANCH   4  26
HETATM   26  C   UNL     1     -10.178   8.841  70.743  1.00  0.00    -0.211 C  
HETATM   27  O   UNL     1      -9.352   9.096  71.633  1.00  0.00    -0.302 OA 
BRANCH  26  28
HETATM   28  C   UNL     1     -11.466   8.117  71.299  1.00  0.00    -0.266 C  
HETATM   29  O   UNL     1     -11.448   6.697  71.059  1.00  0.00    -0.293 OA 
HETATM   30  H   UNL     1     -12.223   6.260  71.394  1.00  0.00     0.000 HD 
ENDBRANCH  26  28
ENDBRANCH   4  26
TORSDOF 2
ENDMDL
MODEL       32
REMARK 921   NORMALIZED FREE ENERGY PREDICTED BY IDOCK:   -5.78 KCAL/MOL
REMARK 922        TOTAL FREE ENERGY PREDICTED BY IDOCK:   -5.82 KCAL/MOL
REMARK 923 INTER-LIGAND FREE ENERGY PREDICTED BY IDOCK:   -6.30 KCAL/MOL
REMARK 924 INTRA-LIGAND FREE ENERGY PREDICTED BY IDOCK:    0.48 KCAL/MOL
REMARK 927      BINDING AFFINITY PREDICTED BY RF-SCORE:    0.00 PKD
ROOT
HETATM    1  C   UNL     1      -8.256  11.711  68.468  1.00  0.00    -0.144 C  
HETATM    2  C   UNL     1      -7.344  11.137  67.551  1.00  0.00    -0.102 C  
HETATM    3  C   UNL     1      -8.794  10.853  67.289  1.00  0.00    -0.134 C  
HETATM    4  C   UNL     1     -10.214  12.045  68.224  1.00  0.00    -0.206 C  
HETATM    5  O   UNL     1      -9.769  13.105  69.160  1.00  0.00    -0.361 OA 
HETATM    6  C   UNL     1     -11.370   8.621  70.843  1.00  0.00    -0.314 C  
HETATM    7  C   UNL     1      -9.503  12.181  67.069  1.00  0.00    -0.201 C  
HETATM    8  C   UNL     1     -10.772  10.842  66.552  1.00  0.00    -0.270 C  
HETATM    9  C   UNL     1      -9.080  13.389  66.291  1.00  0.00     0.015 C  
HETATM   10  C   UNL     1     -10.333   8.069  69.872  1.00  0.00    -0.221 C  
HETATM   11  C   UNL     1     -10.759   6.819  68.970  1.00  0.00    -0.280 C  
HETATM   12  H   UNL     1     -10.419  13.650  69.588  1.00  0.00     0.000 HD 
HETATM   13  C   UNL     1     -11.139   9.791  67.878  1.00  0.00    -0.096 C  
HETATM   14  C   UNL     1     -10.179   5.617  68.908  1.00  0.00    -0.279 C  
HETATM   15  O   UNL     1     -10.849   4.982  71.133  1.00  0.00    -0.078 OA 
HETATM   16  O   UNL     1     -12.126  10.477  68.663  1.00  0.00    -0.775 OA 
HETATM   17  C   UNL     1      -9.931   9.211  68.881  1.00  0.00    -0.189 C  
HETATM   18  H   UNL     1     -12.327   9.901  69.391  1.00  0.00     0.000 HD 
HETATM   19  C   UNL     1      -8.929  10.417  69.578  1.00  0.00    -0.127 C  
HETATM   20  C   UNL     1      -7.761   9.771  70.327  1.00  0.00    -0.187 C  
HETATM   21  C   UNL     1      -8.224   8.709  71.309  1.00  0.00    -0.154 C  
HETATM   22  F   UNL     1      -7.108   8.161  71.874  1.00  0.00    -0.058 F  
HETATM   23  C   UNL     1      -9.100   7.644  70.706  1.00  0.00    -0.153 C  
HETATM   24  C   UNL     1      -8.894   6.333  70.919  1.00  0.00    -0.136 C  
HETATM   25  C   UNL     1     -10.018   5.529  70.420  1.00  0.00    -0.214 C  
ENDROOT
BRANCH   4  26
HETATM   26  C   UNL     1     -11.636  13.005  67.671  1.00  0.00    -0.355 C  
HETATM   27  O   UNL     1     -12.401  12.670  66.753  1.00  0.00    -0.450 OA 
BRANCH  26  28
HETATM   28  C   UNL     1     -11.957  14.444  68.234  1.00  0.00    -0.288 C  
HETATM   29  O   UNL     1     -12.587  14.404  69.529  1.00  0.00    -0.545 OA 
HETATM   30  H   UNL     1     -12.780  15.270  69.868  1.00  0.00     0.000 HD 
ENDBRANCH  26  28
ENDBRANCH   4  26
TORSDOF 2
ENDMDL
MODEL       33
REMARK 921   NORMALIZED FREE ENERGY PREDICTED BY IDOCK:   -5.76 KCAL/MOL
REMARK 922        TOTAL FREE ENERGY PREDICTED BY IDOCK:   -5.79 KCAL/MOL
REMARK 923 INTER-LIGAND FREE ENERGY PREDICTED BY IDOCK:   -6.35 KCAL/MOL
REMARK 924 INTRA-LIGAND FREE ENERGY PREDICTED BY IDOCK:    0.56 KCAL/MOL
REMARK 927      BINDING AFFINITY PREDICTED BY RF-SCORE:    0.00 PKD
ROOT
HETATM    1  C   UNL     1      -8.335  12.008  67.801  1.00  0.00    -0.156 C  
HETATM    2  C   UNL     1      -7.927  11.300  66.646  1.00  0.00    -0.159 C  
HETATM    3  C   UNL     1      -9.393  11.242  66.960  1.00  0.00    -0.183 C  
HETATM    4  C   UNL     1     -10.172  12.637  68.286  1.00  0.00    -0.239 C  
HETATM    5  O   UNL     1      -9.262  13.617  68.925  1.00  0.00    -0.391 OA 
HETATM    6  C   UNL     1     -10.727   9.431  71.342  1.00  0.00    -0.407 C  
HETATM    7  C   UNL     1      -9.938  12.662  66.943  1.00  0.00    -0.232 C  
HETATM    8  C   UNL     1     -11.483  11.532  67.015  1.00  0.00    -0.290 C  
HETATM    9  C   UNL     1      -9.673  13.791  65.995  1.00  0.00    -0.255 C  
HETATM   10  C   UNL     1     -10.221   8.727  70.088  1.00  0.00    -0.207 C  
HETATM   11  C   UNL     1     -11.127   7.556  69.485  1.00  0.00    -0.063 C  
HETATM   12  H   UNL     1      -9.618  14.255  69.532  1.00  0.00     0.000 HD 
HETATM   13  C   UNL     1     -11.467  10.550  68.441  1.00  0.00    -0.214 C  
HETATM   14  C   UNL     1     -10.790   6.280  69.281  1.00  0.00    -0.406 C  
HETATM   15  O   UNL     1     -10.654   5.756  71.628  1.00  0.00    -0.229 OA 
HETATM   16  O   UNL     1     -11.978  11.380  69.496  1.00  0.00    -0.309 OA 
HETATM   17  C   UNL     1     -10.066   9.793  68.954  1.00  0.00    -0.194 C  
HETATM   18  H   UNL     1     -11.969  10.841  70.279  1.00  0.00     0.000 HD 
HETATM   19  C   UNL     1      -8.715  10.833  69.156  1.00  0.00    -0.101 C  
HETATM   20  C   UNL     1      -7.455  10.017  69.452  1.00  0.00    -0.113 C  
HETATM   21  C   UNL     1      -7.658   9.038  70.596  1.00  0.00    -0.119 C  
HETATM   22  F   UNL     1      -6.502   8.327  70.735  1.00  0.00    -0.035 F  
HETATM   23  C   UNL     1      -8.838   8.119  70.426  1.00  0.00    -0.141 C  
HETATM   24  C   UNL     1      -8.755   6.792  70.623  1.00  0.00    -0.143 C  
HETATM   25  C   UNL     1     -10.085   6.169  70.627  1.00  0.00    -0.193 C  
ENDROOT
BRANCH   4  26
HETATM   26  C   UNL     1     -11.547  13.802  68.248  1.00  0.00    -0.338 C  
HETATM   27  O   UNL     1     -12.173  14.124  67.225  1.00  0.00    -0.402 OA 
BRANCH  26  28
HETATM   28  C   UNL     1     -11.993  14.627  69.518  1.00  0.00    -0.319 C  
HETATM   29  O   UNL     1     -11.660  13.964  70.752  1.00  0.00    -0.514 OA 
HETATM   30  H   UNL     1     -11.928  14.460  71.517  1.00  0.00     0.000 HD 
ENDBRANCH  26  28
ENDBRANCH   4  26
TORSDOF 2
ENDMDL
MODEL       34
REMARK 921   NORMALIZED FREE ENERGY PREDICTED BY IDOCK:   -5.74 KCAL/MOL
REMARK 922        TOTAL FREE ENERGY PREDICTED BY IDOCK:   -5.78 KCAL/MOL
REMARK 923 INTER-LIGAND FREE ENERGY PREDICTED BY IDOCK:   -6.34 KCAL/MOL
REMARK 924 INTRA-LIGAND FREE ENERGY PREDICTED BY IDOCK:    0.57 KCAL/MOL
REMARK 927      BINDING AFFINITY PREDICTED BY RF-SCORE:    0.00 PKD
ROOT
HETATM    1  C   UNL     1      -9.893  16.759  65.545  1.00  0.00     0.021 C  
HETATM    2  C   UNL     1     -11.281  16.991  65.403  1.00  0.00     0.312 C  
HETATM    3  C   UNL     1     -10.761  16.999  66.811  1.00  0.00    -0.102 C  
HETATM    4  C   UNL     1      -8.714  17.197  67.102  1.00  0.00    -0.212 C  
HETATM    5  O   UNL     1      -7.818  17.273  65.924  1.00  0.00    -0.505 OA 
HETATM    6  C   UNL     1      -8.489  12.944  68.437  1.00  0.00    -0.115 C  
HETATM    7  C   UNL     1      -9.718  18.102  66.923  1.00  0.00    -0.318 C  
HETATM    8  C   UNL     1     -10.056  17.544  68.724  1.00  0.00    -0.363 C  
HETATM    9  C   UNL     1      -9.722  19.498  66.382  1.00  0.00    -0.485 C  
HETATM   10  C   UNL     1      -9.968  13.228  68.205  1.00  0.00    -0.236 C  
HETATM   11  C   UNL     1     -10.965  12.993  69.433  1.00  0.00    -0.048 C  
HETATM   12  H   UNL     1      -6.882  17.363  66.057  1.00  0.00     0.000 HD 
HETATM   13  C   UNL     1      -9.676  15.868  68.936  1.00  0.00    -0.230 C  
HETATM   14  C   UNL     1     -12.024  12.183  69.486  1.00  0.00    -0.338 C  
HETATM   15  O   UNL     1     -10.708  10.166  69.415  1.00  0.00    -0.208 OA 
HETATM   16  O   UNL     1      -8.257  15.810  69.145  1.00  0.00    -0.216 OA 
HETATM   17  C   UNL     1     -10.121  14.730  67.794  1.00  0.00    -0.224 C  
HETATM   18  H   UNL     1      -8.048  14.890  69.260  1.00  0.00     0.000 HD 
HETATM   19  C   UNL     1      -9.600  15.070  66.194  1.00  0.00    -0.345 C  
HETATM   20  C   UNL     1     -10.209  14.066  65.211  1.00  0.00    -0.383 C  
HETATM   21  C   UNL     1      -9.980  12.628  65.643  1.00  0.00    -0.242 C  
HETATM   22  F   UNL     1     -10.608  11.824  64.736  1.00  0.00    -0.291 F  
HETATM   23  C   UNL     1     -10.437  12.319  67.044  1.00  0.00    -0.237 C  
HETATM   24  C   UNL     1     -11.184  11.240  67.339  1.00  0.00    -0.370 C  
HETATM   25  C   UNL     1     -11.287  11.044  68.791  1.00  0.00    -0.283 C  
ENDROOT
BRANCH   4  26
HETATM   26  C   UNL     1      -7.666  18.287  68.083  1.00  0.00    -0.279 C  
HETATM   27  O   UNL     1      -8.062  19.303  68.676  1.00  0.00    -0.351 OA 
BRANCH  26  28
HETATM   28  C   UNL     1      -6.100  18.109  68.162  1.00  0.00    -0.177 C  
HETATM   29  O   UNL     1      -5.669  16.806  67.724  1.00  0.00    -0.118 OA 
HETATM   30  H   UNL     1      -4.726  16.699  67.772  1.00  0.00     0.000 HD 
ENDBRANCH  26  28
ENDBRANCH   4  26
TORSDOF 2
ENDMDL
MODEL       35
REMARK 921   NORMALIZED FREE ENERGY PREDICTED BY IDOCK:   -5.73 KCAL/MOL
REMARK 922        TOTAL FREE ENERGY PREDICTED BY IDOCK:   -5.76 KCAL/MOL
REMARK 923 INTER-LIGAND FREE ENERGY PREDICTED BY IDOCK:   -6.37 KCAL/MOL
REMARK 924 INTRA-LIGAND FREE ENERGY PREDICTED BY IDOCK:    0.61 KCAL/MOL
REMARK 927      BINDING AFFINITY PREDICTED BY RF-SCORE:    0.00 PKD
ROOT
HETATM    1  C   UNL     1      -9.438   9.571  65.235  1.00  0.00    -0.326 C  
HETATM    2  C   UNL     1      -8.393  10.192  64.511  1.00  0.00    -0.168 C  
HETATM    3  C   UNL     1      -8.232  10.178  66.003  1.00  0.00    -0.131 C  
HETATM    4  C   UNL     1      -9.401   8.864  67.107  1.00  0.00    -0.145 C  
HETATM    5  O   UNL     1     -10.396   8.015  66.408  1.00  0.00    -0.471 OA 
HETATM    6  C   UNL     1     -11.758  12.299  68.708  1.00  0.00    -0.390 C  
HETATM    7  C   UNL     1      -8.208   8.727  66.463  1.00  0.00    -0.111 C  
HETATM    8  C   UNL     1      -7.673   9.748  67.993  1.00  0.00    -0.083 C  
HETATM    9  C   UNL     1      -7.520   7.535  65.873  1.00  0.00    -0.082 C  
HETATM   10  C   UNL     1     -10.650  12.915  67.862  1.00  0.00    -0.232 C  
HETATM   11  C   UNL     1      -9.670  13.957  68.575  1.00  0.00    -0.202 C  
HETATM   12  H   UNL     1     -10.930   7.414  66.913  1.00  0.00     0.000 HD 
HETATM   13  C   UNL     1      -8.915  10.860  68.461  1.00  0.00    -0.157 C  
HETATM   14  C   UNL     1      -9.438  15.228  68.238  1.00  0.00    -0.205 C  
HETATM   15  O   UNL     1     -11.639  15.981  68.864  1.00  0.00    -0.372 OA 
HETATM   16  O   UNL     1      -9.848  10.101  69.246  1.00  0.00    -0.197 OA 
HETATM   17  C   UNL     1      -9.746  11.759  67.320  1.00  0.00    -0.188 C  
HETATM   18  H   UNL     1     -10.530  10.711  69.502  1.00  0.00     0.000 HD 
HETATM   19  C   UNL     1     -10.470  10.839  66.063  1.00  0.00    -0.273 C  
HETATM   20  C   UNL     1     -11.045  11.766  64.990  1.00  0.00    -0.343 C  
HETATM   21  C   UNL     1     -11.953  12.833  65.577  1.00  0.00    -0.449 C  
HETATM   22  F   UNL     1     -12.362  13.633  64.550  1.00  0.00    -0.402 F  
HETATM   23  C   UNL     1     -11.327  13.647  66.678  1.00  0.00    -0.343 C  
HETATM   24  C   UNL     1     -11.390  14.989  66.708  1.00  0.00    -0.293 C  
HETATM   25  C   UNL     1     -10.914  15.516  67.995  1.00  0.00    -0.311 C  
ENDROOT
BRANCH   4  26
HETATM   26  C   UNL     1      -9.073   7.607  68.357  1.00  0.00    -0.130 C  
HETATM   27  O   UNL     1      -8.172   7.675  69.207  1.00  0.00    -0.128 OA 
BRANCH  26  28
HETATM   28  C   UNL     1      -9.838   6.227  68.390  1.00  0.00    -0.130 C  
HETATM   29  O   UNL     1      -9.025   5.133  67.923  1.00  0.00    -0.109 OA 
HETATM   30  H   UNL     1      -9.486   4.302  67.943  1.00  0.00     0.000 HD 
ENDBRANCH  26  28
ENDBRANCH   4  26
TORSDOF 2
ENDMDL
MODEL       36
REMARK 921   NORMALIZED FREE ENERGY PREDICTED BY IDOCK:   -5.68 KCAL/MOL
REMARK 922        TOTAL FREE ENERGY PREDICTED BY IDOCK:   -5.71 KCAL/MOL
REMARK 923 INTER-LIGAND FREE ENERGY PREDICTED BY IDOCK:   -6.16 KCAL/MOL
REMARK 924 INTRA-LIGAND FREE ENERGY PREDICTED BY IDOCK:    0.45 KCAL/MOL
REMARK 927      BINDING AFFINITY PREDICTED BY RF-SCORE:    0.00 PKD
ROOT
HETATM    1  C   UNL     1     -11.165  11.532  68.165  1.00  0.00    -0.335 C  
HETATM    2  C   UNL     1     -11.905  11.642  66.964  1.00  0.00    -0.038 C  
HETATM    3  C   UNL     1     -10.420  11.812  66.831  1.00  0.00    -0.256 C  
HETATM    4  C   UNL     1      -9.211  11.162  68.388  1.00  0.00    -0.175 C  
HETATM    5  O   UNL     1      -9.838  10.597  69.607  1.00  0.00    -0.413 OA 
HETATM    6  C   UNL     1      -8.281  15.398  69.442  1.00  0.00    -0.250 C  
HETATM    7  C   UNL     1      -9.752  10.531  67.308  1.00  0.00    -0.197 C  
HETATM    8  C   UNL     1      -8.358  11.543  66.469  1.00  0.00    -0.147 C  
HETATM    9  C   UNL     1     -10.116   9.099  67.064  1.00  0.00    -0.316 C  
HETATM   10  C   UNL     1      -9.138  15.462  68.183  1.00  0.00    -0.184 C  
HETATM   11  C   UNL     1      -8.526  16.214  66.912  1.00  0.00    -0.264 C  
HETATM   12  H   UNL     1      -9.285  10.299  70.319  1.00  0.00     0.000 HD 
HETATM   13  C   UNL     1      -8.137  13.067  67.260  1.00  0.00    -0.161 C  
HETATM   14  C   UNL     1      -9.031  17.262  66.256  1.00  0.00    -0.250 C  
HETATM   15  O   UNL     1      -8.661  18.801  68.072  1.00  0.00    -0.282 OA 
HETATM   16  O   UNL     1      -7.309  12.801  68.403  1.00  0.00    -0.104 OA 
HETATM   17  C   UNL     1      -9.447  13.999  67.724  1.00  0.00    -0.209 C  
HETATM   18  H   UNL     1      -7.188  13.638  68.837  1.00  0.00     0.000 HD 
HETATM   19  C   UNL     1     -10.598  13.189  68.708  1.00  0.00    -0.225 C  
HETATM   20  C   UNL     1     -11.829  14.072  68.923  1.00  0.00    -0.390 C  
HETATM   21  C   UNL     1     -11.463  15.461  69.417  1.00  0.00    -0.324 C  
HETATM   22  F   UNL     1     -12.620  16.177  69.518  1.00  0.00    -0.171 F  
HETATM   23  C   UNL     1     -10.457  16.181  68.559  1.00  0.00    -0.269 C  
HETATM   24  C   UNL     1     -10.628  17.453  68.159  1.00  0.00    -0.376 C  
HETATM   25  C   UNL     1      -9.405  17.986  67.543  1.00  0.00    -0.257 C  
ENDROOT
BRANCH   4  26
HETATM   26  C   UNL     1      -7.772  10.084  68.520  1.00  0.00    -0.089 C  
HETATM   27  O   UNL     1      -6.968   9.863  67.600  1.00  0.00    -0.084 OA 
BRANCH  26  28
HETATM   28  C   UNL     1      -7.483   9.211  69.803  1.00  0.00    -0.069 C  
HETATM   29  O   UNL     1      -7.197  10.014  70.964  1.00  0.00    -0.324 OA 
HETATM   30  H   UNL     1      -7.023   9.489  71.737  1.00  0.00     0.000 HD 
ENDBRANCH  26  28
ENDBRANCH   4  26
TORSDOF 2
ENDMDL
MODEL       37
REMARK 921   NORMALIZED FREE ENERGY PREDICTED BY IDOCK:   -5.62 KCAL/MOL
REMARK 922        TOTAL FREE ENERGY PREDICTED BY IDOCK:   -5.64 KCAL/MOL
REMARK 923 INTER-LIGAND FREE ENERGY PREDICTED BY IDOCK:   -6.23 KCAL/MOL
REMARK 924 INTRA-LIGAND FREE ENERGY PREDICTED BY IDOCK:    0.59 KCAL/MOL
REMARK 927      BINDING AFFINITY PREDICTED BY RF-SCORE:    0.00 PKD
ROOT
HETATM    1  C   UNL     1     -11.409  12.892  67.686  1.00  0.00    -0.349 C  
HETATM    2  C   UNL     1     -11.780  13.046  66.329  1.00  0.00    -0.440 C  
HETATM    3  C   UNL     1     -10.332  12.739  66.577  1.00  0.00    -0.262 C  
HETATM    4  C   UNL     1      -9.790  11.986  68.434  1.00  0.00    -0.204 C  
HETATM    5  O   UNL     1     -10.827  11.818  69.481  1.00  0.00    -0.442 OA 
HETATM    6  C   UNL     1      -7.785  15.849  69.422  1.00  0.00    -0.199 C  
HETATM    7  C   UNL     1     -10.248  11.399  67.293  1.00  0.00    -0.229 C  
HETATM    8  C   UNL     1      -8.448  11.811  66.784  1.00  0.00    -0.177 C  
HETATM    9  C   UNL     1     -10.997  10.124  67.054  1.00  0.00    -0.162 C  
HETATM   10  C   UNL     1      -8.264  15.987  67.982  1.00  0.00    -0.151 C  
HETATM   11  C   UNL     1      -7.168  16.327  66.869  1.00  0.00    -0.257 C  
HETATM   12  H   UNL     1     -10.579  11.473  70.330  1.00  0.00     0.000 HD 
HETATM   13  C   UNL     1      -7.924  13.294  67.507  1.00  0.00    -0.184 C  
HETATM   14  C   UNL     1      -7.138  17.372  66.039  1.00  0.00    -0.259 C  
HETATM   15  O   UNL     1      -6.705  18.973  67.787  1.00  0.00    -0.204 OA 
HETATM   16  O   UNL     1      -7.511  12.958  68.841  1.00  0.00    -0.243 OA 
HETATM   17  C   UNL     1      -8.924  14.635  67.552  1.00  0.00    -0.193 C  
HETATM   18  H   UNL     1      -7.224  13.773  69.237  1.00  0.00     0.000 HD 
HETATM   19  C   UNL     1     -10.468  14.360  68.251  1.00  0.00    -0.245 C  
HETATM   20  C   UNL     1     -11.356  15.595  68.080  1.00  0.00    -0.340 C  
HETATM   21  C   UNL     1     -10.676  16.864  68.563  1.00  0.00    -0.359 C  
HETATM   22  F   UNL     1     -11.525  17.903  68.313  1.00  0.00     0.051 F  
HETATM   23  C   UNL     1      -9.323  17.116  67.954  1.00  0.00    -0.249 C  
HETATM   24  C   UNL     1      -8.971  18.309  67.443  1.00  0.00    -0.257 C  
HETATM   25  C   UNL     1      -7.535  18.354  67.135  1.00  0.00    -0.218 C  
ENDROOT
BRANCH   4  26
HETATM   26  C   UNL     1      -8.854  10.554  69.006  1.00  0.00    -0.169 C  
HETATM   27  O   UNL     1      -7.708  10.263  68.629  1.00  0.00    -0.086 OA 
BRANCH  26  28
HETATM   28  C   UNL     1      -9.480   9.458  69.953  1.00  0.00    -0.213 C  
HETATM   29  O   UNL     1      -9.686   9.939  71.295  1.00  0.00    -0.190 OA 
HETATM   30  H   UNL     1     -10.062   9.279  71.865  1.00  0.00     0.000 HD 
ENDBRANCH  26  28
ENDBRANCH   4  26
TORSDOF 2
ENDMDL
MODEL       38
REMARK 921   NORMALIZED FREE ENERGY PREDICTED BY IDOCK:   -5.55 KCAL/MOL
REMARK 922        TOTAL FREE ENERGY PREDICTED BY IDOCK:   -5.57 KCAL/MOL
REMARK 923 INTER-LIGAND FREE ENERGY PREDICTED BY IDOCK:   -6.00 KCAL/MOL
REMARK 924 INTRA-LIGAND FREE ENERGY PREDICTED BY IDOCK:    0.43 KCAL/MOL
REMARK 927      BINDING AFFINITY PREDICTED BY RF-SCORE:    0.00 PKD
ROOT
HETATM    1  C   UNL     1     -10.322  15.798  69.337  1.00  0.00    -0.263 C  
HETATM    2  C   UNL     1      -9.383  15.420  70.325  1.00  0.00     0.546 C  
HETATM    3  C   UNL     1      -8.870  15.441  68.915  1.00  0.00    -0.211 C  
HETATM    4  C   UNL     1      -9.972  16.462  67.482  1.00  0.00    -0.250 C  
HETATM    5  O   UNL     1     -11.253  17.099  67.869  1.00  0.00    -0.200 OA 
HETATM    6  C   UNL     1     -11.142  12.584  65.610  1.00  0.00    -0.338 C  
HETATM    7  C   UNL     1      -9.022  16.856  68.377  1.00  0.00    -0.244 C  
HETATM    8  C   UNL     1      -7.940  15.941  67.087  1.00  0.00    -0.243 C  
HETATM    9  C   UNL     1      -8.747  18.176  69.029  1.00  0.00    -0.018 C  
HETATM   10  C   UNL     1     -10.174  12.227  66.732  1.00  0.00    -0.229 C  
HETATM   11  C   UNL     1      -8.864  11.399  66.340  1.00  0.00    -0.193 C  
HETATM   12  H   UNL     1     -11.757  17.566  67.214  1.00  0.00     0.000 HD 
HETATM   13  C   UNL     1      -8.786  14.587  66.418  1.00  0.00    -0.033 C  
HETATM   14  C   UNL     1      -8.475  10.210  66.808  1.00  0.00    -0.126 C  
HETATM   15  O   UNL     1     -10.264   9.004  65.736  1.00  0.00    -0.071 OA 
HETATM   16  O   UNL     1      -9.631  15.121  65.387  1.00  0.00    -0.370 OA 
HETATM   17  C   UNL     1      -9.675  13.556  67.391  1.00  0.00    -0.229 C  
HETATM   18  H   UNL     1     -10.096  14.378  65.020  1.00  0.00     0.000 HD 
HETATM   19  C   UNL     1     -10.850  14.327  68.378  1.00  0.00    -0.263 C  
HETATM   20  C   UNL     1     -11.474  13.320  69.347  1.00  0.00    -0.323 C  
HETATM   21  C   UNL     1     -11.984  12.078  68.637  1.00  0.00    -0.235 C  
HETATM   22  F   UNL     1     -12.463  11.229  69.592  1.00  0.00    -0.319 F  
HETATM   23  C   UNL     1     -10.960  11.392  67.771  1.00  0.00    -0.301 C  
HETATM   24  C   UNL     1     -10.747  10.065  67.818  1.00  0.00    -0.333 C  
HETATM   25  C   UNL     1      -9.879   9.626  66.717  1.00  0.00    -0.211 C  
ENDROOT
BRANCH   4  26
HETATM   26  C   UNL     1      -9.604  17.737  66.262  1.00  0.00    -0.243 C  
HETATM   27  O   UNL     1      -8.493  17.915  65.738  1.00  0.00    -0.513 OA 
BRANCH  26  28
HETATM   28  C   UNL     1     -10.654  18.840  65.846  1.00  0.00    -0.352 C  
HETATM   29  O   UNL     1     -10.815  19.857  66.853  1.00  0.00    -0.433 OA 
HETATM   30  H   UNL     1     -11.447  20.521  66.603  1.00  0.00     0.000 HD 
ENDBRANCH  26  28
ENDBRANCH   4  26
TORSDOF 2
ENDMDL
MODEL       39
REMARK 921   NORMALIZED FREE ENERGY PREDICTED BY IDOCK:   -5.54 KCAL/MOL
REMARK 922        TOTAL FREE ENERGY PREDICTED BY IDOCK:   -5.55 KCAL/MOL
REMARK 923 INTER-LIGAND FREE ENERGY PREDICTED BY IDOCK:   -6.23 KCAL/MOL
REMARK 924 INTRA-LIGAND FREE ENERGY PREDICTED BY IDOCK:    0.68 KCAL/MOL
REMARK 927      BINDING AFFINITY PREDICTED BY RF-SCORE:    0.00 PKD
ROOT
HETATM    1  C   UNL     1      -9.979  10.100  68.682  1.00  0.00    -0.181 C  
HETATM    2  C   UNL     1      -8.965  10.261  69.656  1.00  0.00    -0.140 C  
HETATM    3  C   UNL     1      -8.517   9.702  68.337  1.00  0.00    -0.118 C  
HETATM    4  C   UNL     1      -9.776   9.914  66.700  1.00  0.00    -0.198 C  
HETATM    5  O   UNL     1     -11.098  10.560  66.880  1.00  0.00    -0.196 OA 
HETATM    6  C   UNL     1     -10.626   5.533  66.780  1.00  0.00    -0.360 C  
HETATM    7  C   UNL     1      -8.834  10.726  67.258  1.00  0.00    -0.133 C  
HETATM    8  C   UNL     1      -7.721   9.423  66.403  1.00  0.00    -0.097 C  
HETATM    9  C   UNL     1      -8.667  12.214  67.254  1.00  0.00    -0.182 C  
HETATM   10  C   UNL     1      -9.580   5.773  67.863  1.00  0.00    -0.124 C  
HETATM   11  C   UNL     1      -8.210   4.955  67.759  1.00  0.00    -0.101 C  
HETATM   12  H   UNL     1     -11.674  10.657  66.132  1.00  0.00     0.000 HD 
HETATM   13  C   UNL     1      -8.453   7.854  66.452  1.00  0.00    -0.138 C  
HETATM   14  C   UNL     1      -7.683   4.120  68.658  1.00  0.00    -0.062 C  
HETATM   15  O   UNL     1      -9.385   2.441  68.360  1.00  0.00    -0.183 OA 
HETATM   16  O   UNL     1      -9.391   7.823  65.365  1.00  0.00    -0.364 OA 
HETATM   17  C   UNL     1      -9.191   7.288  67.843  1.00  0.00    -0.131 C  
HETATM   18  H   UNL     1      -9.793   6.962  65.393  1.00  0.00     0.000 HD 
HETATM   19  C   UNL     1     -10.395   8.324  68.496  1.00  0.00    -0.230 C  
HETATM   20  C   UNL     1     -10.872   7.798  69.851  1.00  0.00    -0.228 C  
HETATM   21  C   UNL     1     -11.283   6.337  69.789  1.00  0.00    -0.430 C  
HETATM   22  F   UNL     1     -11.633   5.956  71.052  1.00  0.00    -0.343 F  
HETATM   23  C   UNL     1     -10.233   5.419  69.221  1.00  0.00    -0.315 C  
HETATM   24  C   UNL     1      -9.884   4.265  69.816  1.00  0.00    -0.258 C  
HETATM   25  C   UNL     1      -9.024   3.454  68.943  1.00  0.00    -0.128 C  
ENDROOT
BRANCH   4  26
HETATM   26  C   UNL     1      -9.592  10.553  65.025  1.00  0.00    -0.276 C  
HETATM   27  O   UNL     1      -8.524  10.581  64.393  1.00  0.00    -0.174 OA 
BRANCH  26  28
HETATM   28  C   UNL     1     -10.772  11.265  64.255  1.00  0.00    -0.349 C  
HETATM   29  O   UNL     1     -10.762  10.981  62.844  1.00  0.00    -0.794 OA 
HETATM   30  H   UNL     1     -11.473  11.409  62.380  1.00  0.00     0.000 HD 
ENDBRANCH  26  28
ENDBRANCH   4  26
TORSDOF 2
ENDMDL
MODEL       40
REMARK 921   NORMALIZED FREE ENERGY PREDICTED BY IDOCK:   -5.54 KCAL/MOL
REMARK 922        TOTAL FREE ENERGY PREDICTED BY IDOCK:   -5.55 KCAL/MOL
REMARK 923 INTER-LIGAND FREE ENERGY PREDICTED BY IDOCK:   -6.26 KCAL/MOL
REMARK 924 INTRA-LIGAND FREE ENERGY PREDICTED BY IDOCK:    0.71 KCAL/MOL
REMARK 927      BINDING AFFINITY PREDICTED BY RF-SCORE:    0.00 PKD
ROOT
HETATM    1  C   UNL     1     -10.916  11.315  69.109  1.00  0.00    -0.292 C  
HETATM    2  C   UNL     1     -12.268  11.198  68.708  1.00  0.00    -0.080 C  
HETATM    3  C   UNL     1     -11.260  11.227  67.596  1.00  0.00    -0.357 C  
HETATM    4  C   UNL     1      -9.270  10.869  68.064  1.00  0.00    -0.156 C  
HETATM    5  O   UNL     1      -8.885  10.645  69.478  1.00  0.00    -0.375 OA 
HETATM    6  C   UNL     1      -8.308  15.157  67.284  1.00  0.00    -0.225 C  
HETATM    7  C   UNL     1     -10.319  10.046  67.780  1.00  0.00    -0.261 C  
HETATM    8  C   UNL     1      -9.925  10.737  66.037  1.00  0.00    -0.295 C  
HETATM    9  C   UNL     1     -10.608   8.626  68.157  1.00  0.00    -0.189 C  
HETATM   10  C   UNL     1      -9.781  14.990  66.928  1.00  0.00    -0.247 C  
HETATM   11  C   UNL     1     -10.230  15.384  65.445  1.00  0.00    -0.408 C  
HETATM   12  H   UNL     1      -7.974  10.480  69.691  1.00  0.00     0.000 HD 
HETATM   13  C   UNL     1      -9.394  12.383  66.128  1.00  0.00    -0.155 C  
HETATM   14  C   UNL     1     -11.142  16.286  65.076  1.00  0.00    -0.262 C  
HETATM   15  O   UNL     1      -9.831  18.171  65.804  1.00  0.00    -0.527 OA 
HETATM   16  O   UNL     1      -7.999  12.328  66.463  1.00  0.00    -0.395 OA 
HETATM   17  C   UNL     1     -10.166  13.486  67.121  1.00  0.00    -0.247 C  
HETATM   18  H   UNL     1      -7.708  13.231  66.513  1.00  0.00     0.000 HD 
HETATM   19  C   UNL     1     -10.303  13.007  68.764  1.00  0.00    -0.146 C  
HETATM   20  C   UNL     1     -11.173  14.001  69.537  1.00  0.00    -0.249 C  
HETATM   21  C   UNL     1     -10.715  15.437  69.347  1.00  0.00    -0.258 C  
HETATM   22  F   UNL     1     -11.587  16.237  70.026  1.00  0.00    -0.318 F  
HETATM   23  C   UNL     1     -10.595  15.867  67.910  1.00  0.00    -0.300 C  
HETATM   24  C   UNL     1     -11.112  17.022  67.456  1.00  0.00    -0.004 C  
HETATM   25  C   UNL     1     -10.653  17.312  66.091  1.00  0.00    -0.204 C  
ENDROOT
BRANCH   4  26
HETATM   26  C   UNL     1      -7.997   9.751  67.446  1.00  0.00    -0.102 C  
HETATM   27  O   UNL     1      -8.013   9.209  66.330  1.00  0.00    -0.101 OA 
BRANCH  26  28
HETATM   28  C   UNL     1      -6.797   9.255  68.345  1.00  0.00    -0.063 C  
HETATM   29  O   UNL     1      -5.706   8.727  67.567  1.00  0.00    -0.038 OA 
HETATM   30  H   UNL     1      -4.984   8.429  68.108  1.00  0.00     0.000 HD 
ENDBRANCH  26  28
ENDBRANCH   4  26
TORSDOF 2
ENDMDL
MODEL       41
REMARK 921   NORMALIZED FREE ENERGY PREDICTED BY IDOCK:   -5.53 KCAL/MOL
REMARK 922        TOTAL FREE ENERGY PREDICTED BY IDOCK:   -5.54 KCAL/MOL
REMARK 923 INTER-LIGAND FREE ENERGY PREDICTED BY IDOCK:   -6.20 KCAL/MOL
REMARK 924 INTRA-LIGAND FREE ENERGY PREDICTED BY IDOCK:    0.66 KCAL/MOL
REMARK 927      BINDING AFFINITY PREDICTED BY RF-SCORE:    0.00 PKD
ROOT
HETATM    1  C   UNL     1      -7.617   9.119  69.336  1.00  0.00    -0.079 C  
HETATM    2  C   UNL     1      -7.291   9.584  70.632  1.00  0.00    -0.133 C  
HETATM    3  C   UNL     1      -8.755   9.421  70.350  1.00  0.00    -0.278 C  
HETATM    4  C   UNL     1      -9.320   8.272  68.715  1.00  0.00    -0.143 C  
HETATM    5  O   UNL     1      -8.274   7.687  67.842  1.00  0.00    -0.121 OA 
HETATM    6  C   UNL     1     -10.659  11.957  66.582  1.00  0.00    -0.273 C  
HETATM    7  C   UNL     1      -9.011   7.961  70.005  1.00  0.00    -0.145 C  
HETATM    8  C   UNL     1     -10.748   8.735  70.232  1.00  0.00    -0.249 C  
HETATM    9  C   UNL     1      -8.479   6.709  70.633  1.00  0.00    -0.138 C  
HETATM   10  C   UNL     1     -10.231  12.414  67.971  1.00  0.00    -0.219 C  
HETATM   11  C   UNL     1     -11.313  13.189  68.858  1.00  0.00    -0.335 C  
HETATM   12  H   UNL     1      -8.533   7.162  67.095  1.00  0.00     0.000 HD 
HETATM   13  C   UNL     1     -11.004  10.024  69.103  1.00  0.00    -0.220 C  
HETATM   14  C   UNL     1     -11.220  14.414  69.379  1.00  0.00    -0.317 C  
HETATM   15  O   UNL     1     -11.320  15.523  67.243  1.00  0.00    -0.281 OA 
HETATM   16  O   UNL     1     -11.402   9.398  67.874  1.00  0.00    -0.472 OA 
HETATM   17  C   UNL     1      -9.808  11.153  68.795  1.00  0.00    -0.201 C  
HETATM   18  H   UNL     1     -11.541  10.105  67.255  1.00  0.00     0.000 HD 
HETATM   19  C   UNL     1      -8.294  10.492  68.328  1.00  0.00    -0.122 C  
HETATM   20  C   UNL     1      -7.235  11.594  68.245  1.00  0.00    -0.085 C  
HETATM   21  C   UNL     1      -7.689  12.765  67.390  1.00  0.00    -0.165 C  
HETATM   22  F   UNL     1      -6.703  13.707  67.431  1.00  0.00    -0.171 F  
HETATM   23  C   UNL     1      -9.014  13.354  67.794  1.00  0.00    -0.205 C  
HETATM   24  C   UNL     1      -9.202  14.677  67.942  1.00  0.00    -0.197 C  
HETATM   25  C   UNL     1     -10.626  14.998  68.103  1.00  0.00    -0.248 C  
ENDROOT
BRANCH   4  26
HETATM   26  C   UNL     1     -10.438   6.880  68.460  1.00  0.00    -0.203 C  
HETATM   27  O   UNL     1     -11.390   6.593  69.203  1.00  0.00    -0.264 OA 
BRANCH  26  28
HETATM   28  C   UNL     1     -10.213   5.811  67.321  1.00  0.00    -0.205 C  
HETATM   29  O   UNL     1     -11.229   5.868  66.302  1.00  0.00    -0.737 OA 
HETATM   30  H   UNL     1     -11.093   5.225  65.615  1.00  0.00     0.000 HD 
ENDBRANCH  26  28
ENDBRANCH   4  26
TORSDOF 2
ENDMDL
MODEL       42
REMARK 921   NORMALIZED FREE ENERGY PREDICTED BY IDOCK:   -5.47 KCAL/MOL
REMARK 922        TOTAL FREE ENERGY PREDICTED BY IDOCK:   -5.47 KCAL/MOL
REMARK 923 INTER-LIGAND FREE ENERGY PREDICTED BY IDOCK:   -6.03 KCAL/MOL
REMARK 924 INTRA-LIGAND FREE ENERGY PREDICTED BY IDOCK:    0.56 KCAL/MOL
REMARK 927      BINDING AFFINITY PREDICTED BY RF-SCORE:    0.00 PKD
ROOT
HETATM    1  C   UNL     1      -9.891  13.790  68.490  1.00  0.00    -0.204 C  
HETATM    2  C   UNL     1     -10.676  14.172  69.604  1.00  0.00     0.016 C  
HETATM    3  C   UNL     1     -10.743  15.088  68.417  1.00  0.00    -0.245 C  
HETATM    4  C   UNL     1     -10.074  14.373  66.585  1.00  0.00    -0.274 C  
HETATM    5  O   UNL     1      -9.505  13.007  66.503  1.00  0.00    -0.250 OA 
HETATM    6  C   UNL     1      -6.530  17.076  66.820  1.00  0.00    -0.258 C  
HETATM    7  C   UNL     1     -11.270  14.290  67.233  1.00  0.00    -0.330 C  
HETATM    8  C   UNL     1     -11.301  16.118  66.661  1.00  0.00     0.332 C  
HETATM    9  C   UNL     1     -12.382  13.289  67.157  1.00  0.00    -0.163 C  
HETATM   10  C   UNL     1      -7.382  17.403  68.040  1.00  0.00    -0.195 C  
HETATM   11  C   UNL     1      -7.867  18.916  68.217  1.00  0.00    -0.340 C  
HETATM   12  H   UNL     1      -9.199  12.680  65.665  1.00  0.00     0.000 HD 
HETATM   13  C   UNL     1      -9.711  16.805  66.696  1.00  0.00    -0.269 C  
HETATM   14  C   UNL     1      -7.635  19.737  69.244  1.00  0.00    -0.158 C  
HETATM   15  O   UNL     1      -5.278  19.933  68.785  1.00  0.00    -0.190 OA 
HETATM   16  O   UNL     1      -9.078  16.394  65.474  1.00  0.00    -0.390 OA 
HETATM   17  C   UNL     1      -8.678  16.528  67.983  1.00  0.00    -0.189 C  
HETATM   18  H   UNL     1      -8.206  16.770  65.494  1.00  0.00     0.000 HD 
HETATM   19  C   UNL     1      -8.419  14.873  68.358  1.00  0.00    -0.153 C  
HETATM   20  C   UNL     1      -7.608  14.741  69.649  1.00  0.00    -0.047 C  
HETATM   21  C   UNL     1      -6.338  15.575  69.619  1.00  0.00    -0.163 C  
HETATM   22  F   UNL     1      -5.726  15.431  70.830  1.00  0.00    -0.140 F  
HETATM   23  C   UNL     1      -6.555  17.028  69.294  1.00  0.00    -0.233 C  
HETATM   24  C   UNL     1      -6.002  18.020  70.014  1.00  0.00    -0.169 C  
HETATM   25  C   UNL     1      -6.174  19.320  69.350  1.00  0.00    -0.290 C  
ENDROOT
BRANCH   4  26
HETATM   26  C   UNL     1     -10.766  14.282  64.923  1.00  0.00    -0.432 C  
HETATM   27  O   UNL     1     -11.346  15.216  64.347  1.00  0.00    -0.304 OA 
BRANCH  26  28
HETATM   28  C   UNL     1     -10.809  12.938  64.097  1.00  0.00    -0.416 C  
HETATM   29  O   UNL     1      -9.592  12.701  63.365  1.00  0.00    -0.576 OA 
HETATM   30  H   UNL     1      -9.617  11.892  62.867  1.00  0.00     0.000 HD 
ENDBRANCH  26  28
ENDBRANCH   4  26
TORSDOF 2
ENDMDL
MODEL       43
REMARK 921   NORMALIZED FREE ENERGY PREDICTED BY IDOCK:   -5.47 KCAL/MOL
REMARK 922        TOTAL FREE ENERGY PREDICTED BY IDOCK:   -5.47 KCAL/MOL
REMARK 923 INTER-LIGAND FREE ENERGY PREDICTED BY IDOCK:   -5.92 KCAL/MOL
REMARK 924 INTRA-LIGAND FREE ENERGY PREDICTED BY IDOCK:    0.45 KCAL/MOL
REMARK 927      BINDING AFFINITY PREDICTED BY RF-SCORE:    0.00 PKD
ROOT
HETATM    1  C   UNL     1      -7.771   9.766  69.847  1.00  0.00    -0.162 C  
HETATM    2  C   UNL     1      -6.510   9.127  69.786  1.00  0.00    -0.039 C  
HETATM    3  C   UNL     1      -7.604   8.485  68.984  1.00  0.00    -0.094 C  
HETATM    4  C   UNL     1      -9.310   9.597  68.579  1.00  0.00    -0.137 C  
HETATM    5  O   UNL     1      -9.429  10.969  69.129  1.00  0.00    -0.364 OA 
HETATM    6  C   UNL     1     -11.653   7.034  71.382  1.00  0.00    -0.329 C  
HETATM    7  C   UNL     1      -8.098   9.498  67.962  1.00  0.00    -0.102 C  
HETATM    8  C   UNL     1      -8.898   7.835  67.449  1.00  0.00    -0.128 C  
HETATM    9  C   UNL     1      -7.336  10.452  67.095  1.00  0.00    -0.092 C  
HETATM   10  C   UNL     1     -10.258   6.424  71.331  1.00  0.00    -0.228 C  
HETATM   11  C   UNL     1     -10.139   4.892  70.890  1.00  0.00    -0.292 C  
HETATM   12  H   UNL     1     -10.210  11.478  68.943  1.00  0.00     0.000 HD 
HETATM   13  C   UNL     1      -9.902   7.213  68.715  1.00  0.00    -0.158 C  
HETATM   14  C   UNL     1      -9.607   3.879  71.578  1.00  0.00    -0.236 C  
HETATM   15  O   UNL     1     -11.344   3.869  73.247  1.00  0.00    -0.196 OA 
HETATM   16  O   UNL     1     -11.159   7.898  68.593  1.00  0.00    -0.417 OA 
HETATM   17  C   UNL     1      -9.400   7.244  70.311  1.00  0.00    -0.158 C  
HETATM   18  H   UNL     1     -11.709   7.557  69.288  1.00  0.00     0.000 HD 
HETATM   19  C   UNL     1      -8.921   8.789  70.887  1.00  0.00    -0.247 C  
HETATM   20  C   UNL     1      -8.318   8.670  72.289  1.00  0.00    -0.128 C  
HETATM   21  C   UNL     1      -9.223   7.908  73.242  1.00  0.00    -0.282 C  
HETATM   22  F   UNL     1      -8.569   7.810  74.436  1.00  0.00    -0.245 F  
HETATM   23  C   UNL     1      -9.646   6.551  72.747  1.00  0.00    -0.157 C  
HETATM   24  C   UNL     1      -9.575   5.448  73.513  1.00  0.00    -0.141 C  
HETATM   25  C   UNL     1     -10.265   4.315  72.881  1.00  0.00    -0.167 C  
ENDROOT
BRANCH   4  26
HETATM   26  C   UNL     1     -10.233  10.017  67.089  1.00  0.00    -0.228 C  
HETATM   27  O   UNL     1     -10.242   9.340  66.048  1.00  0.00    -0.269 OA 
BRANCH  26  28
HETATM   28  C   UNL     1     -11.020  11.377  66.935  1.00  0.00    -0.299 C  
HETATM   29  O   UNL     1     -12.145  11.469  67.829  1.00  0.00    -0.626 OA 
HETATM   30  H   UNL     1     -12.618  12.288  67.736  1.00  0.00     0.000 HD 
ENDBRANCH  26  28
ENDBRANCH   4  26
TORSDOF 2
ENDMDL
MODEL       44
REMARK 921   NORMALIZED FREE ENERGY PREDICTED BY IDOCK:   -5.39 KCAL/MOL
REMARK 922        TOTAL FREE ENERGY PREDICTED BY IDOCK:   -5.38 KCAL/MOL
REMARK 923 INTER-LIGAND FREE ENERGY PREDICTED BY IDOCK:   -6.00 KCAL/MOL
REMARK 924 INTRA-LIGAND FREE ENERGY PREDICTED BY IDOCK:    0.62 KCAL/MOL
REMARK 927      BINDING AFFINITY PREDICTED BY RF-SCORE:    0.00 PKD
ROOT
HETATM    1  C   UNL     1      -7.314  16.896  67.684  1.00  0.00    -0.170 C  
HETATM    2  C   UNL     1      -6.662  16.627  66.458  1.00  0.00    -0.086 C  
HETATM    3  C   UNL     1      -8.139  16.879  66.367  1.00  0.00    -0.350 C  
HETATM    4  C   UNL     1      -9.083  17.785  67.980  1.00  0.00    -0.269 C  
HETATM    5  O   UNL     1      -8.295  18.112  69.192  1.00  0.00    -0.080 OA 
HETATM    6  C   UNL     1     -11.127  13.938  68.950  1.00  0.00    -0.296 C  
HETATM    7  C   UNL     1      -8.413  18.278  66.900  1.00  0.00    -0.267 C  
HETATM    8  C   UNL     1     -10.053  17.721  66.080  1.00  0.00    -0.254 C  
HETATM    9  C   UNL     1      -7.672  19.561  66.682  1.00  0.00    -0.286 C  
HETATM   10  C   UNL     1     -10.351  13.682  67.663  1.00  0.00    -0.239 C  
HETATM   11  C   UNL     1     -11.178  13.174  66.392  1.00  0.00    -0.328 C  
HETATM   12  H   UNL     1      -8.727  18.526  69.930  1.00  0.00     0.000 HD 
HETATM   13  C   UNL     1     -10.670  16.291  66.837  1.00  0.00    -0.217 C  
HETATM   14  C   UNL     1     -11.000  12.051  65.693  1.00  0.00    -0.343 C  
HETATM   15  O   UNL     1     -11.739  10.612  67.479  1.00  0.00    -0.445 OA 
HETATM   16  O   UNL     1     -11.365  16.736  68.012  1.00  0.00    -0.224 OA 
HETATM   17  C   UNL     1      -9.659  15.018  67.233  1.00  0.00    -0.208 C  
HETATM   18  H   UNL     1     -11.703  15.952  68.428  1.00  0.00     0.000 HD 
HETATM   19  C   UNL     1      -8.306  15.444  68.200  1.00  0.00    -0.145 C  
HETATM   20  C   UNL     1      -7.363  14.247  68.352  1.00  0.00    -0.119 C  
HETATM   21  C   UNL     1      -8.089  12.998  68.820  1.00  0.00     0.086 C  
HETATM   22  F   UNL     1      -7.174  11.986  68.865  1.00  0.00    -0.098 F  
HETATM   23  C   UNL     1      -9.276  12.615  67.976  1.00  0.00    -0.208 C  
HETATM   24  C   UNL     1      -9.474  11.359  67.538  1.00  0.00    -0.173 C  
HETATM   25  C   UNL     1     -10.811  11.206  66.948  1.00  0.00    -0.279 C  
ENDROOT
BRANCH   4  26
HETATM   26  C   UNL     1     -10.162  19.213  68.186  1.00  0.00    -0.403 C  
HETATM   27  O   UNL     1     -11.146  19.465  67.473  1.00  0.00    -0.417 OA 
BRANCH  26  28
HETATM   28  C   UNL     1      -9.862  20.357  69.232  1.00  0.00     0.344 C  
HETATM   29  O   UNL     1     -10.509  20.131  70.499  1.00  0.00    -0.528 OA 
HETATM   30  H   UNL     1     -10.328  20.819  71.129  1.00  0.00     0.000 HD 
ENDBRANCH  26  28
ENDBRANCH   4  26
TORSDOF 2
ENDMDL
MODEL       45
REMARK 921   NORMALIZED FREE ENERGY PREDICTED BY IDOCK:   -5.37 KCAL/MOL
REMARK 922        TOTAL FREE ENERGY PREDICTED BY IDOCK:   -5.36 KCAL/MOL
REMARK 923 INTER-LIGAND FREE ENERGY PREDICTED BY IDOCK:   -5.80 KCAL/MOL
REMARK 924 INTRA-LIGAND FREE ENERGY PREDICTED BY IDOCK:    0.44 KCAL/MOL
REMARK 927      BINDING AFFINITY PREDICTED BY RF-SCORE:    0.00 PKD
ROOT
HETATM    1  C   UNL     1     -11.278   8.679  71.442  1.00  0.00    -0.345 C  
HETATM    2  C   UNL     1     -12.489   8.123  70.965  1.00  0.00    -0.109 C  
HETATM    3  C   UNL     1     -11.282   7.885  70.106  1.00  0.00    -0.157 C  
HETATM    4  C   UNL     1      -9.405   8.183  70.942  1.00  0.00    -0.151 C  
HETATM    5  O   UNL     1      -9.301   8.669  72.338  1.00  0.00    -0.282 OA 
HETATM    6  C   UNL     1      -8.856  11.827  68.423  1.00  0.00    -0.161 C  
HETATM    7  C   UNL     1     -10.258   7.120  70.930  1.00  0.00    -0.207 C  
HETATM    8  C   UNL     1      -9.597   7.067  69.133  1.00  0.00    -0.149 C  
HETATM    9  C   UNL     1     -10.436   5.970  71.873  1.00  0.00    -0.263 C  
HETATM   10  C   UNL     1     -10.187  11.222  67.993  1.00  0.00    -0.201 C  
HETATM   11  C   UNL     1     -10.361  10.843  66.449  1.00  0.00    -0.306 C  
HETATM   12  H   UNL     1      -8.442   8.805  72.721  1.00  0.00     0.000 HD 
HETATM   13  C   UNL     1      -9.312   8.665  68.530  1.00  0.00    -0.138 C  
HETATM   14  C   UNL     1     -11.283  11.290  65.593  1.00  0.00    -0.074 C  
HETATM   15  O   UNL     1     -10.405  13.533  65.544  1.00  0.00    -0.285 OA 
HETATM   16  O   UNL     1      -8.023   9.051  69.033  1.00  0.00    -0.098 OA 
HETATM   17  C   UNL     1     -10.409   9.900  68.799  1.00  0.00    -0.222 C  
HETATM   18  H   UNL     1      -7.867   9.928  68.702  1.00  0.00     0.000 HD 
HETATM   19  C   UNL     1     -10.826  10.150  70.445  1.00  0.00    -0.365 C  
HETATM   20  C   UNL     1     -11.960  11.172  70.558  1.00  0.00    -0.475 C  
HETATM   21  C   UNL     1     -11.658  12.451  69.796  1.00  0.00    -0.232 C  
HETATM   22  F   UNL     1     -12.749  13.263  69.913  1.00  0.00    -0.217 F  
HETATM   23  C   UNL     1     -11.295  12.243  68.350  1.00  0.00    -0.340 C  
HETATM   24  C   UNL     1     -11.848  12.959  67.355  1.00  0.00    -0.418 C  
HETATM   25  C   UNL     1     -11.153  12.728  66.082  1.00  0.00    -0.290 C  
ENDROOT
BRANCH   4  26
HETATM   26  C   UNL     1      -7.899   7.201  71.075  1.00  0.00    -0.095 C  
HETATM   27  O   UNL     1      -7.532   6.354  70.246  1.00  0.00    -0.089 OA 
BRANCH  26  28
HETATM   28  C   UNL     1      -6.971   7.245  72.351  1.00  0.00    -0.063 C  
HETATM   29  O   UNL     1      -6.281   8.502  72.490  1.00  0.00    -0.070 OA 
HETATM   30  H   UNL     1      -5.722   8.528  73.258  1.00  0.00     0.000 HD 
ENDBRANCH  26  28
ENDBRANCH   4  26
TORSDOF 2
ENDMDL
MODEL       46
REMARK 921   NORMALIZED FREE ENERGY PREDICTED BY IDOCK:   -5.35 KCAL/MOL
REMARK 922        TOTAL FREE ENERGY PREDICTED BY IDOCK:   -5.34 KCAL/MOL
REMARK 923 INTER-LIGAND FREE ENERGY PREDICTED BY IDOCK:   -6.00 KCAL/MOL
REMARK 924 INTRA-LIGAND FREE ENERGY PREDICTED BY IDOCK:    0.66 KCAL/MOL
REMARK 927      BINDING AFFINITY PREDICTED BY RF-SCORE:    0.00 PKD
ROOT
HETATM    1  C   UNL     1      -7.732   7.713  70.982  1.00  0.00    -0.088 C  
HETATM    2  C   UNL     1      -7.090   8.917  71.356  1.00  0.00    -0.096 C  
HETATM    3  C   UNL     1      -8.582   8.993  71.210  1.00  0.00    -0.221 C  
HETATM    4  C   UNL     1      -9.660   7.218  71.187  1.00  0.00    -0.160 C  
HETATM    5  O   UNL     1      -8.935   5.928  71.264  1.00  0.00    -0.139 OA 
HETATM    6  C   UNL     1     -10.520   7.791  66.846  1.00  0.00    -0.388 C  
HETATM    7  C   UNL     1      -9.204   8.015  72.196  1.00  0.00    -0.232 C  
HETATM    8  C   UNL     1     -10.665   9.067  71.542  1.00  0.00    -0.421 C  
HETATM    9  C   UNL     1      -8.855   7.721  73.622  1.00  0.00    -0.323 C  
HETATM   10  C   UNL     1      -9.767   9.040  67.287  1.00  0.00    -0.232 C  
HETATM   11  C   UNL     1     -10.483  10.452  67.060  1.00  0.00    -0.309 C  
HETATM   12  H   UNL     1      -9.428   5.116  71.253  1.00  0.00     0.000 HD 
HETATM   13  C   UNL     1     -10.829   8.902  69.826  1.00  0.00    -0.200 C  
HETATM   14  C   UNL     1     -10.036  11.493  66.353  1.00  0.00    -0.250 C  
HETATM   15  O   UNL     1     -10.266  10.378  64.230  1.00  0.00    -0.323 OA 
HETATM   16  O   UNL     1     -11.562   7.685  69.616  1.00  0.00    -0.445 OA 
HETATM   17  C   UNL     1      -9.490   8.929  68.823  1.00  0.00    -0.144 C  
HETATM   18  H   UNL     1     -11.651   7.595  68.674  1.00  0.00     0.000 HD 
HETATM   19  C   UNL     1      -8.261   7.801  69.229  1.00  0.00    -0.129 C  
HETATM   20  C   UNL     1      -7.019   8.033  68.364  1.00  0.00    -0.072 C  
HETATM   21  C   UNL     1      -7.351   8.079  66.882  1.00  0.00    -0.090 C  
HETATM   22  F   UNL     1      -6.193   8.346  66.212  1.00  0.00    -0.046 F  
HETATM   23  C   UNL     1      -8.426   9.067  66.516  1.00  0.00    -0.124 C  
HETATM   24  C   UNL     1      -8.293   9.933  65.496  1.00  0.00    -0.143 C  
HETATM   25  C   UNL     1      -9.563  10.612  65.204  1.00  0.00    -0.251 C  
ENDROOT
BRANCH   4  26
HETATM   26  C   UNL     1     -11.079   6.578  72.096  1.00  0.00    -0.260 C  
HETATM   27  O   UNL     1     -12.091   7.237  72.383  1.00  0.00    -0.226 OA 
BRANCH  26  28
HETATM   28  C   UNL     1     -11.097   5.131  72.728  1.00  0.00    -0.266 C  
HETATM   29  O   UNL     1     -11.136   5.158  74.167  1.00  0.00    -0.420 OA 
HETATM   30  H   UNL     1     -11.146   4.287  74.548  1.00  0.00     0.000 HD 
ENDBRANCH  26  28
ENDBRANCH   4  26
TORSDOF 2
ENDMDL
MODEL       47
REMARK 921   NORMALIZED FREE ENERGY PREDICTED BY IDOCK:   -5.27 KCAL/MOL
REMARK 922        TOTAL FREE ENERGY PREDICTED BY IDOCK:   -5.25 KCAL/MOL
REMARK 923 INTER-LIGAND FREE ENERGY PREDICTED BY IDOCK:   -5.69 KCAL/MOL
REMARK 924 INTRA-LIGAND FREE ENERGY PREDICTED BY IDOCK:    0.44 KCAL/MOL
REMARK 927      BINDING AFFINITY PREDICTED BY RF-SCORE:    0.00 PKD
ROOT
HETATM    1  C   UNL     1      -7.767   7.616  72.288  1.00  0.00    -0.106 C  
HETATM    2  C   UNL     1      -7.554   8.648  73.232  1.00  0.00     0.060 C  
HETATM    3  C   UNL     1      -8.975   8.190  73.078  1.00  0.00    -0.335 C  
HETATM    4  C   UNL     1      -9.327   6.371  72.141  1.00  0.00    -0.149 C  
HETATM    5  O   UNL     1      -8.181   5.597  71.605  1.00  0.00    -0.116 OA 
HETATM    6  C   UNL     1     -11.013   8.513  68.607  1.00  0.00     0.131 C  
HETATM    7  C   UNL     1      -9.036   6.711  73.429  1.00  0.00    -0.142 C  
HETATM    8  C   UNL     1     -10.863   7.276  73.314  1.00  0.00    -0.404 C  
HETATM    9  C   UNL     1      -8.383   5.950  74.541  1.00  0.00    -0.112 C  
HETATM   10  C   UNL     1     -10.703   9.592  69.637  1.00  0.00    -0.260 C  
HETATM   11  C   UNL     1     -11.907  10.536  70.101  1.00  0.00    -0.404 C  
HETATM   12  H   UNL     1      -8.342   4.765  71.176  1.00  0.00     0.000 HD 
HETATM   13  C   UNL     1     -11.226   7.882  71.732  1.00  0.00    -0.260 C  
HETATM   14  C   UNL     1     -11.986  11.866  70.016  1.00  0.00    -0.409 C  
HETATM   15  O   UNL     1     -12.131  11.883  67.612  1.00  0.00    -0.568 OA 
HETATM   16  O   UNL     1     -11.492   6.727  70.920  1.00  0.00    -0.294 OA 
HETATM   17  C   UNL     1     -10.164   8.897  70.931  1.00  0.00    -0.304 C  
HETATM   18  H   UNL     1     -11.691   7.060  70.053  1.00  0.00     0.000 HD 
HETATM   19  C   UNL     1      -8.563   8.296  70.783  1.00  0.00    -0.147 C  
HETATM   20  C   UNL     1      -7.644   9.371  70.197  1.00  0.00    -0.132 C  
HETATM   21  C   UNL     1      -8.200   9.968  68.916  1.00  0.00    -0.121 C  
HETATM   22  F   UNL     1      -7.339  10.947  68.514  1.00  0.00    -0.079 F  
HETATM   23  C   UNL     1      -9.603  10.501  69.036  1.00  0.00    -0.213 C  
HETATM   24  C   UNL     1      -9.957  11.715  68.580  1.00  0.00    -0.198 C  
HETATM   25  C   UNL     1     -11.415  11.890  68.604  1.00  0.00    -0.294 C  
ENDROOT
BRANCH   4  26
HETATM   26  C   UNL     1     -10.254   4.882  72.556  1.00  0.00    -0.195 C  
HETATM   27  O   UNL     1     -11.271   4.858  73.267  1.00  0.00    -0.307 OA 
BRANCH  26  28
HETATM   28  C   UNL     1      -9.765   3.438  72.146  1.00  0.00    -0.158 C  
HETATM   29  O   UNL     1      -9.744   3.245  70.719  1.00  0.00    -0.175 OA 
HETATM   30  H   UNL     1      -9.449   2.376  70.473  1.00  0.00     0.000 HD 
ENDBRANCH  26  28
ENDBRANCH   4  26
TORSDOF 2
ENDMDL
MODEL       48
REMARK 921   NORMALIZED FREE ENERGY PREDICTED BY IDOCK:   -5.22 KCAL/MOL
REMARK 922        TOTAL FREE ENERGY PREDICTED BY IDOCK:   -5.20 KCAL/MOL
REMARK 923 INTER-LIGAND FREE ENERGY PREDICTED BY IDOCK:   -5.84 KCAL/MOL
REMARK 924 INTRA-LIGAND FREE ENERGY PREDICTED BY IDOCK:    0.64 KCAL/MOL
REMARK 927      BINDING AFFINITY PREDICTED BY RF-SCORE:    0.00 PKD
ROOT
HETATM    1  C   UNL     1      -8.889   8.219  67.031  1.00  0.00    -0.146 C  
HETATM    2  C   UNL     1      -9.808   7.343  66.407  1.00  0.00    -0.137 C  
HETATM    3  C   UNL     1     -10.410   8.394  67.293  1.00  0.00    -0.369 C  
HETATM    4  C   UNL     1      -9.237  10.023  67.825  1.00  0.00    -0.134 C  
HETATM    5  O   UNL     1      -7.829  10.085  67.364  1.00  0.00    -0.099 OA 
HETATM    6  C   UNL     1      -9.005   8.494  72.011  1.00  0.00    -0.301 C  
HETATM    7  C   UNL     1     -10.021   9.758  66.741  1.00  0.00    -0.278 C  
HETATM    8  C   UNL     1     -11.356  10.115  68.068  1.00  0.00    -0.152 C  
HETATM    9  C   UNL     1      -9.978  10.256  65.330  1.00  0.00    -0.387 C  
HETATM   10  C   UNL     1      -9.937   7.541  71.273  1.00  0.00    -0.196 C  
HETATM   11  C   UNL     1     -11.412   7.350  71.861  1.00  0.00    -0.300 C  
HETATM   12  H   UNL     1      -7.293  10.830  67.608  1.00  0.00     0.000 HD 
HETATM   13  C   UNL     1     -10.848   9.553  69.625  1.00  0.00    -0.235 C  
HETATM   14  C   UNL     1     -11.993   6.217  72.263  1.00  0.00    -0.296 C  
HETATM   15  O   UNL     1     -10.565   5.957  74.186  1.00  0.00    -0.263 OA 
HETATM   16  O   UNL     1      -9.993  10.578  70.154  1.00  0.00    -0.402 OA 
HETATM   17  C   UNL     1     -10.111   8.061  69.808  1.00  0.00    -0.196 C  
HETATM   18  H   UNL     1      -9.714  10.269  71.008  1.00  0.00     0.000 HD 
HETATM   19  C   UNL     1      -8.737   7.807  68.811  1.00  0.00    -0.128 C  
HETATM   20  C   UNL     1      -8.255   6.359  68.929  1.00  0.00    -0.118 C  
HETATM   21  C   UNL     1      -8.057   5.935  70.374  1.00  0.00    -0.107 C  
HETATM   22  F   UNL     1      -7.686   4.622  70.367  1.00  0.00    -0.051 F  
HETATM   23  C   UNL     1      -9.258   6.151  71.256  1.00  0.00    -0.157 C  
HETATM   24  C   UNL     1      -9.726   5.200  72.084  1.00  0.00    -0.205 C  
HETATM   25  C   UNL     1     -10.744   5.742  72.995  1.00  0.00    -0.257 C  
ENDROOT
BRANCH   4  26
HETATM   26  C   UNL     1      -9.434  11.813  67.751  1.00  0.00    -0.181 C  
HETATM   27  O   UNL     1     -10.492  12.418  67.989  1.00  0.00    -0.205 OA 
BRANCH  26  28
HETATM   28  C   UNL     1      -8.288  12.771  67.241  1.00  0.00    -0.187 C  
HETATM   29  O   UNL     1      -8.692  13.561  66.107  1.00  0.00    -0.348 OA 
HETATM   30  H   UNL     1      -8.002  14.137  65.799  1.00  0.00     0.000 HD 
ENDBRANCH  26  28
ENDBRANCH   4  26
TORSDOF 2
ENDMDL
MODEL       49
REMARK 921   NORMALIZED FREE ENERGY PREDICTED BY IDOCK:   -5.07 KCAL/MOL
REMARK 922        TOTAL FREE ENERGY PREDICTED BY IDOCK:   -5.03 KCAL/MOL
REMARK 923 INTER-LIGAND FREE ENERGY PREDICTED BY IDOCK:   -5.85 KCAL/MOL
REMARK 924 INTRA-LIGAND FREE ENERGY PREDICTED BY IDOCK:    0.82 KCAL/MOL
REMARK 927      BINDING AFFINITY PREDICTED BY RF-SCORE:    0.00 PKD
ROOT
HETATM    1  C   UNL     1      -7.193  10.023  68.209  1.00  0.00    -0.077 C  
HETATM    2  C   UNL     1      -6.346   8.921  67.940  1.00  0.00    -0.056 C  
HETATM    3  C   UNL     1      -7.742   8.816  67.399  1.00  0.00    -0.097 C  
HETATM    4  C   UNL     1      -8.881  10.547  67.272  1.00  0.00    -0.136 C  
HETATM    5  O   UNL     1      -8.314  11.827  67.761  1.00  0.00    -0.132 OA 
HETATM    6  C   UNL     1     -11.469   9.096  70.605  1.00  0.00    -0.310 C  
HETATM    7  C   UNL     1      -7.965   9.975  66.439  1.00  0.00    -0.116 C  
HETATM    8  C   UNL     1      -9.463   8.810  66.178  1.00  0.00    -0.315 C  
HETATM    9  C   UNL     1      -7.065  10.555  65.393  1.00  0.00    -0.072 C  
HETATM   10  C   UNL     1     -10.490   7.964  70.318  1.00  0.00    -0.225 C  
HETATM   11  C   UNL     1     -11.102   6.535  69.944  1.00  0.00    -0.430 C  
HETATM   12  H   UNL     1      -8.835  12.619  67.703  1.00  0.00     0.000 HD 
HETATM   13  C   UNL     1     -10.364   8.619  67.645  1.00  0.00    -0.254 C  
HETATM   14  C   UNL     1     -10.910   5.372  70.569  1.00  0.00    -0.200 C  
HETATM   15  O   UNL     1     -12.131   6.027  72.540  1.00  0.00    -0.230 OA 
HETATM   16  O   UNL     1     -11.223   9.766  67.731  1.00  0.00    -0.496 OA 
HETATM   17  C   UNL     1      -9.590   8.388  69.110  1.00  0.00    -0.164 C  
HETATM   18  H   UNL     1     -11.716   9.662  68.536  1.00  0.00     0.000 HD 
HETATM   19  C   UNL     1      -8.414   9.576  69.501  1.00  0.00    -0.156 C  
HETATM   20  C   UNL     1      -7.650   9.173  70.765  1.00  0.00    -0.149 C  
HETATM   21  C   UNL     1      -8.581   8.824  71.913  1.00  0.00    -0.099 C  
HETATM   22  F   UNL     1      -7.805   8.426  72.962  1.00  0.00    -0.185 F  
HETATM   23  C   UNL     1      -9.614   7.780  71.581  1.00  0.00    -0.191 C  
HETATM   24  C   UNL     1      -9.855   6.723  72.377  1.00  0.00    -0.169 C  
HETATM   25  C   UNL     1     -11.060   5.999  71.950  1.00  0.00    -0.277 C  
ENDROOT
BRANCH   4  26
HETATM   26  C   UNL     1      -9.823  11.360  65.967  1.00  0.00    -0.223 C  
HETATM   27  O   UNL     1      -9.696  11.128  64.754  1.00  0.00    -0.231 OA 
BRANCH  26  28
HETATM   28  C   UNL     1     -10.815  12.553  66.257  1.00  0.00    -0.268 C  
HETATM   29  O   UNL     1     -12.185  12.119  66.362  1.00  0.00    -0.592 OA 
HETATM   30  H   UNL     1     -12.782  12.837  66.536  1.00  0.00     0.000 HD 
ENDBRANCH  26  28
ENDBRANCH   4  26
TORSDOF 2
ENDMDL
MODEL       50
REMARK 921   NORMALIZED FREE ENERGY PREDICTED BY IDOCK:   -5.04 KCAL/MOL
REMARK 922        TOTAL FREE ENERGY PREDICTED BY IDOCK:   -4.99 KCAL/MOL
REMARK 923 INTER-LIGAND FREE ENERGY PREDICTED BY IDOCK:   -5.45 KCAL/MOL
REMARK 924 INTRA-LIGAND FREE ENERGY PREDICTED BY IDOCK:    0.46 KCAL/MOL
REMARK 927      BINDING AFFINITY PREDICTED BY RF-SCORE:    0.00 PKD
ROOT
HETATM    1  C   UNL     1     -10.138   7.459  68.729  1.00  0.00    -0.184 C  
HETATM    2  C   UNL     1     -11.355   6.936  68.230  1.00  0.00     0.058 C  
HETATM    3  C   UNL     1     -10.258   7.104  67.221  1.00  0.00    -0.315 C  
HETATM    4  C   UNL     1      -8.315   7.351  67.911  1.00  0.00    -0.119 C  
HETATM    5  O   UNL     1      -8.065   7.407  69.371  1.00  0.00    -0.124 OA 
HETATM    6  C   UNL     1      -8.387  11.617  66.600  1.00  0.00    -0.154 C  
HETATM    7  C   UNL     1      -9.077   6.250  67.658  1.00  0.00    -0.117 C  
HETATM    8  C   UNL     1      -8.658   6.810  65.875  1.00  0.00    -0.153 C  
HETATM    9  C   UNL     1      -9.040   4.859  68.212  1.00  0.00    -0.138 C  
HETATM   10  C   UNL     1      -9.712  11.020  66.143  1.00  0.00    -0.257 C  
HETATM   11  C   UNL     1     -10.059  11.101  64.584  1.00  0.00    -0.358 C  
HETATM   12  H   UNL     1      -7.176   7.520  69.686  1.00  0.00     0.000 HD 
HETATM   13  C   UNL     1      -8.579   8.537  65.770  1.00  0.00    -0.168 C  
HETATM   14  C   UNL     1     -11.118  11.674  64.007  1.00  0.00    -0.458 C  
HETATM   15  O   UNL     1     -10.430  13.915  64.565  1.00  0.00    -0.431 OA 
HETATM   16  O   UNL     1      -7.269   8.899  66.233  1.00  0.00    -0.084 OA 
HETATM   17  C   UNL     1      -9.723   9.501  66.519  1.00  0.00    -0.284 C  
HETATM   18  H   UNL     1      -7.226   9.847  66.176  1.00  0.00     0.000 HD 
HETATM   19  C   UNL     1      -9.937   9.201  68.195  1.00  0.00    -0.206 C  
HETATM   20  C   UNL     1     -11.121  10.008  68.734  1.00  0.00    -0.219 C  
HETATM   21  C   UNL     1     -11.023  11.481  68.378  1.00  0.00    -0.221 C  
HETATM   22  F   UNL     1     -12.147  12.092  68.851  1.00  0.00    -0.332 F  
HETATM   23  C   UNL     1     -10.838  11.755  66.909  1.00  0.00    -0.312 C  
HETATM   24  C   UNL     1     -11.572  12.667  66.247  1.00  0.00    -0.440 C  
HETATM   25  C   UNL     1     -11.036  12.906  64.900  1.00  0.00    -0.301 C  
ENDROOT
BRANCH   4  26
HETATM   26  C   UNL     1      -6.734   6.552  67.580  1.00  0.00    -0.067 C  
HETATM   27  O   UNL     1      -6.354   6.172  66.461  1.00  0.00    -0.041 OA 
BRANCH  26  28
HETATM   28  C   UNL     1      -5.734   6.142  68.731  1.00  0.00    -0.015 C  
HETATM   29  O   UNL     1      -5.126   7.282  69.366  1.00  0.00    -0.014 OA 
HETATM   30  H   UNL     1      -4.524   7.036  70.059  1.00  0.00     0.000 HD 
ENDBRANCH  26  28
ENDBRANCH   4  26
TORSDOF 2
ENDMDL
MODEL       51
REMARK 921   NORMALIZED FREE ENERGY PREDICTED BY IDOCK:   -5.03 KCAL/MOL
REMARK 922        TOTAL FREE ENERGY PREDICTED BY IDOCK:   -4.98 KCAL/MOL
REMARK 923 INTER-LIGAND FREE ENERGY PREDICTED BY IDOCK:   -5.41 KCAL/MOL
REMARK 924 INTRA-LIGAND FREE ENERGY PREDICTED BY IDOCK:    0.43 KCAL/MOL
REMARK 927      BINDING AFFINITY PREDICTED BY RF-SCORE:    0.00 PKD
ROOT
HETATM    1  C   UNL     1      -8.558   7.159  69.706  1.00  0.00    -0.141 C  
HETATM    2  C   UNL     1      -9.409   7.402  70.810  1.00  0.00    -0.159 C  
HETATM    3  C   UNL     1     -10.093   7.255  69.482  1.00  0.00    -0.182 C  
HETATM    4  C   UNL     1      -9.033   6.393  67.920  1.00  0.00    -0.114 C  
HETATM    5  O   UNL     1      -7.622   5.991  68.134  1.00  0.00    -0.090 OA 
HETATM    6  C   UNL     1      -8.796  10.358  65.884  1.00  0.00    -0.179 C  
HETATM    7  C   UNL     1      -9.775   5.871  68.937  1.00  0.00    -0.168 C  
HETATM    8  C   UNL     1     -11.157   6.555  67.800  1.00  0.00    -0.366 C  
HETATM    9  C   UNL     1      -9.733   4.543  69.627  1.00  0.00    -0.288 C  
HETATM   10  C   UNL     1      -9.653  10.579  67.125  1.00  0.00    -0.194 C  
HETATM   11  C   UNL     1     -11.125  11.164  66.909  1.00  0.00    -0.313 C  
HETATM   12  H   UNL     1      -7.137   5.596  67.419  1.00  0.00     0.000 HD 
HETATM   13  C   UNL     1     -10.649   8.012  67.015  1.00  0.00    -0.294 C  
HETATM   14  C   UNL     1     -11.645  12.284  67.418  1.00  0.00    -0.425 C  
HETATM   15  O   UNL     1     -10.244  13.741  66.108  1.00  0.00    -0.286 OA 
HETATM   16  O   UNL     1      -9.870   7.598  65.882  1.00  0.00    -0.415 OA 
HETATM   17  C   UNL     1      -9.827   9.205  67.853  1.00  0.00    -0.204 C  
HETATM   18  H   UNL     1      -9.591   8.398  65.451  1.00  0.00     0.000 HD 
HETATM   19  C   UNL     1      -8.419   8.669  68.676  1.00  0.00    -0.130 C  
HETATM   20  C   UNL     1      -7.852   9.794  69.546  1.00  0.00    -0.128 C  
HETATM   21  C   UNL     1      -7.660  11.083  68.767  1.00  0.00    -0.127 C  
HETATM   22  F   UNL     1      -7.209  12.027  69.644  1.00  0.00    -0.012 F  
HETATM   23  C   UNL     1      -8.890  11.563  68.044  1.00  0.00    -0.158 C  
HETATM   24  C   UNL     1      -9.317  12.836  68.111  1.00  0.00    -0.214 C  
HETATM   25  C   UNL     1     -10.385  13.092  67.135  1.00  0.00    -0.243 C  
ENDROOT
BRANCH   4  26
HETATM   26  C   UNL     1      -9.337   5.040  66.767  1.00  0.00    -0.135 C  
HETATM   27  O   UNL     1     -10.461   4.658  66.406  1.00  0.00    -0.268 OA 
BRANCH  26  28
HETATM   28  C   UNL     1      -8.177   4.125  66.211  1.00  0.00    -0.105 C  
HETATM   29  O   UNL     1      -7.700   3.181  67.189  1.00  0.00    -0.073 OA 
HETATM   30  H   UNL     1      -7.002   2.631  66.854  1.00  0.00     0.000 HD 
ENDBRANCH  26  28
ENDBRANCH   4  26
TORSDOF 2
ENDMDL
MODEL       52
REMARK 921   NORMALIZED FREE ENERGY PREDICTED BY IDOCK:   -5.01 KCAL/MOL
REMARK 922        TOTAL FREE ENERGY PREDICTED BY IDOCK:   -4.96 KCAL/MOL
REMARK 923 INTER-LIGAND FREE ENERGY PREDICTED BY IDOCK:   -5.50 KCAL/MOL
REMARK 924 INTRA-LIGAND FREE ENERGY PREDICTED BY IDOCK:    0.55 KCAL/MOL
REMARK 927      BINDING AFFINITY PREDICTED BY RF-SCORE:    0.00 PKD
ROOT
HETATM    1  C   UNL     1      -7.979  10.484  68.251  1.00  0.00    -0.113 C  
HETATM    2  C   UNL     1      -8.776  10.565  69.418  1.00  0.00    -0.093 C  
HETATM    3  C   UNL     1      -9.411   9.881  68.243  1.00  0.00    -0.136 C  
HETATM    4  C   UNL     1      -8.184   9.245  66.693  1.00  0.00    -0.115 C  
HETATM    5  O   UNL     1      -6.730   9.525  66.757  1.00  0.00    -0.071 OA 
HETATM    6  C   UNL     1      -9.847  12.442  64.059  1.00  0.00    -0.160 C  
HETATM    7  C   UNL     1      -8.554   8.678  67.876  1.00  0.00    -0.137 C  
HETATM    8  C   UNL     1     -10.167   8.474  66.863  1.00  0.00    -0.375 C  
HETATM    9  C   UNL     1      -7.887   7.660  68.749  1.00  0.00    -0.120 C  
HETATM   10  C   UNL     1     -10.631  12.529  65.363  1.00  0.00    -0.310 C  
HETATM   11  C   UNL     1     -12.222  12.386  65.278  1.00  0.00    -0.418 C  
HETATM   12  H   UNL     1      -6.169   9.234  66.048  1.00  0.00     0.000 HD 
HETATM   13  C   UNL     1     -10.403   9.818  65.797  1.00  0.00    -0.031 C  
HETATM   14  C   UNL     1     -13.146  13.262  65.680  1.00  0.00     0.214 C  
HETATM   15  O   UNL     1     -12.617  14.874  63.970  1.00  0.00    -0.832 OA 
HETATM   16  O   UNL     1      -9.597   9.548  64.639  1.00  0.00    -0.435 OA 
HETATM   17  C   UNL     1     -10.136  11.387  66.312  1.00  0.00    -0.263 C  
HETATM   18  H   UNL     1      -9.726  10.286  64.055  1.00  0.00     0.000 HD 
HETATM   19  C   UNL     1      -8.586  11.670  66.992  1.00  0.00    -0.169 C  
HETATM   20  C   UNL     1      -8.515  13.079  67.586  1.00  0.00    -0.187 C  
HETATM   21  C   UNL     1      -8.960  14.143  66.598  1.00  0.00    -0.169 C  
HETATM   22  F   UNL     1      -8.914  15.345  67.243  1.00  0.00    -0.176 F  
HETATM   23  C   UNL     1     -10.320  13.906  65.998  1.00  0.00    -0.310 C  
HETATM   24  C   UNL     1     -11.258  14.867  65.930  1.00  0.00    -0.328 C  
HETATM   25  C   UNL     1     -12.391  14.448  65.094  1.00  0.00    -0.381 C  
ENDROOT
BRANCH   4  26
HETATM   26  C   UNL     1      -7.937   7.688  65.820  1.00  0.00    -0.116 C  
HETATM   27  O   UNL     1      -8.665   6.689  65.936  1.00  0.00    -0.150 OA 
BRANCH  26  28
HETATM   28  C   UNL     1      -6.673   7.416  64.915  1.00  0.00    -0.047 C  
HETATM   29  O   UNL     1      -6.546   8.368  63.842  1.00  0.00    -0.074 OA 
HETATM   30  H   UNL     1      -5.785   8.205  63.298  1.00  0.00     0.000 HD 
ENDBRANCH  26  28
ENDBRANCH   4  26
TORSDOF 2
ENDMDL
MODEL       53
REMARK 921   NORMALIZED FREE ENERGY PREDICTED BY IDOCK:   -4.98 KCAL/MOL
REMARK 922        TOTAL FREE ENERGY PREDICTED BY IDOCK:   -4.93 KCAL/MOL
REMARK 923 INTER-LIGAND FREE ENERGY PREDICTED BY IDOCK:   -5.63 KCAL/MOL
REMARK 924 INTRA-LIGAND FREE ENERGY PREDICTED BY IDOCK:    0.70 KCAL/MOL
REMARK 927      BINDING AFFINITY PREDICTED BY RF-SCORE:    0.00 PKD
ROOT
HETATM    1  C   UNL     1      -9.791  12.482  66.262  1.00  0.00    -0.260 C  
HETATM    2  C   UNL     1     -10.472  11.966  65.134  1.00  0.00    -0.330 C  
HETATM    3  C   UNL     1     -11.072  11.626  66.467  1.00  0.00    -0.357 C  
HETATM    4  C   UNL     1     -10.488  12.737  68.121  1.00  0.00    -0.236 C  
HETATM    5  O   UNL     1      -9.463  13.796  67.959  1.00  0.00    -0.194 OA 
HETATM    6  C   UNL     1      -8.251   9.213  69.702  1.00  0.00    -0.116 C  
HETATM    7  C   UNL     1     -11.441  12.927  67.165  1.00  0.00    -0.388 C  
HETATM    8  C   UNL     1     -12.256  11.546  68.212  1.00  0.00     0.161 C  
HETATM    9  C   UNL     1     -12.084  14.167  66.627  1.00  0.00    -0.480 C  
HETATM   10  C   UNL     1      -8.954   8.726  68.441  1.00  0.00    -0.141 C  
HETATM   11  C   UNL     1      -9.942   7.478  68.584  1.00  0.00    -0.178 C  
HETATM   12  H   UNL     1      -9.196  14.304  68.716  1.00  0.00     0.000 HD 
HETATM   13  C   UNL     1     -11.065  10.453  68.832  1.00  0.00    -0.247 C  
HETATM   14  C   UNL     1      -9.878   6.304  67.951  1.00  0.00    -0.129 C  
HETATM   15  O   UNL     1      -7.881   5.595  69.096  1.00  0.00    -0.086 OA 
HETATM   16  O   UNL     1     -10.529  11.080  70.008  1.00  0.00    -0.423 OA 
HETATM   17  C   UNL     1      -9.811   9.904  67.870  1.00  0.00    -0.170 C  
HETATM   18  H   UNL     1      -9.875  10.481  70.348  1.00  0.00     0.000 HD 
HETATM   19  C   UNL     1      -8.884  11.138  67.118  1.00  0.00    -0.143 C  
HETATM   20  C   UNL     1      -7.887  10.528  66.130  1.00  0.00    -0.145 C  
HETATM   21  C   UNL     1      -7.053   9.427  66.762  1.00  0.00    -0.082 C  
HETATM   22  F   UNL     1      -6.245   8.916  65.788  1.00  0.00    -0.050 F  
HETATM   23  C   UNL     1      -7.856   8.338  67.422  1.00  0.00    -0.106 C  
HETATM   24  C   UNL     1      -7.613   7.032  67.211  1.00  0.00    -0.108 C  
HETATM   25  C   UNL     1      -8.371   6.191  68.147  1.00  0.00    -0.114 C  
ENDROOT
BRANCH   4  26
HETATM   26  C   UNL     1     -11.352  13.646  69.415  1.00  0.00    -0.245 C  
HETATM   27  O   UNL     1     -12.371  13.246  70.000  1.00  0.00    -0.281 OA 
BRANCH  26  28
HETATM   28  C   UNL     1     -10.951  15.115  69.830  1.00  0.00    -0.280 C  
HETATM   29  O   UNL     1     -10.818  15.271  71.255  1.00  0.00    -0.504 OA 
HETATM   30  H   UNL     1     -10.577  16.155  71.505  1.00  0.00     0.000 HD 
ENDBRANCH  26  28
ENDBRANCH   4  26
TORSDOF 2
ENDMDL
MODEL       54
REMARK 921   NORMALIZED FREE ENERGY PREDICTED BY IDOCK:   -4.90 KCAL/MOL
REMARK 922        TOTAL FREE ENERGY PREDICTED BY IDOCK:   -4.84 KCAL/MOL
REMARK 923 INTER-LIGAND FREE ENERGY PREDICTED BY IDOCK:   -5.86 KCAL/MOL
REMARK 924 INTRA-LIGAND FREE ENERGY PREDICTED BY IDOCK:    1.02 KCAL/MOL
REMARK 927      BINDING AFFINITY PREDICTED BY RF-SCORE:    0.00 PKD
ROOT
HETATM    1  C   UNL     1      -9.125  10.649  68.180  1.00  0.00    -0.148 C  
HETATM    2  C   UNL     1      -8.125  11.159  69.041  1.00  0.00    -0.078 C  
HETATM    3  C   UNL     1      -7.940   9.736  68.600  1.00  0.00    -0.089 C  
HETATM    4  C   UNL     1      -9.023   9.066  66.960  1.00  0.00    -0.126 C  
HETATM    5  O   UNL     1      -9.982   9.983  66.299  1.00  0.00    -0.218 OA 
HETATM    6  C   UNL     1     -11.530   6.531  69.645  1.00  0.00    -0.417 C  
HETATM    7  C   UNL     1      -7.834   9.721  67.083  1.00  0.00    -0.099 C  
HETATM    8  C   UNL     1      -7.329   7.959  67.640  1.00  0.00    -0.096 C  
HETATM    9  C   UNL     1      -7.093  10.633  66.154  1.00  0.00    -0.138 C  
HETATM   10  C   UNL     1     -10.469   7.160  70.540  1.00  0.00    -0.228 C  
HETATM   11  C   UNL     1      -9.534   6.172  71.380  1.00  0.00    -0.170 C  
HETATM   12  H   UNL     1     -10.477   9.676  65.549  1.00  0.00     0.000 HD 
HETATM   13  C   UNL     1      -8.621   7.187  68.497  1.00  0.00    -0.124 C  
HETATM   14  C   UNL     1      -9.374   6.123  72.705  1.00  0.00    -0.146 C  
HETATM   15  O   UNL     1     -11.601   5.306  73.122  1.00  0.00    -0.297 OA 
HETATM   16  O   UNL     1      -9.500   6.659  67.493  1.00  0.00    -0.125 OA 
HETATM   17  C   UNL     1      -9.515   8.016  69.643  1.00  0.00    -0.163 C  
HETATM   18  H   UNL     1     -10.209   6.236  67.963  1.00  0.00     0.000 HD 
HETATM   19  C   UNL     1     -10.208   9.487  69.093  1.00  0.00    -0.209 C  
HETATM   20  C   UNL     1     -10.848  10.242  70.260  1.00  0.00    -0.349 C  
HETATM   21  C   UNL     1     -11.802   9.369  71.058  1.00  0.00    -0.322 C  
HETATM   22  F   UNL     1     -12.267  10.118  72.100  1.00  0.00    -0.394 F  
HETATM   23  C   UNL     1     -11.201   8.079  71.548  1.00  0.00    -0.296 C  
HETATM   24  C   UNL     1     -11.334   7.657  72.817  1.00  0.00    -0.419 C  
HETATM   25  C   UNL     1     -10.867   6.272  72.970  1.00  0.00    -0.259 C  
ENDROOT
BRANCH   4  26
HETATM   26  C   UNL     1      -8.610   8.238  65.413  1.00  0.00    -0.151 C  
HETATM   27  O   UNL     1      -8.396   7.021  65.298  1.00  0.00    -0.136 OA 
BRANCH  26  28
HETATM   28  C   UNL     1      -8.352   9.029  64.072  1.00  0.00    -0.176 C  
HETATM   29  O   UNL     1      -9.557   9.594  63.523  1.00  0.00    -0.490 OA 
HETATM   30  H   UNL     1      -9.402  10.071  62.716  1.00  0.00     0.000 HD 
ENDBRANCH  26  28
ENDBRANCH   4  26
TORSDOF 2
ENDMDL
MODEL       55
REMARK 921   NORMALIZED FREE ENERGY PREDICTED BY IDOCK:   -4.89 KCAL/MOL
REMARK 922        TOTAL FREE ENERGY PREDICTED BY IDOCK:   -4.82 KCAL/MOL
REMARK 923 INTER-LIGAND FREE ENERGY PREDICTED BY IDOCK:   -5.89 KCAL/MOL
REMARK 924 INTRA-LIGAND FREE ENERGY PREDICTED BY IDOCK:    1.07 KCAL/MOL
REMARK 927      BINDING AFFINITY PREDICTED BY RF-SCORE:    0.00 PKD
ROOT
HETATM    1  C   UNL     1      -9.533   7.973  66.831  1.00  0.00    -0.244 C  
HETATM    2  C   UNL     1      -8.459   8.887  66.947  1.00  0.00    -0.113 C  
HETATM    3  C   UNL     1      -8.171   7.485  67.397  1.00  0.00    -0.116 C  
HETATM    4  C   UNL     1      -9.461   5.973  66.796  1.00  0.00    -0.144 C  
HETATM    5  O   UNL     1     -10.654   6.317  65.986  1.00  0.00    -0.353 OA 
HETATM    6  C   UNL     1     -10.985   5.605  70.975  1.00  0.00    -0.247 C  
HETATM    7  C   UNL     1      -8.376   6.555  66.211  1.00  0.00    -0.124 C  
HETATM    8  C   UNL     1      -7.526   5.481  67.550  1.00  0.00    -0.084 C  
HETATM    9  C   UNL     1      -7.978   6.711  64.776  1.00  0.00    -0.118 C  
HETATM   10  C   UNL     1      -9.862   6.634  71.032  1.00  0.00    -0.196 C  
HETATM   11  C   UNL     1      -8.645   6.343  72.027  1.00  0.00    -0.126 C  
HETATM   12  H   UNL     1     -11.245   5.625  65.711  1.00  0.00     0.000 HD 
HETATM   13  C   UNL     1      -8.493   5.399  68.985  1.00  0.00    -0.100 C  
HETATM   14  C   UNL     1      -8.212   7.102  73.037  1.00  0.00    -0.123 C  
HETATM   15  O   UNL     1     -10.169   6.729  74.391  1.00  0.00    -0.355 OA 
HETATM   16  O   UNL     1      -9.477   4.382  68.739  1.00  0.00    -0.141 OA 
HETATM   17  C   UNL     1      -9.241   6.763  69.602  1.00  0.00    -0.145 C  
HETATM   18  H   UNL     1     -10.008   4.338  69.526  1.00  0.00     0.000 HD 
HETATM   19  C   UNL     1     -10.232   7.611  68.486  1.00  0.00    -0.220 C  
HETATM   20  C   UNL     1     -10.718   8.927  69.100  1.00  0.00    -0.162 C  
HETATM   21  C   UNL     1     -11.356   8.724  70.463  1.00  0.00    -0.227 C  
HETATM   22  F   UNL     1     -11.698   9.956  70.941  1.00  0.00    -0.320 F  
HETATM   23  C   UNL     1     -10.493   7.984  71.450  1.00  0.00    -0.257 C  
HETATM   24  C   UNL     1     -10.302   8.416  72.709  1.00  0.00    -0.239 C  
HETATM   25  C   UNL     1      -9.624   7.399  73.524  1.00  0.00    -0.267 C  
ENDROOT
BRANCH   4  26
HETATM   26  C   UNL     1      -9.262   4.374  65.989  1.00  0.00    -0.139 C  
HETATM   27  O   UNL     1      -8.303   3.606  66.167  1.00  0.00    -0.100 OA 
BRANCH  26  28
HETATM   28  C   UNL     1     -10.247   3.865  64.865  1.00  0.00    -0.164 C  
HETATM   29  O   UNL     1     -11.559   4.448  64.974  1.00  0.00    -1.067 OA 
HETATM   30  H   UNL     1     -12.152   4.142  64.298  1.00  0.00     0.000 HD 
ENDBRANCH  26  28
ENDBRANCH   4  26
TORSDOF 2
ENDMDL
MODEL       56
REMARK 921   NORMALIZED FREE ENERGY PREDICTED BY IDOCK:   -4.87 KCAL/MOL
REMARK 922        TOTAL FREE ENERGY PREDICTED BY IDOCK:   -4.81 KCAL/MOL
REMARK 923 INTER-LIGAND FREE ENERGY PREDICTED BY IDOCK:   -5.27 KCAL/MOL
REMARK 924 INTRA-LIGAND FREE ENERGY PREDICTED BY IDOCK:    0.46 KCAL/MOL
REMARK 927      BINDING AFFINITY PREDICTED BY RF-SCORE:    0.00 PKD
ROOT
HETATM    1  C   UNL     1      -8.445   9.840  65.813  1.00  0.00    -0.141 C  
HETATM    2  C   UNL     1      -7.596  10.856  66.312  1.00  0.00    -0.136 C  
HETATM    3  C   UNL     1      -7.305   9.467  66.801  1.00  0.00    -0.086 C  
HETATM    4  C   UNL     1      -8.118   7.867  65.757  1.00  0.00    -0.123 C  
HETATM    5  O   UNL     1      -9.000   8.131  64.595  1.00  0.00    -0.379 OA 
HETATM    6  C   UNL     1     -10.906   7.064  69.148  1.00  0.00    -0.223 C  
HETATM    7  C   UNL     1      -6.981   8.599  65.594  1.00  0.00    -0.075 C  
HETATM    8  C   UNL     1      -6.507   7.539  67.117  1.00  0.00    -0.061 C  
HETATM    9  C   UNL     1      -6.143   8.892  64.387  1.00  0.00    -0.070 C  
HETATM   10  C   UNL     1     -10.006   8.203  69.612  1.00  0.00    -0.193 C  
HETATM   11  C   UNL     1      -9.171   7.981  70.957  1.00  0.00    -0.169 C  
HETATM   12  H   UNL     1      -9.372   7.399  64.117  1.00  0.00     0.000 HD 
HETATM   13  C   UNL     1      -7.883   7.260  68.130  1.00  0.00    -0.118 C  
HETATM   14  C   UNL     1      -9.202   8.715  72.072  1.00  0.00    -0.338 C  
HETATM   15  O   UNL     1     -11.439   8.045  72.663  1.00  0.00    -0.381 OA 
HETATM   16  O   UNL     1      -8.592   6.160  67.537  1.00  0.00    -0.108 OA 
HETATM   17  C   UNL     1      -8.959   8.491  68.486  1.00  0.00    -0.139 C  
HETATM   18  H   UNL     1      -9.347   6.008  68.093  1.00  0.00     0.000 HD 
HETATM   19  C   UNL     1      -9.612   9.298  67.118  1.00  0.00    -0.208 C  
HETATM   20  C   UNL     1     -10.436  10.510  67.559  1.00  0.00    -0.284 C  
HETATM   21  C   UNL     1     -11.467  10.151  68.615  1.00  0.00    -0.039 C  
HETATM   22  F   UNL     1     -12.101  11.304  68.976  1.00  0.00    -0.356 F  
HETATM   23  C   UNL     1     -10.904   9.446  69.820  1.00  0.00    -0.250 C  
HETATM   24  C   UNL     1     -11.205   9.813  71.078  1.00  0.00    -0.451 C  
HETATM   25  C   UNL     1     -10.721   8.825  72.052  1.00  0.00    -0.347 C  
ENDROOT
BRANCH   4  26
HETATM   26  C   UNL     1      -7.461   6.355  65.028  1.00  0.00    -0.084 C  
HETATM   27  O   UNL     1      -6.512   5.702  65.490  1.00  0.00    -0.037 OA 
BRANCH  26  28
HETATM   28  C   UNL     1      -7.964   5.795  63.640  1.00  0.00    -0.120 C  
HETATM   29  O   UNL     1      -9.262   5.177  63.731  1.00  0.00    -0.351 OA 
HETATM   30  H   UNL     1      -9.565   4.840  62.896  1.00  0.00     0.000 HD 
ENDBRANCH  26  28
ENDBRANCH   4  26
TORSDOF 2
ENDMDL
MODEL       57
REMARK 921   NORMALIZED FREE ENERGY PREDICTED BY IDOCK:   -4.85 KCAL/MOL
REMARK 922        TOTAL FREE ENERGY PREDICTED BY IDOCK:   -4.78 KCAL/MOL
REMARK 923 INTER-LIGAND FREE ENERGY PREDICTED BY IDOCK:   -5.45 KCAL/MOL
REMARK 924 INTRA-LIGAND FREE ENERGY PREDICTED BY IDOCK:    0.67 KCAL/MOL
REMARK 927      BINDING AFFINITY PREDICTED BY RF-SCORE:    0.00 PKD
ROOT
HETATM    1  C   UNL     1     -10.067  11.518  67.925  1.00  0.00    -0.202 C  
HETATM    2  C   UNL     1      -8.951  12.135  68.539  1.00  0.00    -0.082 C  
HETATM    3  C   UNL     1      -8.686  11.484  67.213  1.00  0.00    -0.151 C  
HETATM    4  C   UNL     1     -10.308  11.024  66.001  1.00  0.00    -0.254 C  
HETATM    5  O   UNL     1     -11.680  11.299  66.490  1.00  0.00    -0.323 OA 
HETATM    6  C   UNL     1      -9.667   6.677  66.786  1.00  0.00    -0.217 C  
HETATM    7  C   UNL     1      -9.568  12.156  66.171  1.00  0.00    -0.250 C  
HETATM    8  C   UNL     1      -8.342  11.075  65.171  1.00  0.00     0.090 C  
HETATM    9  C   UNL     1      -9.891  13.603  65.963  1.00  0.00    -0.290 C  
HETATM   10  C   UNL     1      -8.522   7.398  67.485  1.00  0.00    -0.116 C  
HETATM   11  C   UNL     1      -7.032   6.988  67.074  1.00  0.00    -0.070 C  
HETATM   12  H   UNL     1     -12.422  11.089  65.935  1.00  0.00     0.000 HD 
HETATM   13  C   UNL     1      -8.500   9.404  65.597  1.00  0.00    -0.136 C  
HETATM   14  C   UNL     1      -6.063   6.519  67.863  1.00  0.00    -0.027 C  
HETATM   15  O   UNL     1      -7.157   4.409  68.252  1.00  0.00    -0.058 OA 
HETATM   16  O   UNL     1      -9.614   8.908  64.839  1.00  0.00    -0.365 OA 
HETATM   17  C   UNL     1      -8.654   8.930  67.194  1.00  0.00    -0.112 C  
HETATM   18  H   UNL     1      -9.701   7.991  65.074  1.00  0.00     0.000 HD 
HETATM   19  C   UNL     1      -9.926   9.695  68.056  1.00  0.00    -0.190 C  
HETATM   20  C   UNL     1      -9.863   9.323  69.539  1.00  0.00    -0.188 C  
HETATM   21  C   UNL     1      -9.788   7.821  69.753  1.00  0.00    -0.178 C  
HETATM   22  F   UNL     1      -9.678   7.604  71.096  1.00  0.00    -0.162 F  
HETATM   23  C   UNL     1      -8.673   7.141  69.004  1.00  0.00    -0.132 C  
HETATM   24  C   UNL     1      -7.840   6.263  69.590  1.00  0.00    -0.107 C  
HETATM   25  C   UNL     1      -7.007   5.574  68.595  1.00  0.00    -0.060 C  
ENDROOT
BRANCH   4  26
HETATM   26  C   UNL     1     -10.753  11.360  64.287  1.00  0.00    -0.356 C  
HETATM   27  O   UNL     1      -9.975  11.273  63.324  1.00  0.00    -0.332 OA 
BRANCH  26  28
HETATM   28  C   UNL     1     -12.166  11.931  63.876  1.00  0.00    -0.392 C  
HETATM   29  O   UNL     1     -12.068  13.120  63.070  1.00  0.00    -0.795 OA 
HETATM   30  H   UNL     1     -12.919  13.464  62.823  1.00  0.00     0.000 HD 
ENDBRANCH  26  28
ENDBRANCH   4  26
TORSDOF 2
ENDMDL
MODEL       58
REMARK 921   NORMALIZED FREE ENERGY PREDICTED BY IDOCK:   -4.81 KCAL/MOL
REMARK 922        TOTAL FREE ENERGY PREDICTED BY IDOCK:   -4.73 KCAL/MOL
REMARK 923 INTER-LIGAND FREE ENERGY PREDICTED BY IDOCK:   -5.89 KCAL/MOL
REMARK 924 INTRA-LIGAND FREE ENERGY PREDICTED BY IDOCK:    1.16 KCAL/MOL
REMARK 927      BINDING AFFINITY PREDICTED BY RF-SCORE:    0.00 PKD
ROOT
HETATM    1  C   UNL     1      -7.669   8.510  69.881  1.00  0.00    -0.091 C  
HETATM    2  C   UNL     1      -6.876   9.297  70.749  1.00  0.00    -0.100 C  
HETATM    3  C   UNL     1      -8.359   9.401  70.950  1.00  0.00    -0.112 C  
HETATM    4  C   UNL     1      -9.570   7.933  70.120  1.00  0.00    -0.175 C  
HETATM    5  O   UNL     1      -8.952   6.854  69.312  1.00  0.00    -0.138 OA 
HETATM    6  C   UNL     1     -11.093  10.873  67.128  1.00  0.00    -0.308 C  
HETATM    7  C   UNL     1      -8.887   8.017  71.297  1.00  0.00    -0.163 C  
HETATM    8  C   UNL     1     -10.344   9.212  71.643  1.00  0.00    -0.388 C  
HETATM    9  C   UNL     1      -8.330   6.966  72.208  1.00  0.00    -0.106 C  
HETATM   10  C   UNL     1     -10.175  11.662  68.055  1.00  0.00    -0.202 C  
HETATM   11  C   UNL     1     -10.798  12.927  68.809  1.00  0.00    -0.277 C  
HETATM   12  H   UNL     1      -9.506   6.182  68.932  1.00  0.00     0.000 HD 
HETATM   13  C   UNL     1     -10.805  10.059  70.205  1.00  0.00    -0.313 C  
HETATM   14  C   UNL     1     -10.391  14.197  68.754  1.00  0.00    -0.230 C  
HETATM   15  O   UNL     1     -11.065  14.500  66.461  1.00  0.00    -0.318 OA 
HETATM   16  O   UNL     1     -11.662   9.164  69.479  1.00  0.00    -0.320 OA 
HETATM   17  C   UNL     1      -9.655  10.696  69.170  1.00  0.00    -0.193 C  
HETATM   18  H   UNL     1     -11.915   9.629  68.690  1.00  0.00     0.000 HD 
HETATM   19  C   UNL     1      -8.474   9.575  68.625  1.00  0.00    -0.119 C  
HETATM   20  C   UNL     1      -7.380  10.297  67.835  1.00  0.00    -0.087 C  
HETATM   21  C   UNL     1      -7.950  11.178  66.736  1.00  0.00    -0.156 C  
HETATM   22  F   UNL     1      -6.901  11.814  66.138  1.00  0.00     0.029 F  
HETATM   23  C   UNL     1      -8.984  12.166  67.205  1.00  0.00    -0.189 C  
HETATM   24  C   UNL     1      -8.952  13.464  66.857  1.00  0.00    -0.216 C  
HETATM   25  C   UNL     1     -10.192  14.151  67.244  1.00  0.00    -0.256 C  
ENDROOT
BRANCH   4  26
HETATM   26  C   UNL     1     -10.866   6.846  70.744  1.00  0.00    -0.245 C  
HETATM   27  O   UNL     1     -11.786   6.376  70.057  1.00  0.00    -0.429 OA 
BRANCH  26  28
HETATM   28  C   UNL     1     -11.015   6.501  72.277  1.00  0.00    -0.249 C  
HETATM   29  O   UNL     1     -12.340   6.047  72.615  1.00  0.00    -0.544 OA 
HETATM   30  H   UNL     1     -12.430   5.839  73.538  1.00  0.00     0.000 HD 
ENDBRANCH  26  28
ENDBRANCH   4  26
TORSDOF 2
ENDMDL
MODEL       59
REMARK 921   NORMALIZED FREE ENERGY PREDICTED BY IDOCK:   -4.77 KCAL/MOL
REMARK 922        TOTAL FREE ENERGY PREDICTED BY IDOCK:   -4.69 KCAL/MOL
REMARK 923 INTER-LIGAND FREE ENERGY PREDICTED BY IDOCK:   -6.00 KCAL/MOL
REMARK 924 INTRA-LIGAND FREE ENERGY PREDICTED BY IDOCK:    1.32 KCAL/MOL
REMARK 927      BINDING AFFINITY PREDICTED BY RF-SCORE:    0.00 PKD
ROOT
HETATM    1  C   UNL     1      -6.915  11.890  67.789  1.00  0.00    -0.102 C  
HETATM    2  C   UNL     1      -6.818  11.888  69.201  1.00  0.00    -0.099 C  
HETATM    3  C   UNL     1      -8.204  11.743  68.644  1.00  0.00    -0.091 C  
HETATM    4  C   UNL     1      -8.411  11.211  66.648  1.00  0.00    -0.164 C  
HETATM    5  O   UNL     1      -7.199  11.038  65.812  1.00  0.00    -0.339 OA 
HETATM    6  C   UNL     1      -9.876  15.319  65.700  1.00  0.00    -0.383 C  
HETATM    7  C   UNL     1      -8.241  10.485  67.789  1.00  0.00    -0.107 C  
HETATM    8  C   UNL     1     -10.071  11.019  67.976  1.00  0.00    -0.198 C  
HETATM    9  C   UNL     1      -7.655   9.129  68.033  1.00  0.00    -0.085 C  
HETATM   10  C   UNL     1      -9.691  15.283  67.212  1.00  0.00    -0.212 C  
HETATM   11  C   UNL     1     -10.962  15.626  68.119  1.00  0.00    -0.314 C  
HETATM   12  H   UNL     1      -7.294  10.795  64.899  1.00  0.00     0.000 HD 
HETATM   13  C   UNL     1     -10.323  12.604  67.325  1.00  0.00    -0.224 C  
HETATM   14  C   UNL     1     -11.082  16.593  69.032  1.00  0.00    -0.234 C  
HETATM   15  O   UNL     1     -11.028  18.375  67.412  1.00  0.00    -0.351 OA 
HETATM   16  O   UNL     1     -10.480  12.427  65.909  1.00  0.00    -0.246 OA 
HETATM   17  C   UNL     1      -9.236  13.842  67.618  1.00  0.00    -0.207 C  
HETATM   18  H   UNL     1     -10.618  13.297  65.552  1.00  0.00     0.000 HD 
HETATM   19  C   UNL     1      -7.608  13.485  67.209  1.00  0.00    -0.074 C  
HETATM   20  C   UNL     1      -6.682  14.610  67.679  1.00  0.00    -0.196 C  
HETATM   21  C   UNL     1      -7.152  15.976  67.209  1.00  0.00    -0.203 C  
HETATM   22  F   UNL     1      -6.296  16.903  67.728  1.00  0.00    -0.127 F  
HETATM   23  C   UNL     1      -8.579  16.300  67.565  1.00  0.00    -0.189 C  
HETATM   24  C   UNL     1      -8.936  17.471  68.120  1.00  0.00    -0.266 C  
HETATM   25  C   UNL     1     -10.397  17.625  68.145  1.00  0.00    -0.386 C  
ENDROOT
BRANCH   4  26
HETATM   26  C   UNL     1      -9.316   9.931  65.757  1.00  0.00    -0.204 C  
HETATM   27  O   UNL     1     -10.086  10.140  64.806  1.00  0.00    -0.331 OA 
BRANCH  26  28
HETATM   28  C   UNL     1      -9.306   8.418  66.208  1.00  0.00    -0.219 C  
HETATM   29  O   UNL     1     -10.614   7.942  66.577  1.00  0.00    -0.451 OA 
HETATM   30  H   UNL     1     -10.608   7.032  66.848  1.00  0.00     0.000 HD 
ENDBRANCH  26  28
ENDBRANCH   4  26
TORSDOF 2
ENDMDL
MODEL       60
REMARK 921   NORMALIZED FREE ENERGY PREDICTED BY IDOCK:   -4.76 KCAL/MOL
REMARK 922        TOTAL FREE ENERGY PREDICTED BY IDOCK:   -4.68 KCAL/MOL
REMARK 923 INTER-LIGAND FREE ENERGY PREDICTED BY IDOCK:   -5.14 KCAL/MOL
REMARK 924 INTRA-LIGAND FREE ENERGY PREDICTED BY IDOCK:    0.45 KCAL/MOL
REMARK 927      BINDING AFFINITY PREDICTED BY RF-SCORE:    0.00 PKD
ROOT
HETATM    1  C   UNL     1     -10.394   9.588  70.908  1.00  0.00    -0.372 C  
HETATM    2  C   UNL     1     -11.323  10.153  70.003  1.00  0.00    -0.351 C  
HETATM    3  C   UNL     1     -11.278   8.653  70.037  1.00  0.00    -0.098 C  
HETATM    4  C   UNL     1     -10.363   7.733  71.658  1.00  0.00    -0.197 C  
HETATM    5  O   UNL     1      -9.737   8.569  72.709  1.00  0.00    -0.257 OA 
HETATM    6  C   UNL     1      -6.978   6.470  69.038  1.00  0.00    -0.075 C  
HETATM    7  C   UNL     1     -11.626   8.201  71.447  1.00  0.00    -0.314 C  
HETATM    8  C   UNL     1     -11.654   6.606  70.386  1.00  0.00    -0.457 C  
HETATM    9  C   UNL     1     -12.682   8.691  72.389  1.00  0.00    -0.423 C  
HETATM   10  C   UNL     1      -7.985   7.148  68.116  1.00  0.00    -0.119 C  
HETATM   11  C   UNL     1      -8.544   6.298  66.883  1.00  0.00    -0.113 C  
HETATM   12  H   UNL     1      -9.319   8.148  73.451  1.00  0.00     0.000 HD 
HETATM   13  C   UNL     1     -10.108   6.316  69.662  1.00  0.00    -0.174 C  
HETATM   14  C   UNL     1      -8.471   6.594  65.583  1.00  0.00    -0.147 C  
HETATM   15  O   UNL     1      -6.084   6.285  65.465  1.00  0.00    -0.028 OA 
HETATM   16  O   UNL     1      -9.315   5.674  70.673  1.00  0.00    -0.153 OA 
HETATM   17  C   UNL     1      -9.231   7.560  68.968  1.00  0.00    -0.146 C  
HETATM   18  H   UNL     1      -8.466   5.516  70.276  1.00  0.00     0.000 HD 
HETATM   19  C   UNL     1      -8.958   8.910  69.993  1.00  0.00    -0.172 C  
HETATM   20  C   UNL     1      -8.307  10.051  69.207  1.00  0.00    -0.154 C  
HETATM   21  C   UNL     1      -7.075   9.595  68.444  1.00  0.00    -0.070 C  
HETATM   22  F   UNL     1      -6.612  10.667  67.739  1.00  0.00    -0.059 F  
HETATM   23  C   UNL     1      -7.305   8.414  67.540  1.00  0.00    -0.093 C  
HETATM   24  C   UNL     1      -6.881   8.387  66.265  1.00  0.00    -0.073 C  
HETATM   25  C   UNL     1      -7.019   7.044  65.686  1.00  0.00    -0.056 C  
ENDROOT
BRANCH   4  26
HETATM   26  C   UNL     1     -10.842   6.454  72.834  1.00  0.00    -0.256 C  
HETATM   27  O   UNL     1     -11.718   5.598  72.630  1.00  0.00    -0.303 OA 
BRANCH  26  28
HETATM   28  C   UNL     1     -10.267   6.396  74.303  1.00  0.00    -0.344 C  
HETATM   29  O   UNL     1      -8.830   6.309  74.330  1.00  0.00    -0.130 OA 
HETATM   30  H   UNL     1      -8.483   6.274  75.214  1.00  0.00     0.000 HD 
ENDBRANCH  26  28
ENDBRANCH   4  26
TORSDOF 2
ENDMDL
MODEL       61
REMARK 921   NORMALIZED FREE ENERGY PREDICTED BY IDOCK:   -4.72 KCAL/MOL
REMARK 922        TOTAL FREE ENERGY PREDICTED BY IDOCK:   -4.64 KCAL/MOL
REMARK 923 INTER-LIGAND FREE ENERGY PREDICTED BY IDOCK:   -5.32 KCAL/MOL
REMARK 924 INTRA-LIGAND FREE ENERGY PREDICTED BY IDOCK:    0.68 KCAL/MOL
REMARK 927      BINDING AFFINITY PREDICTED BY RF-SCORE:    0.00 PKD
ROOT
HETATM    1  C   UNL     1      -9.434  10.508  66.971  1.00  0.00    -0.188 C  
HETATM    2  C   UNL     1      -9.308  10.450  65.562  1.00  0.00    -0.244 C  
HETATM    3  C   UNL     1      -8.179  11.121  66.289  1.00  0.00    -0.153 C  
HETATM    4  C   UNL     1      -7.999  10.804  68.333  1.00  0.00    -0.124 C  
HETATM    5  O   UNL     1      -9.009   9.973  69.031  1.00  0.00    -0.144 OA 
HETATM    6  C   UNL     1      -9.260  15.016  69.101  1.00  0.00    -0.183 C  
HETATM    7  C   UNL     1      -7.564  10.109  67.245  1.00  0.00    -0.095 C  
HETATM    8  C   UNL     1      -6.350  11.590  67.231  1.00  0.00    -0.107 C  
HETATM    9  C   UNL     1      -7.241   8.660  67.047  1.00  0.00    -0.076 C  
HETATM   10  C   UNL     1      -9.172  14.879  67.586  1.00  0.00    -0.187 C  
HETATM   11  C   UNL     1      -8.200  15.885  66.810  1.00  0.00    -0.307 C  
HETATM   12  H   UNL     1      -8.927   9.828  69.966  1.00  0.00     0.000 HD 
HETATM   13  C   UNL     1      -7.131  13.038  67.772  1.00  0.00    -0.139 C  
HETATM   14  C   UNL     1      -8.516  16.746  65.839  1.00  0.00    -0.032 C  
HETATM   15  O   UNL     1      -9.798  18.182  67.287  1.00  0.00    -0.295 OA 
HETATM   16  O   UNL     1      -7.109  12.984  69.207  1.00  0.00    -0.280 OA 
HETATM   17  C   UNL     1      -8.671  13.436  67.251  1.00  0.00    -0.219 C  
HETATM   18  H   UNL     1      -7.539  13.778  69.504  1.00  0.00     0.000 HD 
HETATM   19  C   UNL     1      -9.853  12.215  67.493  1.00  0.00    -0.193 C  
HETATM   20  C   UNL     1     -11.172  12.611  66.825  1.00  0.00    -0.347 C  
HETATM   21  C   UNL     1     -11.628  14.002  67.232  1.00  0.00    -0.369 C  
HETATM   22  F   UNL     1     -12.771  14.276  66.539  1.00  0.00    -0.467 F  
HETATM   23  C   UNL     1     -10.599  15.081  67.020  1.00  0.00    -0.293 C  
HETATM   24  C   UNL     1     -10.888  16.246  66.415  1.00  0.00    -0.100 C  
HETATM   25  C   UNL     1      -9.783  17.205  66.551  1.00  0.00    -0.287 C  
ENDROOT
BRANCH   4  26
HETATM   26  C   UNL     1      -6.671  10.269  69.428  1.00  0.00    -0.063 C  
HETATM   27  O   UNL     1      -5.479  10.594  69.305  1.00  0.00    -0.038 OA 
BRANCH  26  28
HETATM   28  C   UNL     1      -6.897   9.215  70.581  1.00  0.00    -0.084 C  
HETATM   29  O   UNL     1      -6.451   9.695  71.864  1.00  0.00    -0.300 OA 
HETATM   30  H   UNL     1      -6.587   9.061  72.558  1.00  0.00     0.000 HD 
ENDBRANCH  26  28
ENDBRANCH   4  26
TORSDOF 2
ENDMDL
MODEL       62
REMARK 921   NORMALIZED FREE ENERGY PREDICTED BY IDOCK:   -4.69 KCAL/MOL
REMARK 922        TOTAL FREE ENERGY PREDICTED BY IDOCK:   -4.60 KCAL/MOL
REMARK 923 INTER-LIGAND FREE ENERGY PREDICTED BY IDOCK:   -5.03 KCAL/MOL
REMARK 924 INTRA-LIGAND FREE ENERGY PREDICTED BY IDOCK:    0.43 KCAL/MOL
REMARK 927      BINDING AFFINITY PREDICTED BY RF-SCORE:    0.00 PKD
ROOT
HETATM    1  C   UNL     1      -9.379   8.755  69.760  1.00  0.00    -0.163 C  
HETATM    2  C   UNL     1     -10.260   9.491  68.932  1.00  0.00    -0.213 C  
HETATM    3  C   UNL     1     -10.738   8.128  69.341  1.00  0.00    -0.164 C  
HETATM    4  C   UNL     1      -9.800   7.195  70.941  1.00  0.00    -0.181 C  
HETATM    5  O   UNL     1      -8.657   7.867  71.604  1.00  0.00    -0.109 OA 
HETATM    6  C   UNL     1      -7.933   4.263  68.141  1.00  0.00    -0.078 C  
HETATM    7  C   UNL     1     -10.823   8.092  70.859  1.00  0.00    -0.254 C  
HETATM    8  C   UNL     1     -11.701   6.495  70.269  1.00  0.00    -0.430 C  
HETATM    9  C   UNL     1     -11.337   9.114  71.826  1.00  0.00    -0.451 C  
HETATM   10  C   UNL     1      -8.848   5.129  67.285  1.00  0.00    -0.105 C  
HETATM   11  C   UNL     1      -9.986   4.389  66.440  1.00  0.00    -0.252 C  
HETATM   12  H   UNL     1      -8.228   7.440  72.336  1.00  0.00     0.000 HD 
HETATM   13  C   UNL     1     -10.618   5.491  69.365  1.00  0.00    -0.279 C  
HETATM   14  C   UNL     1     -10.173   4.413  65.118  1.00  0.00    -0.199 C  
HETATM   15  O   UNL     1      -8.178   3.152  64.634  1.00  0.00    -0.089 OA 
HETATM   16  O   UNL     1      -9.856   4.758  70.338  1.00  0.00    -0.201 OA 
HETATM   17  C   UNL     1      -9.584   6.143  68.222  1.00  0.00    -0.122 C  
HETATM   18  H   UNL     1      -9.262   4.207  69.842  1.00  0.00     0.000 HD 
HETATM   19  C   UNL     1      -8.584   7.415  68.795  1.00  0.00    -0.129 C  
HETATM   20  C   UNL     1      -7.815   8.050  67.634  1.00  0.00    -0.122 C  
HETATM   21  C   UNL     1      -7.082   7.018  66.795  1.00  0.00    -0.082 C  
HETATM   22  F   UNL     1      -6.483   7.680  65.763  1.00  0.00    -0.040 F  
HETATM   23  C   UNL     1      -7.952   5.899  66.285  1.00  0.00    -0.102 C  
HETATM   24  C   UNL     1      -7.932   5.496  65.003  1.00  0.00    -0.113 C  
HETATM   25  C   UNL     1      -8.687   4.248  64.825  1.00  0.00    -0.135 C  
ENDROOT
BRANCH   4  26
HETATM   26  C   UNL     1     -10.357   6.430  72.475  1.00  0.00    -0.191 C  
HETATM   27  O   UNL     1     -11.482   5.935  72.650  1.00  0.00    -0.291 OA 
BRANCH  26  28
HETATM   28  C   UNL     1      -9.487   6.442  73.792  1.00  0.00    -0.157 C  
HETATM   29  O   UNL     1      -9.374   7.757  74.367  1.00  0.00    -0.375 OA 
HETATM   30  H   UNL     1      -8.850   7.765  75.160  1.00  0.00     0.000 HD 
ENDBRANCH  26  28
ENDBRANCH   4  26
TORSDOF 2
ENDMDL
MODEL       63
REMARK 921   NORMALIZED FREE ENERGY PREDICTED BY IDOCK:   -4.61 KCAL/MOL
REMARK 922        TOTAL FREE ENERGY PREDICTED BY IDOCK:   -4.51 KCAL/MOL
REMARK 923 INTER-LIGAND FREE ENERGY PREDICTED BY IDOCK:   -5.00 KCAL/MOL
REMARK 924 INTRA-LIGAND FREE ENERGY PREDICTED BY IDOCK:    0.48 KCAL/MOL
REMARK 927      BINDING AFFINITY PREDICTED BY RF-SCORE:    0.00 PKD
ROOT
HETATM    1  C   UNL     1     -10.210   5.761  68.400  1.00  0.00    -0.242 C  
HETATM    2  C   UNL     1      -9.418   4.999  67.508  1.00  0.00    -0.152 C  
HETATM    3  C   UNL     1      -8.693   5.580  68.687  1.00  0.00    -0.108 C  
HETATM    4  C   UNL     1      -9.816   6.247  70.301  1.00  0.00    -0.168 C  
HETATM    5  O   UNL     1     -11.295   6.184  70.232  1.00  0.00    -0.365 OA 
HETATM    6  C   UNL     1      -8.805  10.469  69.264  1.00  0.00    -0.135 C  
HETATM    7  C   UNL     1      -9.327   5.023  69.953  1.00  0.00    -0.198 C  
HETATM    8  C   UNL     1      -7.724   5.895  70.535  1.00  0.00    -0.100 C  
HETATM    9  C   UNL     1      -9.783   3.635  70.279  1.00  0.00    -0.193 C  
HETATM   10  C   UNL     1      -8.024   9.603  68.283  1.00  0.00    -0.096 C  
HETATM   11  C   UNL     1      -6.436   9.784  68.241  1.00  0.00    -0.056 C  
HETATM   12  H   UNL     1     -11.809   6.489  70.970  1.00  0.00     0.000 HD 
HETATM   13  C   UNL     1      -7.753   7.579  70.133  1.00  0.00    -0.089 C  
HETATM   14  C   UNL     1      -5.676  10.122  67.197  1.00  0.00    -0.046 C  
HETATM   15  O   UNL     1      -6.519  12.376  67.088  1.00  0.00    -0.159 OA 
HETATM   16  O   UNL     1      -8.520   8.217  71.166  1.00  0.00    -0.121 OA 
HETATM   17  C   UNL     1      -8.288   8.102  68.636  1.00  0.00    -0.126 C  
HETATM   18  H   UNL     1      -8.537   9.141  70.945  1.00  0.00     0.000 HD 
HETATM   19  C   UNL     1      -9.850   7.546  68.192  1.00  0.00    -0.179 C  
HETATM   20  C   UNL     1     -10.162   7.933  66.745  1.00  0.00    -0.358 C  
HETATM   21  C   UNL     1      -9.934   9.412  66.483  1.00  0.00    -0.269 C  
HETATM   22  F   UNL     1     -10.183   9.636  65.160  1.00  0.00    -0.366 F  
HETATM   23  C   UNL     1      -8.565   9.908  66.865  1.00  0.00    -0.131 C  
HETATM   24  C   UNL     1      -7.817  10.667  66.046  1.00  0.00    -0.156 C  
HETATM   25  C   UNL     1      -6.644  11.209  66.744  1.00  0.00    -0.133 C  
ENDROOT
BRANCH   4  26
HETATM   26  C   UNL     1      -9.796   5.947  72.078  1.00  0.00    -0.157 C  
HETATM   27  O   UNL     1      -8.792   5.614  72.728  1.00  0.00    -0.123 OA 
BRANCH  26  28
HETATM   28  C   UNL     1     -11.109   5.957  72.953  1.00  0.00    -0.269 C  
HETATM   29  O   UNL     1     -11.936   7.108  72.697  1.00  0.00    -0.503 OA 
HETATM   30  H   UNL     1     -12.726   7.114  73.224  1.00  0.00     0.000 HD 
ENDBRANCH  26  28
ENDBRANCH   4  26
TORSDOF 2
ENDMDL
MODEL       64
REMARK 921   NORMALIZED FREE ENERGY PREDICTED BY IDOCK:   -4.59 KCAL/MOL
REMARK 922        TOTAL FREE ENERGY PREDICTED BY IDOCK:   -4.49 KCAL/MOL
REMARK 923 INTER-LIGAND FREE ENERGY PREDICTED BY IDOCK:   -4.92 KCAL/MOL
REMARK 924 INTRA-LIGAND FREE ENERGY PREDICTED BY IDOCK:    0.43 KCAL/MOL
REMARK 927      BINDING AFFINITY PREDICTED BY RF-SCORE:    0.00 PKD
ROOT
HETATM    1  C   UNL     1     -10.660   9.379  67.759  1.00  0.00    -0.317 C  
HETATM    2  C   UNL     1     -10.866  10.650  68.345  1.00  0.00    -0.282 C  
HETATM    3  C   UNL     1      -9.470  10.107  68.444  1.00  0.00    -0.147 C  
HETATM    4  C   UNL     1      -8.934   8.539  67.193  1.00  0.00    -0.130 C  
HETATM    5  O   UNL     1      -9.946   7.963  66.276  1.00  0.00    -0.452 OA 
HETATM    6  C   UNL     1      -8.854   5.769  70.692  1.00  0.00    -0.145 C  
HETATM    7  C   UNL     1      -8.945   9.892  67.032  1.00  0.00    -0.152 C  
HETATM    8  C   UNL     1      -7.421   9.682  68.173  1.00  0.00    -0.082 C  
HETATM    9  C   UNL     1      -9.062  10.754  65.813  1.00  0.00    -0.208 C  
HETATM   10  C   UNL     1      -9.140   7.153  71.264  1.00  0.00    -0.151 C  
HETATM   11  C   UNL     1      -8.136   7.713  72.375  1.00  0.00    -0.132 C  
HETATM   12  H   UNL     1      -9.700   7.246  65.704  1.00  0.00     0.000 HD 
HETATM   13  C   UNL     1      -7.660   8.382  69.293  1.00  0.00    -0.089 C  
HETATM   14  C   UNL     1      -8.422   8.096  73.622  1.00  0.00    -0.308 C  
HETATM   15  O   UNL     1      -8.936   5.867  74.377  1.00  0.00    -0.124 OA 
HETATM   16  O   UNL     1      -7.337   7.181  68.576  1.00  0.00    -0.094 OA 
HETATM   17  C   UNL     1      -9.119   8.185  70.089  1.00  0.00    -0.147 C  
HETATM   18  H   UNL     1      -7.469   6.468  69.191  1.00  0.00     0.000 HD 
HETATM   19  C   UNL     1     -10.495   8.104  69.066  1.00  0.00    -0.211 C  
HETATM   20  C   UNL     1     -11.778   8.102  69.900  1.00  0.00     0.410 C  
HETATM   21  C   UNL     1     -11.755   7.044  70.989  1.00  0.00    -0.333 C  
HETATM   22  F   UNL     1     -12.911   7.168  71.703  1.00  0.00    -0.359 F  
HETATM   23  C   UNL     1     -10.554   7.109  71.894  1.00  0.00    -0.238 C  
HETATM   24  C   UNL     1     -10.655   7.062  73.234  1.00  0.00    -0.378 C  
HETATM   25  C   UNL     1      -9.337   6.902  73.863  1.00  0.00    -0.210 C  
ENDROOT
BRANCH   4  26
HETATM   26  C   UNL     1      -7.583   8.234  66.039  1.00  0.00    -0.078 C  
HETATM   27  O   UNL     1      -6.453   8.741  66.123  1.00  0.00    -0.062 OA 
BRANCH  26  28
HETATM   28  C   UNL     1      -7.770   7.383  64.723  1.00  0.00    -0.114 C  
HETATM   29  O   UNL     1      -8.590   8.050  63.745  1.00  0.00    -0.391 OA 
HETATM   30  H   UNL     1      -8.703   7.537  62.953  1.00  0.00     0.000 HD 
ENDBRANCH  26  28
ENDBRANCH   4  26
TORSDOF 2
ENDMDL
MODEL       65
REMARK 921   NORMALIZED FREE ENERGY PREDICTED BY IDOCK:   -4.59 KCAL/MOL
REMARK 922        TOTAL FREE ENERGY PREDICTED BY IDOCK:   -4.49 KCAL/MOL
REMARK 923 INTER-LIGAND FREE ENERGY PREDICTED BY IDOCK:   -5.65 KCAL/MOL
REMARK 924 INTRA-LIGAND FREE ENERGY PREDICTED BY IDOCK:    1.16 KCAL/MOL
REMARK 927      BINDING AFFINITY PREDICTED BY RF-SCORE:    0.00 PKD
ROOT
HETATM    1  C   UNL     1     -10.528  14.664  66.758  1.00  0.00    -0.277 C  
HETATM    2  C   UNL     1     -11.565  14.420  67.691  1.00  0.00    -0.396 C  
HETATM    3  C   UNL     1     -10.202  14.647  68.277  1.00  0.00    -0.227 C  
HETATM    4  C   UNL     1      -8.747  15.517  67.079  1.00  0.00    -0.231 C  
HETATM    5  O   UNL     1      -9.068  15.845  65.669  1.00  0.00    -0.311 OA 
HETATM    6  C   UNL     1      -6.575  11.623  66.879  1.00  0.00    -0.129 C  
HETATM    7  C   UNL     1      -9.733  16.034  67.864  1.00  0.00    -0.220 C  
HETATM    8  C   UNL     1      -8.483  15.457  69.196  1.00  0.00    -0.241 C  
HETATM    9  C   UNL     1     -10.478  17.333  67.811  1.00  0.00    -0.371 C  
HETATM   10  C   UNL     1      -7.747  11.396  67.826  1.00  0.00    -0.115 C  
HETATM   11  C   UNL     1      -7.413  10.887  69.305  1.00  0.00    -0.124 C  
HETATM   12  H   UNL     1      -8.403  16.243  65.121  1.00  0.00     0.000 HD 
HETATM   13  C   UNL     1      -7.675  14.008  68.700  1.00  0.00    -0.135 C  
HETATM   14  C   UNL     1      -7.842   9.775  69.906  1.00  0.00    -0.168 C  
HETATM   15  O   UNL     1      -6.569   8.304  68.485  1.00  0.00    -0.056 OA 
HETATM   16  O   UNL     1      -6.613  14.427  67.830  1.00  0.00    -0.153 OA 
HETATM   17  C   UNL     1      -8.517  12.749  67.989  1.00  0.00    -0.177 C  
HETATM   18  H   UNL     1      -6.170  13.632  67.558  1.00  0.00     0.000 HD 
HETATM   19  C   UNL     1      -9.450  13.188  66.617  1.00  0.00    -0.260 C  
HETATM   20  C   UNL     1     -10.310  12.008  66.159  1.00  0.00    -0.257 C  
HETATM   21  C   UNL     1      -9.494  10.740  65.971  1.00  0.00    -0.194 C  
HETATM   22  F   UNL     1     -10.360   9.745  65.621  1.00  0.00    -0.344 F  
HETATM   23  C   UNL     1      -8.674  10.345  67.170  1.00  0.00    -0.130 C  
HETATM   24  C   UNL     1      -8.663   9.091  67.655  1.00  0.00    -0.124 C  
HETATM   25  C   UNL     1      -7.610   8.921  68.666  1.00  0.00    -0.096 C  
ENDROOT
BRANCH   4  26
HETATM   26  C   UNL     1      -7.632  16.924  67.246  1.00  0.00    -0.171 C  
HETATM   27  O   UNL     1      -6.672  17.158  66.495  1.00  0.00    -0.216 OA 
BRANCH  26  28
HETATM   28  C   UNL     1      -7.707  17.923  68.466  1.00  0.00    -0.297 C  
HETATM   29  O   UNL     1      -6.673  18.924  68.424  1.00  0.00    -0.235 OA 
HETATM   30  H   UNL     1      -6.718  19.526  69.158  1.00  0.00     0.000 HD 
ENDBRANCH  26  28
ENDBRANCH   4  26
TORSDOF 2
ENDMDL
MODEL       66
REMARK 921   NORMALIZED FREE ENERGY PREDICTED BY IDOCK:   -4.57 KCAL/MOL
REMARK 922        TOTAL FREE ENERGY PREDICTED BY IDOCK:   -4.46 KCAL/MOL
REMARK 923 INTER-LIGAND FREE ENERGY PREDICTED BY IDOCK:   -5.14 KCAL/MOL
REMARK 924 INTRA-LIGAND FREE ENERGY PREDICTED BY IDOCK:    0.68 KCAL/MOL
REMARK 927      BINDING AFFINITY PREDICTED BY RF-SCORE:    0.00 PKD
ROOT
HETATM    1  C   UNL     1      -7.515  10.188  68.394  1.00  0.00    -0.086 C  
HETATM    2  C   UNL     1      -6.512  10.186  67.397  1.00  0.00    -0.067 C  
HETATM    3  C   UNL     1      -7.907   9.912  66.916  1.00  0.00    -0.102 C  
HETATM    4  C   UNL     1      -9.491  10.403  68.164  1.00  0.00    -0.145 C  
HETATM    5  O   UNL     1      -9.211  10.960  69.509  1.00  0.00    -0.402 OA 
HETATM    6  C   UNL     1     -10.289   6.068  68.866  1.00  0.00    -0.273 C  
HETATM    7  C   UNL     1      -8.769  11.118  67.256  1.00  0.00    -0.139 C  
HETATM    8  C   UNL     1      -9.844  10.044  66.090  1.00  0.00    -0.309 C  
HETATM    9  C   UNL     1      -8.477  12.583  67.139  1.00  0.00    -0.186 C  
HETATM   10  C   UNL     1      -9.163   6.122  67.841  1.00  0.00    -0.115 C  
HETATM   11  C   UNL     1      -9.402   5.383  66.443  1.00  0.00    -0.157 C  
HETATM   12  H   UNL     1      -9.936  11.185  70.080  1.00  0.00     0.000 HD 
HETATM   13  C   UNL     1     -10.117   8.475  66.769  1.00  0.00    -0.299 C  
HETATM   14  C   UNL     1      -8.675   4.405  65.898  1.00  0.00    -0.118 C  
HETATM   15  O   UNL     1      -9.327   2.766  67.538  1.00  0.00    -0.189 OA 
HETATM   16  O   UNL     1     -11.205   8.629  67.693  1.00  0.00    -0.380 OA 
HETATM   17  C   UNL     1      -8.877   7.623  67.503  1.00  0.00    -0.124 C  
HETATM   18  H   UNL     1     -11.354   7.768  68.066  1.00  0.00     0.000 HD 
HETATM   19  C   UNL     1      -8.055   8.473  68.748  1.00  0.00    -0.120 C  
HETATM   20  C   UNL     1      -6.838   7.675  69.222  1.00  0.00    -0.052 C  
HETATM   21  C   UNL     1      -7.193   6.243  69.582  1.00  0.00    -0.078 C  
HETATM   22  F   UNL     1      -6.036   5.610  69.933  1.00  0.00    -0.021 F  
HETATM   23  C   UNL     1      -7.912   5.488  68.495  1.00  0.00    -0.088 C  
HETATM   24  C   UNL     1      -7.550   4.250  68.115  1.00  0.00    -0.068 C  
HETATM   25  C   UNL     1      -8.550   3.655  67.218  1.00  0.00    -0.108 C  
ENDROOT
BRANCH   4  26
HETATM   26  C   UNL     1     -11.005  11.365  67.983  1.00  0.00    -0.237 C  
HETATM   27  O   UNL     1     -11.367  11.924  66.935  1.00  0.00    -0.306 OA 
BRANCH  26  28
HETATM   28  C   UNL     1     -11.952  11.692  69.203  1.00  0.00    -0.313 C  
HETATM   29  O   UNL     1     -12.785  10.577  69.571  1.00  0.00    -0.659 OA 
HETATM   30  H   UNL     1     -13.354  10.774  70.306  1.00  0.00     0.000 HD 
ENDBRANCH  26  28
ENDBRANCH   4  26
TORSDOF 2
ENDMDL
MODEL       67
REMARK 921   NORMALIZED FREE ENERGY PREDICTED BY IDOCK:   -4.41 KCAL/MOL
REMARK 922        TOTAL FREE ENERGY PREDICTED BY IDOCK:   -4.29 KCAL/MOL
REMARK 923 INTER-LIGAND FREE ENERGY PREDICTED BY IDOCK:   -4.94 KCAL/MOL
REMARK 924 INTRA-LIGAND FREE ENERGY PREDICTED BY IDOCK:    0.66 KCAL/MOL
REMARK 927      BINDING AFFINITY PREDICTED BY RF-SCORE:    0.00 PKD
ROOT
HETATM    1  C   UNL     1     -10.537   5.342  69.715  1.00  0.00    -0.347 C  
HETATM    2  C   UNL     1      -9.776   4.200  70.062  1.00  0.00    -0.282 C  
HETATM    3  C   UNL     1      -9.039   5.507  70.095  1.00  0.00    -0.162 C  
HETATM    4  C   UNL     1     -10.148   7.262  70.125  1.00  0.00    -0.189 C  
HETATM    5  O   UNL     1     -11.627   7.187  70.062  1.00  0.00    -0.481 OA 
HETATM    6  C   UNL     1      -8.868   8.148  65.942  1.00  0.00    -0.194 C  
HETATM    7  C   UNL     1      -9.728   6.413  71.105  1.00  0.00    -0.191 C  
HETATM    8  C   UNL     1      -8.086   7.299  70.673  1.00  0.00    -0.108 C  
HETATM    9  C   UNL     1     -10.272   6.109  72.467  1.00  0.00    -0.206 C  
HETATM   10  C   UNL     1      -8.123   6.881  66.345  1.00  0.00    -0.113 C  
HETATM   11  C   UNL     1      -6.526   6.906  66.262  1.00  0.00    -0.051 C  
HETATM   12  H   UNL     1     -12.134   7.990  70.075  1.00  0.00     0.000 HD 
HETATM   13  C   UNL     1      -8.007   7.668  68.982  1.00  0.00    -0.121 C  
HETATM   14  C   UNL     1      -5.729   6.104  65.552  1.00  0.00    -0.024 C  
HETATM   15  O   UNL     1      -6.434   6.991  63.426  1.00  0.00    -0.043 OA 
HETATM   16  O   UNL     1      -8.752   8.883  68.809  1.00  0.00    -0.134 OA 
HETATM   17  C   UNL     1      -8.482   6.550  67.831  1.00  0.00    -0.118 C  
HETATM   18  H   UNL     1      -8.709   9.084  67.882  1.00  0.00     0.000 HD 
HETATM   19  C   UNL     1     -10.067   5.926  68.042  1.00  0.00    -0.194 C  
HETATM   20  C   UNL     1     -10.329   4.792  67.047  1.00  0.00    -0.171 C  
HETATM   21  C   UNL     1     -10.009   5.195  65.618  1.00  0.00    -0.005 C  
HETATM   22  F   UNL     1     -10.220   4.103  64.828  1.00  0.00    -0.192 F  
HETATM   23  C   UNL     1      -8.620   5.741  65.422  1.00  0.00    -0.143 C  
HETATM   24  C   UNL     1      -7.813   5.324  64.431  1.00  0.00    -0.100 C  
HETATM   25  C   UNL     1      -6.622   6.177  64.319  1.00  0.00    -0.034 C  
ENDROOT
BRANCH   4  26
HETATM   26  C   UNL     1     -10.177   8.733  71.167  1.00  0.00    -0.246 C  
HETATM   27  O   UNL     1      -9.235   9.114  71.879  1.00  0.00    -0.354 OA 
BRANCH  26  28
HETATM   28  C   UNL     1     -11.478   9.605  71.364  1.00  0.00    -0.385 C  
HETATM   29  O   UNL     1     -11.450  10.822  70.594  1.00  0.00    -0.356 OA 
HETATM   30  H   UNL     1     -12.234  11.346  70.712  1.00  0.00     0.000 HD 
ENDBRANCH  26  28
ENDBRANCH   4  26
TORSDOF 2
ENDMDL
MODEL       68
REMARK 921   NORMALIZED FREE ENERGY PREDICTED BY IDOCK:   -4.39 KCAL/MOL
REMARK 922        TOTAL FREE ENERGY PREDICTED BY IDOCK:   -4.27 KCAL/MOL
REMARK 923 INTER-LIGAND FREE ENERGY PREDICTED BY IDOCK:   -4.81 KCAL/MOL
REMARK 924 INTRA-LIGAND FREE ENERGY PREDICTED BY IDOCK:    0.54 KCAL/MOL
REMARK 927      BINDING AFFINITY PREDICTED BY RF-SCORE:    0.00 PKD
ROOT
HETATM    1  C   UNL     1      -6.861   7.189  68.550  1.00  0.00    -0.076 C  
HETATM    2  C   UNL     1      -6.922   5.791  68.759  1.00  0.00    -0.068 C  
HETATM    3  C   UNL     1      -8.091   6.392  68.034  1.00  0.00    -0.116 C  
HETATM    4  C   UNL     1      -7.874   8.290  67.221  1.00  0.00    -0.105 C  
HETATM    5  O   UNL     1      -6.600   9.022  67.416  1.00  0.00    -0.063 OA 
HETATM    6  C   UNL     1     -10.627   9.939  70.323  1.00  0.00    -0.359 C  
HETATM    7  C   UNL     1      -7.574   7.043  66.760  1.00  0.00    -0.090 C  
HETATM    8  C   UNL     1      -9.481   7.038  66.584  1.00  0.00    -0.210 C  
HETATM    9  C   UNL     1      -6.563   6.560  65.766  1.00  0.00    -0.044 C  
HETATM   10  C   UNL     1     -10.605   8.431  70.547  1.00  0.00    -0.236 C  
HETATM   11  C   UNL     1     -12.003   7.658  70.495  1.00  0.00    -0.044 C  
HETATM   12  H   UNL     1      -6.501   9.890  67.044  1.00  0.00     0.000 HD 
HETATM   13  C   UNL     1     -10.224   7.939  67.863  1.00  0.00    -0.209 C  
HETATM   14  C   UNL     1     -12.565   6.913  71.450  1.00  0.00    -0.400 C  
HETATM   15  O   UNL     1     -12.991   8.784  72.906  1.00  0.00    -0.314 OA 
HETATM   16  O   UNL     1     -10.152   9.317  67.467  1.00  0.00    -0.189 OA 
HETATM   17  C   UNL     1      -9.702   7.784  69.446  1.00  0.00    -0.169 C  
HETATM   18  H   UNL     1     -10.559   9.811  68.169  1.00  0.00     0.000 HD 
HETATM   19  C   UNL     1      -8.021   8.045  69.681  1.00  0.00    -0.117 C  
HETATM   20  C   UNL     1      -7.627   7.706  71.120  1.00  0.00    -0.080 C  
HETATM   21  C   UNL     1      -8.510   8.406  72.139  1.00  0.00    -0.181 C  
HETATM   22  F   UNL     1      -8.113   7.992  73.377  1.00  0.00    -0.168 F  
HETATM   23  C   UNL     1      -9.985   8.181  71.943  1.00  0.00    -0.277 C  
HETATM   24  C   UNL     1     -10.803   7.834  72.952  1.00  0.00    -0.453 C  
HETATM   25  C   UNL     1     -12.213   7.911  72.546  1.00  0.00    -0.195 C  
ENDROOT
BRANCH   4  26
HETATM   26  C   UNL     1      -8.148   9.018  65.595  1.00  0.00    -0.115 C  
HETATM   27  O   UNL     1      -8.711   8.445  64.649  1.00  0.00    -0.085 OA 
BRANCH  26  28
HETATM   28  C   UNL     1      -7.565  10.428  65.190  1.00  0.00    -0.103 C  
HETATM   29  O   UNL     1      -7.808  11.435  66.191  1.00  0.00    -0.343 OA 
HETATM   30  H   UNL     1      -7.457  12.283  65.947  1.00  0.00     0.000 HD 
ENDBRANCH  26  28
ENDBRANCH   4  26
TORSDOF 2
ENDMDL
MODEL       69
REMARK 921   NORMALIZED FREE ENERGY PREDICTED BY IDOCK:   -4.37 KCAL/MOL
REMARK 922        TOTAL FREE ENERGY PREDICTED BY IDOCK:   -4.25 KCAL/MOL
REMARK 923 INTER-LIGAND FREE ENERGY PREDICTED BY IDOCK:   -4.92 KCAL/MOL
REMARK 924 INTRA-LIGAND FREE ENERGY PREDICTED BY IDOCK:    0.67 KCAL/MOL
REMARK 927      BINDING AFFINITY PREDICTED BY RF-SCORE:    0.00 PKD
ROOT
HETATM    1  C   UNL     1      -7.196   5.279  68.568  1.00  0.00    -0.063 C  
HETATM    2  C   UNL     1      -7.240   4.173  69.450  1.00  0.00    -0.050 C  
HETATM    3  C   UNL     1      -8.481   4.408  68.639  1.00  0.00    -0.095 C  
HETATM    4  C   UNL     1      -8.350   5.640  66.973  1.00  0.00    -0.107 C  
HETATM    5  O   UNL     1      -7.058   6.294  66.654  1.00  0.00    -0.066 OA 
HETATM    6  C   UNL     1     -10.723   8.768  69.095  1.00  0.00    -0.150 C  
HETATM    7  C   UNL     1      -8.110   4.312  67.167  1.00  0.00    -0.100 C  
HETATM    8  C   UNL     1     -10.025   4.337  67.202  1.00  0.00    -0.152 C  
HETATM    9  C   UNL     1      -7.221   3.342  66.452  1.00  0.00    -0.067 C  
HETATM   10  C   UNL     1     -10.683   7.570  70.035  1.00  0.00    -0.248 C  
HETATM   11  C   UNL     1     -12.081   6.958  70.510  1.00  0.00    -0.315 C  
HETATM   12  H   UNL     1      -6.999   6.858  65.892  1.00  0.00     0.000 HD 
HETATM   13  C   UNL     1     -10.612   5.795  67.929  1.00  0.00    -0.231 C  
HETATM   14  C   UNL     1     -12.533   6.817  71.758  1.00  0.00    -0.394 C  
HETATM   15  O   UNL     1     -12.782   9.185  72.125  1.00  0.00    -0.368 OA 
HETATM   16  O   UNL     1     -10.580   6.791  66.895  1.00  0.00    -0.302 OA 
HETATM   17  C   UNL     1      -9.914   6.410  69.320  1.00  0.00    -0.178 C  
HETATM   18  H   UNL     1     -10.902   7.591  67.294  1.00  0.00     0.000 HD 
HETATM   19  C   UNL     1      -8.216   6.651  69.230  1.00  0.00    -0.124 C  
HETATM   20  C   UNL     1      -7.662   7.043  70.602  1.00  0.00    -0.095 C  
HETATM   21  C   UNL     1      -8.420   8.207  71.217  1.00  0.00    -0.132 C  
HETATM   22  F   UNL     1      -7.886   8.434  72.452  1.00  0.00    -0.140 F  
HETATM   23  C   UNL     1      -9.909   8.004  71.303  1.00  0.00    -0.200 C  
HETATM   24  C   UNL     1     -10.608   8.250  72.425  1.00  0.00    -0.408 C  
HETATM   25  C   UNL     1     -12.054   8.203  72.173  1.00  0.00    -0.357 C  
ENDROOT
BRANCH   4  26
HETATM   26  C   UNL     1      -8.804   5.486  65.236  1.00  0.00    -0.107 C  
HETATM   27  O   UNL     1      -9.740   4.792  64.808  1.00  0.00    -0.067 OA 
BRANCH  26  28
HETATM   28  C   UNL     1      -7.948   6.132  64.077  1.00  0.00    -0.110 C  
HETATM   29  O   UNL     1      -8.766   6.715  63.045  1.00  0.00    -0.298 OA 
HETATM   30  H   UNL     1      -8.252   7.103  62.347  1.00  0.00     0.000 HD 
ENDBRANCH  26  28
ENDBRANCH   4  26
TORSDOF 2
ENDMDL
MODEL       70
REMARK 921   NORMALIZED FREE ENERGY PREDICTED BY IDOCK:   -4.37 KCAL/MOL
REMARK 922        TOTAL FREE ENERGY PREDICTED BY IDOCK:   -4.24 KCAL/MOL
REMARK 923 INTER-LIGAND FREE ENERGY PREDICTED BY IDOCK:   -4.71 KCAL/MOL
REMARK 924 INTRA-LIGAND FREE ENERGY PREDICTED BY IDOCK:    0.47 KCAL/MOL
REMARK 927      BINDING AFFINITY PREDICTED BY RF-SCORE:    0.00 PKD
ROOT
HETATM    1  C   UNL     1      -6.296  10.189  70.214  1.00  0.00    -0.117 C  
HETATM    2  C   UNL     1      -5.672   9.041  69.669  1.00  0.00    -0.033 C  
HETATM    3  C   UNL     1      -6.900   9.518  68.950  1.00  0.00    -0.055 C  
HETATM    4  C   UNL     1      -7.575  11.445  69.327  1.00  0.00     0.027 C  
HETATM    5  O   UNL     1      -6.866  12.280  70.326  1.00  0.00    -0.327 OA 
HETATM    6  C   UNL     1     -11.096   9.790  71.514  1.00  0.00    -0.222 C  
HETATM    7  C   UNL     1      -6.645  10.939  68.469  1.00  0.00    -0.055 C  
HETATM    8  C   UNL     1      -8.264  10.397  67.600  1.00  0.00    -0.110 C  
HETATM    9  C   UNL     1      -5.429  11.546  67.840  1.00  0.00    -0.046 C  
HETATM   10  C   UNL     1     -10.348   8.584  70.958  1.00  0.00    -0.261 C  
HETATM   11  C   UNL     1     -11.159   7.590  70.003  1.00  0.00    -0.219 C  
HETATM   12  H   UNL     1      -7.175  13.162  70.498  1.00  0.00     0.000 HD 
HETATM   13  C   UNL     1      -9.489  10.006  68.760  1.00  0.00    -0.162 C  
HETATM   14  C   UNL     1     -11.371   6.282  70.171  1.00  0.00    -0.476 C  
HETATM   15  O   UNL     1     -12.828   6.582  72.067  1.00  0.00    -0.276 OA 
HETATM   16  O   UNL     1     -10.073  11.257  69.153  1.00  0.00    -0.363 OA 
HETATM   17  C   UNL     1      -9.131   9.102  70.123  1.00  0.00    -0.229 C  
HETATM   18  H   UNL     1     -10.745  11.042  69.790  1.00  0.00     0.000 HD 
HETATM   19  C   UNL     1      -7.842   9.714  71.077  1.00  0.00     0.258 C  
HETATM   20  C   UNL     1      -7.487   8.723  72.188  1.00  0.00     0.010 C  
HETATM   21  C   UNL     1      -8.704   8.300  72.993  1.00  0.00    -0.217 C  
HETATM   22  F   UNL     1      -8.288   7.380  73.911  1.00  0.00    -0.145 F  
HETATM   23  C   UNL     1      -9.839   7.760  72.165  1.00  0.00    -0.242 C  
HETATM   24  C   UNL     1     -10.477   6.616  72.473  1.00  0.00    -0.231 C  
HETATM   25  C   UNL     1     -11.684   6.443  71.654  1.00  0.00    -0.313 C  
ENDROOT
BRANCH   4  26
HETATM   26  C   UNL     1      -8.001  12.869  68.306  1.00  0.00    -0.151 C  
HETATM   27  O   UNL     1      -8.498  12.802  67.171  1.00  0.00    -0.185 OA 
BRANCH  26  28
HETATM   28  C   UNL     1      -7.648  14.349  68.728  1.00  0.00    -0.131 C  
HETATM   29  O   UNL     1      -8.534  14.861  69.741  1.00  0.00    -0.442 OA 
HETATM   30  H   UNL     1      -8.321  15.752  69.994  1.00  0.00     0.000 HD 
ENDBRANCH  26  28
ENDBRANCH   4  26
TORSDOF 2
ENDMDL
MODEL       71
REMARK 921   NORMALIZED FREE ENERGY PREDICTED BY IDOCK:   -4.36 KCAL/MOL
REMARK 922        TOTAL FREE ENERGY PREDICTED BY IDOCK:   -4.23 KCAL/MOL
REMARK 923 INTER-LIGAND FREE ENERGY PREDICTED BY IDOCK:   -5.37 KCAL/MOL
REMARK 924 INTRA-LIGAND FREE ENERGY PREDICTED BY IDOCK:    1.14 KCAL/MOL
REMARK 927      BINDING AFFINITY PREDICTED BY RF-SCORE:    0.00 PKD
ROOT
HETATM    1  C   UNL     1      -7.302  15.448  68.481  1.00  0.00    -0.116 C  
HETATM    2  C   UNL     1      -6.190  15.442  67.606  1.00  0.00    -0.167 C  
HETATM    3  C   UNL     1      -7.536  15.513  66.946  1.00  0.00    -0.162 C  
HETATM    4  C   UNL     1      -9.172  16.052  68.105  1.00  0.00    -0.195 C  
HETATM    5  O   UNL     1      -8.985  16.302  69.554  1.00  0.00    -0.145 OA 
HETATM    6  C   UNL     1     -10.728  11.876  67.857  1.00  0.00    -0.239 C  
HETATM    7  C   UNL     1      -8.234  16.775  67.431  1.00  0.00    -0.195 C  
HETATM    8  C   UNL     1      -9.305  16.135  65.977  1.00  0.00    -0.368 C  
HETATM    9  C   UNL     1      -7.702  18.160  67.635  1.00  0.00    -0.223 C  
HETATM   10  C   UNL     1      -9.484  11.908  66.978  1.00  0.00    -0.192 C  
HETATM   11  C   UNL     1      -9.652  11.484  65.446  1.00  0.00    -0.249 C  
HETATM   12  H   UNL     1      -9.734  16.548  70.084  1.00  0.00     0.000 HD 
HETATM   13  C   UNL     1      -9.907  14.545  66.304  1.00  0.00    -0.304 C  
HETATM   14  C   UNL     1      -9.024  10.503  64.792  1.00  0.00    -0.227 C  
HETATM   15  O   UNL     1     -10.134   8.743  66.006  1.00  0.00    -0.228 OA 
HETATM   16  O   UNL     1     -11.069  14.726  67.129  1.00  0.00    -0.314 OA 
HETATM   17  C   UNL     1      -8.924  13.369  66.973  1.00  0.00    -0.228 C  
HETATM   18  H   UNL     1     -11.399  13.854  67.308  1.00  0.00     0.000 HD 
HETATM   19  C   UNL     1      -8.147  13.822  68.435  1.00  0.00    -0.148 C  
HETATM   20  C   UNL     1      -7.143  12.748  68.860  1.00  0.00    -0.067 C  
HETATM   21  C   UNL     1      -7.764  11.362  68.894  1.00  0.00    -0.108 C  
HETATM   22  F   UNL     1      -6.777  10.480  69.225  1.00  0.00    -0.048 F  
HETATM   23  C   UNL     1      -8.445  10.953  67.615  1.00  0.00    -0.123 C  
HETATM   24  C   UNL     1      -8.236   9.758  67.035  1.00  0.00    -0.117 C  
HETATM   25  C   UNL     1      -9.192   9.521  65.945  1.00  0.00    -0.206 C  
ENDROOT
BRANCH   4  26
HETATM   26  C   UNL     1     -10.479  17.287  67.970  1.00  0.00    -0.375 C  
HETATM   27  O   UNL     1     -11.515  17.297  68.653  1.00  0.00     0.182 OA 
BRANCH  26  28
HETATM   28  C   UNL     1     -10.474  18.406  66.857  1.00  0.00    -0.389 C  
HETATM   29  O   UNL     1     -11.093  19.628  67.300  1.00  0.00    -0.417 OA 
HETATM   30  H   UNL     1     -11.090  20.302  66.630  1.00  0.00     0.000 HD 
ENDBRANCH  26  28
ENDBRANCH   4  26
TORSDOF 2
ENDMDL
MODEL       72
REMARK 921   NORMALIZED FREE ENERGY PREDICTED BY IDOCK:   -4.26 KCAL/MOL
REMARK 922        TOTAL FREE ENERGY PREDICTED BY IDOCK:   -4.12 KCAL/MOL
REMARK 923 INTER-LIGAND FREE ENERGY PREDICTED BY IDOCK:   -4.80 KCAL/MOL
REMARK 924 INTRA-LIGAND FREE ENERGY PREDICTED BY IDOCK:    0.68 KCAL/MOL
REMARK 927      BINDING AFFINITY PREDICTED BY RF-SCORE:    0.00 PKD
ROOT
HETATM    1  C   UNL     1     -10.177   6.352  66.975  1.00  0.00    -0.264 C  
HETATM    2  C   UNL     1     -10.155   7.744  66.720  1.00  0.00    -0.341 C  
HETATM    3  C   UNL     1      -8.878   7.160  67.250  1.00  0.00    -0.120 C  
HETATM    4  C   UNL     1      -8.627   5.100  67.160  1.00  0.00    -0.105 C  
HETATM    5  O   UNL     1      -9.725   4.258  66.627  1.00  0.00    -0.194 OA 
HETATM    6  C   UNL     1      -9.046   4.850  71.596  1.00  0.00    -0.169 C  
HETATM    7  C   UNL     1      -8.398   6.103  66.266  1.00  0.00    -0.124 C  
HETATM    8  C   UNL     1      -6.937   6.364  67.477  1.00  0.00    -0.078 C  
HETATM    9  C   UNL     1      -8.358   6.120  64.769  1.00  0.00    -0.070 C  
HETATM   10  C   UNL     1      -9.083   6.336  71.259  1.00  0.00    -0.148 C  
HETATM   11  C   UNL     1      -7.996   7.277  71.959  1.00  0.00    -0.093 C  
HETATM   12  H   UNL     1      -9.610   3.316  66.586  1.00  0.00     0.000 HD 
HETATM   13  C   UNL     1      -7.405   5.989  69.102  1.00  0.00    -0.084 C  
HETATM   14  C   UNL     1      -8.211   8.340  72.738  1.00  0.00    -0.221 C  
HETATM   15  O   UNL     1      -9.114   7.046  74.558  1.00  0.00    -0.211 OA 
HETATM   16  O   UNL     1      -7.300   4.562  69.222  1.00  0.00    -0.051 OA 
HETATM   17  C   UNL     1      -8.876   6.495  69.717  1.00  0.00    -0.143 C  
HETATM   18  H   UNL     1      -7.557   4.356  70.114  1.00  0.00     0.000 HD 
HETATM   19  C   UNL     1     -10.243   6.045  68.781  1.00  0.00    -0.236 C  
HETATM   20  C   UNL     1     -11.508   6.706  69.335  1.00  0.00    -0.288 C  
HETATM   21  C   UNL     1     -11.675   6.470  70.826  1.00  0.00    -0.366 C  
HETATM   22  F   UNL     1     -12.792   7.146  71.224  1.00  0.00    -0.375 F  
HETATM   23  C   UNL     1     -10.482   6.865  71.656  1.00  0.00    -0.224 C  
HETATM   24  C   UNL     1     -10.592   7.607  72.771  1.00  0.00    -0.381 C  
HETATM   25  C   UNL     1      -9.324   7.646  73.513  1.00  0.00    -0.282 C  
ENDROOT
BRANCH   4  26
HETATM   26  C   UNL     1      -7.351   3.999  66.522  1.00  0.00    -0.076 C  
HETATM   27  O   UNL     1      -6.195   4.348  66.233  1.00  0.00    -0.030 OA 
BRANCH  26  28
HETATM   28  C   UNL     1      -7.642   2.494  66.146  1.00  0.00    -0.072 C  
HETATM   29  O   UNL     1      -7.327   1.585  67.218  1.00  0.00    -0.052 OA 
HETATM   30  H   UNL     1      -7.502   0.679  66.992  1.00  0.00     0.000 HD 
ENDBRANCH  26  28
ENDBRANCH   4  26
TORSDOF 2
ENDMDL
MODEL       73
REMARK 921   NORMALIZED FREE ENERGY PREDICTED BY IDOCK:   -4.18 KCAL/MOL
REMARK 922        TOTAL FREE ENERGY PREDICTED BY IDOCK:   -4.03 KCAL/MOL
REMARK 923 INTER-LIGAND FREE ENERGY PREDICTED BY IDOCK:   -5.21 KCAL/MOL
REMARK 924 INTRA-LIGAND FREE ENERGY PREDICTED BY IDOCK:    1.18 KCAL/MOL
REMARK 927      BINDING AFFINITY PREDICTED BY RF-SCORE:    0.00 PKD
ROOT
HETATM    1  C   UNL     1      -9.906  10.076  68.567  1.00  0.00    -0.168 C  
HETATM    2  C   UNL     1     -11.073  10.302  67.800  1.00  0.00    -0.335 C  
HETATM    3  C   UNL     1     -11.087   9.071  68.658  1.00  0.00     0.158 C  
HETATM    4  C   UNL     1      -9.690   8.921  70.187  1.00  0.00    -0.179 C  
HETATM    5  O   UNL     1      -8.688   9.999  70.363  1.00  0.00    -0.314 OA 
HETATM    6  C   UNL     1      -7.547   5.727  67.924  1.00  0.00    -0.085 C  
HETATM    7  C   UNL     1     -10.921   9.502  70.108  1.00  0.00    -0.302 C  
HETATM    8  C   UNL     1     -11.405   7.650  70.187  1.00  0.00    -0.147 C  
HETATM    9  C   UNL     1     -11.540  10.642  70.857  1.00  0.00    -0.311 C  
HETATM   10  C   UNL     1      -8.787   6.057  67.102  1.00  0.00    -0.108 C  
HETATM   11  C   UNL     1      -9.794   4.858  66.774  1.00  0.00    -0.220 C  
HETATM   12  H   UNL     1      -8.050   9.931  71.063  1.00  0.00     0.000 HD 
HETATM   13  C   UNL     1     -10.241   6.670  69.360  1.00  0.00    -0.183 C  
HETATM   14  C   UNL     1     -10.183   4.420  65.574  1.00  0.00    -0.260 C  
HETATM   15  O   UNL     1      -8.019   3.533  64.998  1.00  0.00    -0.088 OA 
HETATM   16  O   UNL     1      -9.166   6.467  70.290  1.00  0.00    -0.154 OA 
HETATM   17  C   UNL     1      -9.619   7.131  67.877  1.00  0.00    -0.145 C  
HETATM   18  H   UNL     1      -8.527   5.930  69.837  1.00  0.00     0.000 HD 
HETATM   19  C   UNL     1      -8.932   8.704  67.840  1.00  0.00    -0.142 C  
HETATM   20  C   UNL     1      -8.558   9.088  66.406  1.00  0.00    -0.136 C  
HETATM   21  C   UNL     1      -7.709   8.026  65.729  1.00  0.00    -0.093 C  
HETATM   22  F   UNL     1      -7.485   8.438  64.447  1.00  0.00    -0.087 F  
HETATM   23  C   UNL     1      -8.305   6.643  65.753  1.00  0.00    -0.143 C  
HETATM   24  C   UNL     1      -8.375   5.867  64.658  1.00  0.00    -0.086 C  
HETATM   25  C   UNL     1      -8.774   4.496  65.001  1.00  0.00    -0.138 C  
ENDROOT
BRANCH   4  26
HETATM   26  C   UNL     1      -9.769   8.582  71.956  1.00  0.00    -0.307 C  
HETATM   27  O   UNL     1      -8.786   8.549  72.714  1.00  0.00    -0.315 OA 
BRANCH  26  28
HETATM   28  C   UNL     1     -11.108   8.162  72.679  1.00  0.00    -0.380 C  
HETATM   29  O   UNL     1     -10.914   7.090  73.621  1.00  0.00    -0.543 OA 
HETATM   30  H   UNL     1     -11.720   6.837  74.056  1.00  0.00     0.000 HD 
ENDBRANCH  26  28
ENDBRANCH   4  26
TORSDOF 2
ENDMDL
MODEL       74
REMARK 921   NORMALIZED FREE ENERGY PREDICTED BY IDOCK:   -4.17 KCAL/MOL
REMARK 922        TOTAL FREE ENERGY PREDICTED BY IDOCK:   -4.02 KCAL/MOL
REMARK 923 INTER-LIGAND FREE ENERGY PREDICTED BY IDOCK:   -4.89 KCAL/MOL
REMARK 924 INTRA-LIGAND FREE ENERGY PREDICTED BY IDOCK:    0.87 KCAL/MOL
REMARK 927      BINDING AFFINITY PREDICTED BY RF-SCORE:    0.00 PKD
ROOT
HETATM    1  C   UNL     1     -10.011   8.260  71.293  1.00  0.00    -0.243 C  
HETATM    2  C   UNL     1     -11.188   9.040  71.191  1.00  0.00    -0.375 C  
HETATM    3  C   UNL     1     -11.064   7.917  70.203  1.00  0.00    -0.204 C  
HETATM    4  C   UNL     1      -9.678   6.419  70.585  1.00  0.00    -0.179 C  
HETATM    5  O   UNL     1      -8.816   6.517  71.787  1.00  0.00    -0.138 OA 
HETATM    6  C   UNL     1      -7.137   7.906  67.231  1.00  0.00    -0.083 C  
HETATM    7  C   UNL     1     -10.969   6.612  70.979  1.00  0.00    -0.305 C  
HETATM    8  C   UNL     1     -11.227   6.094  69.153  1.00  0.00    -0.409 C  
HETATM    9  C   UNL     1     -11.730   6.141  72.179  1.00  0.00    -0.361 C  
HETATM   10  C   UNL     1      -8.398   8.761  67.207  1.00  0.00    -0.104 C  
HETATM   11  C   UNL     1      -9.248   8.784  65.853  1.00  0.00    -0.282 C  
HETATM   12  H   UNL     1      -8.182   5.831  71.961  1.00  0.00     0.000 HD 
HETATM   13  C   UNL     1      -9.943   6.686  68.153  1.00  0.00    -0.147 C  
HETATM   14  C   UNL     1      -9.567   9.840  65.102  1.00  0.00    -0.356 C  
HETATM   15  O   UNL     1      -7.304  10.228  64.371  1.00  0.00    -0.139 OA 
HETATM   16  O   UNL     1      -8.863   5.753  68.305  1.00  0.00    -0.110 OA 
HETATM   17  C   UNL     1      -9.363   8.246  68.325  1.00  0.00    -0.138 C  
HETATM   18  H   UNL     1      -8.158   6.078  67.757  1.00  0.00     0.000 HD 
HETATM   19  C   UNL     1      -8.870   8.662  69.916  1.00  0.00    -0.144 C  
HETATM   20  C   UNL     1      -8.528  10.152  69.995  1.00  0.00    -0.036 C  
HETATM   21  C   UNL     1      -7.548  10.575  68.914  1.00  0.00    -0.108 C  
HETATM   22  F   UNL     1      -7.359  11.921  69.038  1.00  0.00    -0.107 F  
HETATM   23  C   UNL     1      -7.973  10.218  67.514  1.00  0.00    -0.106 C  
HETATM   24  C   UNL     1      -7.935  11.100  66.501  1.00  0.00    -0.158 C  
HETATM   25  C   UNL     1      -8.170  10.439  65.210  1.00  0.00    -0.162 C  
ENDROOT
BRANCH   4  26
HETATM   26  C   UNL     1      -9.737   4.619  70.663  1.00  0.00    -0.207 C  
HETATM   27  O   UNL     1     -10.095   3.882  69.731  1.00  0.00    -0.023 OA 
BRANCH  26  28
HETATM   28  C   UNL     1      -9.457   3.820  71.996  1.00  0.00    -0.137 C  
HETATM   29  O   UNL     1     -10.350   2.704  72.169  1.00  0.00    -0.134 OA 
HETATM   30  H   UNL     1     -10.181   2.223  72.971  1.00  0.00     0.000 HD 
ENDBRANCH  26  28
ENDBRANCH   4  26
TORSDOF 2
ENDMDL
MODEL       75
REMARK 921   NORMALIZED FREE ENERGY PREDICTED BY IDOCK:   -4.15 KCAL/MOL
REMARK 922        TOTAL FREE ENERGY PREDICTED BY IDOCK:   -4.00 KCAL/MOL
REMARK 923 INTER-LIGAND FREE ENERGY PREDICTED BY IDOCK:   -4.44 KCAL/MOL
REMARK 924 INTRA-LIGAND FREE ENERGY PREDICTED BY IDOCK:    0.44 KCAL/MOL
REMARK 927      BINDING AFFINITY PREDICTED BY RF-SCORE:    0.00 PKD
ROOT
HETATM    1  C   UNL     1      -8.419   5.708  69.399  1.00  0.00    -0.106 C  
HETATM    2  C   UNL     1      -9.418   5.735  70.400  1.00  0.00    -0.201 C  
HETATM    3  C   UNL     1      -9.912   5.817  68.985  1.00  0.00    -0.222 C  
HETATM    4  C   UNL     1      -8.619   5.264  67.458  1.00  0.00    -0.104 C  
HETATM    5  O   UNL     1      -7.234   4.855  67.792  1.00  0.00    -0.068 OA 
HETATM    6  C   UNL     1      -8.276   9.532  66.198  1.00  0.00    -0.115 C  
HETATM    7  C   UNL     1      -9.468   4.557  68.256  1.00  0.00    -0.205 C  
HETATM    8  C   UNL     1     -10.713   5.409  67.076  1.00  0.00    -0.233 C  
HETATM    9  C   UNL     1      -9.464   3.128  68.704  1.00  0.00    -0.195 C  
HETATM   10  C   UNL     1      -9.300   9.514  67.327  1.00  0.00    -0.161 C  
HETATM   11  C   UNL     1     -10.753  10.104  67.015  1.00  0.00    -0.264 C  
HETATM   12  H   UNL     1      -6.642   4.602  67.094  1.00  0.00     0.000 HD 
HETATM   13  C   UNL     1     -10.166   6.992  66.634  1.00  0.00    -0.148 C  
HETATM   14  C   UNL     1     -11.382  11.105  67.634  1.00  0.00    -0.356 C  
HETATM   15  O   UNL     1      -9.880  12.797  66.805  1.00  0.00    -0.230 OA 
HETATM   16  O   UNL     1      -9.226   6.799  65.565  1.00  0.00    -0.376 OA 
HETATM   17  C   UNL     1      -9.513   8.029  67.773  1.00  0.00    -0.166 C  
HETATM   18  H   UNL     1      -8.925   7.667  65.324  1.00  0.00     0.000 HD 
HETATM   19  C   UNL     1      -8.206   7.380  68.677  1.00  0.00    -0.125 C  
HETATM   20  C   UNL     1      -7.807   8.340  69.800  1.00  0.00    -0.100 C  
HETATM   21  C   UNL     1      -7.565   9.751  69.292  1.00  0.00    -0.097 C  
HETATM   22  F   UNL     1      -7.275  10.531  70.373  1.00  0.00    -0.164 F  
HETATM   23  C   UNL     1      -8.707  10.331  68.500  1.00  0.00    -0.130 C  
HETATM   24  C   UNL     1      -9.191  11.564  68.728  1.00  0.00    -0.076 C  
HETATM   25  C   UNL     1     -10.129  11.972  67.674  1.00  0.00    -0.197 C  
ENDROOT
BRANCH   4  26
HETATM   26  C   UNL     1      -8.711   4.134  66.057  1.00  0.00    -0.115 C  
HETATM   27  O   UNL     1      -9.762   3.793  65.491  1.00  0.00    -0.177 OA 
BRANCH  26  28
HETATM   28  C   UNL     1      -7.447   3.365  65.505  1.00  0.00    -0.077 C  
HETATM   29  O   UNL     1      -6.450   4.255  64.968  1.00  0.00    -0.034 OA 
HETATM   30  H   UNL     1      -5.690   3.793  64.635  1.00  0.00     0.000 HD 
ENDBRANCH  26  28
ENDBRANCH   4  26
TORSDOF 2
ENDMDL
MODEL       76
REMARK 921   NORMALIZED FREE ENERGY PREDICTED BY IDOCK:   -4.14 KCAL/MOL
REMARK 922        TOTAL FREE ENERGY PREDICTED BY IDOCK:   -3.99 KCAL/MOL
REMARK 923 INTER-LIGAND FREE ENERGY PREDICTED BY IDOCK:   -5.16 KCAL/MOL
REMARK 924 INTRA-LIGAND FREE ENERGY PREDICTED BY IDOCK:    1.18 KCAL/MOL
REMARK 927      BINDING AFFINITY PREDICTED BY RF-SCORE:    0.00 PKD
ROOT
HETATM    1  C   UNL     1     -10.703  10.460  70.190  1.00  0.00    -0.292 C  
HETATM    2  C   UNL     1     -12.108  10.509  70.028  1.00  0.00    -0.351 C  
HETATM    3  C   UNL     1     -11.402   9.427  69.264  1.00  0.00     0.118 C  
HETATM    4  C   UNL     1      -9.465   8.933  69.822  1.00  0.00    -0.170 C  
HETATM    5  O   UNL     1      -8.810   9.687  70.917  1.00  0.00    -0.326 OA 
HETATM    6  C   UNL     1      -7.907  10.784  66.071  1.00  0.00    -0.149 C  
HETATM    7  C   UNL     1     -10.689   8.530  70.264  1.00  0.00    -0.242 C  
HETATM    8  C   UNL     1     -10.590   7.599  68.593  1.00  0.00    -0.161 C  
HETATM    9  C   UNL     1     -11.149   7.993  71.584  1.00  0.00    -0.300 C  
HETATM   10  C   UNL     1      -9.426  10.871  65.977  1.00  0.00    -0.235 C  
HETATM   11  C   UNL     1     -10.126  10.194  64.709  1.00  0.00    -0.250 C  
HETATM   12  H   UNL     1      -7.923   9.460  71.172  1.00  0.00     0.000 HD 
HETATM   13  C   UNL     1      -9.746   8.539  67.409  1.00  0.00    -0.170 C  
HETATM   14  C   UNL     1     -10.908  10.775  63.796  1.00  0.00     0.190 C  
HETATM   15  O   UNL     1      -9.126  12.085  62.843  1.00  0.00    -0.109 OA 
HETATM   16  O   UNL     1      -8.349   8.322  67.656  1.00  0.00    -0.124 OA 
HETATM   17  C   UNL     1     -10.037  10.178  67.240  1.00  0.00    -0.254 C  
HETATM   18  H   UNL     1      -7.886   8.839  67.007  1.00  0.00     0.000 HD 
HETATM   19  C   UNL     1      -9.874  11.093  68.683  1.00  0.00    -0.207 C  
HETATM   20  C   UNL     1     -10.332  12.536  68.453  1.00  0.00    -0.237 C  
HETATM   21  C   UNL     1      -9.663  13.166  67.243  1.00  0.00    -0.230 C  
HETATM   22  F   UNL     1     -10.182  14.419  67.096  1.00  0.00    -0.249 F  
HETATM   23  C   UNL     1      -9.803  12.372  65.972  1.00  0.00    -0.268 C  
HETATM   24  C   UNL     1     -10.181  12.932  64.809  1.00  0.00    -0.307 C  
HETATM   25  C   UNL     1     -10.007  11.999  63.687  1.00  0.00    -0.363 C  
ENDROOT
BRANCH   4  26
HETATM   26  C   UNL     1      -8.611   7.402  70.244  1.00  0.00    -0.145 C  
HETATM   27  O   UNL     1      -7.396   7.311  70.477  1.00  0.00    -0.071 OA 
BRANCH  26  28
HETATM   28  C   UNL     1      -9.332   5.998  70.223  1.00  0.00    -0.159 C  
HETATM   29  O   UNL     1      -8.488   4.936  70.707  1.00  0.00    -0.105 OA 
HETATM   30  H   UNL     1      -8.922   4.091  70.694  1.00  0.00     0.000 HD 
ENDBRANCH  26  28
ENDBRANCH   4  26
TORSDOF 2
ENDMDL
MODEL       77
REMARK 921   NORMALIZED FREE ENERGY PREDICTED BY IDOCK:   -4.09 KCAL/MOL
REMARK 922        TOTAL FREE ENERGY PREDICTED BY IDOCK:   -3.93 KCAL/MOL
REMARK 923 INTER-LIGAND FREE ENERGY PREDICTED BY IDOCK:   -4.46 KCAL/MOL
REMARK 924 INTRA-LIGAND FREE ENERGY PREDICTED BY IDOCK:    0.53 KCAL/MOL
REMARK 927      BINDING AFFINITY PREDICTED BY RF-SCORE:    0.00 PKD
ROOT
HETATM    1  C   UNL     1      -9.483   9.155  68.558  1.00  0.00    -0.151 C  
HETATM    2  C   UNL     1      -8.948   9.948  69.600  1.00  0.00    -0.232 C  
HETATM    3  C   UNL     1      -8.085   8.808  69.142  1.00  0.00    -0.118 C  
HETATM    4  C   UNL     1      -8.514   7.924  67.313  1.00  0.00    -0.121 C  
HETATM    5  O   UNL     1      -9.681   8.400  66.532  1.00  0.00    -0.224 OA 
HETATM    6  C   UNL     1      -9.961   4.263  69.415  1.00  0.00    -0.105 C  
HETATM    7  C   UNL     1      -7.775   9.014  67.667  1.00  0.00    -0.097 C  
HETATM    8  C   UNL     1      -6.616   7.597  68.232  1.00  0.00    -0.054 C  
HETATM    9  C   UNL     1      -7.403  10.256  66.918  1.00  0.00    -0.097 C  
HETATM   10  C   UNL     1      -9.430   5.185  70.506  1.00  0.00    -0.229 C  
HETATM   11  C   UNL     1      -8.276   4.616  71.456  1.00  0.00    -0.103 C  
HETATM   12  H   UNL     1      -9.877   7.996  65.696  1.00  0.00     0.000 HD 
HETATM   13  C   UNL     1      -7.528   6.248  68.820  1.00  0.00    -0.088 C  
HETATM   14  C   UNL     1      -8.295   4.491  72.785  1.00  0.00    -0.107 C  
HETATM   15  O   UNL     1      -9.953   2.743  72.775  1.00  0.00    -0.124 OA 
HETATM   16  O   UNL     1      -7.928   5.507  67.657  1.00  0.00    -0.100 OA 
HETATM   17  C   UNL     1      -8.847   6.468  69.825  1.00  0.00    -0.143 C  
HETATM   18  H   UNL     1      -8.429   4.767  67.979  1.00  0.00     0.000 HD 
HETATM   19  C   UNL     1     -10.044   7.541  69.222  1.00  0.00    -0.188 C  
HETATM   20  C   UNL     1     -11.109   7.804  70.289  1.00  0.00    -0.242 C  
HETATM   21  C   UNL     1     -11.669   6.518  70.872  1.00  0.00    -0.356 C  
HETATM   22  F   UNL     1     -12.559   6.865  71.847  1.00  0.00    -0.352 F  
HETATM   23  C   UNL     1     -10.627   5.572  71.407  1.00  0.00    -0.310 C  
HETATM   24  C   UNL     1     -10.730   4.993  72.616  1.00  0.00    -0.279 C  
HETATM   25  C   UNL     1      -9.717   3.943  72.792  1.00  0.00    -0.138 C  
ENDROOT
BRANCH   4  26
HETATM   26  C   UNL     1      -7.565   7.541  65.829  1.00  0.00    -0.093 C  
HETATM   27  O   UNL     1      -6.401   7.918  65.617  1.00  0.00    -0.041 OA 
BRANCH  26  28
HETATM   28  C   UNL     1      -8.194   6.788  64.592  1.00  0.00    -0.032 C  
HETATM   29  O   UNL     1      -9.307   5.953  64.962  1.00  0.00    -0.338 OA 
HETATM   30  H   UNL     1      -9.686   5.499  64.218  1.00  0.00     0.000 HD 
ENDBRANCH  26  28
ENDBRANCH   4  26
TORSDOF 2
ENDMDL
MODEL       78
REMARK 921   NORMALIZED FREE ENERGY PREDICTED BY IDOCK:   -4.05 KCAL/MOL
REMARK 922        TOTAL FREE ENERGY PREDICTED BY IDOCK:   -3.88 KCAL/MOL
REMARK 923 INTER-LIGAND FREE ENERGY PREDICTED BY IDOCK:   -4.35 KCAL/MOL
REMARK 924 INTRA-LIGAND FREE ENERGY PREDICTED BY IDOCK:    0.46 KCAL/MOL
REMARK 927      BINDING AFFINITY PREDICTED BY RF-SCORE:    0.00 PKD
ROOT
HETATM    1  C   UNL     1      -9.790  10.166  68.913  1.00  0.00    -0.194 C  
HETATM    2  C   UNL     1     -10.869  10.328  68.012  1.00  0.00    -0.325 C  
HETATM    3  C   UNL     1     -10.626   8.927  68.492  1.00  0.00    -0.183 C  
HETATM    4  C   UNL     1      -9.446   8.655  70.178  1.00  0.00    -0.164 C  
HETATM    5  O   UNL     1      -8.834   9.835  70.834  1.00  0.00    -0.355 OA 
HETATM    6  C   UNL     1      -6.199   6.946  67.637  1.00  0.00    -0.041 C  
HETATM    7  C   UNL     1     -10.773   8.914  70.006  1.00  0.00    -0.241 C  
HETATM    8  C   UNL     1     -10.699   7.070  69.492  1.00  0.00    -0.263 C  
HETATM    9  C   UNL     1     -11.786   9.577  70.888  1.00  0.00    -0.391 C  
HETATM   10  C   UNL     1      -7.371   7.201  66.697  1.00  0.00    -0.084 C  
HETATM   11  C   UNL     1      -7.934   5.957  65.865  1.00  0.00    -0.109 C  
HETATM   12  H   UNL     1      -8.294   9.711  71.605  1.00  0.00     0.000 HD 
HETATM   13  C   UNL     1      -9.207   6.709  68.692  1.00  0.00    -0.128 C  
HETATM   14  C   UNL     1      -8.028   5.831  64.540  1.00  0.00    -0.126 C  
HETATM   15  O   UNL     1      -5.645   5.723  64.203  1.00  0.00    -0.016 OA 
HETATM   16  O   UNL     1      -8.242   6.496  69.734  1.00  0.00    -0.122 OA 
HETATM   17  C   UNL     1      -8.570   7.745  67.542  1.00  0.00    -0.122 C  
HETATM   18  H   UNL     1      -7.423   6.299  69.294  1.00  0.00     0.000 HD 
HETATM   19  C   UNL     1      -8.375   9.369  68.063  1.00  0.00    -0.119 C  
HETATM   20  C   UNL     1      -7.957  10.258  66.889  1.00  0.00    -0.112 C  
HETATM   21  C   UNL     1      -6.757   9.699  66.143  1.00  0.00    -0.083 C  
HETATM   22  F   UNL     1      -6.508  10.531  65.090  1.00  0.00    -0.121 F  
HETATM   23  C   UNL     1      -6.920   8.276  65.679  1.00  0.00    -0.067 C  
HETATM   24  C   UNL     1      -6.624   7.887  64.427  1.00  0.00    -0.056 C  
HETATM   25  C   UNL     1      -6.643   6.423  64.306  1.00  0.00    -0.034 C  
ENDROOT
BRANCH   4  26
HETATM   26  C   UNL     1      -9.639   7.775  71.740  1.00  0.00    -0.163 C  
HETATM   27  O   UNL     1     -10.175   6.663  71.864  1.00  0.00    -0.187 OA 
BRANCH  26  28
HETATM   28  C   UNL     1      -9.249   8.419  73.128  1.00  0.00    -0.151 C  
HETATM   29  O   UNL     1      -7.830   8.619  73.266  1.00  0.00    -0.391 OA 
HETATM   30  H   UNL     1      -7.595   9.006  74.101  1.00  0.00     0.000 HD 
ENDBRANCH  26  28
ENDBRANCH   4  26
TORSDOF 2
ENDMDL
MODEL       79
REMARK 921   NORMALIZED FREE ENERGY PREDICTED BY IDOCK:   -3.89 KCAL/MOL
REMARK 922        TOTAL FREE ENERGY PREDICTED BY IDOCK:   -3.71 KCAL/MOL
REMARK 923 INTER-LIGAND FREE ENERGY PREDICTED BY IDOCK:   -4.85 KCAL/MOL
REMARK 924 INTRA-LIGAND FREE ENERGY PREDICTED BY IDOCK:    1.14 KCAL/MOL
REMARK 927      BINDING AFFINITY PREDICTED BY RF-SCORE:    0.00 PKD
ROOT
HETATM    1  C   UNL     1     -11.149   8.125  71.545  1.00  0.00    -0.302 C  
HETATM    2  C   UNL     1     -12.120   7.286  70.947  1.00  0.00    -0.326 C  
HETATM    3  C   UNL     1     -10.694   6.999  70.576  1.00  0.00    -0.262 C  
HETATM    4  C   UNL     1      -9.189   7.793  71.765  1.00  0.00    -0.141 C  
HETATM    5  O   UNL     1      -9.550   8.658  72.913  1.00  0.00    -0.183 OA 
HETATM    6  C   UNL     1      -8.094  10.627  68.497  1.00  0.00    -0.125 C  
HETATM    7  C   UNL     1      -9.934   6.654  71.848  1.00  0.00    -0.189 C  
HETATM    8  C   UNL     1      -8.748   6.200  70.415  1.00  0.00    -0.142 C  
HETATM    9  C   UNL     1     -10.330   5.800  73.013  1.00  0.00    -0.229 C  
HETATM   10  C   UNL     1      -9.189   9.737  67.924  1.00  0.00    -0.133 C  
HETATM   11  C   UNL     1      -8.854   8.921  66.590  1.00  0.00    -0.150 C  
HETATM   12  H   UNL     1      -8.862   9.021  73.457  1.00  0.00     0.000 HD 
HETATM   13  C   UNL     1      -8.380   7.591  69.450  1.00  0.00    -0.132 C  
HETATM   14  C   UNL     1      -9.489   8.970  65.417  1.00  0.00    -0.163 C  
HETATM   15  O   UNL     1      -8.768  11.214  64.919  1.00  0.00    -0.071 OA 
HETATM   16  O   UNL     1      -7.335   8.287  70.145  1.00  0.00    -0.054 OA 
HETATM   17  C   UNL     1      -9.575   8.674  69.005  1.00  0.00    -0.163 C  
HETATM   18  H   UNL     1      -7.134   9.050  69.616  1.00  0.00     0.000 HD 
HETATM   19  C   UNL     1     -10.495   9.310  70.308  1.00  0.00    -0.271 C  
HETATM   20  C   UNL     1     -11.664  10.144  69.777  1.00  0.00    -0.205 C  
HETATM   21  C   UNL     1     -11.214  11.189  68.771  1.00  0.00    -0.253 C  
HETATM   22  F   UNL     1     -12.331  11.831  68.321  1.00  0.00    -0.292 F  
HETATM   23  C   UNL     1     -10.409  10.641  67.622  1.00  0.00    -0.246 C  
HETATM   24  C   UNL     1     -10.666  10.961  66.342  1.00  0.00    -0.257 C  
HETATM   25  C   UNL     1      -9.599  10.489  65.450  1.00  0.00    -0.237 C  
ENDROOT
BRANCH   4  26
HETATM   26  C   UNL     1      -7.746   7.121  72.611  1.00  0.00    -0.088 C  
HETATM   27  O   UNL     1      -6.825   7.803  73.090  1.00  0.00    -0.068 OA 
BRANCH  26  28
HETATM   28  C   UNL     1      -7.462   5.570  72.700  1.00  0.00    -0.097 C  
HETATM   29  O   UNL     1      -6.806   5.198  73.927  1.00  0.00    -0.073 OA 
HETATM   30  H   UNL     1      -6.635   4.265  73.980  1.00  0.00     0.000 HD 
ENDBRANCH  26  28
ENDBRANCH   4  26
TORSDOF 2
ENDMDL
MODEL       80
REMARK 921   NORMALIZED FREE ENERGY PREDICTED BY IDOCK:   -3.86 KCAL/MOL
REMARK 922        TOTAL FREE ENERGY PREDICTED BY IDOCK:   -3.68 KCAL/MOL
REMARK 923 INTER-LIGAND FREE ENERGY PREDICTED BY IDOCK:   -4.41 KCAL/MOL
REMARK 924 INTRA-LIGAND FREE ENERGY PREDICTED BY IDOCK:    0.73 KCAL/MOL
REMARK 927      BINDING AFFINITY PREDICTED BY RF-SCORE:    0.00 PKD
ROOT
HETATM    1  C   UNL     1      -8.463   9.858  68.602  1.00  0.00    -0.114 C  
HETATM    2  C   UNL     1      -8.543   8.572  68.019  1.00  0.00    -0.134 C  
HETATM    3  C   UNL     1      -9.725   9.465  67.785  1.00  0.00    -0.182 C  
HETATM    4  C   UNL     1      -9.503  11.501  68.129  1.00  0.00    -0.184 C  
HETATM    5  O   UNL     1      -8.210  12.014  68.640  1.00  0.00    -0.254 OA 
HETATM    6  C   UNL     1     -12.113  11.183  71.735  1.00  0.00     0.460 C  
HETATM    7  C   UNL     1      -9.242  10.708  67.051  1.00  0.00    -0.167 C  
HETATM    8  C   UNL     1     -11.155  10.792  66.977  1.00  0.00    -0.245 C  
HETATM    9  C   UNL     1      -8.276  10.848  65.916  1.00  0.00    -0.133 C  
HETATM   10  C   UNL     1     -12.111   9.797  71.101  1.00  0.00    -0.460 C  
HETATM   11  C   UNL     1     -13.524   9.171  70.692  1.00  0.00     0.391 C  
HETATM   12  H   UNL     1      -8.109  12.945  68.797  1.00  0.00     0.000 HD 
HETATM   13  C   UNL     1     -11.835  10.847  68.569  1.00  0.00    -0.166 C  
HETATM   14  C   UNL     1     -14.065   8.023  71.109  1.00  0.00    -0.214 C  
HETATM   15  O   UNL     1     -14.405   8.798  73.365  1.00  0.00    -0.108 OA 
HETATM   16  O   UNL     1     -11.752  12.219  68.985  1.00  0.00    -0.287 OA 
HETATM   17  C   UNL     1     -11.260   9.858  69.790  1.00  0.00    -0.279 C  
HETATM   18  H   UNL     1     -12.125  12.250  69.858  1.00  0.00     0.000 HD 
HETATM   19  C   UNL     1      -9.568   9.955  70.062  1.00  0.00    -0.260 C  
HETATM   20  C   UNL     1      -9.128   8.888  71.068  1.00  0.00    -0.303 C  
HETATM   21  C   UNL     1      -9.962   8.917  72.338  1.00  0.00     0.002 C  
HETATM   22  F   UNL     1      -9.528   7.897  73.134  1.00  0.00    -0.236 F  
HETATM   23  C   UNL     1     -11.447   8.829  72.110  1.00  0.00    -0.421 C  
HETATM   24  C   UNL     1     -12.235   7.985  72.799  1.00  0.00    -0.125 C  
HETATM   25  C   UNL     1     -13.656   8.265  72.557  1.00  0.00    -0.038 C  
ENDROOT
BRANCH   4  26
HETATM   26  C   UNL     1      -9.822  12.997  67.174  1.00  0.00    -0.230 C  
HETATM   27  O   UNL     1     -10.121  13.016  65.969  1.00  0.00    -0.275 OA 
BRANCH  26  28
HETATM   28  C   UNL     1      -9.613  14.443  67.771  1.00  0.00    -0.216 C  
HETATM   29  O   UNL     1     -10.744  14.891  68.541  1.00  0.00    -0.234 OA 
HETATM   30  H   UNL     1     -10.619  15.762  68.900  1.00  0.00     0.000 HD 
ENDBRANCH  26  28
ENDBRANCH   4  26
TORSDOF 2
ENDMDL
MODEL       81
REMARK 921   NORMALIZED FREE ENERGY PREDICTED BY IDOCK:   -3.84 KCAL/MOL
REMARK 922        TOTAL FREE ENERGY PREDICTED BY IDOCK:   -3.66 KCAL/MOL
REMARK 923 INTER-LIGAND FREE ENERGY PREDICTED BY IDOCK:   -4.36 KCAL/MOL
REMARK 924 INTRA-LIGAND FREE ENERGY PREDICTED BY IDOCK:    0.70 KCAL/MOL
REMARK 927      BINDING AFFINITY PREDICTED BY RF-SCORE:    0.00 PKD
ROOT
HETATM    1  C   UNL     1      -6.404   8.480  69.416  1.00  0.00    -0.037 C  
HETATM    2  C   UNL     1      -5.840   9.660  69.957  1.00  0.00    -0.042 C  
HETATM    3  C   UNL     1      -7.234   9.338  70.411  1.00  0.00    -0.097 C  
HETATM    4  C   UNL     1      -7.945   7.410  70.112  1.00  0.00    -0.112 C  
HETATM    5  O   UNL     1      -7.088   6.420  69.417  1.00  0.00    -0.068 OA 
HETATM    6  C   UNL     1     -10.727   8.919  66.965  1.00  0.00    -0.180 C  
HETATM    7  C   UNL     1      -7.205   7.983  71.103  1.00  0.00    -0.056 C  
HETATM    8  C   UNL     1      -8.936   8.706  71.487  1.00  0.00    -0.302 C  
HETATM    9  C   UNL     1      -6.217   7.410  72.072  1.00  0.00    -0.040 C  
HETATM   10  C   UNL     1     -10.041  10.153  67.539  1.00  0.00    -0.244 C  
HETATM   11  C   UNL     1     -10.974  11.300  68.147  1.00  0.00    -0.284 C  
HETATM   12  H   UNL     1      -7.413   5.538  69.280  1.00  0.00     0.000 HD 
HETATM   13  C   UNL     1      -9.824   8.996  70.029  1.00  0.00    -0.184 C  
HETATM   14  C   UNL     1     -11.043  12.582  67.781  1.00  0.00    -0.291 C  
HETATM   15  O   UNL     1     -12.037  12.101  65.640  1.00  0.00    -0.545 OA 
HETATM   16  O   UNL     1     -10.394   7.732  69.657  1.00  0.00    -0.202 OA 
HETATM   17  C   UNL     1      -9.094   9.695  68.696  1.00  0.00    -0.132 C  
HETATM   18  H   UNL     1     -10.881   7.891  68.857  1.00  0.00     0.000 HD 
HETATM   19  C   UNL     1      -7.667   8.906  68.158  1.00  0.00    -0.100 C  
HETATM   20  C   UNL     1      -6.990   9.724  67.056  1.00  0.00    -0.085 C  
HETATM   21  C   UNL     1      -7.952  10.092  65.939  1.00  0.00    -0.124 C  
HETATM   22  F   UNL     1      -7.266  10.863  65.046  1.00  0.00    -0.025 F  
HETATM   23  C   UNL     1      -9.205  10.788  66.401  1.00  0.00    -0.191 C  
HETATM   24  C   UNL     1      -9.666  11.908  65.817  1.00  0.00    -0.258 C  
HETATM   25  C   UNL     1     -11.014  12.241  66.296  1.00  0.00    -0.291 C  
ENDROOT
BRANCH   4  26
HETATM   26  C   UNL     1      -8.702   6.154  71.160  1.00  0.00    -0.132 C  
HETATM   27  O   UNL     1      -9.261   6.381  72.245  1.00  0.00    -0.141 OA 
BRANCH  26  28
HETATM   28  C   UNL     1      -8.599   4.611  70.842  1.00  0.00    -0.105 C  
HETATM   29  O   UNL     1      -8.416   3.813  72.026  1.00  0.00    -0.087 OA 
HETATM   30  H   UNL     1      -8.354   2.885  71.835  1.00  0.00     0.000 HD 
ENDBRANCH  26  28
ENDBRANCH   4  26
TORSDOF 2
ENDMDL
MODEL       82
REMARK 921   NORMALIZED FREE ENERGY PREDICTED BY IDOCK:   -3.83 KCAL/MOL
REMARK 922        TOTAL FREE ENERGY PREDICTED BY IDOCK:   -3.65 KCAL/MOL
REMARK 923 INTER-LIGAND FREE ENERGY PREDICTED BY IDOCK:   -4.40 KCAL/MOL
REMARK 924 INTRA-LIGAND FREE ENERGY PREDICTED BY IDOCK:    0.76 KCAL/MOL
REMARK 927      BINDING AFFINITY PREDICTED BY RF-SCORE:    0.00 PKD
ROOT
HETATM    1  C   UNL     1      -8.780   8.669  69.935  1.00  0.00    -0.133 C  
HETATM    2  C   UNL     1      -7.445   8.497  70.374  1.00  0.00    -0.069 C  
HETATM    3  C   UNL     1      -7.631   8.625  68.890  1.00  0.00    -0.092 C  
HETATM    4  C   UNL     1      -9.426   9.393  68.186  1.00  0.00    -0.133 C  
HETATM    5  O   UNL     1     -10.493   9.747  69.152  1.00  0.00    -0.197 OA 
HETATM    6  C   UNL     1     -10.561   5.356  66.658  1.00  0.00    -0.359 C  
HETATM    7  C   UNL     1      -8.269   9.977  68.608  1.00  0.00    -0.111 C  
HETATM    8  C   UNL     1      -7.728   9.309  66.896  1.00  0.00    -0.094 C  
HETATM    9  C   UNL     1      -7.984  11.324  69.195  1.00  0.00    -0.002 C  
HETATM   10  C   UNL     1      -9.146   5.210  67.205  1.00  0.00    -0.113 C  
HETATM   11  C   UNL     1      -8.020   4.674  66.205  1.00  0.00    -0.103 C  
HETATM   12  H   UNL     1     -11.315  10.099  68.829  1.00  0.00     0.000 HD 
HETATM   13  C   UNL     1      -8.514   7.807  66.540  1.00  0.00    -0.132 C  
HETATM   14  C   UNL     1      -7.248   3.594  66.341  1.00  0.00    -0.064 C  
HETATM   15  O   UNL     1      -9.066   2.040  66.051  1.00  0.00    -0.118 OA 
HETATM   16  O   UNL     1      -9.813   8.153  66.036  1.00  0.00    -0.456 OA 
HETATM   17  C   UNL     1      -8.664   6.613  67.702  1.00  0.00    -0.118 C  
HETATM   18  H   UNL     1     -10.245   7.329  65.841  1.00  0.00     0.000 HD 
HETATM   19  C   UNL     1      -9.394   7.121  69.170  1.00  0.00    -0.141 C  
HETATM   20  C   UNL     1      -9.319   6.006  70.215  1.00  0.00    -0.176 C  
HETATM   21  C   UNL     1      -9.850   4.684  69.686  1.00  0.00    -0.223 C  
HETATM   22  F   UNL     1      -9.683   3.754  70.670  1.00  0.00    -0.223 F  
HETATM   23  C   UNL     1      -9.213   4.228  68.400  1.00  0.00    -0.190 C  
HETATM   24  C   UNL     1      -8.757   2.976  68.224  1.00  0.00    -0.141 C  
HETATM   25  C   UNL     1      -8.407   2.728  66.819  1.00  0.00    -0.095 C  
ENDROOT
BRANCH   4  26
HETATM   26  C   UNL     1      -9.888  10.717  67.053  1.00  0.00    -0.187 C  
HETATM   27  O   UNL     1      -9.097  11.540  66.566  1.00  0.00    -0.183 OA 
BRANCH  26  28
HETATM   28  C   UNL     1     -11.391  11.027  66.681  1.00  0.00     0.079 C  
HETATM   29  O   UNL     1     -12.136  11.561  67.791  1.00  0.00    -0.626 OA 
HETATM   30  H   UNL     1     -13.041  11.747  67.568  1.00  0.00     0.000 HD 
ENDBRANCH  26  28
ENDBRANCH   4  26
TORSDOF 2
ENDMDL
MODEL       83
REMARK 921   NORMALIZED FREE ENERGY PREDICTED BY IDOCK:   -3.76 KCAL/MOL
REMARK 922        TOTAL FREE ENERGY PREDICTED BY IDOCK:   -3.57 KCAL/MOL
REMARK 923 INTER-LIGAND FREE ENERGY PREDICTED BY IDOCK:   -4.83 KCAL/MOL
REMARK 924 INTRA-LIGAND FREE ENERGY PREDICTED BY IDOCK:    1.26 KCAL/MOL
REMARK 927      BINDING AFFINITY PREDICTED BY RF-SCORE:    0.00 PKD
ROOT
HETATM    1  C   UNL     1      -6.748   5.368  66.874  1.00  0.00    -0.062 C  
HETATM    2  C   UNL     1      -6.291   4.616  67.982  1.00  0.00    -0.037 C  
HETATM    3  C   UNL     1      -7.718   4.380  67.580  1.00  0.00    -0.084 C  
HETATM    4  C   UNL     1      -8.326   5.007  65.697  1.00  0.00    -0.120 C  
HETATM    5  O   UNL     1      -7.362   5.713  64.820  1.00  0.00    -0.063 OA 
HETATM    6  C   UNL     1     -10.762   8.251  67.558  1.00  0.00    -0.217 C  
HETATM    7  C   UNL     1      -7.727   3.869  66.148  1.00  0.00    -0.089 C  
HETATM    8  C   UNL     1      -9.515   3.609  66.786  1.00  0.00    -0.203 C  
HETATM    9  C   UNL     1      -6.844   2.868  65.470  1.00  0.00    -0.048 C  
HETATM   10  C   UNL     1     -10.188   7.446  68.718  1.00  0.00    -0.199 C  
HETATM   11  C   UNL     1     -11.224   6.814  69.760  1.00  0.00    -0.368 C  
HETATM   12  H   UNL     1      -7.640   6.000  63.958  1.00  0.00     0.000 HD 
HETATM   13  C   UNL     1     -10.232   5.115  67.250  1.00  0.00    -0.190 C  
HETATM   14  C   UNL     1     -11.290   7.020  71.078  1.00  0.00    -0.325 C  
HETATM   15  O   UNL     1     -12.007   9.310  70.864  1.00  0.00    -0.283 OA 
HETATM   16  O   UNL     1     -10.713   5.712  66.035  1.00  0.00    -0.493 OA 
HETATM   17  C   UNL     1      -9.371   6.249  68.128  1.00  0.00    -0.115 C  
HETATM   18  H   UNL     1     -11.106   6.539  66.290  1.00  0.00     0.000 HD 
HETATM   19  C   UNL     1      -7.866   6.706  67.440  1.00  0.00    -0.113 C  
HETATM   20  C   UNL     1      -7.090   7.604  68.406  1.00  0.00    -0.081 C  
HETATM   21  C   UNL     1      -7.924   8.773  68.900  1.00  0.00    -0.105 C  
HETATM   22  F   UNL     1      -7.162   9.470  69.792  1.00  0.00    -0.056 F  
HETATM   23  C   UNL     1      -9.244   8.383  69.509  1.00  0.00    -0.154 C  
HETATM   24  C   UNL     1      -9.668   8.871  70.688  1.00  0.00    -0.260 C  
HETATM   25  C   UNL     1     -11.074   8.521  70.934  1.00  0.00    -0.255 C  
ENDROOT
BRANCH   4  26
HETATM   26  C   UNL     1      -9.162   4.228  64.303  1.00  0.00    -0.151 C  
HETATM   27  O   UNL     1      -9.336   4.761  63.195  1.00  0.00    -0.070 OA 
BRANCH  26  28
HETATM   28  C   UNL     1      -9.871   2.823  64.419  1.00  0.00    -0.087 C  
HETATM   29  O   UNL     1     -11.246   2.861  63.991  1.00  0.00    -0.603 OA 
HETATM   30  H   UNL     1     -11.673   2.015  64.062  1.00  0.00     0.000 HD 
ENDBRANCH  26  28
ENDBRANCH   4  26
TORSDOF 2
ENDMDL
MODEL       84
REMARK 921   NORMALIZED FREE ENERGY PREDICTED BY IDOCK:   -3.74 KCAL/MOL
REMARK 922        TOTAL FREE ENERGY PREDICTED BY IDOCK:   -3.54 KCAL/MOL
REMARK 923 INTER-LIGAND FREE ENERGY PREDICTED BY IDOCK:   -4.00 KCAL/MOL
REMARK 924 INTRA-LIGAND FREE ENERGY PREDICTED BY IDOCK:    0.46 KCAL/MOL
REMARK 927      BINDING AFFINITY PREDICTED BY RF-SCORE:    0.00 PKD
ROOT
HETATM    1  C   UNL     1      -7.508   7.878  67.525  1.00  0.00    -0.093 C  
HETATM    2  C   UNL     1      -7.500   8.664  66.349  1.00  0.00    -0.087 C  
HETATM    3  C   UNL     1      -8.849   8.185  66.801  1.00  0.00    -0.156 C  
HETATM    4  C   UNL     1      -9.044   7.492  68.749  1.00  0.00    -0.135 C  
HETATM    5  O   UNL     1      -7.848   7.439  69.624  1.00  0.00    -0.111 OA 
HETATM    6  C   UNL     1      -9.528   3.326  67.223  1.00  0.00    -0.189 C  
HETATM    7  C   UNL     1      -9.103   8.737  68.196  1.00  0.00    -0.142 C  
HETATM    8  C   UNL     1     -10.783   8.013  67.627  1.00  0.00    -0.203 C  
HETATM    9  C   UNL     1      -8.839  10.097  68.764  1.00  0.00    -0.146 C  
HETATM   10  C   UNL     1      -9.448   4.213  65.987  1.00  0.00    -0.182 C  
HETATM   11  C   UNL     1     -10.668   4.154  64.956  1.00  0.00    -0.120 C  
HETATM   12  H   UNL     1      -7.937   7.122  70.514  1.00  0.00     0.000 HD 
HETATM   13  C   UNL     1     -10.648   6.318  67.299  1.00  0.00    -0.302 C  
HETATM   14  C   UNL     1     -10.632   3.837  63.660  1.00  0.00    -0.257 C  
HETATM   15  O   UNL     1     -10.097   1.522  64.058  1.00  0.00    -0.119 OA 
HETATM   16  O   UNL     1     -10.753   5.661  68.572  1.00  0.00    -0.217 OA 
HETATM   17  C   UNL     1      -9.340   5.702  66.457  1.00  0.00    -0.159 C  
HETATM   18  H   UNL     1     -10.678   4.731  68.391  1.00  0.00     0.000 HD 
HETATM   19  C   UNL     1      -7.805   6.119  67.102  1.00  0.00    -0.102 C  
HETATM   20  C   UNL     1      -6.689   5.656  66.162  1.00  0.00    -0.057 C  
HETATM   21  C   UNL     1      -6.824   4.191  65.786  1.00  0.00    -0.057 C  
HETATM   22  F   UNL     1      -5.822   3.901  64.906  1.00  0.00    -0.019 F  
HETATM   23  C   UNL     1      -8.166   3.816  65.216  1.00  0.00    -0.097 C  
HETATM   24  C   UNL     1      -8.296   3.087  64.093  1.00  0.00    -0.086 C  
HETATM   25  C   UNL     1      -9.688   2.663  63.891  1.00  0.00    -0.139 C  
ENDROOT
BRANCH   4  26
HETATM   26  C   UNL     1     -10.147   7.857  70.127  1.00  0.00    -0.194 C  
HETATM   27  O   UNL     1     -11.245   8.426  70.022  1.00  0.00    -0.206 OA 
BRANCH  26  28
HETATM   28  C   UNL     1      -9.740   7.597  71.629  1.00  0.00    -0.161 C  
HETATM   29  O   UNL     1      -8.837   8.597  72.139  1.00  0.00    -0.262 OA 
HETATM   30  H   UNL     1      -8.592   8.440  73.043  1.00  0.00     0.000 HD 
ENDBRANCH  26  28
ENDBRANCH   4  26
TORSDOF 2
ENDMDL
MODEL       85
REMARK 921   NORMALIZED FREE ENERGY PREDICTED BY IDOCK:   -3.69 KCAL/MOL
REMARK 922        TOTAL FREE ENERGY PREDICTED BY IDOCK:   -3.48 KCAL/MOL
REMARK 923 INTER-LIGAND FREE ENERGY PREDICTED BY IDOCK:   -4.86 KCAL/MOL
REMARK 924 INTRA-LIGAND FREE ENERGY PREDICTED BY IDOCK:    1.38 KCAL/MOL
REMARK 927      BINDING AFFINITY PREDICTED BY RF-SCORE:    0.00 PKD
ROOT
HETATM    1  C   UNL     1      -8.592   7.913  69.560  1.00  0.00    -0.137 C  
HETATM    2  C   UNL     1      -8.678   7.100  68.404  1.00  0.00    -0.125 C  
HETATM    3  C   UNL     1      -9.871   7.066  69.313  1.00  0.00    -0.159 C  
HETATM    4  C   UNL     1     -10.080   8.577  70.722  1.00  0.00    -0.198 C  
HETATM    5  O   UNL     1      -9.029   9.617  70.831  1.00  0.00    -0.319 OA 
HETATM    6  C   UNL     1      -9.155   5.672  73.982  1.00  0.00    -0.126 C  
HETATM    7  C   UNL     1     -10.434   8.476  69.409  1.00  0.00    -0.223 C  
HETATM    8  C   UNL     1     -11.754   7.351  70.223  1.00  0.00    -0.100 C  
HETATM    9  C   UNL     1     -10.643   9.510  68.347  1.00  0.00    -0.261 C  
HETATM   10  C   UNL     1      -9.194   4.855  72.697  1.00  0.00    -0.145 C  
HETATM   11  C   UNL     1     -10.217   3.628  72.634  1.00  0.00    -0.239 C  
HETATM   12  H   UNL     1      -9.125  10.308  71.475  1.00  0.00     0.000 HD 
HETATM   13  C   UNL     1     -11.096   6.509  71.585  1.00  0.00    -0.259 C  
HETATM   14  C   UNL     1      -9.942   2.340  72.414  1.00  0.00    -0.220 C  
HETATM   15  O   UNL     1      -8.807   2.041  74.518  1.00  0.00    -0.060 OA 
HETATM   16  O   UNL     1     -11.152   7.432  72.683  1.00  0.00    -0.282 OA 
HETATM   17  C   UNL     1      -9.578   5.809  71.518  1.00  0.00    -0.181 C  
HETATM   18  H   UNL     1     -10.790   6.970  73.430  1.00  0.00     0.000 HD 
HETATM   19  C   UNL     1      -8.314   6.870  71.042  1.00  0.00    -0.126 C  
HETATM   20  C   UNL     1      -7.012   6.090  70.843  1.00  0.00    -0.067 C  
HETATM   21  C   UNL     1      -6.672   5.224  72.043  1.00  0.00    -0.060 C  
HETATM   22  F   UNL     1      -5.534   4.534  71.740  1.00  0.00    -0.003 F  
HETATM   23  C   UNL     1      -7.772   4.288  72.467  1.00  0.00    -0.080 C  
HETATM   24  C   UNL     1      -7.555   2.985  72.720  1.00  0.00    -0.050 C  
HETATM   25  C   UNL     1      -8.731   2.360  73.340  1.00  0.00    -0.070 C  
ENDROOT
BRANCH   4  26
HETATM   26  C   UNL     1     -11.393   9.727  71.171  1.00  0.00    -0.389 C  
HETATM   27  O   UNL     1     -12.285   9.492  72.001  1.00  0.00    -0.358 OA 
BRANCH  26  28
HETATM   28  C   UNL     1     -11.597  11.109  70.435  1.00  0.00    -0.259 C  
HETATM   29  O   UNL     1     -12.603  11.926  71.063  1.00  0.00    -0.363 OA 
HETATM   30  H   UNL     1     -12.725  12.758  70.620  1.00  0.00     0.000 HD 
ENDBRANCH  26  28
ENDBRANCH   4  26
TORSDOF 2
ENDMDL
MODEL       86
REMARK 921   NORMALIZED FREE ENERGY PREDICTED BY IDOCK:   -3.67 KCAL/MOL
REMARK 922        TOTAL FREE ENERGY PREDICTED BY IDOCK:   -3.46 KCAL/MOL
REMARK 923 INTER-LIGAND FREE ENERGY PREDICTED BY IDOCK:   -4.62 KCAL/MOL
REMARK 924 INTRA-LIGAND FREE ENERGY PREDICTED BY IDOCK:    1.16 KCAL/MOL
REMARK 927      BINDING AFFINITY PREDICTED BY RF-SCORE:    0.00 PKD
ROOT
HETATM    1  C   UNL     1      -7.463  12.042  66.980  1.00  0.00    -0.106 C  
HETATM    2  C   UNL     1      -6.516  12.570  67.890  1.00  0.00    -0.105 C  
HETATM    3  C   UNL     1      -7.588  11.711  68.493  1.00  0.00    -0.127 C  
HETATM    4  C   UNL     1      -8.688  10.481  67.233  1.00  0.00    -0.126 C  
HETATM    5  O   UNL     1      -8.427  10.517  65.774  1.00  0.00    -0.162 OA 
HETATM    6  C   UNL     1     -12.270  13.077  67.818  1.00  0.00    -0.079 C  
HETATM    7  C   UNL     1      -7.492  10.327  67.869  1.00  0.00    -0.088 C  
HETATM    8  C   UNL     1      -8.704  10.132  69.339  1.00  0.00    -0.186 C  
HETATM    9  C   UNL     1      -6.293   9.486  67.554  1.00  0.00    -0.061 C  
HETATM   10  C   UNL     1     -11.192  13.646  68.732  1.00  0.00    -0.314 C  
HETATM   11  C   UNL     1     -11.531  13.758  70.291  1.00  0.00    -0.087 C  
HETATM   12  H   UNL     1      -8.931   9.954  65.198  1.00  0.00     0.000 HD 
HETATM   13  C   UNL     1     -10.087  11.156  69.142  1.00  0.00    -0.112 C  
HETATM   14  C   UNL     1     -11.527  14.853  71.055  1.00  0.00    -0.307 C  
HETATM   15  O   UNL     1     -13.447  15.827  69.974  1.00  0.00     0.128 OA 
HETATM   16  O   UNL     1     -10.978  10.451  68.264  1.00  0.00    -0.235 OA 
HETATM   17  C   UNL     1      -9.923  12.738  68.620  1.00  0.00    -0.099 C  
HETATM   18  H   UNL     1     -11.736  11.013  68.156  1.00  0.00     0.000 HD 
HETATM   19  C   UNL     1      -9.058  12.928  67.150  1.00  0.00    -0.220 C  
HETATM   20  C   UNL     1      -8.817  14.412  66.862  1.00  0.00    -0.246 C  
HETATM   21  C   UNL     1     -10.096  15.228  66.937  1.00  0.00    -0.256 C  
HETATM   22  F   UNL     1      -9.761  16.533  66.725  1.00  0.00    -0.229 F  
HETATM   23  C   UNL     1     -10.860  15.070  68.225  1.00  0.00    -0.259 C  
HETATM   24  C   UNL     1     -11.327  16.122  68.920  1.00  0.00    -0.350 C  
HETATM   25  C   UNL     1     -12.232  15.690  69.995  1.00  0.00    -0.327 C  
ENDROOT
BRANCH   4  26
HETATM   26  C   UNL     1      -9.102   8.726  67.207  1.00  0.00    -0.132 C  
HETATM   27  O   UNL     1     -10.047   8.232  66.572  1.00  0.00    -0.273 OA 
BRANCH  26  28
HETATM   28  C   UNL     1      -8.360   7.668  68.113  1.00  0.00    -0.124 C  
HETATM   29  O   UNL     1      -9.273   6.790  68.798  1.00  0.00    -0.132 OA 
HETATM   30  H   UNL     1      -8.826   6.153  69.344  1.00  0.00     0.000 HD 
ENDBRANCH  26  28
ENDBRANCH   4  26
TORSDOF 2
ENDMDL
MODEL       87
REMARK 921   NORMALIZED FREE ENERGY PREDICTED BY IDOCK:   -3.60 KCAL/MOL
REMARK 922        TOTAL FREE ENERGY PREDICTED BY IDOCK:   -3.39 KCAL/MOL
REMARK 923 INTER-LIGAND FREE ENERGY PREDICTED BY IDOCK:   -3.85 KCAL/MOL
REMARK 924 INTRA-LIGAND FREE ENERGY PREDICTED BY IDOCK:    0.47 KCAL/MOL
REMARK 927      BINDING AFFINITY PREDICTED BY RF-SCORE:    0.00 PKD
ROOT
HETATM    1  C   UNL     1      -8.517   8.902  69.155  1.00  0.00    -0.132 C  
HETATM    2  C   UNL     1      -9.487   9.076  70.170  1.00  0.00    -0.217 C  
HETATM    3  C   UNL     1      -9.641   9.958  68.967  1.00  0.00    -0.188 C  
HETATM    4  C   UNL     1      -8.626   9.441  67.231  1.00  0.00    -0.128 C  
HETATM    5  O   UNL     1      -7.741   8.251  67.234  1.00  0.00    -0.098 OA 
HETATM    6  C   UNL     1      -5.878  12.912  67.796  1.00  0.00    -0.139 C  
HETATM    7  C   UNL     1      -9.831   9.068  67.748  1.00  0.00    -0.209 C  
HETATM    8  C   UNL     1     -10.235  10.840  67.143  1.00  0.00    -0.255 C  
HETATM    9  C   UNL     1     -10.656   7.830  67.571  1.00  0.00    -0.319 C  
HETATM   10  C   UNL     1      -6.911  13.014  68.911  1.00  0.00    -0.099 C  
HETATM   11  C   UNL     1      -7.760  14.366  69.008  1.00  0.00    -0.093 C  
HETATM   12  H   UNL     1      -7.277   8.014  66.440  1.00  0.00     0.000 HD 
HETATM   13  C   UNL     1      -8.870  11.887  67.336  1.00  0.00    -0.171 C  
HETATM   14  C   UNL     1      -7.844  15.210  70.039  1.00  0.00     0.227 C  
HETATM   15  O   UNL     1      -5.567  15.969  69.833  1.00  0.00    -0.137 OA 
HETATM   16  O   UNL     1      -8.028  11.650  66.197  1.00  0.00    -0.372 OA 
HETATM   17  C   UNL     1      -7.946  11.855  68.731  1.00  0.00    -0.040 C  
HETATM   18  H   UNL     1      -7.279  12.224  66.303  1.00  0.00     0.000 HD 
HETATM   19  C   UNL     1      -7.341  10.308  69.162  1.00  0.00    -0.096 C  
HETATM   20  C   UNL     1      -6.667  10.363  70.535  1.00  0.00    -0.039 C  
HETATM   21  C   UNL     1      -5.638  11.477  70.626  1.00  0.00    -0.137 C  
HETATM   22  F   UNL     1      -5.145  11.474  71.898  1.00  0.00    -0.102 F  
HETATM   23  C   UNL     1      -6.160  12.839  70.253  1.00  0.00    -0.067 C  
HETATM   24  C   UNL     1      -5.941  13.928  71.010  1.00  0.00    -0.152 C  
HETATM   25  C   UNL     1      -6.345  15.154  70.309  1.00  0.00    -0.088 C  
ENDROOT
BRANCH   4  26
HETATM   26  C   UNL     1      -9.092   9.200  65.506  1.00  0.00    -0.219 C  
HETATM   27  O   UNL     1     -10.009   9.807  64.930  1.00  0.00    -0.252 OA 
BRANCH  26  28
HETATM   28  C   UNL     1      -8.444   8.080  64.602  1.00  0.00     0.017 C  
HETATM   29  O   UNL     1      -8.906   6.759  64.942  1.00  0.00    -0.348 OA 
HETATM   30  H   UNL     1      -8.516   6.085  64.398  1.00  0.00     0.000 HD 
ENDBRANCH  26  28
ENDBRANCH   4  26
TORSDOF 2
ENDMDL
MODEL       88
REMARK 921   NORMALIZED FREE ENERGY PREDICTED BY IDOCK:   -3.58 KCAL/MOL
REMARK 922        TOTAL FREE ENERGY PREDICTED BY IDOCK:   -3.36 KCAL/MOL
REMARK 923 INTER-LIGAND FREE ENERGY PREDICTED BY IDOCK:   -4.05 KCAL/MOL
REMARK 924 INTRA-LIGAND FREE ENERGY PREDICTED BY IDOCK:    0.68 KCAL/MOL
REMARK 927      BINDING AFFINITY PREDICTED BY RF-SCORE:    0.00 PKD
ROOT
HETATM    1  C   UNL     1     -10.740  13.859  69.784  1.00  0.00     0.220 C  
HETATM    2  C   UNL     1     -12.004  14.350  70.187  1.00  0.00    -0.386 C  
HETATM    3  C   UNL     1     -11.872  14.015  68.731  1.00  0.00    -0.396 C  
HETATM    4  C   UNL     1     -10.281  12.820  68.136  1.00  0.00    -0.241 C  
HETATM    5  O   UNL     1      -9.293  12.371  69.146  1.00  0.00    -0.267 OA 
HETATM    6  C   UNL     1      -8.373  16.336  66.157  1.00  0.00    -0.260 C  
HETATM    7  C   UNL     1     -11.526  12.538  68.614  1.00  0.00    -0.348 C  
HETATM    8  C   UNL     1     -11.947  13.098  66.831  1.00  0.00    -0.421 C  
HETATM    9  C   UNL     1     -12.070  11.354  69.352  1.00  0.00    -0.358 C  
HETATM   10  C   UNL     1      -9.720  16.830  66.671  1.00  0.00    -0.281 C  
HETATM   11  C   UNL     1     -10.729  17.464  65.605  1.00  0.00    -0.113 C  
HETATM   12  H   UNL     1      -8.566  11.825  68.874  1.00  0.00     0.000 HD 
HETATM   13  C   UNL     1     -10.877  14.356  66.308  1.00  0.00    -0.313 C  
HETATM   14  C   UNL     1     -11.263  18.688  65.608  1.00  0.00     0.776 C  
HETATM   15  O   UNL     1      -9.171  19.794  65.154  1.00  0.00     0.262 OA 
HETATM   16  O   UNL     1      -9.683  13.697  65.860  1.00  0.00    -0.403 OA 
HETATM   17  C   UNL     1     -10.470  15.622  67.324  1.00  0.00    -0.292 C  
HETATM   18  H   UNL     1      -9.096  14.387  65.574  1.00  0.00     0.000 HD 
HETATM   19  C   UNL     1      -9.835  15.150  68.848  1.00  0.00    -0.229 C  
HETATM   20  C   UNL     1      -9.666  16.371  69.755  1.00  0.00     0.164 C  
HETATM   21  C   UNL     1      -8.886  17.486  69.079  1.00  0.00    -0.033 C  
HETATM   22  F   UNL     1      -8.844  18.539  69.946  1.00  0.00     0.572 F  
HETATM   23  C   UNL     1      -9.437  17.909  67.744  1.00  0.00    -0.263 C  
HETATM   24  C   UNL     1      -9.631  19.200  67.419  1.00  0.00    -0.373 C  
HETATM   25  C   UNL     1      -9.944  19.348  65.991  1.00  0.00    -0.367 C  
ENDROOT
BRANCH   4  26
HETATM   26  C   UNL     1     -10.115  11.307  67.170  1.00  0.00    -0.192 C  
HETATM   27  O   UNL     1     -10.791  11.032  66.166  1.00  0.00    -0.234 OA 
BRANCH  26  28
HETATM   28  C   UNL     1      -9.166  10.124  67.606  1.00  0.00    -0.141 C  
HETATM   29  O   UNL     1      -8.578   9.443  66.481  1.00  0.00    -0.130 OA 
HETATM   30  H   UNL     1      -8.007   8.731  66.744  1.00  0.00     0.000 HD 
ENDBRANCH  26  28
ENDBRANCH   4  26
TORSDOF 2
ENDMDL
MODEL       89
REMARK 921   NORMALIZED FREE ENERGY PREDICTED BY IDOCK:   -3.57 KCAL/MOL
REMARK 922        TOTAL FREE ENERGY PREDICTED BY IDOCK:   -3.35 KCAL/MOL
REMARK 923 INTER-LIGAND FREE ENERGY PREDICTED BY IDOCK:   -4.55 KCAL/MOL
REMARK 924 INTRA-LIGAND FREE ENERGY PREDICTED BY IDOCK:    1.20 KCAL/MOL
REMARK 927      BINDING AFFINITY PREDICTED BY RF-SCORE:    0.00 PKD
ROOT
HETATM    1  C   UNL     1      -9.554   4.329  70.426  1.00  0.00    -0.265 C  
HETATM    2  C   UNL     1      -8.344   3.616  70.256  1.00  0.00    -0.082 C  
HETATM    3  C   UNL     1      -8.200   5.067  70.611  1.00  0.00    -0.102 C  
HETATM    4  C   UNL     1      -9.851   6.059  71.386  1.00  0.00    -0.173 C  
HETATM    5  O   UNL     1     -11.135   5.333  71.524  1.00  0.00    -0.107 OA 
HETATM    6  C   UNL     1     -10.248   8.376  67.592  1.00  0.00    -0.298 C  
HETATM    7  C   UNL     1      -8.875   5.296  71.955  1.00  0.00    -0.142 C  
HETATM    8  C   UNL     1      -7.904   6.908  71.600  1.00  0.00    -0.100 C  
HETATM    9  C   UNL     1      -8.851   4.470  73.204  1.00  0.00    -0.110 C  
HETATM   10  C   UNL     1      -8.986   7.536  67.435  1.00  0.00    -0.129 C  
HETATM   11  C   UNL     1      -7.620   8.307  67.127  1.00  0.00    -0.093 C  
HETATM   12  H   UNL     1     -11.890   5.787  71.879  1.00  0.00     0.000 HD 
HETATM   13  C   UNL     1      -8.453   7.653  70.136  1.00  0.00    -0.138 C  
HETATM   14  C   UNL     1      -6.806   8.149  66.081  1.00  0.00    -0.058 C  
HETATM   15  O   UNL     1      -8.367   9.081  64.500  1.00  0.00    -0.158 OA 
HETATM   16  O   UNL     1      -9.631   8.394  70.489  1.00  0.00    -0.165 OA 
HETATM   17  C   UNL     1      -8.755   6.743  68.764  1.00  0.00    -0.125 C  
HETATM   18  H   UNL     1      -9.932   8.802  69.685  1.00  0.00     0.000 HD 
HETATM   19  C   UNL     1      -9.841   5.432  68.991  1.00  0.00    -0.231 C  
HETATM   20  C   UNL     1      -9.905   4.570  67.728  1.00  0.00    -0.169 C  
HETATM   21  C   UNL     1     -10.183   5.395  66.482  1.00  0.00    -0.245 C  
HETATM   22  F   UNL     1     -10.161   4.543  65.416  1.00  0.00    -0.203 F  
HETATM   23  C   UNL     1      -9.234   6.544  66.273  1.00  0.00    -0.160 C  
HETATM   24  C   UNL     1      -8.641   6.785  65.090  1.00  0.00     0.038 C  
HETATM   25  C   UNL     1      -7.962   8.088  65.090  1.00  0.00    -0.127 C  
ENDROOT
BRANCH   4  26
HETATM   26  C   UNL     1     -10.161   7.067  72.849  1.00  0.00    -0.196 C  
HETATM   27  O   UNL     1     -10.981   7.997  72.906  1.00  0.00    -0.378 OA 
BRANCH  26  28
HETATM   28  C   UNL     1      -9.302   6.933  74.167  1.00  0.00    -0.235 C  
HETATM   29  O   UNL     1      -8.700   8.180  74.563  1.00  0.00    -0.406 OA 
HETATM   30  H   UNL     1      -8.184   8.100  75.356  1.00  0.00     0.000 HD 
ENDBRANCH  26  28
ENDBRANCH   4  26
TORSDOF 2
ENDMDL
MODEL       90
REMARK 921   NORMALIZED FREE ENERGY PREDICTED BY IDOCK:   -3.55 KCAL/MOL
REMARK 922        TOTAL FREE ENERGY PREDICTED BY IDOCK:   -3.33 KCAL/MOL
REMARK 923 INTER-LIGAND FREE ENERGY PREDICTED BY IDOCK:   -4.03 KCAL/MOL
REMARK 924 INTRA-LIGAND FREE ENERGY PREDICTED BY IDOCK:    0.71 KCAL/MOL
REMARK 927      BINDING AFFINITY PREDICTED BY RF-SCORE:    0.00 PKD
ROOT
HETATM    1  C   UNL     1     -10.282   6.702  66.754  1.00  0.00    -0.263 C  
HETATM    2  C   UNL     1      -9.655   7.965  66.864  1.00  0.00    -0.263 C  
HETATM    3  C   UNL     1      -8.751   6.776  67.009  1.00  0.00    -0.114 C  
HETATM    4  C   UNL     1      -9.442   4.930  66.355  1.00  0.00    -0.155 C  
HETATM    5  O   UNL     1     -10.817   4.820  65.812  1.00  0.00    -0.603 OA 
HETATM    6  C   UNL     1      -9.770   3.548  70.586  1.00  0.00    -0.196 C  
HETATM    7  C   UNL     1      -8.824   5.967  65.722  1.00  0.00    -0.143 C  
HETATM    8  C   UNL     1      -7.357   5.222  66.703  1.00  0.00    -0.086 C  
HETATM    9  C   UNL     1      -8.834   6.417  64.294  1.00  0.00     0.600 C  
HETATM   10  C   UNL     1      -9.156   4.941  70.651  1.00  0.00    -0.174 C  
HETATM   11  C   UNL     1      -7.741   5.090  71.380  1.00  0.00    -0.100 C  
HETATM   12  H   UNL     1     -11.133   3.976  65.513  1.00  0.00     0.000 HD 
HETATM   13  C   UNL     1      -7.884   4.602  68.231  1.00  0.00    -0.081 C  
HETATM   14  C   UNL     1      -7.435   5.857  72.429  1.00  0.00    -0.099 C  
HETATM   15  O   UNL     1      -8.752   4.568  73.980  1.00  0.00    -0.104 OA 
HETATM   16  O   UNL     1      -8.418   3.296  67.963  1.00  0.00    -0.081 OA 
HETATM   17  C   UNL     1      -8.956   5.459  69.188  1.00  0.00    -0.120 C  
HETATM   18  H   UNL     1      -8.708   2.956  68.802  1.00  0.00     0.000 HD 
HETATM   19  C   UNL     1     -10.413   5.920  68.407  1.00  0.00    -0.294 C  
HETATM   20  C   UNL     1     -11.233   6.843  69.312  1.00  0.00    -0.188 C  
HETATM   21  C   UNL     1     -11.434   6.258  70.699  1.00  0.00    -0.329 C  
HETATM   22  F   UNL     1     -12.121   7.180  71.435  1.00  0.00    -0.301 F  
HETATM   23  C   UNL     1     -10.161   5.854  71.394  1.00  0.00    -0.245 C  
HETATM   24  C   UNL     1      -9.891   6.201  72.665  1.00  0.00    -0.178 C  
HETATM   25  C   UNL     1      -8.712   5.486  73.173  1.00  0.00    -0.120 C  
ENDROOT
BRANCH   4  26
HETATM   26  C   UNL     1      -8.809   3.649  65.255  1.00  0.00    -0.122 C  
HETATM   27  O   UNL     1      -7.613   3.494  64.966  1.00  0.00    -0.075 OA 
BRANCH  26  28
HETATM   28  C   UNL     1      -9.760   2.680  64.450  1.00  0.00    -0.112 C  
HETATM   29  O   UNL     1      -9.033   1.784  63.588  1.00  0.00    -0.087 OA 
HETATM   30  H   UNL     1      -9.605   1.201  63.103  1.00  0.00     0.000 HD 
ENDBRANCH  26  28
ENDBRANCH   4  26
TORSDOF 2
ENDMDL
MODEL       91
REMARK 921   NORMALIZED FREE ENERGY PREDICTED BY IDOCK:   -3.44 KCAL/MOL
REMARK 922        TOTAL FREE ENERGY PREDICTED BY IDOCK:   -3.21 KCAL/MOL
REMARK 923 INTER-LIGAND FREE ENERGY PREDICTED BY IDOCK:   -3.89 KCAL/MOL
REMARK 924 INTRA-LIGAND FREE ENERGY PREDICTED BY IDOCK:    0.69 KCAL/MOL
REMARK 927      BINDING AFFINITY PREDICTED BY RF-SCORE:    0.00 PKD
ROOT
HETATM    1  C   UNL     1      -9.423   8.846  67.317  1.00  0.00    -0.195 C  
HETATM    2  C   UNL     1      -8.617   8.980  68.473  1.00  0.00    -0.129 C  
HETATM    3  C   UNL     1      -7.876   8.882  67.172  1.00  0.00    -0.096 C  
HETATM    4  C   UNL     1      -8.929   9.211  65.413  1.00  0.00    -0.207 C  
HETATM    5  O   UNL     1     -10.385   9.481  65.478  1.00  0.00    -0.238 OA 
HETATM    6  C   UNL     1      -8.617   4.873  64.410  1.00  0.00    -0.142 C  
HETATM    7  C   UNL     1      -8.308  10.046  66.293  1.00  0.00    -0.127 C  
HETATM    8  C   UNL     1      -6.796   9.278  65.402  1.00  0.00    -0.074 C  
HETATM    9  C   UNL     1      -8.534  11.487  66.633  1.00  0.00    -0.172 C  
HETATM   10  C   UNL     1      -7.816   5.061  65.692  1.00  0.00    -0.091 C  
HETATM   11  C   UNL     1      -6.279   4.620  65.672  1.00  0.00    -0.031 C  
HETATM   12  H   UNL     1     -10.867   9.632  64.674  1.00  0.00     0.000 HD 
HETATM   13  C   UNL     1      -7.097   7.625  64.984  1.00  0.00    -0.063 C  
HETATM   14  C   UNL     1      -5.672   3.726  66.457  1.00  0.00    -0.022 C  
HETATM   15  O   UNL     1      -6.828   1.840  65.504  1.00  0.00    -0.033 OA 
HETATM   16  O   UNL     1      -7.849   7.658  63.761  1.00  0.00    -0.122 OA 
HETATM   17  C   UNL     1      -7.833   6.580  66.065  1.00  0.00    -0.103 C  
HETATM   18  H   UNL     1      -8.014   6.751  63.532  1.00  0.00     0.000 HD 
HETATM   19  C   UNL     1      -9.337   7.127  66.687  1.00  0.00    -0.207 C  
HETATM   20  C   UNL     1      -9.830   6.187  67.790  1.00  0.00    -0.131 C  
HETATM   21  C   UNL     1      -9.836   4.734  67.346  1.00  0.00    -0.175 C  
HETATM   22  F   UNL     1     -10.233   3.982  68.414  1.00  0.00    -0.085 F  
HETATM   23  C   UNL     1      -8.521   4.244  66.801  1.00  0.00    -0.104 C  
HETATM   24  C   UNL     1      -7.964   3.084  67.193  1.00  0.00    -0.078 C  
HETATM   25  C   UNL     1      -6.819   2.730  66.343  1.00  0.00    -0.044 C  
ENDROOT
BRANCH   4  26
HETATM   26  C   UNL     1      -8.706  10.272  63.973  1.00  0.00    -0.202 C  
HETATM   27  O   UNL     1      -7.632  10.430  63.371  1.00  0.00    -0.136 OA 
BRANCH  26  28
HETATM   28  C   UNL     1      -9.852  11.210  63.426  1.00  0.00    -0.361 C  
HETATM   29  O   UNL     1      -9.420  12.574  63.266  1.00  0.00    -0.527 OA 
HETATM   30  H   UNL     1     -10.109  13.139  62.937  1.00  0.00     0.000 HD 
ENDBRANCH  26  28
ENDBRANCH   4  26
TORSDOF 2
ENDMDL
MODEL       92
REMARK 921   NORMALIZED FREE ENERGY PREDICTED BY IDOCK:   -3.43 KCAL/MOL
REMARK 922        TOTAL FREE ENERGY PREDICTED BY IDOCK:   -3.19 KCAL/MOL
REMARK 923 INTER-LIGAND FREE ENERGY PREDICTED BY IDOCK:   -3.77 KCAL/MOL
REMARK 924 INTRA-LIGAND FREE ENERGY PREDICTED BY IDOCK:    0.58 KCAL/MOL
REMARK 927      BINDING AFFINITY PREDICTED BY RF-SCORE:    0.00 PKD
ROOT
HETATM    1  C   UNL     1     -10.669  10.985  68.221  1.00  0.00    -0.235 C  
HETATM    2  C   UNL     1     -11.782  10.818  67.363  1.00  0.00     0.316 C  
HETATM    3  C   UNL     1     -11.208  12.203  67.421  1.00  0.00    -0.362 C  
HETATM    4  C   UNL     1      -9.302  12.446  68.209  1.00  0.00    -0.199 C  
HETATM    5  O   UNL     1      -8.579  11.265  68.738  1.00  0.00    -0.212 OA 
HETATM    6  C   UNL     1     -11.039  14.432  71.809  1.00  0.00     1.252 C  
HETATM    7  C   UNL     1      -9.758  12.134  66.963  1.00  0.00    -0.208 C  
HETATM    8  C   UNL     1     -10.174  14.002  67.037  1.00  0.00    -0.261 C  
HETATM    9  C   UNL     1      -9.135  11.380  65.829  1.00  0.00    -0.195 C  
HETATM   10  C   UNL     1     -12.213  14.168  70.873  1.00  0.00    -0.434 C  
HETATM   11  C   UNL     1     -13.095  15.424  70.425  1.00  0.00    -0.223 C  
HETATM   12  H   UNL     1      -7.708  11.376  69.099  1.00  0.00     0.000 HD 
HETATM   13  C   UNL     1     -10.629  14.473  68.640  1.00  0.00    -0.255 C  
HETATM   14  C   UNL     1     -14.405  15.611  70.601  1.00  0.00     0.944 C  
HETATM   15  O   UNL     1     -14.231  15.849  72.992  1.00  0.00    -0.410 OA 
HETATM   16  O   UNL     1      -9.401  14.679  69.354  1.00  0.00    -0.400 OA 
HETATM   17  C   UNL     1     -11.659  13.527  69.558  1.00  0.00    -0.355 C  
HETATM   18  H   UNL     1      -9.651  14.937  70.234  1.00  0.00     0.000 HD 
HETATM   19  C   UNL     1     -11.172  11.890  69.734  1.00  0.00    -0.133 C  
HETATM   20  C   UNL     1     -12.266  11.082  70.435  1.00  0.00    -0.461 C  
HETATM   21  C   UNL     1     -12.722  11.733  71.730  1.00  0.00    -0.193 C  
HETATM   22  F   UNL     1     -13.731  10.968  72.239  1.00  0.00    -0.431 F  
HETATM   23  C   UNL     1     -13.155  13.168  71.586  1.00  0.00    -0.444 C  
HETATM   24  C   UNL     1     -14.301  13.633  72.112  1.00  0.00    -0.388 C  
HETATM   25  C   UNL     1     -14.366  15.099  72.036  1.00  0.00    -0.586 C  
ENDROOT
BRANCH   4  26
HETATM   26  C   UNL     1      -7.782  13.237  67.647  1.00  0.00    -0.171 C  
HETATM   27  O   UNL     1      -7.573  13.623  66.486  1.00  0.00     0.701 OA 
BRANCH  26  28
HETATM   28  C   UNL     1      -6.515  13.389  68.576  1.00  0.00    -0.086 C  
HETATM   29  O   UNL     1      -6.812  13.140  69.962  1.00  0.00    -0.343 OA 
HETATM   30  H   UNL     1      -6.049  13.232  70.521  1.00  0.00     0.000 HD 
ENDBRANCH  26  28
ENDBRANCH   4  26
TORSDOF 2
ENDMDL
MODEL       93
REMARK 921   NORMALIZED FREE ENERGY PREDICTED BY IDOCK:   -3.35 KCAL/MOL
REMARK 922        TOTAL FREE ENERGY PREDICTED BY IDOCK:   -3.10 KCAL/MOL
REMARK 923 INTER-LIGAND FREE ENERGY PREDICTED BY IDOCK:   -3.61 KCAL/MOL
REMARK 924 INTRA-LIGAND FREE ENERGY PREDICTED BY IDOCK:    0.51 KCAL/MOL
REMARK 927      BINDING AFFINITY PREDICTED BY RF-SCORE:    0.00 PKD
ROOT
HETATM    1  C   UNL     1     -10.190   4.942  69.741  1.00  0.00    -0.284 C  
HETATM    2  C   UNL     1      -9.708   4.744  68.425  1.00  0.00    -0.209 C  
HETATM    3  C   UNL     1      -8.679   4.661  69.514  1.00  0.00    -0.111 C  
HETATM    4  C   UNL     1      -9.332   4.410  71.469  1.00  0.00    -0.143 C  
HETATM    5  O   UNL     1     -10.787   4.370  71.748  1.00  0.00     0.109 OA 
HETATM    6  C   UNL     1      -8.099   8.592  72.423  1.00  0.00    -0.134 C  
HETATM    7  C   UNL     1      -9.076   3.534  70.456  1.00  0.00    -0.192 C  
HETATM    8  C   UNL     1      -7.295   4.015  70.971  1.00  0.00    -0.040 C  
HETATM    9  C   UNL     1      -9.604   2.165  70.160  1.00  0.00    -0.070 C  
HETATM   10  C   UNL     1      -7.660   8.348  70.985  1.00  0.00    -0.084 C  
HETATM   11  C   UNL     1      -6.110   8.546  70.644  1.00  0.00    -0.032 C  
HETATM   12  H   UNL     1     -11.086   4.255  72.642  1.00  0.00     0.000 HD 
HETATM   13  C   UNL     1      -7.219   5.672  71.469  1.00  0.00    -0.081 C  
HETATM   14  C   UNL     1      -5.566   9.374  69.749  1.00  0.00    -0.033 C  
HETATM   15  O   UNL     1      -6.149  11.365  70.974  1.00  0.00    -0.360 OA 
HETATM   16  O   UNL     1      -7.661   5.693  72.835  1.00  0.00    -0.095 OA 
HETATM   17  C   UNL     1      -8.009   6.870  70.608  1.00  0.00    -0.109 C  
HETATM   18  H   UNL     1      -7.620   6.602  73.108  1.00  0.00     0.000 HD 
HETATM   19  C   UNL     1      -9.684   6.593  70.354  1.00  0.00    -0.186 C  
HETATM   20  C   UNL     1     -10.261   7.653  69.413  1.00  0.00    -0.206 C  
HETATM   21  C   UNL     1      -9.930   9.065  69.864  1.00  0.00    -0.191 C  
HETATM   22  F   UNL     1     -10.438   9.922  68.930  1.00  0.00    -0.183 F  
HETATM   23  C   UNL     1      -8.462   9.319  70.086  1.00  0.00    -0.206 C  
HETATM   24  C   UNL     1      -7.832  10.397  69.587  1.00  0.00    -0.138 C  
HETATM   25  C   UNL     1      -6.479  10.528  70.145  1.00  0.00    -0.144 C  
ENDROOT
BRANCH   4  26
HETATM   26  C   UNL     1      -8.953   3.256  72.801  1.00  0.00    -0.088 C  
HETATM   27  O   UNL     1      -7.975   2.492  72.818  1.00  0.00    -0.053 OA 
BRANCH  26  28
HETATM   28  C   UNL     1      -9.927   3.022  74.021  1.00  0.00    -0.110 C  
HETATM   29  O   UNL     1     -10.439   4.254  74.563  1.00  0.00    -0.234 OA 
HETATM   30  H   UNL     1     -11.025   4.113  75.298  1.00  0.00     0.000 HD 
ENDBRANCH  26  28
ENDBRANCH   4  26
TORSDOF 2
ENDMDL
MODEL       94
REMARK 921   NORMALIZED FREE ENERGY PREDICTED BY IDOCK:   -3.32 KCAL/MOL
REMARK 922        TOTAL FREE ENERGY PREDICTED BY IDOCK:   -3.07 KCAL/MOL
REMARK 923 INTER-LIGAND FREE ENERGY PREDICTED BY IDOCK:   -3.69 KCAL/MOL
REMARK 924 INTRA-LIGAND FREE ENERGY PREDICTED BY IDOCK:    0.62 KCAL/MOL
REMARK 927      BINDING AFFINITY PREDICTED BY RF-SCORE:    0.00 PKD
ROOT
HETATM    1  C   UNL     1      -9.621   4.365  66.974  1.00  0.00    -0.221 C  
HETATM    2  C   UNL     1     -10.564   5.276  66.442  1.00  0.00    -0.338 C  
HETATM    3  C   UNL     1      -9.148   5.768  66.504  1.00  0.00    -0.144 C  
HETATM    4  C   UNL     1      -7.631   4.374  66.761  1.00  0.00    -0.086 C  
HETATM    5  O   UNL     1      -7.982   2.943  66.926  1.00  0.00    -0.075 OA 
HETATM    6  C   UNL     1      -6.951   5.869  70.910  1.00  0.00    -0.067 C  
HETATM    7  C   UNL     1      -8.286   4.841  65.660  1.00  0.00    -0.118 C  
HETATM    8  C   UNL     1      -7.163   6.337  66.069  1.00  0.00    -0.075 C  
HETATM    9  C   UNL     1      -8.546   4.232  64.317  1.00  0.00    -0.121 C  
HETATM   10  C   UNL     1      -8.013   6.781  70.310  1.00  0.00    -0.115 C  
HETATM   11  C   UNL     1      -7.705   8.350  70.275  1.00  0.00    -0.080 C  
HETATM   12  H   UNL     1      -7.288   2.305  67.043  1.00  0.00     0.000 HD 
HETATM   13  C   UNL     1      -6.958   6.510  67.780  1.00  0.00    -0.082 C  
HETATM   14  C   UNL     1      -8.415   9.338  70.826  1.00  0.00    -0.244 C  
HETATM   15  O   UNL     1      -7.889   8.694  73.087  1.00  0.00    -0.385 OA 
HETATM   16  O   UNL     1      -5.923   5.585  68.148  1.00  0.00    -0.016 OA 
HETATM   17  C   UNL     1      -8.253   6.347  68.826  1.00  0.00    -0.121 C  
HETATM   18  H   UNL     1      -5.812   5.679  69.086  1.00  0.00     0.000 HD 
HETATM   19  C   UNL     1      -9.133   4.881  68.663  1.00  0.00    -0.145 C  
HETATM   20  C   UNL     1     -10.389   4.915  69.537  1.00  0.00    -0.154 C  
HETATM   21  C   UNL     1     -10.080   5.294  70.975  1.00  0.00    -0.221 C  
HETATM   22  F   UNL     1     -11.266   5.351  71.647  1.00  0.00    -0.282 F  
HETATM   23  C   UNL     1      -9.311   6.580  71.129  1.00  0.00    -0.167 C  
HETATM   24  C   UNL     1      -9.671   7.536  72.002  1.00  0.00    -0.195 C  
HETATM   25  C   UNL     1      -8.631   8.567  72.122  1.00  0.00    -0.173 C  
ENDROOT
BRANCH   4  26
HETATM   26  C   UNL     1      -6.093   3.991  65.902  1.00  0.00    -0.031 C  
HETATM   27  O   UNL     1      -5.415   4.814  65.266  1.00  0.00    -0.013 OA 
BRANCH  26  28
HETATM   28  C   UNL     1      -5.538   2.519  65.775  1.00  0.00    -0.017 C  
HETATM   29  O   UNL     1      -5.442   2.081  64.406  1.00  0.00    -0.008 OA 
HETATM   30  H   UNL     1      -5.108   1.195  64.330  1.00  0.00     0.000 HD 
ENDBRANCH  26  28
ENDBRANCH   4  26
TORSDOF 2
ENDMDL
MODEL       95
REMARK 921   NORMALIZED FREE ENERGY PREDICTED BY IDOCK:   -3.23 KCAL/MOL
REMARK 922        TOTAL FREE ENERGY PREDICTED BY IDOCK:   -2.97 KCAL/MOL
REMARK 923 INTER-LIGAND FREE ENERGY PREDICTED BY IDOCK:   -4.14 KCAL/MOL
REMARK 924 INTRA-LIGAND FREE ENERGY PREDICTED BY IDOCK:    1.16 KCAL/MOL
REMARK 927      BINDING AFFINITY PREDICTED BY RF-SCORE:    0.00 PKD
ROOT
HETATM    1  C   UNL     1     -11.396  16.394  67.559  1.00  0.00     0.091 C  
HETATM    2  C   UNL     1     -11.900  15.930  68.798  1.00  0.00    -0.277 C  
HETATM    3  C   UNL     1     -10.432  15.718  68.574  1.00  0.00    -0.236 C  
HETATM    4  C   UNL     1      -9.500  16.802  67.068  1.00  0.00    -0.232 C  
HETATM    5  O   UNL     1     -10.308  17.713  66.222  1.00  0.00    -0.356 OA 
HETATM    6  C   UNL     1      -9.071  13.077  64.646  1.00  0.00     1.511 C  
HETATM    7  C   UNL     1      -9.783  17.080  68.372  1.00  0.00    -0.279 C  
HETATM    8  C   UNL     1      -8.325  15.853  68.576  1.00  0.00    -0.182 C  
HETATM    9  C   UNL     1      -9.997  18.373  69.095  1.00  0.00    -0.206 C  
HETATM   10  C   UNL     1      -9.676  12.641  65.975  1.00  0.00    -0.232 C  
HETATM   11  C   UNL     1      -8.885  11.536  66.818  1.00  0.00    -0.183 C  
HETATM   12  H   UNL     1      -9.881  18.209  65.533  1.00  0.00     0.000 HD 
HETATM   13  C   UNL     1      -8.360  14.638  67.342  1.00  0.00    -0.206 C  
HETATM   14  C   UNL     1      -9.325  10.342  67.222  1.00  0.00    -0.164 C  
HETATM   15  O   UNL     1      -9.410   9.422  64.997  1.00  0.00    -0.251 OA 
HETATM   16  O   UNL     1      -7.748  15.232  66.187  1.00  0.00     0.052 OA 
HETATM   17  C   UNL     1      -9.794  13.899  66.898  1.00  0.00    -0.268 C  
HETATM   18  H   UNL     1      -7.768  14.566  65.510  1.00  0.00     0.000 HD 
HETATM   19  C   UNL     1     -11.054  14.975  66.450  1.00  0.00    -0.329 C  
HETATM   20  C   UNL     1     -12.360  14.207  66.236  1.00  0.00    -0.451 C  
HETATM   21  C   UNL     1     -12.187  13.030  65.291  1.00  0.00    -0.466 C  
HETATM   22  F   UNL     1     -13.388  12.385  65.218  1.00  0.00    -0.012 F  
HETATM   23  C   UNL     1     -11.087  12.078  65.678  1.00  0.00    -0.361 C  
HETATM   24  C   UNL     1     -11.263  10.745  65.710  1.00  0.00     0.285 C  
HETATM   25  C   UNL     1      -9.984  10.043  65.881  1.00  0.00    -0.269 C  
ENDROOT
BRANCH   4  26
HETATM   26  C   UNL     1      -8.043  17.860  66.973  1.00  0.00    -0.221 C  
HETATM   27  O   UNL     1      -7.509  18.235  65.918  1.00  0.00    -0.435 OA 
BRANCH  26  28
HETATM   28  C   UNL     1      -7.232  18.300  68.254  1.00  0.00    -0.259 C  
HETATM   29  O   UNL     1      -6.030  19.022  67.926  1.00  0.00    -0.199 OA 
HETATM   30  H   UNL     1      -5.542  19.287  68.697  1.00  0.00     0.000 HD 
ENDBRANCH  26  28
ENDBRANCH   4  26
TORSDOF 2
ENDMDL
MODEL       96
REMARK 921   NORMALIZED FREE ENERGY PREDICTED BY IDOCK:   -3.02 KCAL/MOL
REMARK 922        TOTAL FREE ENERGY PREDICTED BY IDOCK:   -2.73 KCAL/MOL
REMARK 923 INTER-LIGAND FREE ENERGY PREDICTED BY IDOCK:   -3.39 KCAL/MOL
REMARK 924 INTRA-LIGAND FREE ENERGY PREDICTED BY IDOCK:    0.65 KCAL/MOL
REMARK 927      BINDING AFFINITY PREDICTED BY RF-SCORE:    0.00 PKD
ROOT
HETATM    1  C   UNL     1      -9.422  15.046  66.907  1.00  0.00    -0.252 C  
HETATM    2  C   UNL     1     -10.464  14.928  65.957  1.00  0.00    -0.326 C  
HETATM    3  C   UNL     1     -10.585  16.077  66.915  1.00  0.00    -0.300 C  
HETATM    4  C   UNL     1      -8.897  16.653  67.978  1.00  0.00    -0.206 C  
HETATM    5  O   UNL     1      -7.636  15.891  67.807  1.00  0.00    -0.127 OA 
HETATM    6  C   UNL     1     -10.705  15.044  71.728  1.00  0.00     0.648 C  
HETATM    7  C   UNL     1      -9.365  16.970  66.738  1.00  0.00    -0.268 C  
HETATM    8  C   UNL     1     -10.567  17.974  67.841  1.00  0.00    -0.387 C  
HETATM    9  C   UNL     1      -8.670  17.427  65.493  1.00  0.00     0.894 C  
HETATM   10  C   UNL     1     -11.769  14.880  70.650  1.00  0.00    -0.357 C  
HETATM   11  C   UNL     1     -13.189  15.569  70.905  1.00  0.00    -0.474 C  
HETATM   12  H   UNL     1      -6.864  16.154  68.294  1.00  0.00     0.000 HD 
HETATM   13  C   UNL     1     -10.907  17.130  69.315  1.00  0.00    -0.035 C  
HETATM   14  C   UNL     1     -14.389  14.985  70.951  1.00  0.00    -0.041 C  
HETATM   15  O   UNL     1     -13.937  13.813  73.007  1.00  0.00    -0.478 OA 
HETATM   16  O   UNL     1      -9.806  17.412  70.193  1.00  0.00     0.812 OA 
HETATM   17  C   UNL     1     -11.218  15.486  69.318  1.00  0.00    -0.312 C  
HETATM   18  H   UNL     1      -9.992  16.948  71.001  1.00  0.00     0.000 HD 
HETATM   19  C   UNL     1     -10.016  14.522  68.560  1.00  0.00    -0.238 C  
HETATM   20  C   UNL     1     -10.483  13.068  68.463  1.00  0.00    -0.261 C  
HETATM   21  C   UNL     1     -10.958  12.525  69.800  1.00  0.00     0.327 C  
HETATM   22  F   UNL     1     -11.403  11.252  69.590  1.00  0.00    -0.270 F  
HETATM   23  C   UNL     1     -12.014  13.362  70.471  1.00  0.00    -0.332 C  
HETATM   24  C   UNL     1     -13.138  12.831  70.984  1.00  0.00    -0.062 C  
HETATM   25  C   UNL     1     -13.876  13.817  71.785  1.00  0.00    -0.325 C  
ENDROOT
BRANCH   4  26
HETATM   26  C   UNL     1      -8.026  18.209  68.242  1.00  0.00    -0.295 C  
HETATM   27  O   UNL     1      -8.356  19.297  67.744  1.00  0.00    -0.286 OA 
BRANCH  26  28
HETATM   28  C   UNL     1      -6.666  18.293  69.038  1.00  0.00    -0.261 C  
HETATM   29  O   UNL     1      -6.475  17.176  69.926  1.00  0.00    -0.175 OA 
HETATM   30  H   UNL     1      -5.656  17.227  70.406  1.00  0.00     0.000 HD 
ENDBRANCH  26  28
ENDBRANCH   4  26
TORSDOF 2
ENDMDL
MODEL       97
REMARK 921   NORMALIZED FREE ENERGY PREDICTED BY IDOCK:   -2.98 KCAL/MOL
REMARK 922        TOTAL FREE ENERGY PREDICTED BY IDOCK:   -2.70 KCAL/MOL
REMARK 923 INTER-LIGAND FREE ENERGY PREDICTED BY IDOCK:   -3.87 KCAL/MOL
REMARK 924 INTRA-LIGAND FREE ENERGY PREDICTED BY IDOCK:    1.17 KCAL/MOL
REMARK 927      BINDING AFFINITY PREDICTED BY RF-SCORE:    0.00 PKD
ROOT
HETATM    1  C   UNL     1      -8.746   9.112  63.788  1.00  0.00    -0.150 C  
HETATM    2  C   UNL     1      -7.810   9.630  62.862  1.00  0.00    -0.125 C  
HETATM    3  C   UNL     1      -7.509   9.895  64.308  1.00  0.00    -0.136 C  
HETATM    4  C   UNL     1      -8.494   8.762  65.742  1.00  0.00    -0.148 C  
HETATM    5  O   UNL     1      -9.500   7.762  65.312  1.00  0.00    -0.123 OA 
HETATM    6  C   UNL     1     -10.878  12.340  66.938  1.00  0.00    -0.290 C  
HETATM    7  C   UNL     1      -7.360   8.555  65.013  1.00  0.00    -0.086 C  
HETATM    8  C   UNL     1      -6.742   9.859  66.274  1.00  0.00    -0.090 C  
HETATM    9  C   UNL     1      -6.665   7.302  64.578  1.00  0.00    -0.043 C  
HETATM   10  C   UNL     1      -9.891  12.832  65.887  1.00  0.00    -0.243 C  
HETATM   11  C   UNL     1      -8.908  14.024  66.298  1.00  0.00     0.181 C  
HETATM   12  H   UNL     1      -9.951   7.244  65.968  1.00  0.00     0.000 HD 
HETATM   13  C   UNL     1      -7.995  10.989  66.661  1.00  0.00    -0.156 C  
HETATM   14  C   UNL     1      -8.781  15.219  65.718  1.00  0.00     0.620 C  
HETATM   15  O   UNL     1     -10.952  15.990  66.422  1.00  0.00    -0.218 OA 
HETATM   16  O   UNL     1      -8.806  10.352  67.660  1.00  0.00    -0.125 OA 
HETATM   17  C   UNL     1      -8.979  11.632  65.469  1.00  0.00     0.033 C  
HETATM   18  H   UNL     1      -9.493  10.972  67.872  1.00  0.00     0.000 HD 
HETATM   19  C   UNL     1      -9.765  10.471  64.478  1.00  0.00    -0.375 C  
HETATM   20  C   UNL     1     -10.490  11.163  63.321  1.00  0.00    -0.323 C  
HETATM   21  C   UNL     1     -11.397  12.283  63.799  1.00  0.00    -0.459 C  
HETATM   22  F   UNL     1     -11.945  12.866  62.693  1.00  0.00    -0.269 F  
HETATM   23  C   UNL     1     -10.716  13.308  64.667  1.00  0.00    -0.415 C  
HETATM   24  C   UNL     1     -10.851  14.631  64.464  1.00  0.00    -0.209 C  
HETATM   25  C   UNL     1     -10.287  15.401  65.580  1.00  0.00    -0.387 C  
ENDROOT
BRANCH   4  26
HETATM   26  C   UNL     1      -7.979   7.769  67.155  1.00  0.00    -0.117 C  
HETATM   27  O   UNL     1      -8.753   7.156  67.909  1.00  0.00    -0.126 OA 
BRANCH  26  28
HETATM   28  C   UNL     1      -6.479   7.701  67.641  1.00  0.00    -0.058 C  
HETATM   29  O   UNL     1      -6.362   7.691  69.076  1.00  0.00    -0.034 OA 
HETATM   30  H   UNL     1      -5.459   7.650  69.368  1.00  0.00     0.000 HD 
ENDBRANCH  26  28
ENDBRANCH   4  26
TORSDOF 2
ENDMDL
MODEL       98
REMARK 921   NORMALIZED FREE ENERGY PREDICTED BY IDOCK:   -2.98 KCAL/MOL
REMARK 922        TOTAL FREE ENERGY PREDICTED BY IDOCK:   -2.69 KCAL/MOL
REMARK 923 INTER-LIGAND FREE ENERGY PREDICTED BY IDOCK:   -3.83 KCAL/MOL
REMARK 924 INTRA-LIGAND FREE ENERGY PREDICTED BY IDOCK:    1.14 KCAL/MOL
REMARK 927      BINDING AFFINITY PREDICTED BY RF-SCORE:    0.00 PKD
ROOT
HETATM    1  C   UNL     1      -7.378  10.263  69.807  1.00  0.00    -0.167 C  
HETATM    2  C   UNL     1      -6.031   9.872  69.995  1.00  0.00    -0.049 C  
HETATM    3  C   UNL     1      -6.418  10.215  68.586  1.00  0.00    -0.052 C  
HETATM    4  C   UNL     1      -8.171  11.284  68.280  1.00  0.00    -0.143 C  
HETATM    5  O   UNL     1      -9.019  11.637  69.443  1.00  0.00    -0.196 OA 
HETATM    6  C   UNL     1     -10.087   7.652  66.531  1.00  0.00    -0.205 C  
HETATM    7  C   UNL     1      -6.892  11.660  68.564  1.00  0.00    -0.073 C  
HETATM    8  C   UNL     1      -6.717  11.161  66.723  1.00  0.00    -0.135 C  
HETATM    9  C   UNL     1      -6.333  12.874  69.239  1.00  0.00    -0.108 C  
HETATM   10  C   UNL     1      -8.642   7.263  66.815  1.00  0.00    -0.127 C  
HETATM   11  C   UNL     1      -7.767   6.728  65.588  1.00  0.00    -0.102 C  
HETATM   12  H   UNL     1      -9.821  12.127  69.303  1.00  0.00     0.000 HD 
HETATM   13  C   UNL     1      -7.754   9.827  66.341  1.00  0.00    -0.102 C  
HETATM   14  C   UNL     1      -7.146   5.552  65.474  1.00  0.00    -0.066 C  
HETATM   15  O   UNL     1      -9.190   4.286  65.324  1.00  0.00    -0.136 OA 
HETATM   16  O   UNL     1      -9.052  10.393  66.103  1.00  0.00    -0.154 OA 
HETATM   17  C   UNL     1      -7.895   8.519  67.374  1.00  0.00    -0.098 C  
HETATM   18  H   UNL     1      -9.620   9.662  65.894  1.00  0.00     0.000 HD 
HETATM   19  C   UNL     1      -8.316   8.916  68.991  1.00  0.00    -0.124 C  
HETATM   20  C   UNL     1      -8.244   7.673  69.880  1.00  0.00    -0.130 C  
HETATM   21  C   UNL     1      -9.031   6.508  69.306  1.00  0.00    -0.131 C  
HETATM   22  F   UNL     1      -8.852   5.443  70.141  1.00  0.00    -0.117 F  
HETATM   23  C   UNL     1      -8.667   6.149  67.890  1.00  0.00    -0.113 C  
HETATM   24  C   UNL     1      -8.426   4.884  67.504  1.00  0.00    -0.104 C  
HETATM   25  C   UNL     1      -8.332   4.781  66.042  1.00  0.00    -0.112 C  
ENDROOT
BRANCH   4  26
HETATM   26  C   UNL     1      -8.606  12.792  67.392  1.00  0.00    -0.194 C  
HETATM   27  O   UNL     1      -7.930  13.833  67.393  1.00  0.00    -0.166 OA 
BRANCH  26  28
HETATM   28  C   UNL     1      -9.978  12.959  66.629  1.00  0.00    -0.251 C  
HETATM   29  O   UNL     1      -9.802  13.172  65.216  1.00  0.00    -0.472 OA 
HETATM   30  H   UNL     1     -10.628  13.273  64.757  1.00  0.00     0.000 HD 
ENDBRANCH  26  28
ENDBRANCH   4  26
TORSDOF 2
ENDMDL
MODEL       99
REMARK 921   NORMALIZED FREE ENERGY PREDICTED BY IDOCK:   -2.70 KCAL/MOL
REMARK 922        TOTAL FREE ENERGY PREDICTED BY IDOCK:   -2.38 KCAL/MOL
REMARK 923 INTER-LIGAND FREE ENERGY PREDICTED BY IDOCK:   -3.80 KCAL/MOL
REMARK 924 INTRA-LIGAND FREE ENERGY PREDICTED BY IDOCK:    1.43 KCAL/MOL
REMARK 927      BINDING AFFINITY PREDICTED BY RF-SCORE:    0.00 PKD
ROOT
HETATM    1  C   UNL     1     -12.013  10.111  70.947  1.00  0.00    -0.461 C  
HETATM    2  C   UNL     1     -13.280   9.967  70.335  1.00  0.00     0.131 C  
HETATM    3  C   UNL     1     -12.098   9.851  69.418  1.00  0.00     0.388 C  
HETATM    4  C   UNL     1     -10.229   9.522  70.259  1.00  0.00    -0.260 C  
HETATM    5  O   UNL     1     -10.097   9.460  71.734  1.00  0.00    -0.200 OA 
HETATM    6  C   UNL     1      -9.005  13.676  69.178  1.00  0.00     0.488 C  
HETATM    7  C   UNL     1     -11.242   8.687  69.893  1.00  0.00    -0.045 C  
HETATM    8  C   UNL     1     -10.535   9.163  68.178  1.00  0.00    -0.260 C  
HETATM    9  C   UNL     1     -11.638   7.325  70.373  1.00  0.00    -0.253 C  
HETATM   10  C   UNL     1     -10.400  13.489  68.594  1.00  0.00    -0.220 C  
HETATM   11  C   UNL     1     -10.577  13.713  67.021  1.00  0.00    -0.274 C  
HETATM   12  H   UNL     1      -9.242   9.309  72.119  1.00  0.00     0.000 HD 
HETATM   13  C   UNL     1      -9.972  10.800  68.172  1.00  0.00    -0.160 C  
HETATM   14  C   UNL     1     -11.383  14.578  66.401  1.00  0.00    -0.349 C  
HETATM   15  O   UNL     1     -10.151  16.517  67.126  1.00  0.00    -0.261 OA 
HETATM   16  O   UNL     1      -8.657  10.766  68.747  1.00  0.00    -0.142 OA 
HETATM   17  C   UNL     1     -10.863  12.024  68.886  1.00  0.00    -0.252 C  
HETATM   18  H   UNL     1      -8.348  11.665  68.744  1.00  0.00     0.000 HD 
HETATM   19  C   UNL     1     -11.293  11.742  70.524  1.00  0.00     0.472 C  
HETATM   20  C   UNL     1     -12.248  12.832  71.018  1.00  0.00    -0.202 C  
HETATM   21  C   UNL     1     -11.715  14.229  70.750  1.00  0.00    -0.207 C  
HETATM   22  F   UNL     1     -12.663  15.115  71.173  1.00  0.00    -0.319 F  
HETATM   23  C   UNL     1     -11.339  14.486  69.315  1.00  0.00    -0.317 C  
HETATM   24  C   UNL     1     -11.732  15.588  68.652  1.00  0.00    -0.363 C  
HETATM   25  C   UNL     1     -11.039  15.709  67.363  1.00  0.00    -0.260 C  
ENDROOT
BRANCH   4  26
HETATM   26  C   UNL     1      -8.909   8.322  70.001  1.00  0.00    -0.134 C  
HETATM   27  O   UNL     1      -7.899   8.520  69.306  1.00  0.00    -0.095 OA 
BRANCH  26  28
HETATM   28  C   UNL     1      -8.993   6.841  70.542  1.00  0.00    -0.152 C  
HETATM   29  O   UNL     1      -7.746   6.385  71.098  1.00  0.00    -0.095 OA 
HETATM   30  H   UNL     1      -7.796   5.493  71.424  1.00  0.00     0.000 HD 
ENDBRANCH  26  28
ENDBRANCH   4  26
TORSDOF 2
ENDMDL
MODEL      100
REMARK 921   NORMALIZED FREE ENERGY PREDICTED BY IDOCK:   -2.54 KCAL/MOL
REMARK 922        TOTAL FREE ENERGY PREDICTED BY IDOCK:   -2.20 KCAL/MOL
REMARK 923 INTER-LIGAND FREE ENERGY PREDICTED BY IDOCK:   -2.80 KCAL/MOL
REMARK 924 INTRA-LIGAND FREE ENERGY PREDICTED BY IDOCK:    0.60 KCAL/MOL
REMARK 927      BINDING AFFINITY PREDICTED BY RF-SCORE:    0.00 PKD
ROOT
HETATM    1  C   UNL     1      -9.769   7.257  67.273  1.00  0.00    -0.204 C  
HETATM    2  C   UNL     1      -9.383   7.065  65.925  1.00  0.00     0.067 C  
HETATM    3  C   UNL     1      -8.278   6.977  66.937  1.00  0.00    -0.117 C  
HETATM    4  C   UNL     1      -8.789   6.717  68.933  1.00  0.00    -0.128 C  
HETATM    5  O   UNL     1     -10.221   6.676  69.316  1.00  0.00    -0.169 OA 
HETATM    6  C   UNL     1      -7.490  10.895  69.814  1.00  0.00     0.042 C  
HETATM    7  C   UNL     1      -8.607   5.846  67.900  1.00  0.00    -0.105 C  
HETATM    8  C   UNL     1      -6.793   6.324  68.288  1.00  0.00    -0.071 C  
HETATM    9  C   UNL     1      -9.156   4.478  67.637  1.00  0.00    -0.139 C  
HETATM   10  C   UNL     1      -7.154  10.657  68.347  1.00  0.00    -0.078 C  
HETATM   11  C   UNL     1      -5.633  10.857  67.897  1.00  0.00    -0.039 C  
HETATM   12  H   UNL     1     -10.455   6.558  70.228  1.00  0.00     0.000 HD 
HETATM   13  C   UNL     1      -6.681   7.979  68.787  1.00  0.00    -0.057 C  
HETATM   14  C   UNL     1      -5.155  11.689  66.968  1.00  0.00    -0.103 C  
HETATM   15  O   UNL     1      -5.647  13.674  68.241  1.00  0.00    -0.086 OA 
HETATM   16  O   UNL     1      -7.023   7.994  70.181  1.00  0.00    -0.047 OA 
HETATM   17  C   UNL     1      -7.530   9.181  67.990  1.00  0.00    -0.084 C  
HETATM   18  H   UNL     1      -6.963   8.902  70.455  1.00  0.00     0.000 HD 
HETATM   19  C   UNL     1      -9.219   8.905  67.856  1.00  0.00    -0.148 C  
HETATM   20  C   UNL     1      -9.862   9.969  66.963  1.00  0.00    -0.238 C  
HETATM   21  C   UNL     1      -9.499  11.379  67.395  1.00  0.00    -0.167 C  
HETATM   22  F   UNL     1     -10.072  12.240  66.504  1.00  0.00    -0.209 F  
HETATM   23  C   UNL     1      -8.019  11.632  67.512  1.00  0.00    -0.141 C  
HETATM   24  C   UNL     1      -7.426  12.712  66.975  1.00  0.00     0.030 C  
HETATM   25  C   UNL     1      -6.036  12.841  67.434  1.00  0.00    -0.119 C  
ENDROOT
BRANCH   4  26
HETATM   26  C   UNL     1      -8.316   5.557  70.229  1.00  0.00    -0.110 C  
HETATM   27  O   UNL     1      -7.212   4.997  70.308  1.00  0.00    -0.052 OA 
BRANCH  26  28
HETATM   28  C   UNL     1      -9.336   5.046  71.320  1.00  0.00    -0.149 C  
HETATM   29  O   UNL     1      -9.870   3.745  71.011  1.00  0.00    -0.183 OA 
HETATM   30  H   UNL     1     -10.484   3.438  71.668  1.00  0.00     0.000 HD 
ENDBRANCH  26  28
ENDBRANCH   4  26
TORSDOF 2
ENDMDL
MODEL      101
REMARK 921   NORMALIZED FREE ENERGY PREDICTED BY IDOCK:   -2.38 KCAL/MOL
REMARK 922        TOTAL FREE ENERGY PREDICTED BY IDOCK:   -2.02 KCAL/MOL
REMARK 923 INTER-LIGAND FREE ENERGY PREDICTED BY IDOCK:   -3.46 KCAL/MOL
REMARK 924 INTRA-LIGAND FREE ENERGY PREDICTED BY IDOCK:    1.44 KCAL/MOL
REMARK 927      BINDING AFFINITY PREDICTED BY RF-SCORE:    0.00 PKD
ROOT
HETATM    1  C   UNL     1      -7.134   9.648  68.582  1.00  0.00    -0.072 C  
HETATM    2  C   UNL     1      -5.792   9.349  68.914  1.00  0.00    -0.039 C  
HETATM    3  C   UNL     1      -6.405   8.490  67.846  1.00  0.00    -0.057 C  
HETATM    4  C   UNL     1      -8.141   9.157  66.924  1.00  0.00    -0.112 C  
HETATM    5  O   UNL     1      -8.758  10.429  67.371  1.00  0.00    -0.125 OA 
HETATM    6  C   UNL     1     -10.473   5.965  68.995  1.00  0.00    -0.332 C  
HETATM    7  C   UNL     1      -6.818   9.392  66.693  1.00  0.00    -0.080 C  
HETATM    8  C   UNL     1      -6.986   7.607  66.020  1.00  0.00    -0.065 C  
HETATM    9  C   UNL     1      -6.103  10.545  66.059  1.00  0.00    -0.119 C  
HETATM   10  C   UNL     1      -9.017   5.726  69.374  1.00  0.00    -0.121 C  
HETATM   11  C   UNL     1      -8.391   4.294  69.036  1.00  0.00    -0.088 C  
HETATM   12  H   UNL     1      -9.553  10.734  66.949  1.00  0.00     0.000 HD 
HETATM   13  C   UNL     1      -8.125   6.697  66.954  1.00  0.00    -0.113 C  
HETATM   14  C   UNL     1      -7.845   3.417  69.881  1.00  0.00    -0.050 C  
HETATM   15  O   UNL     1      -9.932   2.896  70.966  1.00  0.00    -0.082 OA 
HETATM   16  O   UNL     1      -9.421   7.050  66.448  1.00  0.00    -0.237 OA 
HETATM   17  C   UNL     1      -8.135   6.780  68.626  1.00  0.00    -0.120 C  
HETATM   18  H   UNL     1     -10.046   6.551  66.961  1.00  0.00     0.000 HD 
HETATM   19  C   UNL     1      -8.252   8.368  69.268  1.00  0.00    -0.116 C  
HETATM   20  C   UNL     1      -8.074   8.341  70.789  1.00  0.00    -0.109 C  
HETATM   21  C   UNL     1      -8.994   7.334  71.457  1.00  0.00    -0.129 C  
HETATM   22  F   UNL     1      -8.715   7.349  72.793  1.00  0.00    -0.130 F  
HETATM   23  C   UNL     1      -8.897   5.938  70.903  1.00  0.00    -0.141 C  
HETATM   24  C   UNL     1      -8.777   4.855  71.690  1.00  0.00    -0.137 C  
HETATM   25  C   UNL     1      -8.943   3.615  70.919  1.00  0.00    -0.094 C  
ENDROOT
BRANCH   4  26
HETATM   26  C   UNL     1      -8.664   9.399  65.216  1.00  0.00    -0.175 C  
HETATM   27  O   UNL     1      -9.633  10.092  64.864  1.00  0.00    -0.273 OA 
BRANCH  26  28
HETATM   28  C   UNL     1      -8.000   8.628  64.009  1.00  0.00    -0.158 C  
HETATM   29  O   UNL     1      -8.457   9.105  62.730  1.00  0.00    -0.187 OA 
HETATM   30  H   UNL     1      -8.057   8.641  62.004  1.00  0.00     0.000 HD 
ENDBRANCH  26  28
ENDBRANCH   4  26
TORSDOF 2
ENDMDL
MODEL      102
REMARK 921   NORMALIZED FREE ENERGY PREDICTED BY IDOCK:   -2.18 KCAL/MOL
REMARK 922        TOTAL FREE ENERGY PREDICTED BY IDOCK:   -1.80 KCAL/MOL
REMARK 923 INTER-LIGAND FREE ENERGY PREDICTED BY IDOCK:   -2.94 KCAL/MOL
REMARK 924 INTRA-LIGAND FREE ENERGY PREDICTED BY IDOCK:    1.14 KCAL/MOL
REMARK 927      BINDING AFFINITY PREDICTED BY RF-SCORE:    0.00 PKD
ROOT
HETATM    1  C   UNL     1      -6.015  15.145  68.628  1.00  0.00    -0.087 C  
HETATM    2  C   UNL     1      -5.177  14.629  67.610  1.00  0.00     0.086 C  
HETATM    3  C   UNL     1      -6.391  15.376  67.138  1.00  0.00     0.219 C  
HETATM    4  C   UNL     1      -7.381  16.601  68.491  1.00  0.00    -0.201 C  
HETATM    5  O   UNL     1      -6.902  16.671  69.892  1.00  0.00    -0.049 OA 
HETATM    6  C   UNL     1     -10.800  13.734  68.593  1.00  0.00    -0.280 C  
HETATM    7  C   UNL     1      -6.309  16.798  67.672  1.00  0.00    -0.172 C  
HETATM    8  C   UNL     1      -7.740  16.820  66.398  1.00  0.00    -0.345 C  
HETATM    9  C   UNL     1      -5.145  17.736  67.756  1.00  0.00    -0.136 C  
HETATM   10  C   UNL     1      -9.830  13.186  67.552  1.00  0.00    -0.216 C  
HETATM   11  C   UNL     1     -10.389  12.959  66.071  1.00  0.00    -0.294 C  
HETATM   12  H   UNL     1      -7.355  17.231  70.510  1.00  0.00     0.000 HD 
HETATM   13  C   UNL     1      -8.994  15.717  66.856  1.00  0.00    -0.240 C  
HETATM   14  C   UNL     1     -10.416  11.822  65.371  1.00  0.00    -0.317 C  
HETATM   15  O   UNL     1     -12.072  10.785  66.781  1.00  0.00     0.742 OA 
HETATM   16  O   UNL     1      -9.795  16.411  67.824  1.00  0.00    -0.233 OA 
HETATM   17  C   UNL     1      -8.633  14.185  67.423  1.00  0.00    -0.219 C  
HETATM   18  H   UNL     1     -10.482  15.806  68.076  1.00  0.00     0.000 HD 
HETATM   19  C   UNL     1      -7.545  14.144  68.750  1.00  0.00    -0.125 C  
HETATM   20  C   UNL     1      -7.150  12.700  69.069  1.00  0.00    -0.028 C  
HETATM   21  C   UNL     1      -8.359  11.795  69.232  1.00  0.00     0.500 C  
HETATM   22  F   UNL     1      -7.896  10.530  69.454  1.00  0.00    -0.119 F  
HETATM   23  C   UNL     1      -9.317  11.822  68.072  1.00  0.00    -0.184 C  
HETATM   24  C   UNL     1      -9.801  10.701  67.509  1.00  0.00    -0.194 C  
HETATM   25  C   UNL     1     -10.887  11.004  66.567  1.00  0.00    -0.209 C  
ENDROOT
BRANCH   4  26
HETATM   26  C   UNL     1      -7.919  18.321  68.494  1.00  0.00    -0.308 C  
HETATM   27  O   UNL     1      -8.729  18.807  69.300  1.00  0.00    -0.041 OA 
BRANCH  26  28
HETATM   28  C   UNL     1      -7.498  19.343  67.367  1.00  0.00    -0.231 C  
HETATM   29  O   UNL     1      -7.395  20.693  67.855  1.00  0.00    -0.260 OA 
HETATM   30  H   UNL     1      -7.141  21.308  67.177  1.00  0.00     0.000 HD 
ENDBRANCH  26  28
ENDBRANCH   4  26
TORSDOF 2
ENDMDL
MODEL      103
REMARK 921   NORMALIZED FREE ENERGY PREDICTED BY IDOCK:   -1.91 KCAL/MOL
REMARK 922        TOTAL FREE ENERGY PREDICTED BY IDOCK:   -1.49 KCAL/MOL
REMARK 923 INTER-LIGAND FREE ENERGY PREDICTED BY IDOCK:   -2.64 KCAL/MOL
REMARK 924 INTRA-LIGAND FREE ENERGY PREDICTED BY IDOCK:    1.15 KCAL/MOL
REMARK 927      BINDING AFFINITY PREDICTED BY RF-SCORE:    0.00 PKD
ROOT
HETATM    1  C   UNL     1      -8.024  12.513  68.953  1.00  0.00     0.165 C  
HETATM    2  C   UNL     1      -6.640  12.753  68.782  1.00  0.00    -0.090 C  
HETATM    3  C   UNL     1      -7.482  12.896  67.548  1.00  0.00    -0.155 C  
HETATM    4  C   UNL     1      -9.537  13.086  67.776  1.00  0.00    -0.208 C  
HETATM    5  O   UNL     1     -10.125  13.026  69.135  1.00  0.00    -0.417 OA 
HETATM    6  C   UNL     1     -10.106   8.988  66.101  1.00  0.00    -0.242 C  
HETATM    7  C   UNL     1      -8.513  13.985  67.802  1.00  0.00    -0.184 C  
HETATM    8  C   UNL     1      -8.619  13.621  65.925  1.00  0.00     1.219 C  
HETATM    9  C   UNL     1      -8.370  15.319  68.468  1.00  0.00    -0.152 C  
HETATM   10  C   UNL     1      -8.613   9.273  66.001  1.00  0.00    -0.158 C  
HETATM   11  C   UNL     1      -7.940   9.183  64.553  1.00  0.00    -0.127 C  
HETATM   12  H   UNL     1     -11.065  13.113  69.239  1.00  0.00     0.000 HD 
HETATM   13  C   UNL     1      -9.051  11.969  65.637  1.00  0.00     0.078 C  
HETATM   14  C   UNL     1      -6.930   8.401  64.166  1.00  0.00    -0.078 C  
HETATM   15  O   UNL     1      -8.206   6.365  64.340  1.00  0.00    -0.106 OA 
HETATM   16  O   UNL     1     -10.480  11.907  65.769  1.00  0.00    -0.240 OA 
HETATM   17  C   UNL     1      -8.354  10.728  66.517  1.00  0.00    -0.146 C  
HETATM   18  H   UNL     1     -10.717  11.000  65.612  1.00  0.00     0.000 HD 
HETATM   19  C   UNL     1      -8.475  10.894  68.221  1.00  0.00    -0.134 C  
HETATM   20  C   UNL     1      -7.657   9.806  68.921  1.00  0.00    -0.081 C  
HETATM   21  C   UNL     1      -7.993   8.415  68.410  1.00  0.00    -0.118 C  
HETATM   22  F   UNL     1      -7.172   7.534  69.053  1.00  0.00    -0.074 F  
HETATM   23  C   UNL     1      -7.887   8.258  66.917  1.00  0.00    -0.096 C  
HETATM   24  C   UNL     1      -7.239   7.229  66.343  1.00  0.00    -0.079 C  
HETATM   25  C   UNL     1      -7.487   7.184  64.895  1.00  0.00    -0.095 C  
ENDROOT
BRANCH   4  26
HETATM   26  C   UNL     1     -10.781  14.252  67.191  1.00  0.00    -0.282 C  
HETATM   27  O   UNL     1     -10.548  15.421  66.846  1.00  0.00    -0.297 OA 
BRANCH  26  28
HETATM   28  C   UNL     1     -12.324  13.916  67.193  1.00  0.00    -0.210 C  
HETATM   29  O   UNL     1     -12.699  13.039  66.114  1.00  0.00    -0.334 OA 
HETATM   30  H   UNL     1     -13.628  12.836  66.115  1.00  0.00     0.000 HD 
ENDBRANCH  26  28
ENDBRANCH   4  26
TORSDOF 2
ENDMDL
MODEL      104
REMARK 921   NORMALIZED FREE ENERGY PREDICTED BY IDOCK:   -1.46 KCAL/MOL
REMARK 922        TOTAL FREE ENERGY PREDICTED BY IDOCK:   -1.00 KCAL/MOL
REMARK 923 INTER-LIGAND FREE ENERGY PREDICTED BY IDOCK:   -3.01 KCAL/MOL
REMARK 924 INTRA-LIGAND FREE ENERGY PREDICTED BY IDOCK:    2.01 KCAL/MOL
REMARK 927      BINDING AFFINITY PREDICTED BY RF-SCORE:    0.00 PKD
ROOT
HETATM    1  C   UNL     1      -8.671   3.336  69.551  1.00  0.00    -0.132 C  
HETATM    2  C   UNL     1      -7.481   2.571  69.546  1.00  0.00    -0.044 C  
HETATM    3  C   UNL     1      -7.296   4.060  69.540  1.00  0.00    -0.053 C  
HETATM    4  C   UNL     1      -8.910   5.254  70.070  1.00  0.00    -0.120 C  
HETATM    5  O   UNL     1     -10.210   4.618  70.390  1.00  0.00    -0.227 OA 
HETATM    6  C   UNL     1      -9.309   6.602  65.834  1.00  0.00     0.040 C  
HETATM    7  C   UNL     1      -7.944   4.623  70.796  1.00  0.00    -0.076 C  
HETATM    8  C   UNL     1      -6.940   6.075  70.054  1.00  0.00    -0.069 C  
HETATM    9  C   UNL     1      -7.921   4.121  72.207  1.00  0.00    -0.086 C  
HETATM   10  C   UNL     1      -8.071   5.714  65.871  1.00  0.00    -0.111 C  
HETATM   11  C   UNL     1      -6.692   6.351  65.374  1.00  0.00    -0.047 C  
HETATM   12  H   UNL     1     -10.948   5.164  70.632  1.00  0.00     0.000 HD 
HETATM   13  C   UNL     1      -7.493   6.461  68.459  1.00  0.00    -0.088 C  
HETATM   14  C   UNL     1      -5.899   5.923  64.389  1.00  0.00    -0.025 C  
HETATM   15  O   UNL     1      -7.461   6.491  62.645  1.00  0.00    -0.059 OA 
HETATM   16  O   UNL     1      -8.647   7.298  68.634  1.00  0.00    -0.128 OA 
HETATM   17  C   UNL     1      -7.839   5.257  67.350  1.00  0.00    -0.100 C  
HETATM   18  H   UNL     1      -8.951   7.509  67.759  1.00  0.00     0.000 HD 
HETATM   19  C   UNL     1      -8.953   4.070  67.895  1.00  0.00    -0.152 C  
HETATM   20  C   UNL     1      -9.058   2.932  66.877  1.00  0.00    -0.181 C  
HETATM   21  C   UNL     1      -9.335   3.440  65.472  1.00  0.00    -0.150 C  
HETATM   22  F   UNL     1      -9.351   2.357  64.642  1.00  0.00    -0.128 F  
HETATM   23  C   UNL     1      -8.362   4.480  64.984  1.00  0.00    -0.124 C  
HETATM   24  C   UNL     1      -7.782   4.413  63.772  1.00  0.00    -0.075 C  
HETATM   25  C   UNL     1      -7.071   5.659  63.453  1.00  0.00    -0.046 C  
ENDROOT
BRANCH   4  26
HETATM   26  C   UNL     1      -9.172   6.592  71.249  1.00  0.00    -0.155 C  
HETATM   27  O   UNL     1     -10.058   6.605  72.119  1.00  0.00    -0.179 OA 
BRANCH  26  28
HETATM   28  C   UNL     1      -8.362   7.945  71.188  1.00  0.00    -0.112 C  
HETATM   29  O   UNL     1      -8.852   8.926  72.122  1.00  0.00    -0.381 OA 
HETATM   30  H   UNL     1      -8.364   9.740  72.085  1.00  0.00     0.000 HD 
ENDBRANCH  26  28
ENDBRANCH   4  26
TORSDOF 2
ENDMDL
MODEL      105
REMARK 921   NORMALIZED FREE ENERGY PREDICTED BY IDOCK:   -1.12 KCAL/MOL
REMARK 922        TOTAL FREE ENERGY PREDICTED BY IDOCK:   -0.61 KCAL/MOL
REMARK 923 INTER-LIGAND FREE ENERGY PREDICTED BY IDOCK:   -1.42 KCAL/MOL
REMARK 924 INTRA-LIGAND FREE ENERGY PREDICTED BY IDOCK:    0.80 KCAL/MOL
REMARK 927      BINDING AFFINITY PREDICTED BY RF-SCORE:    0.00 PKD
ROOT
HETATM    1  C   UNL     1      -9.371  11.530  65.838  1.00  0.00    -0.242 C  
HETATM    2  C   UNL     1     -10.645  10.954  66.059  1.00  0.00    -0.254 C  
HETATM    3  C   UNL     1      -9.808  11.173  67.285  1.00  0.00    -0.198 C  
HETATM    4  C   UNL     1      -8.186  12.463  67.153  1.00  0.00    -0.176 C  
HETATM    5  O   UNL     1      -7.864  13.092  65.850  1.00  0.00     1.202 OA 
HETATM    6  C   UNL     1      -5.395   8.994  67.466  1.00  0.00    -0.034 C  
HETATM    7  C   UNL     1      -9.512  12.661  67.397  1.00  0.00    -0.189 C  
HETATM    8  C   UNL     1      -8.950  11.910  69.067  1.00  0.00     0.296 C  
HETATM    9  C   UNL     1     -10.403  13.845  67.181  1.00  0.00    -0.265 C  
HETATM   10  C   UNL     1      -6.795   8.416  67.633  1.00  0.00    -0.067 C  
HETATM   11  C   UNL     1      -7.100   7.596  68.972  1.00  0.00    -0.078 C  
HETATM   12  H   UNL     1      -7.122  13.682  65.789  1.00  0.00     0.000 HD 
HETATM   13  C   UNL     1      -7.712  10.723  68.828  1.00  0.00    -0.121 C  
HETATM   14  C   UNL     1      -7.510   6.331  69.083  1.00  0.00    -0.094 C  
HETATM   15  O   UNL     1      -5.432   5.401  68.294  1.00  0.00    -0.010 OA 
HETATM   16  O   UNL     1      -6.483  11.456  68.700  1.00  0.00    -0.054 OA 
HETATM   17  C   UNL     1      -7.821   9.596  67.596  1.00  0.00    -0.095 C  
HETATM   18  H   UNL     1      -5.804  10.805  68.568  1.00  0.00     0.000 HD 
HETATM   19  C   UNL     1      -8.065  10.259  66.030  1.00  0.00    -0.139 C  
HETATM   20  C   UNL     1      -8.326   9.143  65.016  1.00  0.00    -0.165 C  
HETATM   21  C   UNL     1      -7.267   8.056  65.069  1.00  0.00    -0.069 C  
HETATM   22  F   UNL     1      -7.625   7.091  64.173  1.00  0.00    -0.082 F  
HETATM   23  C   UNL     1      -7.048   7.467  66.437  1.00  0.00    -0.074 C  
HETATM   24  C   UNL     1      -6.998   6.140  66.652  1.00  0.00    -0.067 C  
HETATM   25  C   UNL     1      -6.540   5.839  68.016  1.00  0.00    -0.052 C  
ENDROOT
BRANCH   4  26
HETATM   26  C   UNL     1      -7.617  13.895  68.087  1.00  0.00    -0.134 C  
HETATM   27  O   UNL     1      -8.122  14.292  69.150  1.00  0.00    -0.059 OA 
BRANCH  26  28
HETATM   28  C   UNL     1      -6.489  14.861  67.553  1.00  0.00    -0.077 C  
HETATM   29  O   UNL     1      -6.857  16.250  67.653  1.00  0.00    -0.118 OA 
HETATM   30  H   UNL     1      -6.178  16.831  67.331  1.00  0.00     0.000 HD 
ENDBRANCH  26  28
ENDBRANCH   4  26
TORSDOF 2
ENDMDL
MODEL      106
REMARK 921   NORMALIZED FREE ENERGY PREDICTED BY IDOCK:   -0.59 KCAL/MOL
REMARK 922        TOTAL FREE ENERGY PREDICTED BY IDOCK:   -0.03 KCAL/MOL
REMARK 923 INTER-LIGAND FREE ENERGY PREDICTED BY IDOCK:   -1.36 KCAL/MOL
REMARK 924 INTRA-LIGAND FREE ENERGY PREDICTED BY IDOCK:    1.33 KCAL/MOL
REMARK 927      BINDING AFFINITY PREDICTED BY RF-SCORE:    0.00 PKD
ROOT
HETATM    1  C   UNL     1      -9.098  11.460  68.679  1.00  0.00    -0.138 C  
HETATM    2  C   UNL     1      -7.983  12.111  69.259  1.00  0.00     0.489 C  
HETATM    3  C   UNL     1      -7.663  10.994  68.309  1.00  0.00    -0.113 C  
HETATM    4  C   UNL     1      -9.157  10.335  67.026  1.00  0.00    -0.139 C  
HETATM    5  O   UNL     1     -10.507  10.942  67.111  1.00  0.00    -0.213 OA 
HETATM    6  C   UNL     1      -9.468   6.528  69.334  1.00  0.00    -0.147 C  
HETATM    7  C   UNL     1      -8.247  11.347  66.949  1.00  0.00    -0.157 C  
HETATM    8  C   UNL     1      -7.120   9.830  66.634  1.00  0.00    -0.086 C  
HETATM    9  C   UNL     1      -8.258  12.648  66.207  1.00  0.00     0.584 C  
HETATM   10  C   UNL     1      -8.315   7.301  69.963  1.00  0.00    -0.137 C  
HETATM   11  C   UNL     1      -6.888   6.584  70.017  1.00  0.00    -0.054 C  
HETATM   12  H   UNL     1     -11.190  10.640  66.524  1.00  0.00     0.000 HD 
HETATM   13  C   UNL     1      -7.650   8.463  67.555  1.00  0.00    -0.098 C  
HETATM   14  C   UNL     1      -6.145   6.314  71.093  1.00  0.00    -0.032 C  
HETATM   15  O   UNL     1      -7.663   4.648  71.943  1.00  0.00    -0.091 OA 
HETATM   16  O   UNL     1      -8.721   7.872  66.803  1.00  0.00    -0.125 OA 
HETATM   17  C   UNL     1      -8.113   8.626  69.155  1.00  0.00    -0.116 C  
HETATM   18  H   UNL     1      -9.011   7.122  67.309  1.00  0.00     0.000 HD 
HETATM   19  C   UNL     1      -9.326   9.807  69.439  1.00  0.00    -0.212 C  
HETATM   20  C   UNL     1      -9.543   9.996  70.943  1.00  0.00     0.624 C  
HETATM   21  C   UNL     1      -9.784   8.678  71.659  1.00  0.00    -0.278 C  
HETATM   22  F   UNL     1      -9.906   8.952  72.990  1.00  0.00    -0.153 F  
HETATM   23  C   UNL     1      -8.724   7.636  71.418  1.00  0.00    -0.132 C  
HETATM   24  C   UNL     1      -8.163   6.932  72.417  1.00  0.00    -0.105 C  
HETATM   25  C   UNL     1      -7.345   5.829  71.897  1.00  0.00    -0.093 C  
ENDROOT
BRANCH   4  26
HETATM   26  C   UNL     1      -9.286  10.078  65.246  1.00  0.00    -0.218 C  
HETATM   27  O   UNL     1     -10.349   9.881  64.635  1.00  0.00     0.063 OA 
BRANCH  26  28
HETATM   28  C   UNL     1      -8.018   9.949  64.315  1.00  0.00    -0.146 C  
HETATM   29  O   UNL     1      -7.868   8.626  63.766  1.00  0.00    -0.132 OA 
HETATM   30  H   UNL     1      -7.104   8.548  63.206  1.00  0.00     0.000 HD 
ENDBRANCH  26  28
ENDBRANCH   4  26
TORSDOF 2
ENDMDL
MODEL      107
REMARK 921   NORMALIZED FREE ENERGY PREDICTED BY IDOCK:   -0.48 KCAL/MOL
REMARK 922        TOTAL FREE ENERGY PREDICTED BY IDOCK:    0.11 KCAL/MOL
REMARK 923 INTER-LIGAND FREE ENERGY PREDICTED BY IDOCK:   -0.58 KCAL/MOL
REMARK 924 INTRA-LIGAND FREE ENERGY PREDICTED BY IDOCK:    0.68 KCAL/MOL
REMARK 927      BINDING AFFINITY PREDICTED BY RF-SCORE:    0.00 PKD
ROOT
HETATM    1  C   UNL     1      -9.586  11.222  68.538  1.00  0.00    -0.199 C  
HETATM    2  C   UNL     1      -9.246  10.636  69.780  1.00  0.00     0.242 C  
HETATM    3  C   UNL     1      -8.090  11.069  68.927  1.00  0.00    -0.135 C  
HETATM    4  C   UNL     1      -8.459  12.388  67.366  1.00  0.00    -0.179 C  
HETATM    5  O   UNL     1      -9.849  12.827  67.100  1.00  0.00    -0.210 OA 
HETATM    6  C   UNL     1      -7.712   9.118  64.421  1.00  0.00    -0.119 C  
HETATM    7  C   UNL     1      -8.209  12.568  68.693  1.00  0.00     0.001 C  
HETATM    8  C   UNL     1      -6.462  12.098  68.063  1.00  0.00    -0.069 C  
HETATM    9  C   UNL     1      -8.574  13.670  69.639  1.00  0.00     1.379 C  
HETATM   10  C   UNL     1      -7.421   8.517  65.791  1.00  0.00    -0.081 C  
HETATM   11  C   UNL     1      -5.967   7.896  66.030  1.00  0.00    -0.038 C  
HETATM   12  H   UNL     1     -10.018  13.430  66.386  1.00  0.00     0.000 HD 
HETATM   13  C   UNL     1      -6.558  10.939  66.780  1.00  0.00    -0.116 C  
HETATM   14  C   UNL     1      -5.657   6.646  66.382  1.00  0.00    -0.018 C  
HETATM   15  O   UNL     1      -6.357   5.691  64.284  1.00  0.00    -0.028 OA 
HETATM   16  O   UNL     1      -6.828  11.692  65.587  1.00  0.00     0.027 OA 
HETATM   17  C   UNL     1      -7.605   9.637  66.868  1.00  0.00    -0.095 C  
HETATM   18  H   UNL     1      -6.880  11.056  64.884  1.00  0.00     0.000 HD 
HETATM   19  C   UNL     1      -9.244  10.047  67.174  1.00  0.00    -0.161 C  
HETATM   20  C   UNL     1     -10.073   8.782  67.409  1.00  0.00    -0.289 C  
HETATM   21  C   UNL     1      -9.888   7.758  66.302  1.00  0.00    -0.041 C  
HETATM   22  F   UNL     1     -10.620   6.657  66.639  1.00  0.00    -0.297 F  
HETATM   23  C   UNL     1      -8.455   7.390  66.029  1.00  0.00    -0.152 C  
HETATM   24  C   UNL     1      -8.046   6.114  65.916  1.00  0.00    -0.121 C  
HETATM   25  C   UNL     1      -6.667   6.038  65.416  1.00  0.00    -0.047 C  
ENDROOT
BRANCH   4  26
HETATM   26  C   UNL     1      -7.764  13.966  66.839  1.00  0.00     0.392 C  
HETATM   27  O   UNL     1      -6.613  14.353  67.098  1.00  0.00    -0.205 OA 
BRANCH  26  28
HETATM   28  C   UNL     1      -8.623  15.065  66.101  1.00  0.00     0.267 C  
HETATM   29  O   UNL     1      -8.137  16.399  66.341  1.00  0.00    -0.288 OA 
HETATM   30  H   UNL     1      -8.655  17.061  65.897  1.00  0.00     0.000 HD 
ENDBRANCH  26  28
ENDBRANCH   4  26
TORSDOF 2
ENDMDL
MODEL      108
REMARK 921   NORMALIZED FREE ENERGY PREDICTED BY IDOCK:    0.58 KCAL/MOL
REMARK 922        TOTAL FREE ENERGY PREDICTED BY IDOCK:    1.29 KCAL/MOL
REMARK 923 INTER-LIGAND FREE ENERGY PREDICTED BY IDOCK:    0.76 KCAL/MOL
REMARK 924 INTRA-LIGAND FREE ENERGY PREDICTED BY IDOCK:    0.53 KCAL/MOL
REMARK 927      BINDING AFFINITY PREDICTED BY RF-SCORE:    0.00 PKD
ROOT
HETATM    1  C   UNL     1      -7.271  16.806  66.584  1.00  0.00    -0.289 C  
HETATM    2  C   UNL     1      -7.847  16.549  65.317  1.00  0.00     3.082 C  
HETATM    3  C   UNL     1      -8.709  17.311  66.280  1.00  0.00    -0.259 C  
HETATM    4  C   UNL     1      -7.803  18.188  67.930  1.00  0.00    -0.244 C  
HETATM    5  O   UNL     1      -6.348  17.999  68.145  1.00  0.00    -0.180 OA 
HETATM    6  C   UNL     1      -9.750  15.188  70.600  1.00  0.00     0.866 C  
HETATM    7  C   UNL     1      -7.986  18.600  66.644  1.00  0.00    -0.280 C  
HETATM    8  C   UNL     1      -9.759  18.804  67.340  1.00  0.00    -0.340 C  
HETATM    9  C   UNL     1      -7.226  19.561  65.783  1.00  0.00    -0.314 C  
HETATM   10  C   UNL     1     -10.289  14.910  69.202  1.00  0.00    -0.246 C  
HETATM   11  C   UNL     1     -11.874  14.956  69.000  1.00  0.00    -0.333 C  
HETATM   12  H   UNL     1      -5.934  18.400  68.900  1.00  0.00     0.000 HD 
HETATM   13  C   UNL     1     -10.115  17.569  68.500  1.00  0.00    -0.363 C  
HETATM   14  C   UNL     1     -12.673  13.984  68.554  1.00  0.00     0.874 C  
HETATM   15  O   UNL     1     -12.376  12.601  70.504  1.00  0.00    -0.337 OA 
HETATM   16  O   UNL     1      -9.537  18.013  69.738  1.00  0.00     0.491 OA 
HETATM   17  C   UNL     1      -9.689  15.975  68.224  1.00  0.00    -0.214 C  
HETATM   18  H   UNL     1      -9.732  17.335  70.374  1.00  0.00     0.000 HD 
HETATM   19  C   UNL     1      -8.032  15.723  67.852  1.00  0.00    -0.147 C  
HETATM   20  C   UNL     1      -7.793  14.267  67.447  1.00  0.00    -0.207 C  
HETATM   21  C   UNL     1      -8.354  13.287  68.463  1.00  0.00    -0.075 C  
HETATM   22  F   UNL     1      -8.140  12.029  67.979  1.00  0.00    -0.120 F  
HETATM   23  C   UNL     1      -9.808  13.497  68.793  1.00  0.00    -0.050 C  
HETATM   24  C   UNL     1     -10.697  12.489  68.813  1.00  0.00    -0.235 C  
HETATM   25  C   UNL     1     -11.977  12.919  69.392  1.00  0.00    -0.269 C  
ENDROOT
BRANCH   4  26
HETATM   26  C   UNL     1      -7.785  19.843  68.645  1.00  0.00    -0.201 C  
HETATM   27  O   UNL     1      -8.794  20.541  68.837  1.00  0.00     0.537 OA 
BRANCH  26  28
HETATM   28  C   UNL     1      -6.445  20.609  68.973  1.00  0.00    -0.101 C  
HETATM   29  O   UNL     1      -5.809  20.124  70.170  1.00  0.00    -0.286 OA 
HETATM   30  H   UNL     1      -5.002  20.585  70.367  1.00  0.00     0.000 HD 
ENDBRANCH  26  28
ENDBRANCH   4  26
TORSDOF 2
ENDMDL
MODEL      109
REMARK 921   NORMALIZED FREE ENERGY PREDICTED BY IDOCK:    0.79 KCAL/MOL
REMARK 922        TOTAL FREE ENERGY PREDICTED BY IDOCK:    1.52 KCAL/MOL
REMARK 923 INTER-LIGAND FREE ENERGY PREDICTED BY IDOCK:    0.02 KCAL/MOL
REMARK 924 INTRA-LIGAND FREE ENERGY PREDICTED BY IDOCK:    1.50 KCAL/MOL
REMARK 927      BINDING AFFINITY PREDICTED BY RF-SCORE:    0.00 PKD
ROOT
HETATM    1  C   UNL     1      -8.754   8.193  67.463  1.00  0.00    -0.129 C  
HETATM    2  C   UNL     1      -7.555   7.481  67.705  1.00  0.00    -0.106 C  
HETATM    3  C   UNL     1      -8.131   8.206  68.887  1.00  0.00    -0.116 C  
HETATM    4  C   UNL     1     -10.110   8.825  68.792  1.00  0.00    -0.198 C  
HETATM    5  O   UNL     1     -10.887   8.586  67.552  1.00  0.00    -0.484 OA 
HETATM    6  C   UNL     1      -8.771  13.073  68.500  1.00  0.00    -0.042 C  
HETATM    7  C   UNL     1      -9.522   7.649  69.151  1.00  0.00    -0.154 C  
HETATM    8  C   UNL     1      -9.115   8.732  70.678  1.00  0.00    -0.221 C  
HETATM    9  C   UNL     1     -10.020   6.237  69.138  1.00  0.00    -0.181 C  
HETATM   10  C   UNL     1      -7.503  12.251  68.696  1.00  0.00    -0.100 C  
HETATM   11  C   UNL     1      -6.577  12.613  69.948  1.00  0.00     0.132 C  
HETATM   12  H   UNL     1     -11.792   8.870  67.509  1.00  0.00     0.000 HD 
HETATM   13  C   UNL     1      -8.835  10.377  70.214  1.00  0.00     0.716 C  
HETATM   14  C   UNL     1      -5.293  12.980  69.939  1.00  0.00    -0.096 C  
HETATM   15  O   UNL     1      -5.725  15.111  68.903  1.00  0.00    -0.092 OA 
HETATM   16  O   UNL     1     -10.134  10.977  70.087  1.00  0.00    -0.122 OA 
HETATM   17  C   UNL     1      -7.912  10.751  68.870  1.00  0.00    -0.143 C  
HETATM   18  H   UNL     1      -9.980  11.879  69.832  1.00  0.00     0.000 HD 
HETATM   19  C   UNL     1      -8.417   9.994  67.414  1.00  0.00    -0.121 C  
HETATM   20  C   UNL     1      -7.406  10.263  66.296  1.00  0.00    -0.118 C  
HETATM   21  C   UNL     1      -7.092  11.741  66.148  1.00  0.00     0.517 C  
HETATM   22  F   UNL     1      -6.145  11.862  65.172  1.00  0.00     1.258 F  
HETATM   23  C   UNL     1      -6.645  12.414  67.418  1.00  0.00    -0.157 C  
HETATM   24  C   UNL     1      -5.562  13.208  67.473  1.00  0.00    -0.036 C  
HETATM   25  C   UNL     1      -5.488  13.920  68.756  1.00  0.00    -0.082 C  
ENDROOT
BRANCH   4  26
HETATM   26  C   UNL     1     -11.559   8.627  69.846  1.00  0.00     0.269 C  
HETATM   27  O   UNL     1     -11.970   7.542  70.287  1.00  0.00    -0.053 OA 
BRANCH  26  28
HETATM   28  C   UNL     1     -12.523   9.828  70.194  1.00  0.00     0.237 C  
HETATM   29  O   UNL     1     -13.170   9.665  71.471  1.00  0.00    -0.360 OA 
HETATM   30  H   UNL     1     -13.749  10.388  71.681  1.00  0.00     0.000 HD 
ENDBRANCH  26  28
ENDBRANCH   4  26
TORSDOF 2
ENDMDL
MODEL      110
REMARK 921   NORMALIZED FREE ENERGY PREDICTED BY IDOCK:    0.84 KCAL/MOL
REMARK 922        TOTAL FREE ENERGY PREDICTED BY IDOCK:    1.57 KCAL/MOL
REMARK 923 INTER-LIGAND FREE ENERGY PREDICTED BY IDOCK:    0.52 KCAL/MOL
REMARK 924 INTRA-LIGAND FREE ENERGY PREDICTED BY IDOCK:    1.06 KCAL/MOL
REMARK 927      BINDING AFFINITY PREDICTED BY RF-SCORE:    0.00 PKD
ROOT
HETATM    1  C   UNL     1      -8.950  15.881  66.126  1.00  0.00    -0.376 C  
HETATM    2  C   UNL     1      -9.454  17.199  66.016  1.00  0.00    -0.167 C  
HETATM    3  C   UNL     1      -8.803  16.859  67.325  1.00  0.00    -0.206 C  
HETATM    4  C   UNL     1      -7.587  15.178  67.412  1.00  0.00    -0.203 C  
HETATM    5  O   UNL     1      -7.431  14.332  66.205  1.00  0.00     0.720 OA 
HETATM    6  C   UNL     1     -10.651  13.082  69.889  1.00  0.00     0.986 C  
HETATM    7  C   UNL     1      -7.358  16.472  67.049  1.00  0.00    -0.245 C  
HETATM    8  C   UNL     1      -7.475  16.652  68.952  1.00  0.00    -0.232 C  
HETATM    9  C   UNL     1      -6.348  17.090  66.133  1.00  0.00     0.121 C  
HETATM   10  C   UNL     1     -11.180  14.497  69.684  1.00  0.00    -0.292 C  
HETATM   11  C   UNL     1     -11.502  15.360  70.991  1.00  0.00    -0.407 C  
HETATM   12  H   UNL     1      -6.874  13.563  66.245  1.00  0.00     0.000 HD 
HETATM   13  C   UNL     1      -8.633  15.544  69.609  1.00  0.00    -0.119 C  
HETATM   14  C   UNL     1     -12.665  15.912  71.343  1.00  0.00    -0.403 C  
HETATM   15  O   UNL     1     -13.744  13.800  71.765  1.00  0.00    -0.370 OA 
HETATM   16  O   UNL     1      -7.951  14.287  69.732  1.00  0.00    -0.285 OA 
HETATM   17  C   UNL     1     -10.116  15.306  68.872  1.00  0.00    -0.225 C  
HETATM   18  H   UNL     1      -8.586  13.680  70.091  1.00  0.00     0.000 HD 
HETATM   19  C   UNL     1     -10.037  14.880  67.211  1.00  0.00    -0.235 C  
HETATM   20  C   UNL     1     -11.440  14.862  66.599  1.00  0.00    -0.297 C  
HETATM   21  C   UNL     1     -12.409  14.018  67.408  1.00  0.00    -0.115 C  
HETATM   22  F   UNL     1     -13.633  14.117  66.812  1.00  0.00     1.290 F  
HETATM   23  C   UNL     1     -12.489  14.386  68.865  1.00  0.00     0.070 C  
HETATM   24  C   UNL     1     -13.659  14.557  69.504  1.00  0.00     2.489 C  
HETATM   25  C   UNL     1     -13.462  14.673  70.955  1.00  0.00    -0.320 C  
ENDROOT
BRANCH   4  26
HETATM   26  C   UNL     1      -5.904  14.851  67.969  1.00  0.00    -0.146 C  
HETATM   27  O   UNL     1      -5.191  15.662  68.582  1.00  0.00    -0.089 OA 
BRANCH  26  28
HETATM   28  C   UNL     1      -5.134  13.523  67.602  1.00  0.00     0.035 C  
HETATM   29  O   UNL     1      -5.962  12.583  66.891  1.00  0.00    -0.465 OA 
HETATM   30  H   UNL     1      -5.498  11.783  66.670  1.00  0.00     0.000 HD 
ENDBRANCH  26  28
ENDBRANCH   4  26
TORSDOF 2
ENDMDL
MODEL      111
REMARK 921   NORMALIZED FREE ENERGY PREDICTED BY IDOCK:    3.05 KCAL/MOL
REMARK 922        TOTAL FREE ENERGY PREDICTED BY IDOCK:    4.05 KCAL/MOL
REMARK 923 INTER-LIGAND FREE ENERGY PREDICTED BY IDOCK:   -2.58 KCAL/MOL
REMARK 924 INTRA-LIGAND FREE ENERGY PREDICTED BY IDOCK:    6.63 KCAL/MOL
REMARK 927      BINDING AFFINITY PREDICTED BY RF-SCORE:    0.00 PKD
ROOT
HETATM    1  C   UNL     1      -8.157   3.776  69.649  1.00  0.00    -0.062 C  
HETATM    2  C   UNL     1      -6.849   3.332  69.342  1.00  0.00    -0.041 C  
HETATM    3  C   UNL     1      -6.942   4.421  70.371  1.00  0.00    -0.041 C  
HETATM    4  C   UNL     1      -8.781   4.773  71.268  1.00  0.00    -0.123 C  
HETATM    5  O   UNL     1      -9.961   3.984  70.840  1.00  0.00    -0.183 OA 
HETATM    6  C   UNL     1      -9.127   8.634  69.056  1.00  0.00    -0.145 C  
HETATM    7  C   UNL     1      -7.769   3.901  71.537  1.00  0.00    -0.061 C  
HETATM    8  C   UNL     1      -7.000   5.542  72.158  1.00  0.00    -0.081 C  
HETATM    9  C   UNL     1      -7.752   2.568  72.219  1.00  0.00    -0.053 C  
HETATM   10  C   UNL     1      -7.752   8.077  68.706  1.00  0.00    -0.108 C  
HETATM   11  C   UNL     1      -6.482   8.996  69.022  1.00  0.00    -0.047 C  
HETATM   12  H   UNL     1     -10.802   4.145  71.250  1.00  0.00     0.000 HD 
HETATM   13  C   UNL     1      -7.503   6.874  71.172  1.00  0.00    -0.082 C  
HETATM   14  C   UNL     1      -5.557   9.439  68.167  1.00  0.00    -0.037 C  
HETATM   15  O   UNL     1      -7.071  10.918  67.017  1.00  0.00    -0.096 OA 
HETATM   16  O   UNL     1      -8.801   7.254  71.656  1.00  0.00    -0.119 OA 
HETATM   17  C   UNL     1      -7.543   6.748  69.504  1.00  0.00    -0.099 C  
HETATM   18  H   UNL     1      -9.076   7.984  71.114  1.00  0.00     0.000 HD 
HETATM   19  C   UNL     1      -8.453   5.423  68.901  1.00  0.00    -0.099 C  
HETATM   20  C   UNL     1      -8.276   5.302  67.385  1.00  0.00    -0.103 C  
HETATM   21  C   UNL     1      -8.543   6.614  66.668  1.00  0.00    -0.123 C  
HETATM   22  F   UNL     1      -8.301   6.409  65.340  1.00  0.00    -0.128 F  
HETATM   23  C   UNL     1      -7.747   7.781  67.187  1.00  0.00    -0.105 C  
HETATM   24  C   UNL     1      -7.081   8.620  66.374  1.00  0.00    -0.079 C  
HETATM   25  C   UNL     1      -6.592   9.796  67.107  1.00  0.00    -0.070 C  
ENDROOT
BRANCH   4  26
HETATM   26  C   UNL     1      -9.367   4.895  72.968  1.00  0.00    -0.129 C  
HETATM   27  O   UNL     1     -10.314   4.244  73.438  1.00  0.00    -0.147 OA 
BRANCH  26  28
HETATM   28  C   UNL     1      -8.797   5.958  73.986  1.00  0.00    -0.123 C  
HETATM   29  O   UNL     1      -8.114   7.042  73.328  1.00  0.00    -0.097 OA 
HETATM   30  H   UNL     1      -7.770   7.681  73.941  1.00  0.00     0.000 HD 
ENDBRANCH  26  28
ENDBRANCH   4  26
TORSDOF 2
ENDMDL
MODEL      112
REMARK 921   NORMALIZED FREE ENERGY PREDICTED BY IDOCK:    4.58 KCAL/MOL
REMARK 922        TOTAL FREE ENERGY PREDICTED BY IDOCK:    5.75 KCAL/MOL
REMARK 923 INTER-LIGAND FREE ENERGY PREDICTED BY IDOCK:    5.31 KCAL/MOL
REMARK 924 INTRA-LIGAND FREE ENERGY PREDICTED BY IDOCK:    0.44 KCAL/MOL
REMARK 927      BINDING AFFINITY PREDICTED BY RF-SCORE:    0.00 PKD
ROOT
HETATM    1  C   UNL     1     -11.862  16.679  69.310  1.00  0.00     0.525 C  
HETATM    2  C   UNL     1     -12.383  16.543  68.001  1.00  0.00     1.650 C  
HETATM    3  C   UNL     1     -12.122  15.259  68.734  1.00  0.00    -0.195 C  
HETATM    4  C   UNL     1     -11.868  15.336  70.793  1.00  0.00    -0.338 C  
HETATM    5  O   UNL     1     -11.900  16.649  71.480  1.00  0.00    -0.621 OA 
HETATM    6  C   UNL     1      -7.530  14.410  70.299  1.00  0.00     0.655 C  
HETATM    7  C   UNL     1     -12.971  15.253  69.996  1.00  0.00    -0.026 C  
HETATM    8  C   UNL     1     -12.286  13.471  69.842  1.00  0.00    -0.287 C  
HETATM    9  C   UNL     1     -14.393  15.671  70.209  1.00  0.00     1.899 C  
HETATM   10  C   UNL     1      -8.131  14.341  68.900  1.00  0.00    -0.063 C  
HETATM   11  C   UNL     1      -7.959  12.973  68.090  1.00  0.00    -0.154 C  
HETATM   12  H   UNL     1     -11.785  16.684  72.422  1.00  0.00     0.000 HD 
HETATM   13  C   UNL     1     -10.555  13.467  69.877  1.00  0.00     0.780 C  
HETATM   14  C   UNL     1      -7.377  12.791  66.903  1.00  0.00     0.235 C  
HETATM   15  O   UNL     1      -5.160  13.264  67.717  1.00  0.00    -0.136 OA 
HETATM   16  O   UNL     1     -10.188  13.530  71.264  1.00  0.00     4.222 OA 
HETATM   17  C   UNL     1      -9.671  14.596  69.013  1.00  0.00    -0.161 C  
HETATM   18  H   UNL     1      -9.238  13.528  71.282  1.00  0.00     0.000 HD 
HETATM   19  C   UNL     1     -10.084  16.232  69.328  1.00  0.00    -0.267 C  
HETATM   20  C   UNL     1      -9.345  17.162  68.363  1.00  0.00    -0.273 C  
HETATM   21  C   UNL     1      -7.850  16.896  68.339  1.00  0.00    -0.229 C  
HETATM   22  F   UNL     1      -7.301  17.733  67.412  1.00  0.00    -0.178 F  
HETATM   23  C   UNL     1      -7.477  15.465  68.061  1.00  0.00    -0.138 C  
HETATM   24  C   UNL     1      -6.544  15.125  67.155  1.00  0.00     0.221 C  
HETATM   25  C   UNL     1      -6.204  13.699  67.249  1.00  0.00     0.353 C  
ENDROOT
BRANCH   4  26
HETATM   26  C   UNL     1     -12.603  14.481  72.200  1.00  0.00    -0.314 C  
HETATM   27  O   UNL     1     -13.135  13.360  72.147  1.00  0.00    -0.390 OA 
BRANCH  26  28
HETATM   28  C   UNL     1     -12.750  15.156  73.619  1.00  0.00    -0.546 C  
HETATM   29  O   UNL     1     -13.667  16.267  73.610  1.00  0.00    -0.911 OA 
HETATM   30  H   UNL     1     -13.755  16.674  74.464  1.00  0.00     0.000 HD 
ENDBRANCH  26  28
ENDBRANCH   4  26
TORSDOF 2
ENDMDL
MODEL      113
REMARK 921   NORMALIZED FREE ENERGY PREDICTED BY IDOCK:    5.22 KCAL/MOL
REMARK 922        TOTAL FREE ENERGY PREDICTED BY IDOCK:    6.46 KCAL/MOL
REMARK 923 INTER-LIGAND FREE ENERGY PREDICTED BY IDOCK:    4.27 KCAL/MOL
REMARK 924 INTRA-LIGAND FREE ENERGY PREDICTED BY IDOCK:    2.19 KCAL/MOL
REMARK 927      BINDING AFFINITY PREDICTED BY RF-SCORE:    0.00 PKD
ROOT
HETATM    1  C   UNL     1     -10.910  12.457  68.168  1.00  0.00    -0.250 C  
HETATM    2  C   UNL     1     -11.440  12.070  66.914  1.00  0.00    -0.402 C  
HETATM    3  C   UNL     1     -11.496  11.029  67.993  1.00  0.00    -0.365 C  
HETATM    4  C   UNL     1     -11.245  11.638  69.962  1.00  0.00     0.029 C  
HETATM    5  O   UNL     1     -10.968  13.065  70.251  1.00  0.00    -0.017 OA 
HETATM    6  C   UNL     1      -7.249   9.653  70.072  1.00  0.00    -0.119 C  
HETATM    7  C   UNL     1     -12.331  11.580  69.140  1.00  0.00    -0.069 C  
HETATM    8  C   UNL     1     -12.089   9.723  69.542  1.00  0.00     0.421 C  
HETATM    9  C   UNL     1     -13.614  12.352  69.121  1.00  0.00     5.018 C  
HETATM   10  C   UNL     1      -7.841   9.320  68.707  1.00  0.00    -0.088 C  
HETATM   11  C   UNL     1      -7.994   7.775  68.327  1.00  0.00    -0.122 C  
HETATM   12  H   UNL     1     -10.853  13.344  71.151  1.00  0.00     0.000 HD 
HETATM   13  C   UNL     1     -10.408   9.338  69.705  1.00  0.00    -0.217 C  
HETATM   14  C   UNL     1      -7.465   7.130  67.284  1.00  0.00    -0.099 C  
HETATM   15  O   UNL     1      -5.204   7.305  68.097  1.00  0.00    -0.021 OA 
HETATM   16  O   UNL     1     -10.046   9.714  71.043  1.00  0.00    -0.268 OA 
HETATM   17  C   UNL     1      -9.276   9.938  68.629  1.00  0.00    -0.139 C  
HETATM   18  H   UNL     1      -9.124   9.503  71.132  1.00  0.00     0.000 HD 
HETATM   19  C   UNL     1      -9.290  11.645  68.443  1.00  0.00    -0.191 C  
HETATM   20  C   UNL     1      -8.345  12.064  67.314  1.00  0.00    -0.176 C  
HETATM   21  C   UNL     1      -6.955  11.472  67.478  1.00  0.00    -0.102 C  
HETATM   22  F   UNL     1      -6.217  11.858  66.397  1.00  0.00    -0.109 F  
HETATM   23  C   UNL     1      -6.932   9.975  67.639  1.00  0.00    -0.085 C  
HETATM   24  C   UNL     1      -6.101   9.186  66.936  1.00  0.00    -0.061 C  
HETATM   25  C   UNL     1      -6.111   7.810  67.450  1.00  0.00    -0.049 C  
ENDROOT
BRANCH   4  26
HETATM   26  C   UNL     1     -12.171  11.415  71.493  1.00  0.00     0.088 C  
HETATM   27  O   UNL     1     -11.945  12.023  72.551  1.00  0.00     2.343 OA 
BRANCH  26  28
HETATM   28  C   UNL     1     -13.286  10.310  71.654  1.00  0.00    -0.353 C  
HETATM   29  O   UNL     1     -12.736   8.997  71.870  1.00  0.00    -0.331 OA 
HETATM   30  H   UNL     1     -13.407   8.331  71.967  1.00  0.00     0.000 HD 
ENDBRANCH  26  28
ENDBRANCH   4  26
TORSDOF 2
ENDMDL
MODEL      114
REMARK 921   NORMALIZED FREE ENERGY PREDICTED BY IDOCK:    5.63 KCAL/MOL
REMARK 922        TOTAL FREE ENERGY PREDICTED BY IDOCK:    6.93 KCAL/MOL
REMARK 923 INTER-LIGAND FREE ENERGY PREDICTED BY IDOCK:    3.47 KCAL/MOL
REMARK 924 INTRA-LIGAND FREE ENERGY PREDICTED BY IDOCK:    3.46 KCAL/MOL
REMARK 927      BINDING AFFINITY PREDICTED BY RF-SCORE:    0.00 PKD
ROOT
HETATM    1  C   UNL     1      -9.798  12.759  66.463  1.00  0.00    -0.258 C  
HETATM    2  C   UNL     1      -9.377  13.371  65.259  1.00  0.00     0.513 C  
HETATM    3  C   UNL     1      -8.280  12.960  66.197  1.00  0.00     1.005 C  
HETATM    4  C   UNL     1      -8.733  11.610  67.708  1.00  0.00    -0.152 C  
HETATM    5  O   UNL     1     -10.126  11.127  67.857  1.00  0.00    -0.170 OA 
HETATM    6  C   UNL     1      -8.321  14.859  70.741  1.00  0.00     2.090 C  
HETATM    7  C   UNL     1      -8.373  11.456  66.403  1.00  0.00    -0.140 C  
HETATM    8  C   UNL     1      -6.697  11.967  67.177  1.00  0.00    -0.142 C  
HETATM    9  C   UNL     1      -8.628  10.357  65.418  1.00  0.00    -0.183 C  
HETATM   10  C   UNL     1      -7.940  15.487  69.405  1.00  0.00    -0.229 C  
HETATM   11  C   UNL     1      -6.491  16.154  69.291  1.00  0.00    -0.182 C  
HETATM   12  H   UNL     1     -10.333  10.510  68.548  1.00  0.00     0.000 HD 
HETATM   13  C   UNL     1      -6.929  13.105  68.461  1.00  0.00    -0.103 C  
HETATM   14  C   UNL     1      -6.192  17.417  68.978  1.00  0.00    -0.209 C  
HETATM   15  O   UNL     1      -7.085  18.322  71.024  1.00  0.00     2.595 OA 
HETATM   16  O   UNL     1      -7.270  12.328  69.619  1.00  0.00    -0.328 OA 
HETATM   17  C   UNL     1      -8.004  14.378  68.304  1.00  0.00    -0.140 C  
HETATM   18  H   UNL     1      -7.398  12.953  70.324  1.00  0.00     0.000 HD 
HETATM   19  C   UNL     1      -9.600  13.925  67.864  1.00  0.00    -0.227 C  
HETATM   20  C   UNL     1     -10.446  15.168  67.577  1.00  0.00    -0.258 C  
HETATM   21  C   UNL     1     -10.380  16.181  68.706  1.00  0.00    -0.248 C  
HETATM   22  F   UNL     1     -11.116  17.266  68.325  1.00  0.00    -0.358 F  
HETATM   23  C   UNL     1      -8.985  16.588  69.098  1.00  0.00    -0.171 C  
HETATM   24  C   UNL     1      -8.625  17.873  69.258  1.00  0.00     0.282 C  
HETATM   25  C   UNL     1      -7.292  17.981  69.868  1.00  0.00     0.892 C  
ENDROOT
BRANCH   4  26
HETATM   26  C   UNL     1      -8.035  10.046  68.271  1.00  0.00    -0.097 C  
HETATM   27  O   UNL     1      -8.066   8.986  67.626  1.00  0.00    -0.108 OA 
BRANCH  26  28
HETATM   28  C   UNL     1      -7.431   9.860  69.717  1.00  0.00    -0.140 C  
HETATM   29  O   UNL     1      -6.240  10.644  69.923  1.00  0.00    -0.069 OA 
HETATM   30  H   UNL     1      -5.876  10.532  70.794  1.00  0.00     0.000 HD 
ENDBRANCH  26  28
ENDBRANCH   4  26
TORSDOF 2
ENDMDL
MODEL      115
REMARK 921   NORMALIZED FREE ENERGY PREDICTED BY IDOCK:    6.85 KCAL/MOL
REMARK 922        TOTAL FREE ENERGY PREDICTED BY IDOCK:    8.29 KCAL/MOL
REMARK 923 INTER-LIGAND FREE ENERGY PREDICTED BY IDOCK:    5.97 KCAL/MOL
REMARK 924 INTRA-LIGAND FREE ENERGY PREDICTED BY IDOCK:    2.32 KCAL/MOL
REMARK 927      BINDING AFFINITY PREDICTED BY RF-SCORE:    0.00 PKD
ROOT
HETATM    1  C   UNL     1      -9.851  13.505  65.716  1.00  0.00    -0.218 C  
HETATM    2  C   UNL     1      -8.842  12.688  65.151  1.00  0.00     1.263 C  
HETATM    3  C   UNL     1      -9.237  12.352  66.559  1.00  0.00    -0.215 C  
HETATM    4  C   UNL     1     -11.026  13.114  67.288  1.00  0.00    -0.268 C  
HETATM    5  O   UNL     1     -11.840  14.006  66.427  1.00  0.00    -0.377 OA 
HETATM    6  C   UNL     1      -8.764  15.871  69.972  1.00  0.00     0.636 C  
HETATM    7  C   UNL     1     -10.718  12.001  66.564  1.00  0.00    -0.293 C  
HETATM    8  C   UNL     1     -10.074  11.491  68.295  1.00  0.00    -0.205 C  
HETATM    9  C   UNL     1     -11.521  11.175  65.608  1.00  0.00     0.288 C  
HETATM   10  C   UNL     1      -7.714  15.007  69.284  1.00  0.00    -0.194 C  
HETATM   11  C   UNL     1      -6.727  14.164  70.217  1.00  0.00     0.082 C  
HETATM   12  H   UNL     1     -12.658  14.354  66.760  1.00  0.00     0.000 HD 
HETATM   13  C   UNL     1      -9.431  12.857  69.144  1.00  0.00     0.632 C  
HETATM   14  C   UNL     1      -5.393  14.217  70.261  1.00  0.00    -0.105 C  
HETATM   15  O   UNL     1      -5.336  16.431  71.209  1.00  0.00    -0.085 OA 
HETATM   16  O   UNL     1     -10.561  13.530  69.720  1.00  0.00    -0.306 OA 
HETATM   17  C   UNL     1      -8.450  13.971  68.372  1.00  0.00    -0.166 C  
HETATM   18  H   UNL     1     -10.208  14.280  70.185  1.00  0.00     0.000 HD 
HETATM   19  C   UNL     1      -9.116  14.652  66.943  1.00  0.00    -0.272 C  
HETATM   20  C   UNL     1      -8.073  15.515  66.229  1.00  0.00     0.258 C  
HETATM   21  C   UNL     1      -7.434  16.532  67.158  1.00  0.00    -0.182 C  
HETATM   22  F   UNL     1      -6.486  17.202  66.441  1.00  0.00    -0.215 F  
HETATM   23  C   UNL     1      -6.844  15.945  68.413  1.00  0.00    -0.116 C  
HETATM   24  C   UNL     1      -5.610  16.256  68.845  1.00  0.00    -0.117 C  
HETATM   25  C   UNL     1      -5.374  15.739  70.200  1.00  0.00    -0.142 C  
ENDROOT
BRANCH   4  26
HETATM   26  C   UNL     1     -12.481  12.409  68.086  1.00  0.00     0.880 C  
HETATM   27  O   UNL     1     -13.619  12.902  68.044  1.00  0.00     4.240 OA 
BRANCH  26  28
HETATM   28  C   UNL     1     -12.399  11.149  69.034  1.00  0.00     0.037 C  
HETATM   29  O   UNL     1     -12.446   9.907  68.307  1.00  0.00     1.131 OA 
HETATM   30  H   UNL     1     -12.397   9.149  68.878  1.00  0.00     0.000 HD 
ENDBRANCH  26  28
ENDBRANCH   4  26
TORSDOF 2
ENDMDL
MODEL      116
REMARK 921   NORMALIZED FREE ENERGY PREDICTED BY IDOCK:    7.51 KCAL/MOL
REMARK 922        TOTAL FREE ENERGY PREDICTED BY IDOCK:    9.03 KCAL/MOL
REMARK 923 INTER-LIGAND FREE ENERGY PREDICTED BY IDOCK:    3.72 KCAL/MOL
REMARK 924 INTRA-LIGAND FREE ENERGY PREDICTED BY IDOCK:    5.31 KCAL/MOL
REMARK 927      BINDING AFFINITY PREDICTED BY RF-SCORE:    0.00 PKD
ROOT
HETATM    1  C   UNL     1      -8.521  17.573  66.962  1.00  0.00    -0.252 C  
HETATM    2  C   UNL     1      -8.862  17.146  65.657  1.00  0.00     0.447 C  
HETATM    3  C   UNL     1     -10.018  17.452  66.564  1.00  0.00    -0.314 C  
HETATM    4  C   UNL     1      -9.655  18.565  68.279  1.00  0.00    -0.343 C  
HETATM    5  O   UNL     1      -8.268  18.984  68.592  1.00  0.00    -0.349 OA 
HETATM    6  C   UNL     1     -10.346  14.937  70.785  1.00  0.00     0.485 C  
HETATM    7  C   UNL     1      -9.915  18.910  66.986  1.00  0.00    -0.389 C  
HETATM    8  C   UNL     1     -11.652  18.342  67.559  1.00  0.00     1.263 C  
HETATM    9  C   UNL     1      -9.569  20.128  66.187  1.00  0.00    -0.440 C  
HETATM   10  C   UNL     1     -10.637  14.512  69.351  1.00  0.00    -0.172 C  
HETATM   11  C   UNL     1     -12.085  13.909  69.041  1.00  0.00    -0.365 C  
HETATM   12  H   UNL     1      -8.102  19.493  69.377  1.00  0.00     0.000 HD 
HETATM   13  C   UNL     1     -11.535  17.030  68.683  1.00  0.00     0.352 C  
HETATM   14  C   UNL     1     -12.382  12.710  68.533  1.00  0.00     0.275 C  
HETATM   15  O   UNL     1     -11.659  11.504  70.489  1.00  0.00    -0.245 OA 
HETATM   16  O   UNL     1     -11.267  17.628  69.961  1.00  0.00     0.464 OA 
HETATM   17  C   UNL     1     -10.473  15.763  68.425  1.00  0.00    -0.245 C  
HETATM   18  H   UNL     1     -11.203  16.908  70.577  1.00  0.00     0.000 HD 
HETATM   19  C   UNL     1      -8.841  16.229  68.167  1.00  0.00    -0.183 C  
HETATM   20  C   UNL     1      -7.998  15.015  67.768  1.00  0.00    -0.155 C  
HETATM   21  C   UNL     1      -8.164  13.856  68.736  1.00  0.00    -0.028 C  
HETATM   22  F   UNL     1      -7.421  12.816  68.259  1.00  0.00    -0.092 F  
HETATM   23  C   UNL     1      -9.592  13.438  68.967  1.00  0.00     0.294 C  
HETATM   24  C   UNL     1      -9.985  12.153  68.918  1.00  0.00     0.025 C  
HETATM   25  C   UNL     1     -11.360  11.997  69.410  1.00  0.00    -0.251 C  
ENDROOT
BRANCH   4  26
HETATM   26  C   UNL     1     -10.365  20.054  69.005  1.00  0.00    -0.083 C  
HETATM   27  O   UNL     1     -10.443  20.279  70.224  1.00  0.00     0.319 OA 
BRANCH  26  28
HETATM   28  C   UNL     1     -11.082  21.161  68.137  1.00  0.00     2.624 C  
HETATM   29  O   UNL     1     -10.428  21.381  66.873  1.00  0.00     1.078 OA 
HETATM   30  H   UNL     1     -10.859  22.047  66.351  1.00  0.00     0.000 HD 
ENDBRANCH  26  28
ENDBRANCH   4  26
TORSDOF 2
ENDMDL
MODEL      117
REMARK 921   NORMALIZED FREE ENERGY PREDICTED BY IDOCK:    8.57 KCAL/MOL
REMARK 922        TOTAL FREE ENERGY PREDICTED BY IDOCK:   10.21 KCAL/MOL
REMARK 923 INTER-LIGAND FREE ENERGY PREDICTED BY IDOCK:    8.09 KCAL/MOL
REMARK 924 INTRA-LIGAND FREE ENERGY PREDICTED BY IDOCK:    2.12 KCAL/MOL
REMARK 927      BINDING AFFINITY PREDICTED BY RF-SCORE:    0.00 PKD
ROOT
HETATM    1  C   UNL     1     -11.308  11.494  67.055  1.00  0.00    -0.340 C  
HETATM    2  C   UNL     1     -12.580  11.481  66.436  1.00  0.00     3.032 C  
HETATM    3  C   UNL     1     -11.428  11.847  65.547  1.00  0.00    -0.311 C  
HETATM    4  C   UNL     1      -9.507  11.394  66.190  1.00  0.00    -0.216 C  
HETATM    5  O   UNL     1      -9.314  10.773  67.522  1.00  0.00    -0.146 OA 
HETATM    6  C   UNL     1      -8.692  15.736  66.826  1.00  0.00    -0.305 C  
HETATM    7  C   UNL     1     -10.456  10.676  65.526  1.00  0.00    -0.246 C  
HETATM    8  C   UNL     1      -9.860  11.850  64.135  1.00  0.00    -0.233 C  
HETATM    9  C   UNL     1     -10.714   9.204  65.432  1.00  0.00     2.338 C  
HETATM   10  C   UNL     1     -10.087  15.661  66.217  1.00  0.00    -0.316 C  
HETATM   11  C   UNL     1     -10.343  16.463  64.858  1.00  0.00     0.215 C  
HETATM   12  H   UNL     1      -8.435  10.566  67.816  1.00  0.00     0.000 HD 
HETATM   13  C   UNL     1      -9.442  13.405  64.773  1.00  0.00     0.695 C  
HETATM   14  C   UNL     1     -11.244  17.421  64.629  1.00  0.00     1.135 C  
HETATM   15  O   UNL     1     -10.159  19.030  66.057  1.00  0.00    -0.424 OA 
HETATM   16  O   UNL     1      -8.108  13.274  65.287  1.00  0.00     2.596 OA 
HETATM   17  C   UNL     1     -10.409  14.161  65.910  1.00  0.00    -0.326 C  
HETATM   18  H   UNL     1      -7.879  14.127  65.637  1.00  0.00     0.000 HD 
HETATM   19  C   UNL     1     -10.749  13.222  67.307  1.00  0.00    -0.262 C  
HETATM   20  C   UNL     1     -11.776  13.935  68.190  1.00  0.00    -0.388 C  
HETATM   21  C   UNL     1     -11.379  15.369  68.491  1.00  0.00    -0.335 C  
HETATM   22  F   UNL     1     -12.383  15.925  69.229  1.00  0.00    -0.353 F  
HETATM   23  C   UNL     1     -11.081  16.202  67.273  1.00  0.00    -0.091 C  
HETATM   24  C   UNL     1     -11.594  17.432  67.096  1.00  0.00     1.252 C  
HETATM   25  C   UNL     1     -10.963  18.114  65.957  1.00  0.00     0.257 C  
ENDROOT
BRANCH   4  26
HETATM   26  C   UNL     1      -8.097  10.522  65.480  1.00  0.00    -0.155 C  
HETATM   27  O   UNL     1      -7.909   9.298  65.562  1.00  0.00    -0.097 OA 
BRANCH  26  28
HETATM   28  C   UNL     1      -6.894  11.277  64.792  1.00  0.00     1.260 C  
HETATM   29  O   UNL     1      -5.672  10.516  64.825  1.00  0.00    -0.148 OA 
HETATM   30  H   UNL     1      -4.948  10.970  64.412  1.00  0.00     0.000 HD 
ENDBRANCH  26  28
ENDBRANCH   4  26
TORSDOF 2
ENDMDL
MODEL      118
REMARK 921   NORMALIZED FREE ENERGY PREDICTED BY IDOCK:    9.94 KCAL/MOL
REMARK 922        TOTAL FREE ENERGY PREDICTED BY IDOCK:   11.74 KCAL/MOL
REMARK 923 INTER-LIGAND FREE ENERGY PREDICTED BY IDOCK:    7.93 KCAL/MOL
REMARK 924 INTRA-LIGAND FREE ENERGY PREDICTED BY IDOCK:    3.80 KCAL/MOL
REMARK 927      BINDING AFFINITY PREDICTED BY RF-SCORE:    0.00 PKD
ROOT
HETATM    1  C   UNL     1      -9.488  12.836  69.418  1.00  0.00     1.143 C  
HETATM    2  C   UNL     1      -8.143  12.802  68.980  1.00  0.00     0.350 C  
HETATM    3  C   UNL     1      -8.956  13.967  68.495  1.00  0.00    -0.141 C  
HETATM    4  C   UNL     1     -10.736  14.399  69.471  1.00  0.00    -0.107 C  
HETATM    5  O   UNL     1     -11.186  13.526  70.582  1.00  0.00    -0.202 OA 
HETATM    6  C   UNL     1     -13.035  12.996  65.913  1.00  0.00     0.512 C  
HETATM    7  C   UNL     1      -9.439  14.745  69.709  1.00  0.00     0.260 C  
HETATM    8  C   UNL     1      -9.837  15.863  68.205  1.00  0.00    -0.217 C  
HETATM    9  C   UNL     1      -8.720  15.125  70.966  1.00  0.00     2.746 C  
HETATM   10  C   UNL     1     -11.566  12.916  65.515  1.00  0.00    -0.395 C  
HETATM   11  C   UNL     1     -11.108  13.733  64.219  1.00  0.00    -0.300 C  
HETATM   12  H   UNL     1     -12.000  13.724  71.029  1.00  0.00     0.000 HD 
HETATM   13  C   UNL     1     -10.916  15.067  67.110  1.00  0.00    -0.329 C  
HETATM   14  C   UNL     1     -10.531  13.259  63.112  1.00  0.00     1.971 C  
HETATM   15  O   UNL     1     -12.497  12.071  62.384  1.00  0.00     1.151 OA 
HETATM   16  O   UNL     1     -12.234  15.258  67.648  1.00  0.00    -0.314 OA 
HETATM   17  C   UNL     1     -10.705  13.457  66.704  1.00  0.00    -0.282 C  
HETATM   18  H   UNL     1     -12.826  14.821  67.047  1.00  0.00     0.000 HD 
HETATM   19  C   UNL     1     -10.609  12.383  68.040  1.00  0.00    -0.238 C  
HETATM   20  C   UNL     1     -10.241  10.975  67.564  1.00  0.00    -0.219 C  
HETATM   21  C   UNL     1     -11.146  10.491  66.445  1.00  0.00     0.169 C  
HETATM   22  F   UNL     1     -10.697   9.261  66.060  1.00  0.00    -0.157 F  
HETATM   23  C   UNL     1     -11.235  11.425  65.268  1.00  0.00    -0.144 C  
HETATM   24  C   UNL     1     -11.103  11.002  63.998  1.00  0.00     0.015 C  
HETATM   25  C   UNL     1     -11.467  12.058  63.044  1.00  0.00     0.025 C  
ENDROOT
BRANCH   4  26
HETATM   26  C   UNL     1     -11.453  15.874  70.221  1.00  0.00    -0.366 C  
HETATM   27  O   UNL     1     -12.636  16.227  70.096  1.00  0.00     0.004 OA 
BRANCH  26  28
HETATM   28  C   UNL     1     -10.584  16.930  71.009  1.00  0.00     1.404 C  
HETATM   29  O   UNL     1      -9.458  17.400  70.244  1.00  0.00     1.594 OA 
HETATM   30  H   UNL     1      -8.935  18.036  70.718  1.00  0.00     0.000 HD 
ENDBRANCH  26  28
ENDBRANCH   4  26
TORSDOF 2
ENDMDL
MODEL      119
REMARK 921   NORMALIZED FREE ENERGY PREDICTED BY IDOCK:   22.08 KCAL/MOL
REMARK 922        TOTAL FREE ENERGY PREDICTED BY IDOCK:   25.30 KCAL/MOL
REMARK 923 INTER-LIGAND FREE ENERGY PREDICTED BY IDOCK:   23.90 KCAL/MOL
REMARK 924 INTRA-LIGAND FREE ENERGY PREDICTED BY IDOCK:    1.40 KCAL/MOL
REMARK 927      BINDING AFFINITY PREDICTED BY RF-SCORE:    0.00 PKD
ROOT
HETATM    1  C   UNL     1      -9.156  16.670  71.020  1.00  0.00     5.029 C  
HETATM    2  C   UNL     1      -9.505  17.607  70.018  1.00  0.00     1.564 C  
HETATM    3  C   UNL     1     -10.395  16.404  70.121  1.00  0.00     0.095 C  
HETATM    4  C   UNL     1     -10.304  15.257  71.849  1.00  0.00     1.623 C  
HETATM    5  O   UNL     1      -9.335  15.619  72.911  1.00  0.00     6.753 OA 
HETATM    6  C   UNL     1      -8.325  11.969  69.570  1.00  0.00     1.153 C  
HETATM    7  C   UNL     1     -11.001  16.380  71.516  1.00  0.00     0.527 C  
HETATM    8  C   UNL     1     -11.967  15.055  70.527  1.00  0.00    -0.358 C  
HETATM    9  C   UNL     1     -11.563  17.491  72.348  1.00  0.00     1.730 C  
HETATM   10  C   UNL     1      -8.664  13.041  68.541  1.00  0.00    -0.042 C  
HETATM   11  C   UNL     1      -9.582  12.612  67.304  1.00  0.00    -0.203 C  
HETATM   12  H   UNL     1      -9.294  15.094  73.701  1.00  0.00     0.000 HD 
HETATM   13  C   UNL     1     -10.904  13.818  69.944  1.00  0.00     0.327 C  
HETATM   14  C   UNL     1      -9.294  12.691  66.003  1.00  0.00    -0.074 C  
HETATM   15  O   UNL     1      -7.604  10.976  66.092  1.00  0.00    -0.145 OA 
HETATM   16  O   UNL     1     -10.714  12.914  71.043  1.00  0.00     2.637 OA 
HETATM   17  C   UNL     1      -9.421  14.200  69.271  1.00  0.00     0.281 C  
HETATM   18  H   UNL     1     -10.130  12.236  70.723  1.00  0.00     0.000 HD 
HETATM   19  C   UNL     1      -8.411  15.180  70.254  1.00  0.00     0.830 C  
HETATM   20  C   UNL     1      -7.167  15.612  69.475  1.00  0.00    -0.198 C  
HETATM   21  C   UNL     1      -6.451  14.435  68.835  1.00  0.00    -0.094 C  
HETATM   22  F   UNL     1      -5.399  14.934  68.123  1.00  0.00    -0.091 F  
HETATM   23  C   UNL     1      -7.328  13.571  67.968  1.00  0.00    -0.133 C  
HETATM   24  C   UNL     1      -6.964  13.183  66.733  1.00  0.00     0.980 C  
HETATM   25  C   UNL     1      -7.879  12.163  66.203  1.00  0.00     0.661 C  
ENDROOT
BRANCH   4  26
HETATM   26  C   UNL     1     -11.514  14.644  73.037  1.00  0.00     0.543 C  
HETATM   27  O   UNL     1     -11.234  14.160  74.145  1.00  0.00     1.530 OA 
BRANCH  26  28
HETATM   28  C   UNL     1     -13.054  14.551  72.705  1.00  0.00    -0.467 C  
HETATM   29  O   UNL     1     -13.480  13.202  72.432  1.00  0.00    -0.558 OA 
HETATM   30  H   UNL     1     -14.407  13.146  72.232  1.00  0.00     0.000 HD 
ENDBRANCH  26  28
ENDBRANCH   4  26
TORSDOF 2
ENDMDL
MODEL      120
REMARK 921   NORMALIZED FREE ENERGY PREDICTED BY IDOCK:   22.42 KCAL/MOL
REMARK 922        TOTAL FREE ENERGY PREDICTED BY IDOCK:   25.67 KCAL/MOL
REMARK 923 INTER-LIGAND FREE ENERGY PREDICTED BY IDOCK:   25.09 KCAL/MOL
REMARK 924 INTRA-LIGAND FREE ENERGY PREDICTED BY IDOCK:    0.58 KCAL/MOL
REMARK 927      BINDING AFFINITY PREDICTED BY RF-SCORE:    0.00 PKD
ROOT
HETATM    1  C   UNL     1      -6.978  15.830  68.334  1.00  0.00    -0.116 C  
HETATM    2  C   UNL     1      -6.004  15.894  69.359  1.00  0.00    -0.137 C  
HETATM    3  C   UNL     1      -7.364  15.426  69.784  1.00  0.00    -0.123 C  
HETATM    4  C   UNL     1      -8.692  14.797  68.316  1.00  0.00    -0.170 C  
HETATM    5  O   UNL     1      -8.288  14.873  66.892  1.00  0.00    -0.237 OA 
HETATM    6  C   UNL     1     -11.176  18.442  68.996  1.00  0.00     1.835 C  
HETATM    7  C   UNL     1      -7.697  14.165  69.000  1.00  0.00    -0.035 C  
HETATM    8  C   UNL     1      -9.043  14.282  70.357  1.00  0.00     2.332 C  
HETATM    9  C   UNL     1      -6.843  12.982  68.659  1.00  0.00    -0.099 C  
HETATM   10  C   UNL     1     -10.066  18.497  70.038  1.00  0.00     1.024 C  
HETATM   11  C   UNL     1     -10.500  18.576  71.575  1.00  0.00     3.294 C  
HETATM   12  H   UNL     1      -8.896  14.586  66.221  1.00  0.00     0.000 HD 
HETATM   13  C   UNL     1      -9.951  15.749  70.204  1.00  0.00     0.015 C  
HETATM   14  C   UNL     1     -10.191  19.520  72.467  1.00  0.00     3.481 C  
HETATM   15  O   UNL     1     -11.527  21.217  71.399  1.00  0.00     7.797 OA 
HETATM   16  O   UNL     1     -10.939  15.497  69.193  1.00  0.00    -0.231 OA 
HETATM   17  C   UNL     1      -9.192  17.207  69.893  1.00  0.00     1.272 C  
HETATM   18  H   UNL     1     -11.436  16.302  69.108  1.00  0.00     0.000 HD 
HETATM   19  C   UNL     1      -8.171  17.210  68.513  1.00  0.00    -0.261 C  
HETATM   20  C   UNL     1      -7.397  18.528  68.427  1.00  0.00    -0.301 C  
HETATM   21  C   UNL     1      -8.309  19.738  68.523  1.00  0.00    -0.229 C  
HETATM   22  F   UNL     1      -7.518  20.850  68.494  1.00  0.00    -0.003 F  
HETATM   23  C   UNL     1      -9.206  19.747  69.732  1.00  0.00     0.516 C  
HETATM   24  C   UNL     1      -9.343  20.826  70.522  1.00  0.00     2.115 C  
HETATM   25  C   UNL     1     -10.446  20.650  71.477  1.00  0.00     4.297 C  
ENDROOT
BRANCH   4  26
HETATM   26  C   UNL     1      -9.689  13.319  68.048  1.00  0.00    -0.223 C  
HETATM   27  O   UNL     1     -10.007  12.511  68.935  1.00  0.00    -0.070 OA 
BRANCH  26  28
HETATM   28  C   UNL     1     -10.141  12.853  66.610  1.00  0.00    -0.245 C  
HETATM   29  O   UNL     1      -9.027  12.649  65.720  1.00  0.00    -0.410 OA 
HETATM   30  H   UNL     1      -9.299  12.368  64.854  1.00  0.00     0.000 HD 
ENDBRANCH  26  28
ENDBRANCH   4  26
TORSDOF 2
ENDMDL
MODEL      121
REMARK 921   NORMALIZED FREE ENERGY PREDICTED BY IDOCK:   22.49 KCAL/MOL
REMARK 922        TOTAL FREE ENERGY PREDICTED BY IDOCK:   25.75 KCAL/MOL
REMARK 923 INTER-LIGAND FREE ENERGY PREDICTED BY IDOCK:   21.99 KCAL/MOL
REMARK 924 INTRA-LIGAND FREE ENERGY PREDICTED BY IDOCK:    3.76 KCAL/MOL
REMARK 927      BINDING AFFINITY PREDICTED BY RF-SCORE:    0.00 PKD
ROOT
HETATM    1  C   UNL     1      -9.394  13.860  70.303  1.00  0.00     2.780 C  
HETATM    2  C   UNL     1      -8.554  14.684  69.516  1.00  0.00     0.198 C  
HETATM    3  C   UNL     1     -10.027  14.835  69.272  1.00  0.00    -0.146 C  
HETATM    4  C   UNL     1     -11.342  14.091  70.696  1.00  0.00     0.212 C  
HETATM    5  O   UNL     1     -10.803  13.390  71.886  1.00  0.00     3.826 OA 
HETATM    6  C   UNL     1     -12.542  10.831  67.894  1.00  0.00     2.971 C  
HETATM    7  C   UNL     1     -10.680  15.276  70.573  1.00  0.00    -0.247 C  
HETATM    8  C   UNL     1     -12.035  15.484  69.235  1.00  0.00    -0.338 C  
HETATM    9  C   UNL     1     -10.235  16.284  71.588  1.00  0.00     2.863 C  
HETATM   10  C   UNL     1     -11.580  11.717  67.112  1.00  0.00    -0.291 C  
HETATM   11  C   UNL     1     -12.107  12.349  65.742  1.00  0.00    -0.381 C  
HETATM   12  H   UNL     1     -11.404  13.050  72.537  1.00  0.00     0.000 HD 
HETATM   13  C   UNL     1     -12.391  13.970  68.474  1.00  0.00     0.007 C  
HETATM   14  C   UNL     1     -11.591  12.204  64.519  1.00  0.00    -0.403 C  
HETATM   15  O   UNL     1     -12.187   9.876  64.350  1.00  0.00     6.621 OA 
HETATM   16  O   UNL     1     -13.306  13.294  69.350  1.00  0.00     1.302 OA 
HETATM   17  C   UNL     1     -11.169  12.920  68.023  1.00  0.00    -0.305 C  
HETATM   18  H   UNL     1     -13.501  12.463  68.932  1.00  0.00     0.000 HD 
HETATM   19  C   UNL     1     -10.077  12.501  69.281  1.00  0.00     0.458 C  
HETATM   20  C   UNL     1      -8.908  11.687  68.721  1.00  0.00    -0.017 C  
HETATM   21  C   UNL     1      -9.377  10.505  67.889  1.00  0.00    -0.143 C  
HETATM   22  F   UNL     1      -8.265   9.888  67.394  1.00  0.00    -0.114 F  
HETATM   23  C   UNL     1     -10.332  10.863  66.782  1.00  0.00    -0.289 C  
HETATM   24  C   UNL     1     -10.180  10.413  65.524  1.00  0.00    -0.316 C  
HETATM   25  C   UNL     1     -11.364  10.709  64.706  1.00  0.00     1.080 C  
ENDROOT
BRANCH   4  26
HETATM   26  C   UNL     1     -12.740  14.764  71.615  1.00  0.00    -0.330 C  
HETATM   27  O   UNL     1     -13.739  14.113  71.959  1.00  0.00    -0.384 OA 
BRANCH  26  28
HETATM   28  C   UNL     1     -12.871  16.301  71.951  1.00  0.00     0.222 C  
HETATM   29  O   UNL     1     -12.670  17.138  70.796  1.00  0.00     3.150 OA 
HETATM   30  H   UNL     1     -12.749  18.063  70.999  1.00  0.00     0.000 HD 
ENDBRANCH  26  28
ENDBRANCH   4  26
TORSDOF 2
ENDMDL
MODEL      122
REMARK 921   NORMALIZED FREE ENERGY PREDICTED BY IDOCK:   29.54 KCAL/MOL
REMARK 922        TOTAL FREE ENERGY PREDICTED BY IDOCK:   33.63 KCAL/MOL
REMARK 923 INTER-LIGAND FREE ENERGY PREDICTED BY IDOCK:   31.19 KCAL/MOL
REMARK 924 INTRA-LIGAND FREE ENERGY PREDICTED BY IDOCK:    2.44 KCAL/MOL
REMARK 927      BINDING AFFINITY PREDICTED BY RF-SCORE:    0.00 PKD
ROOT
HETATM    1  C   UNL     1     -10.127  13.668  70.754  1.00  0.00     4.089 C  
HETATM    2  C   UNL     1     -10.543  13.905  72.085  1.00  0.00     5.343 C  
HETATM    3  C   UNL     1     -11.519  14.305  71.018  1.00  0.00     0.053 C  
HETATM    4  C   UNL     1     -11.255  13.540  69.106  1.00  0.00    -0.260 C  
HETATM    5  O   UNL     1     -10.091  12.666  68.828  1.00  0.00    -0.386 OA 
HETATM    6  C   UNL     1     -10.023  17.578  67.656  1.00  0.00    -0.309 C  
HETATM    7  C   UNL     1     -11.882  13.063  70.218  1.00  0.00    -0.294 C  
HETATM    8  C   UNL     1     -13.128  14.404  69.655  1.00  0.00     0.739 C  
HETATM    9  C   UNL     1     -12.183  11.669  70.676  1.00  0.00    -0.461 C  
HETATM   10  C   UNL     1     -10.421  17.765  69.115  1.00  0.00    -0.069 C  
HETATM   11  C   UNL     1     -11.572  18.828  69.435  1.00  0.00     4.686 C  
HETATM   12  H   UNL     1      -9.970  12.316  67.954  1.00  0.00     0.000 HD 
HETATM   13  C   UNL     1     -12.306  15.761  68.960  1.00  0.00     0.146 C  
HETATM   14  C   UNL     1     -11.499  19.902  70.224  1.00  0.00     5.144 C  
HETATM   15  O   UNL     1      -9.998  21.094  68.765  1.00  0.00     0.718 OA 
HETATM   16  O   UNL     1     -12.025  15.396  67.600  1.00  0.00    -0.308 OA 
HETATM   17  C   UNL     1     -10.926  16.390  69.667  1.00  0.00    -0.329 C  
HETATM   18  H   UNL     1     -11.574  16.141  67.219  1.00  0.00     0.000 HD 
HETATM   19  C   UNL     1      -9.673  15.250  69.946  1.00  0.00    -0.108 C  
HETATM   20  C   UNL     1      -8.540  15.892  70.750  1.00  0.00     2.815 C  
HETATM   21  C   UNL     1      -8.063  17.195  70.133  1.00  0.00     2.311 C  
HETATM   22  F   UNL     1      -7.100  17.708  70.954  1.00  0.00     1.877 F  
HETATM   23  C   UNL     1      -9.153  18.203  69.887  1.00  0.00     1.482 C  
HETATM   24  C   UNL     1      -9.042  19.492  70.253  1.00  0.00     1.315 C  
HETATM   25  C   UNL     1     -10.130  20.302  69.689  1.00  0.00     0.268 C  
ENDROOT
BRANCH   4  26
HETATM   26  C   UNL     1     -12.304  12.671  67.925  1.00  0.00     0.403 C  
HETATM   27  O   UNL     1     -13.263  13.179  67.324  1.00  0.00     1.574 OA 
BRANCH  26  28
HETATM   28  C   UNL     1     -12.166  11.123  67.651  1.00  0.00     0.979 C  
HETATM   29  O   UNL     1     -12.632  10.323  68.754  1.00  0.00    -0.235 OA 
HETATM   30  H   UNL     1     -12.550   9.390  68.589  1.00  0.00     0.000 HD 
ENDBRANCH  26  28
ENDBRANCH   4  26
TORSDOF 2
ENDMDL
MODEL      123
REMARK 921   NORMALIZED FREE ENERGY PREDICTED BY IDOCK:   30.06 KCAL/MOL
REMARK 922        TOTAL FREE ENERGY PREDICTED BY IDOCK:   34.21 KCAL/MOL
REMARK 923 INTER-LIGAND FREE ENERGY PREDICTED BY IDOCK:   33.04 KCAL/MOL
REMARK 924 INTRA-LIGAND FREE ENERGY PREDICTED BY IDOCK:    1.17 KCAL/MOL
REMARK 927      BINDING AFFINITY PREDICTED BY RF-SCORE:    0.00 PKD
ROOT
HETATM    1  C   UNL     1      -9.952  16.140  68.665  1.00  0.00    -0.228 C  
HETATM    2  C   UNL     1     -11.166  16.475  69.311  1.00  0.00    -0.213 C  
HETATM    3  C   UNL     1     -11.301  15.908  67.928  1.00  0.00    -0.252 C  
HETATM    4  C   UNL     1      -9.673  14.912  67.110  1.00  0.00    -0.228 C  
HETATM    5  O   UNL     1      -8.410  14.828  67.882  1.00  0.00    -0.136 OA 
HETATM    6  C   UNL     1      -9.042  18.281  64.251  1.00  0.00     8.975 C  
HETATM    7  C   UNL     1     -10.690  14.515  67.926  1.00  0.00    -0.245 C  
HETATM    8  C   UNL     1     -11.612  14.662  66.253  1.00  0.00    -0.344 C  
HETATM    9  C   UNL     1     -10.792  13.410  68.931  1.00  0.00    -0.253 C  
HETATM   10  C   UNL     1     -10.310  18.625  65.024  1.00  0.00     1.605 C  
HETATM   11  C   UNL     1     -11.644  18.874  64.180  1.00  0.00     7.119 C  
HETATM   12  H   UNL     1      -7.666  14.372  67.507  1.00  0.00     0.000 HD 
HETATM   13  C   UNL     1     -10.976  15.967  65.308  1.00  0.00    -0.299 C  
HETATM   14  C   UNL     1     -12.407  19.970  64.155  1.00  0.00     9.101 C  
HETATM   15  O   UNL     1     -10.751  21.313  63.033  1.00  0.00     4.624 OA 
HETATM   16  O   UNL     1      -9.804  15.449  64.660  1.00  0.00    -0.236 OA 
HETATM   17  C   UNL     1     -10.622  17.447  66.005  1.00  0.00    -0.210 C  
HETATM   18  H   UNL     1      -9.455  16.165  64.142  1.00  0.00     0.000 HD 
HETATM   19  C   UNL     1      -9.574  17.374  67.362  1.00  0.00    -0.257 C  
HETATM   20  C   UNL     1      -9.462  18.750  68.023  1.00  0.00    -0.349 C  
HETATM   21  C   UNL     1      -9.106  19.839  67.025  1.00  0.00    -0.340 C  
HETATM   22  F   UNL     1      -9.090  21.024  67.703  1.00  0.00    -0.374 F  
HETATM   23  C   UNL     1     -10.022  19.914  65.833  1.00  0.00    -0.489 C  
HETATM   24  C   UNL     1     -10.550  21.071  65.398  1.00  0.00     2.023 C  
HETATM   25  C   UNL     1     -11.203  20.903  64.093  1.00  0.00     3.303 C  
ENDROOT
BRANCH   4  26
HETATM   26  C   UNL     1      -9.419  13.299  66.346  1.00  0.00    -0.217 C  
HETATM   27  O   UNL     1      -8.598  13.065  65.445  1.00  0.00     1.341 OA 
BRANCH  26  28
HETATM   28  C   UNL     1     -10.330  12.053  66.675  1.00  0.00    -0.208 C  
HETATM   29  O   UNL     1      -9.597  10.814  66.665  1.00  0.00    -0.172 OA 
HETATM   30  H   UNL     1     -10.145  10.064  66.864  1.00  0.00     0.000 HD 
ENDBRANCH  26  28
ENDBRANCH   4  26
TORSDOF 2
ENDMDL
MODEL      124
REMARK 921   NORMALIZED FREE ENERGY PREDICTED BY IDOCK:   31.04 KCAL/MOL
REMARK 922        TOTAL FREE ENERGY PREDICTED BY IDOCK:   35.30 KCAL/MOL
REMARK 923 INTER-LIGAND FREE ENERGY PREDICTED BY IDOCK:   33.99 KCAL/MOL
REMARK 924 INTRA-LIGAND FREE ENERGY PREDICTED BY IDOCK:    1.31 KCAL/MOL
REMARK 927      BINDING AFFINITY PREDICTED BY RF-SCORE:    0.00 PKD
ROOT
HETATM    1  C   UNL     1      -8.047  14.123  69.740  1.00  0.00     0.764 C  
HETATM    2  C   UNL     1      -6.740  14.404  69.275  1.00  0.00    -0.126 C  
HETATM    3  C   UNL     1      -7.356  13.137  68.757  1.00  0.00    -0.068 C  
HETATM    4  C   UNL     1      -9.410  12.895  68.941  1.00  0.00     0.290 C  
HETATM    5  O   UNL     1     -10.207  13.946  69.618  1.00  0.00    -0.329 OA 
HETATM    6  C   UNL     1      -8.768   9.763  72.055  1.00  0.00     2.666 C  
HETATM    7  C   UNL     1      -8.627  13.502  68.005  1.00  0.00    -0.177 C  
HETATM    8  C   UNL     1      -8.311  11.658  67.593  1.00  0.00    -0.142 C  
HETATM    9  C   UNL     1      -8.898  14.619  67.045  1.00  0.00    -0.262 C  
HETATM   10  C   UNL     1      -7.378  10.151  71.564  1.00  0.00     1.805 C  
HETATM   11  C   UNL     1      -6.452   8.988  70.978  1.00  0.00    -0.068 C  
HETATM   12  H   UNL     1     -11.147  13.835  69.702  1.00  0.00     0.000 HD 
HETATM   13  C   UNL     1      -8.316  10.693  69.031  1.00  0.00    -0.152 C  
HETATM   14  C   UNL     1      -5.244   8.609  71.401  1.00  0.00    -0.034 C  
HETATM   15  O   UNL     1      -6.059   7.708  73.481  1.00  0.00    -0.058 OA 
HETATM   16  O   UNL     1      -9.697  10.430  69.324  1.00  0.00    -0.206 OA 
HETATM   17  C   UNL     1      -7.538  11.207  70.420  1.00  0.00     1.712 C  
HETATM   18  H   UNL     1      -9.700   9.901  70.113  1.00  0.00     0.000 HD 
HETATM   19  C   UNL     1      -7.998  12.766  70.971  1.00  0.00     7.959 C  
HETATM   20  C   UNL     1      -7.104  13.205  72.134  1.00  0.00     6.494 C  
HETATM   21  C   UNL     1      -7.034  12.158  73.232  1.00  0.00     9.345 C  
HETATM   22  F   UNL     1      -6.172  12.621  74.183  1.00  0.00     1.062 F  
HETATM   23  C   UNL     1      -6.628  10.787  72.759  1.00  0.00     3.904 C  
HETATM   24  C   UNL     1      -5.680  10.061  73.378  1.00  0.00     0.571 C  
HETATM   25  C   UNL     1      -5.647   8.683  72.869  1.00  0.00    -0.073 C  
ENDROOT
BRANCH   4  26
HETATM   26  C   UNL     1     -10.750  12.481  67.809  1.00  0.00    -0.219 C  
HETATM   27  O   UNL     1     -11.110  11.326  67.531  1.00  0.00    -0.249 OA 
BRANCH  26  28
HETATM   28  C   UNL     1     -11.508  13.574  66.958  1.00  0.00    -0.340 C  
HETATM   29  O   UNL     1     -12.828  13.850  67.464  1.00  0.00    -0.087 OA 
HETATM   30  H   UNL     1     -13.285  14.507  66.952  1.00  0.00     0.000 HD 
ENDBRANCH  26  28
ENDBRANCH   4  26
TORSDOF 2
ENDMDL
MODEL      125
REMARK 921   NORMALIZED FREE ENERGY PREDICTED BY IDOCK:   34.05 KCAL/MOL
REMARK 922        TOTAL FREE ENERGY PREDICTED BY IDOCK:   38.67 KCAL/MOL
REMARK 923 INTER-LIGAND FREE ENERGY PREDICTED BY IDOCK:   37.90 KCAL/MOL
REMARK 924 INTRA-LIGAND FREE ENERGY PREDICTED BY IDOCK:    0.77 KCAL/MOL
REMARK 927      BINDING AFFINITY PREDICTED BY RF-SCORE:    0.00 PKD
ROOT
HETATM    1  C   UNL     1     -10.397  19.685  66.027  1.00  0.00    -0.620 C  
HETATM    2  C   UNL     1     -11.053  20.898  66.346  1.00  0.00     2.523 C  
HETATM    3  C   UNL     1      -9.707  20.701  66.980  1.00  0.00    -0.485 C  
HETATM    4  C   UNL     1      -8.452  19.248  66.191  1.00  0.00    -0.269 C  
HETATM    5  O   UNL     1      -8.927  18.412  65.063  1.00  0.00     1.586 OA 
HETATM    6  C   UNL     1      -9.074  16.729  69.822  1.00  0.00     0.794 C  
HETATM    7  C   UNL     1      -8.678  20.553  65.869  1.00  0.00     0.235 C  
HETATM    8  C   UNL     1      -7.657  20.754  67.477  1.00  0.00    -0.312 C  
HETATM    9  C   UNL     1      -8.522  21.309  64.586  1.00  0.00     2.725 C  
HETATM   10  C   UNL     1      -9.821  18.031  70.087  1.00  0.00     1.438 C  
HETATM   11  C   UNL     1      -9.418  18.858  71.395  1.00  0.00     4.924 C  
HETATM   12  H   UNL     1      -8.353  17.747  64.702  1.00  0.00     0.000 HD 
HETATM   13  C   UNL     1      -8.014  19.485  68.601  1.00  0.00    -0.346 C  
HETATM   14  C   UNL     1     -10.204  19.218  72.412  1.00  0.00     3.614 C  
HETATM   15  O   UNL     1     -10.491  16.966  73.218  1.00  0.00     4.419 OA 
HETATM   16  O   UNL     1      -7.219  18.361  68.191  1.00  0.00    -0.246 OA 
HETATM   17  C   UNL     1      -9.588  18.987  68.871  1.00  0.00    -0.417 C  
HETATM   18  H   UNL     1      -7.415  17.665  68.807  1.00  0.00     0.000 HD 
HETATM   19  C   UNL     1     -10.458  18.543  67.459  1.00  0.00    -0.453 C  
HETATM   20  C   UNL     1     -11.926  18.278  67.801  1.00  0.00     2.667 C  
HETATM   21  C   UNL     1     -12.082  17.303  68.955  1.00  0.00     2.678 C  
HETATM   22  F   UNL     1     -13.417  17.184  69.212  1.00  0.00     4.132 F  
HETATM   23  C   UNL     1     -11.325  17.686  70.199  1.00  0.00     2.255 C  
HETATM   24  C   UNL     1     -11.890  17.675  71.419  1.00  0.00     4.043 C  
HETATM   25  C   UNL     1     -10.882  17.855  72.474  1.00  0.00     3.191 C  
ENDROOT
BRANCH   4  26
HETATM   26  C   UNL     1      -6.745  19.217  65.611  1.00  0.00    -0.279 C  
HETATM   27  O   UNL     1      -5.986  20.199  65.594  1.00  0.00    -0.178 OA 
BRANCH  26  28
HETATM   28  C   UNL     1      -6.101  17.941  64.941  1.00  0.00     0.573 C  
HETATM   29  O   UNL     1      -5.286  17.186  65.857  1.00  0.00    -0.295 OA 
HETATM   30  H   UNL     1      -4.899  16.418  65.454  1.00  0.00     0.000 HD 
ENDBRANCH  26  28
ENDBRANCH   4  26
TORSDOF 2
ENDMDL
MODEL      126
REMARK 921   NORMALIZED FREE ENERGY PREDICTED BY IDOCK:   36.93 KCAL/MOL
REMARK 922        TOTAL FREE ENERGY PREDICTED BY IDOCK:   41.88 KCAL/MOL
REMARK 923 INTER-LIGAND FREE ENERGY PREDICTED BY IDOCK:   40.49 KCAL/MOL
REMARK 924 INTRA-LIGAND FREE ENERGY PREDICTED BY IDOCK:    1.40 KCAL/MOL
REMARK 927      BINDING AFFINITY PREDICTED BY RF-SCORE:    0.00 PKD
ROOT
HETATM    1  C   UNL     1     -10.696  18.834  71.235  1.00  0.00     3.129 C  
HETATM    2  C   UNL     1     -11.459  19.471  70.228  1.00  0.00     5.530 C  
HETATM    3  C   UNL     1     -11.411  17.973  70.158  1.00  0.00     3.803 C  
HETATM    4  C   UNL     1     -10.784  16.928  71.839  1.00  0.00     2.410 C  
HETATM    5  O   UNL     1     -10.352  17.680  73.042  1.00  0.00     4.592 OA 
HETATM    6  C   UNL     1      -6.992  15.839  69.752  1.00  0.00    -0.097 C  
HETATM    7  C   UNL     1     -11.994  17.420  71.450  1.00  0.00     3.366 C  
HETATM    8  C   UNL     1     -11.831  15.908  70.284  1.00  0.00    -0.343 C  
HETATM    9  C   UNL     1     -13.199  17.846  72.231  1.00  0.00    11.325 C  
HETATM   10  C   UNL     1      -7.830  16.590  68.725  1.00  0.00    -0.235 C  
HETATM   11  C   UNL     1      -8.164  15.838  67.354  1.00  0.00    -0.196 C  
HETATM   12  H   UNL     1     -10.065  17.202  73.810  1.00  0.00     0.000 HD 
HETATM   13  C   UNL     1     -10.182  15.661  69.817  1.00  0.00    -0.300 C  
HETATM   14  C   UNL     1      -7.870  16.229  66.111  1.00  0.00     0.045 C  
HETATM   15  O   UNL     1      -5.498  15.912  66.382  1.00  0.00     0.504 OA 
HETATM   16  O   UNL     1      -9.570  14.941  70.899  1.00  0.00     0.464 OA 
HETATM   17  C   UNL     1      -9.205  16.947  69.379  1.00  0.00     0.139 C  
HETATM   18  H   UNL     1      -8.665  14.806  70.643  1.00  0.00     0.000 HD 
HETATM   19  C   UNL     1      -9.120  18.216  70.532  1.00  0.00     3.778 C  
HETATM   20  C   UNL     1      -8.350  19.407  69.956  1.00  0.00     1.004 C  
HETATM   21  C   UNL     1      -7.003  19.000  69.385  1.00  0.00    -0.209 C  
HETATM   22  F   UNL     1      -6.432  20.118  68.850  1.00  0.00    -0.310 F  
HETATM   23  C   UNL     1      -7.068  17.890  68.369  1.00  0.00    -0.245 C  
HETATM   24  C   UNL     1      -6.432  17.955  67.187  1.00  0.00    -0.188 C  
HETATM   25  C   UNL     1      -6.460  16.659  66.495  1.00  0.00     0.053 C  
ENDROOT
BRANCH   4  26
HETATM   26  C   UNL     1     -11.450  15.569  72.817  1.00  0.00    -0.239 C  
HETATM   27  O   UNL     1     -11.231  15.394  74.026  1.00  0.00     0.732 OA 
BRANCH  26  28
HETATM   28  C   UNL     1     -12.280  14.390  72.174  1.00  0.00    -0.149 C  
HETATM   29  O   UNL     1     -11.523  13.169  72.080  1.00  0.00     2.122 OA 
HETATM   30  H   UNL     1     -12.022  12.459  71.693  1.00  0.00     0.000 HD 
ENDBRANCH  26  28
ENDBRANCH   4  26
TORSDOF 2
ENDMDL
MODEL      127
REMARK 921   NORMALIZED FREE ENERGY PREDICTED BY IDOCK:   40.86 KCAL/MOL
REMARK 922        TOTAL FREE ENERGY PREDICTED BY IDOCK:   46.28 KCAL/MOL
REMARK 923 INTER-LIGAND FREE ENERGY PREDICTED BY IDOCK:   45.23 KCAL/MOL
REMARK 924 INTRA-LIGAND FREE ENERGY PREDICTED BY IDOCK:    1.05 KCAL/MOL
REMARK 927      BINDING AFFINITY PREDICTED BY RF-SCORE:    0.00 PKD
ROOT
HETATM    1  C   UNL     1     -10.581   9.516  65.507  1.00  0.00     0.869 C  
HETATM    2  C   UNL     1     -11.762   9.034  66.119  1.00  0.00     5.394 C  
HETATM    3  C   UNL     1     -11.519  10.510  66.246  1.00  0.00     0.878 C  
HETATM    4  C   UNL     1     -10.137  11.392  64.971  1.00  0.00    -0.274 C  
HETATM    5  O   UNL     1      -9.392  10.545  64.010  1.00  0.00    -0.220 OA 
HETATM    6  C   UNL     1      -7.335  11.964  68.398  1.00  0.00    -0.095 C  
HETATM    7  C   UNL     1     -11.463  11.102  64.845  1.00  0.00     0.205 C  
HETATM    8  C   UNL     1     -11.538  12.609  66.026  1.00  0.00    -0.443 C  
HETATM    9  C   UNL     1     -12.320  10.837  63.646  1.00  0.00     2.657 C  
HETATM   10  C   UNL     1      -8.610  11.382  68.997  1.00  0.00     0.067 C  
HETATM   11  C   UNL     1      -9.332  12.220  70.152  1.00  0.00     3.859 C  
HETATM   12  H   UNL     1      -8.761  10.948  63.427  1.00  0.00     0.000 HD 
HETATM   13  C   UNL     1     -10.183  12.619  67.104  1.00  0.00    -0.225 C  
HETATM   14  C   UNL     1      -9.607  11.831  71.399  1.00  0.00    11.202 C  
HETATM   15  O   UNL     1      -7.297  11.776  72.080  1.00  0.00     7.530 OA 
HETATM   16  O   UNL     1      -9.098  13.203  66.366  1.00  0.00    -0.416 OA 
HETATM   17  C   UNL     1      -9.661  11.216  67.850  1.00  0.00    -0.181 C  
HETATM   18  H   UNL     1      -8.354  13.209  66.958  1.00  0.00     0.000 HD 
HETATM   19  C   UNL     1      -9.328   9.912  66.784  1.00  0.00    -0.187 C  
HETATM   20  C   UNL     1      -9.032   8.637  67.579  1.00  0.00    -0.143 C  
HETATM   21  C   UNL     1      -7.968   8.855  68.641  1.00  0.00    -0.103 C  
HETATM   22  F   UNL     1      -7.825   7.682  69.323  1.00  0.00    -0.108 F  
HETATM   23  C   UNL     1      -8.253   9.995  69.583  1.00  0.00    -0.185 C  
HETATM   24  C   UNL     1      -8.143   9.873  70.917  1.00  0.00     0.623 C  
HETATM   25  C   UNL     1      -8.241  11.180  71.581  1.00  0.00     9.254 C  
ENDROOT
BRANCH   4  26
HETATM   26  C   UNL     1     -10.158  12.804  63.851  1.00  0.00    -0.128 C  
HETATM   27  O   UNL     1     -11.024  13.692  63.848  1.00  0.00    -0.165 OA 
BRANCH  26  28
HETATM   28  C   UNL     1      -9.124  12.960  62.667  1.00  0.00     5.488 C  
HETATM   29  O   UNL     1      -8.044  12.012  62.749  1.00  0.00     0.070 OA 
HETATM   30  H   UNL     1      -7.422  12.106  62.037  1.00  0.00     0.000 HD 
ENDBRANCH  26  28
ENDBRANCH   4  26
TORSDOF 2
ENDMDL
MODEL      128
REMARK 921   NORMALIZED FREE ENERGY PREDICTED BY IDOCK:   44.67 KCAL/MOL
REMARK 922        TOTAL FREE ENERGY PREDICTED BY IDOCK:   50.53 KCAL/MOL
REMARK 923 INTER-LIGAND FREE ENERGY PREDICTED BY IDOCK:   49.20 KCAL/MOL
REMARK 924 INTRA-LIGAND FREE ENERGY PREDICTED BY IDOCK:    1.33 KCAL/MOL
REMARK 927      BINDING AFFINITY PREDICTED BY RF-SCORE:    0.00 PKD
ROOT
HETATM    1  C   UNL     1     -12.201  15.872  66.482  1.00  0.00     1.543 C  
HETATM    2  C   UNL     1     -12.853  17.121  66.346  1.00  0.00     7.185 C  
HETATM    3  C   UNL     1     -11.369  17.182  66.563  1.00  0.00     0.896 C  
HETATM    4  C   UNL     1     -10.257  15.457  66.252  1.00  0.00    -0.290 C  
HETATM    5  O   UNL     1     -10.952  14.203  65.876  1.00  0.00    -0.291 OA 
HETATM    6  C   UNL     1      -9.565  15.105  70.648  1.00  0.00     1.023 C  
HETATM    7  C   UNL     1     -10.692  16.443  65.419  1.00  0.00    -0.310 C  
HETATM    8  C   UNL     1      -9.278  17.351  66.337  1.00  0.00    -0.272 C  
HETATM    9  C   UNL     1     -10.984  16.455  63.950  1.00  0.00     1.657 C  
HETATM   10  C   UNL     1     -10.327  16.410  70.451  1.00  0.00     0.414 C  
HETATM   11  C   UNL     1      -9.649  17.750  71.000  1.00  0.00     5.076 C  
HETATM   12  H   UNL     1     -10.444  13.414  65.734  1.00  0.00     0.000 HD 
HETATM   13  C   UNL     1      -9.172  16.828  67.984  1.00  0.00    -0.228 C  
HETATM   14  C   UNL     1     -10.141  18.612  71.893  1.00  0.00     4.638 C  
HETATM   15  O   UNL     1      -9.965  17.075  73.739  1.00  0.00     8.313 OA 
HETATM   16  O   UNL     1      -8.422  15.603  67.961  1.00  0.00    -0.145 OA 
HETATM   17  C   UNL     1     -10.547  16.624  68.917  1.00  0.00    -0.337 C  
HETATM   18  H   UNL     1      -8.365  15.316  68.865  1.00  0.00     0.000 HD 
HETATM   19  C   UNL     1     -11.737  15.593  68.233  1.00  0.00    -0.253 C  
HETATM   20  C   UNL     1     -13.013  15.620  69.078  1.00  0.00     1.252 C  
HETATM   21  C   UNL     1     -12.735  15.355  70.548  1.00  0.00    -0.405 C  
HETATM   22  F   UNL     1     -13.922  15.460  71.213  1.00  0.00    -0.503 F  
HETATM   23  C   UNL     1     -11.695  16.257  71.157  1.00  0.00    -0.353 C  
HETATM   24  C   UNL     1     -11.882  16.885  72.331  1.00  0.00     0.245 C  
HETATM   25  C   UNL     1     -10.637  17.501  72.810  1.00  0.00     4.455 C  
ENDROOT
BRANCH   4  26
HETATM   26  C   UNL     1      -8.793  15.041  65.286  1.00  0.00     1.939 C  
HETATM   27  O   UNL     1      -8.452  13.887  64.981  1.00  0.00     3.221 OA 
BRANCH  26  28
HETATM   28  C   UNL     1      -7.732  16.124  64.849  1.00  0.00     6.959 C  
HETATM   29  O   UNL     1      -6.423  15.866  65.391  1.00  0.00     3.768 OA 
HETATM   30  H   UNL     1      -5.784  16.518  65.129  1.00  0.00     0.000 HD 
ENDBRANCH  26  28
ENDBRANCH   4  26
TORSDOF 2
ENDMDL
MODEL      129
REMARK 921   NORMALIZED FREE ENERGY PREDICTED BY IDOCK:   45.44 KCAL/MOL
REMARK 922        TOTAL FREE ENERGY PREDICTED BY IDOCK:   51.39 KCAL/MOL
REMARK 923 INTER-LIGAND FREE ENERGY PREDICTED BY IDOCK:   47.85 KCAL/MOL
REMARK 924 INTRA-LIGAND FREE ENERGY PREDICTED BY IDOCK:    3.54 KCAL/MOL
REMARK 927      BINDING AFFINITY PREDICTED BY RF-SCORE:    0.00 PKD
ROOT
HETATM    1  C   UNL     1      -6.666  16.632  66.671  1.00  0.00    -0.192 C  
HETATM    2  C   UNL     1      -7.646  15.657  66.368  1.00  0.00     0.452 C  
HETATM    3  C   UNL     1      -8.059  17.084  66.149  1.00  0.00    -0.292 C  
HETATM    4  C   UNL     1      -6.575  18.533  66.052  1.00  0.00    -0.249 C  
HETATM    5  O   UNL     1      -5.160  18.137  66.249  1.00  0.00    -0.136 OA 
HETATM    6  C   UNL     1      -7.875  20.138  70.008  1.00  0.00     0.827 C  
HETATM    7  C   UNL     1      -7.118  17.696  65.123  1.00  0.00     1.507 C  
HETATM    8  C   UNL     1      -8.534  18.969  65.328  1.00  0.00     1.532 C  
HETATM    9  C   UNL     1      -6.574  17.131  63.847  1.00  0.00     9.188 C  
HETATM   10  C   UNL     1      -8.866  19.032  69.663  1.00  0.00     0.553 C  
HETATM   11  C   UNL     1     -10.415  19.422  69.605  1.00  0.00     0.599 C  
HETATM   12  H   UNL     1      -4.481  18.800  66.205  1.00  0.00     0.000 HD 
HETATM   13  C   UNL     1      -8.632  19.529  66.964  1.00  0.00    -0.301 C  
HETATM   14  C   UNL     1     -11.419  18.901  70.315  1.00  0.00     5.586 C  
HETATM   15  O   UNL     1     -10.663  19.838  72.403  1.00  0.00     3.272 OA 
HETATM   16  O   UNL     1      -7.638  20.559  67.087  1.00  0.00    -0.309 OA 
HETATM   17  C   UNL     1      -8.500  18.468  68.250  1.00  0.00    -0.341 C  
HETATM   18  H   UNL     1      -7.691  20.866  67.984  1.00  0.00     0.000 HD 
HETATM   19  C   UNL     1      -7.092  17.486  68.236  1.00  0.00    -0.210 C  
HETATM   20  C   UNL     1      -7.162  16.439  69.350  1.00  0.00    -0.172 C  
HETATM   21  C   UNL     1      -7.469  17.059  70.703  1.00  0.00     3.411 C  
HETATM   22  F   UNL     1      -7.566  16.040  71.606  1.00  0.00     3.623 F  
HETATM   23  C   UNL     1      -8.704  17.919  70.727  1.00  0.00     5.580 C  
HETATM   24  C   UNL     1      -9.646  17.804  71.679  1.00  0.00     7.979 C  
HETATM   25  C   UNL     1     -10.613  18.908  71.609  1.00  0.00     3.391 C  
ENDROOT
BRANCH   4  26
HETATM   26  C   UNL     1      -6.141  19.836  64.885  1.00  0.00    -0.256 C  
HETATM   27  O   UNL     1      -5.370  20.777  65.130  1.00  0.00    -0.181 OA 
BRANCH  26  28
HETATM   28  C   UNL     1      -6.824  19.965  63.467  1.00  0.00     1.604 C  
HETATM   29  O   UNL     1      -6.525  18.848  62.607  1.00  0.00     1.388 OA 
HETATM   30  H   UNL     1      -6.936  18.925  61.754  1.00  0.00     0.000 HD 
ENDBRANCH  26  28
ENDBRANCH   4  26
TORSDOF 2
ENDMDL
MODEL      130
REMARK 921   NORMALIZED FREE ENERGY PREDICTED BY IDOCK:   74.18 KCAL/MOL
REMARK 922        TOTAL FREE ENERGY PREDICTED BY IDOCK:   83.49 KCAL/MOL
REMARK 923 INTER-LIGAND FREE ENERGY PREDICTED BY IDOCK:   82.55 KCAL/MOL
REMARK 924 INTRA-LIGAND FREE ENERGY PREDICTED BY IDOCK:    0.95 KCAL/MOL
REMARK 927      BINDING AFFINITY PREDICTED BY RF-SCORE:    0.00 PKD
ROOT
HETATM    1  C   UNL     1     -10.486  17.497  68.510  1.00  0.00    -0.361 C  
HETATM    2  C   UNL     1     -11.273  18.058  67.475  1.00  0.00     0.304 C  
HETATM    3  C   UNL     1     -11.162  16.561  67.470  1.00  0.00     0.021 C  
HETATM    4  C   UNL     1     -10.496  15.617  69.195  1.00  0.00    -0.236 C  
HETATM    5  O   UNL     1     -10.099  16.438  70.365  1.00  0.00     0.339 OA 
HETATM    6  C   UNL     1      -6.656  14.598  67.161  1.00  0.00     0.461 C  
HETATM    7  C   UNL     1     -11.724  16.040  68.784  1.00  0.00    -0.302 C  
HETATM    8  C   UNL     1     -11.495  14.488  67.685  1.00  0.00    -0.374 C  
HETATM    9  C   UNL     1     -12.948  16.449  69.545  1.00  0.00     2.423 C  
HETATM   10  C   UNL     1      -7.522  15.269  66.101  1.00  0.00     2.107 C  
HETATM   11  C   UNL     1      -7.821  14.445  64.764  1.00  0.00    10.782 C  
HETATM   12  H   UNL     1      -9.794  16.006  71.154  1.00  0.00     0.000 HD 
HETATM   13  C   UNL     1      -9.836  14.290  67.231  1.00  0.00    -0.244 C  
HETATM   14  C   UNL     1      -7.541  14.793  63.506  1.00  0.00    21.981 C  
HETATM   15  O   UNL     1      -5.157  14.589  63.792  1.00  0.00    14.587 OA 
HETATM   16  O   UNL     1      -9.198  13.643  68.343  1.00  0.00    -0.195 OA 
HETATM   17  C   UNL     1      -8.913  15.595  66.738  1.00  0.00    -0.291 C  
HETATM   18  H   UNL     1      -8.287  13.535  68.094  1.00  0.00     0.000 HD 
HETATM   19  C   UNL     1      -8.884  16.915  67.835  1.00  0.00    -0.218 C  
HETATM   20  C   UNL     1      -8.163  18.112  67.209  1.00  0.00    -0.234 C  
HETATM   21  C   UNL     1      -6.799  17.737  66.657  1.00  0.00    -0.207 C  
HETATM   22  F   UNL     1      -6.273  18.854  66.075  1.00  0.00    -0.184 F  
HETATM   23  C   UNL     1      -6.814  16.583  65.690  1.00  0.00     2.218 C  
HETATM   24  C   UNL     1      -6.178  16.623  64.507  1.00  0.00     7.828 C  
HETATM   25  C   UNL     1      -6.151  15.299  63.871  1.00  0.00    22.407 C  
ENDROOT
BRANCH   4  26
HETATM   26  C   UNL     1     -11.108  14.275  70.231  1.00  0.00     0.097 C  
HETATM   27  O   UNL     1     -11.398  13.140  69.820  1.00  0.00    -0.176 OA 
BRANCH  26  28
HETATM   28  C   UNL     1     -11.457  14.475  71.757  1.00  0.00     0.329 C  
HETATM   29  O   UNL     1     -12.875  14.482  72.004  1.00  0.00    -0.313 OA 
HETATM   30  H   UNL     1     -13.086  14.602  72.922  1.00  0.00     0.000 HD 
ENDBRANCH  26  28
ENDBRANCH   4  26
TORSDOF 2
ENDMDL
