MODEL        1
REMARK 921   NORMALIZED FREE ENERGY PREDICTED BY IDOCK:   -8.06 KCAL/MOL
REMARK 922        TOTAL FREE ENERGY PREDICTED BY IDOCK:  -11.12 KCAL/MOL
REMARK 923 INTER-LIGAND FREE ENERGY PREDICTED BY IDOCK:  -10.88 KCAL/MOL
REMARK 924 INTRA-LIGAND FREE ENERGY PREDICTED BY IDOCK:   -0.24 KCAL/MOL
REMARK 927      BINDING AFFINITY PREDICTED BY RF-SCORE:    0.00 PKD
ROOT
HETATM    1  O   UNL     1     -11.231  16.924  64.093  1.00  0.00    -1.386 OA 
HETATM    2  C   UNL     1     -11.160  15.650  64.730  1.00  0.00    -0.412 C  
HETATM    3  H   UNL     1     -10.599  17.514  64.486  1.00  0.00     0.000 HD 
ENDROOT
BRANCH   2   4
HETATM    4  C   UNL     1     -12.183  14.695  64.094  1.00  0.00    -0.315 C  
BRANCH   4   5
HETATM    5  N   UNL     1     -12.798  13.748  65.046  1.00  0.00    -0.735 NA 
HETATM    6  C   UNL     1     -12.650  12.342  64.627  1.00  0.00    -0.375 C  
HETATM    7  C   UNL     1     -11.209  11.808  64.728  1.00  0.00    -0.271 C  
HETATM    8  N   UNL     1     -10.595  11.925  66.067  1.00  0.00    -0.256 NA 
HETATM    9  C   UNL     1     -12.200  13.895  66.394  1.00  0.00    -0.449 C  
HETATM   10  C   UNL     1     -10.772  13.312  66.554  1.00  0.00    -0.285 C  
BRANCH   8  11
HETATM   11  C   UNL     1     -11.109  10.942  67.032  1.00  0.00    -0.202 C  
BRANCH  11  12
HETATM   12  C   UNL     1     -10.002  10.160  67.750  1.00  0.00    -0.198 C  
BRANCH  12  13
HETATM   13  C   UNL     1      -9.844  10.587  69.218  1.00  0.00    -0.205 C  
BRANCH  13  14
HETATM   14  N   UNL     1     -11.038  10.195  70.012  1.00  0.00    -0.286 NA 
HETATM   15  C   UNL     1     -11.156   8.815  70.367  1.00  0.00    -0.236 A  
HETATM   16  C   UNL     1     -10.336   7.808  69.805  1.00  0.00    -0.221 A  
HETATM   17  C   UNL     1     -10.460   6.451  70.132  1.00  0.00    -0.269 A  
HETATM   18  C   UNL     1     -11.415   6.045  71.044  1.00  0.00    -0.236 A  
HETATM   19  C   UNL     1     -12.241   7.001  71.622  1.00  0.00    -0.395 A  
HETATM   20  C   UNL     1     -12.121   8.369  71.294  1.00  0.00    -0.284 A  
HETATM   21  S   UNL     1     -13.252   9.439  72.145  1.00  0.00    -0.464 SA 
HETATM   22  C   UNL     1     -12.793  11.043  71.550  1.00  0.00    -0.450 A  
HETATM   23  C   UNL     1     -11.808  11.265  70.571  1.00  0.00    -0.324 A  
HETATM   24  C   UNL     1     -11.620  12.617  70.187  1.00  0.00    -0.141 A  
HETATM   25  C   UNL     1     -12.282  13.703  70.794  1.00  0.00    -0.424 A  
HETATM   26  C   UNL     1     -13.227  13.439  71.778  1.00  0.00    -0.495 A  
HETATM   27  C   UNL     1     -11.954  15.126  70.412  1.00  0.00    -0.320 C  
HETATM   28  F   UNL     1     -10.979  15.231  69.466  1.00  0.00    -0.225 F  
HETATM   29  F   UNL     1     -11.504  15.853  71.475  1.00  0.00    -0.377 F  
HETATM   30  F   UNL     1     -13.026  15.805  69.923  1.00  0.00    -0.263 F  
HETATM   31  C   UNL     1     -13.489  12.122  72.138  1.00  0.00    -0.383 A  
ENDBRANCH  13  14
ENDBRANCH  12  13
ENDBRANCH  11  12
ENDBRANCH   8  11
ENDBRANCH   4   5
ENDBRANCH   2   4
TORSDOF 6
ENDMDL
MODEL        2
REMARK 921   NORMALIZED FREE ENERGY PREDICTED BY IDOCK:   -7.85 KCAL/MOL
REMARK 922        TOTAL FREE ENERGY PREDICTED BY IDOCK:  -10.83 KCAL/MOL
REMARK 923 INTER-LIGAND FREE ENERGY PREDICTED BY IDOCK:  -10.15 KCAL/MOL
REMARK 924 INTRA-LIGAND FREE ENERGY PREDICTED BY IDOCK:   -0.68 KCAL/MOL
REMARK 927      BINDING AFFINITY PREDICTED BY RF-SCORE:    0.00 PKD
ROOT
HETATM    1  O   UNL     1     -11.333   4.766  65.496  1.00  0.00    -0.940 OA 
HETATM    2  C   UNL     1      -9.968   4.698  65.903  1.00  0.00    -0.239 C  
HETATM    3  H   UNL     1     -11.445   4.304  64.673  1.00  0.00     0.000 HD 
ENDROOT
BRANCH   2   4
HETATM    4  C   UNL     1      -9.788   5.446  67.234  1.00  0.00    -0.156 C  
BRANCH   4   5
HETATM    5  N   UNL     1     -10.940   6.289  67.613  1.00  0.00    -0.343 NA 
HETATM    6  C   UNL     1     -11.174   6.312  69.069  1.00  0.00    -0.343 C  
HETATM    7  C   UNL     1     -10.102   7.083  69.862  1.00  0.00    -0.193 C  
HETATM    8  N   UNL     1      -9.900   8.483  69.437  1.00  0.00    -0.181 NA 
HETATM    9  C   UNL     1     -10.745   7.684  67.154  1.00  0.00    -0.290 C  
HETATM   10  C   UNL     1      -9.719   8.515  67.968  1.00  0.00    -0.154 C  
BRANCH   8  11
HETATM   11  C   UNL     1     -10.979   9.384  69.869  1.00  0.00    -0.229 C  
BRANCH  11  12
HETATM   12  C   UNL     1     -10.807  10.823  69.364  1.00  0.00    -0.289 C  
BRANCH  12  13
HETATM   13  C   UNL     1     -12.126  11.422  68.851  1.00  0.00    -0.219 C  
BRANCH  13  14
HETATM   14  N   UNL     1     -12.033  12.902  68.760  1.00  0.00    -0.298 NA 
HETATM   15  C   UNL     1     -12.140  13.636  69.982  1.00  0.00    -0.348 A  
HETATM   16  C   UNL     1     -12.558  13.041  71.197  1.00  0.00    -0.388 A  
HETATM   17  C   UNL     1     -12.685  13.758  72.394  1.00  0.00    -0.254 A  
HETATM   18  C   UNL     1     -12.394  15.108  72.425  1.00  0.00    -0.447 A  
HETATM   19  C   UNL     1     -11.978  15.732  71.256  1.00  0.00    -0.485 A  
HETATM   20  C   UNL     1     -11.850  15.015  70.047  1.00  0.00    -0.319 A  
HETATM   21  S   UNL     1     -11.292  15.980  68.666  1.00  0.00    -0.365 SA 
HETATM   22  C   UNL     1     -11.193  14.779  67.367  1.00  0.00    -0.339 A  
HETATM   23  C   UNL     1     -11.579  13.434  67.509  1.00  0.00    -0.344 A  
HETATM   24  C   UNL     1     -11.476  12.640  66.339  1.00  0.00    -0.409 A  
HETATM   25  C   UNL     1     -10.933  13.102  65.124  1.00  0.00    -0.317 A  
HETATM   26  C   UNL     1     -10.538  14.431  65.037  1.00  0.00    -0.452 A  
HETATM   27  C   UNL     1     -10.751  12.172  63.949  1.00  0.00    -0.407 C  
HETATM   28  F   UNL     1     -11.145  10.891  64.196  1.00  0.00    -0.406 F  
HETATM   29  F   UNL     1      -9.446  12.081  63.563  1.00  0.00    -0.257 F  
HETATM   30  F   UNL     1     -11.440  12.570  62.846  1.00  0.00    -0.418 F  
HETATM   31  C   UNL     1     -10.682  15.262  66.142  1.00  0.00    -0.322 A  
ENDBRANCH  13  14
ENDBRANCH  12  13
ENDBRANCH  11  12
ENDBRANCH   8  11
ENDBRANCH   4   5
ENDBRANCH   2   4
TORSDOF 6
ENDMDL
MODEL        3
REMARK 921   NORMALIZED FREE ENERGY PREDICTED BY IDOCK:   -7.73 KCAL/MOL
REMARK 922        TOTAL FREE ENERGY PREDICTED BY IDOCK:  -10.67 KCAL/MOL
REMARK 923 INTER-LIGAND FREE ENERGY PREDICTED BY IDOCK:  -10.08 KCAL/MOL
REMARK 924 INTRA-LIGAND FREE ENERGY PREDICTED BY IDOCK:   -0.60 KCAL/MOL
REMARK 927      BINDING AFFINITY PREDICTED BY RF-SCORE:    0.00 PKD
ROOT
HETATM    1  O   UNL     1      -5.198  20.772  68.418  1.00  0.00    -0.239 OA 
HETATM    2  C   UNL     1      -6.101  21.339  67.470  1.00  0.00    -0.366 C  
HETATM    3  H   UNL     1      -4.684  21.462  68.821  1.00  0.00     0.000 HD 
ENDROOT
BRANCH   2   4
HETATM    4  C   UNL     1      -6.932  20.222  66.817  1.00  0.00    -0.251 C  
BRANCH   4   5
HETATM    5  N   UNL     1      -7.881  19.560  67.735  1.00  0.00    -0.281 NA 
HETATM    6  C   UNL     1      -9.289  19.844  67.401  1.00  0.00    -0.355 C  
HETATM    7  C   UNL     1      -9.772  19.168  66.105  1.00  0.00    -0.315 C  
HETATM    8  N   UNL     1      -9.610  17.700  66.071  1.00  0.00    -0.526 NA 
HETATM    9  C   UNL     1      -7.689  18.091  67.721  1.00  0.00    -0.222 C  
HETATM   10  C   UNL     1      -8.221  17.364  66.458  1.00  0.00    -0.276 C  
BRANCH   8  11
HETATM   11  C   UNL     1     -10.591  16.986  66.901  1.00  0.00    -0.208 C  
BRANCH  11  12
HETATM   12  C   UNL     1     -10.400  15.463  66.893  1.00  0.00    -0.277 C  
BRANCH  12  13
HETATM   13  C   UNL     1     -11.685  14.717  66.503  1.00  0.00    -0.325 C  
BRANCH  13  14
HETATM   14  N   UNL     1     -11.570  13.269  66.817  1.00  0.00    -0.346 NA 
HETATM   15  C   UNL     1     -10.978  12.433  65.819  1.00  0.00    -0.298 A  
HETATM   16  C   UNL     1     -10.729  12.879  64.498  1.00  0.00    -0.392 A  
HETATM   17  C   UNL     1     -10.169  12.059  63.509  1.00  0.00    -0.477 A  
HETATM   18  C   UNL     1      -9.829  10.753  63.805  1.00  0.00    -0.396 A  
HETATM   19  C   UNL     1     -10.054  10.275  65.090  1.00  0.00    -0.355 A  
HETATM   20  C   UNL     1     -10.620  11.096  66.089  1.00  0.00    -0.248 A  
HETATM   21  S   UNL     1     -10.815  10.314  67.670  1.00  0.00    -0.297 SA 
HETATM   22  C   UNL     1     -11.481  11.618  68.669  1.00  0.00    -0.290 A  
HETATM   23  C   UNL     1     -11.811  12.893  68.178  1.00  0.00    -0.336 A  
HETATM   24  C   UNL     1     -12.382  13.784  69.122  1.00  0.00    -0.138 A  
HETATM   25  C   UNL     1     -12.531  13.485  70.491  1.00  0.00    -0.373 A  
HETATM   26  C   UNL     1     -12.166  12.221  70.938  1.00  0.00    -0.296 A  
HETATM   27  C   UNL     1     -13.046  14.519  71.462  1.00  0.00    -0.343 C  
HETATM   28  F   UNL     1     -13.323  15.723  70.887  1.00  0.00    -0.544 F  
HETATM   29  F   UNL     1     -12.145  14.790  72.449  1.00  0.00    -0.390 F  
HETATM   30  F   UNL     1     -14.187  14.134  72.093  1.00  0.00    -0.491 F  
HETATM   31  C   UNL     1     -11.662  11.294  70.032  1.00  0.00    -0.428 A  
ENDBRANCH  13  14
ENDBRANCH  12  13
ENDBRANCH  11  12
ENDBRANCH   8  11
ENDBRANCH   4   5
ENDBRANCH   2   4
TORSDOF 6
ENDMDL
MODEL        4
REMARK 921   NORMALIZED FREE ENERGY PREDICTED BY IDOCK:   -7.72 KCAL/MOL
REMARK 922        TOTAL FREE ENERGY PREDICTED BY IDOCK:  -10.67 KCAL/MOL
REMARK 923 INTER-LIGAND FREE ENERGY PREDICTED BY IDOCK:   -9.80 KCAL/MOL
REMARK 924 INTRA-LIGAND FREE ENERGY PREDICTED BY IDOCK:   -0.86 KCAL/MOL
REMARK 927      BINDING AFFINITY PREDICTED BY RF-SCORE:    0.00 PKD
ROOT
HETATM    1  O   UNL     1      -8.894  19.177  67.719  1.00  0.00    -0.290 OA 
HETATM    2  C   UNL     1      -9.202  18.744  66.396  1.00  0.00    -0.307 C  
HETATM    3  H   UNL     1      -8.279  19.901  67.683  1.00  0.00     0.000 HD 
ENDROOT
BRANCH   2   4
HETATM    4  C   UNL     1     -10.196  17.572  66.454  1.00  0.00    -0.354 C  
BRANCH   4   5
HETATM    5  N   UNL     1      -9.778  16.387  65.677  1.00  0.00    -0.519 NA 
HETATM    6  C   UNL     1      -8.815  15.540  66.404  1.00  0.00    -0.324 C  
HETATM    7  C   UNL     1      -9.426  14.783  67.598  1.00  0.00    -0.204 C  
HETATM    8  N   UNL     1     -10.585  13.928  67.265  1.00  0.00    -0.274 NA 
HETATM    9  C   UNL     1     -10.950  15.554  65.318  1.00  0.00    -0.380 C  
HETATM   10  C   UNL     1     -11.555  14.724  66.480  1.00  0.00    -0.301 C  
BRANCH   8  11
HETATM   11  C   UNL     1     -10.212  12.688  66.568  1.00  0.00    -0.243 C  
BRANCH  11  12
HETATM   12  C   UNL     1     -10.726  11.422  67.267  1.00  0.00    -0.283 C  
BRANCH  12  13
HETATM   13  C   UNL     1     -10.152  11.264  68.684  1.00  0.00    -0.208 C  
BRANCH  13  14
HETATM   14  N   UNL     1     -11.136  10.604  69.580  1.00  0.00    -0.264 NA 
HETATM   15  C   UNL     1     -11.024   9.187  69.735  1.00  0.00    -0.181 A  
HETATM   16  C   UNL     1     -10.195   8.391  68.908  1.00  0.00    -0.223 A  
HETATM   17  C   UNL     1     -10.096   6.999  69.040  1.00  0.00    -0.182 A  
HETATM   18  C   UNL     1     -10.825   6.344  70.013  1.00  0.00    -0.366 A  
HETATM   19  C   UNL     1     -11.650   7.087  70.849  1.00  0.00    -0.370 A  
HETATM   20  C   UNL     1     -11.755   8.488  70.718  1.00  0.00    -0.205 A  
HETATM   21  S   UNL     1     -12.846   9.263  71.884  1.00  0.00    -0.432 SA 
HETATM   22  C   UNL     1     -12.693  10.981  71.477  1.00  0.00    -0.415 A  
HETATM   23  C   UNL     1     -11.924  11.469  70.406  1.00  0.00    -0.368 A  
HETATM   24  C   UNL     1     -11.970  12.872  70.209  1.00  0.00    -0.359 A  
HETATM   25  C   UNL     1     -12.646  13.763  71.066  1.00  0.00    -0.446 A  
HETATM   26  C   UNL     1     -13.370  13.238  72.130  1.00  0.00    -0.618 A  
HETATM   27  C   UNL     1     -12.563  15.256  70.861  1.00  0.00    -0.412 C  
HETATM   28  F   UNL     1     -11.784  15.623  69.804  1.00  0.00    -0.272 F  
HETATM   29  F   UNL     1     -12.030  15.895  71.941  1.00  0.00    -0.386 F  
HETATM   30  F   UNL     1     -13.777  15.830  70.649  1.00  0.00    -0.405 F  
HETATM   31  C   UNL     1     -13.405  11.862  72.322  1.00  0.00    -0.212 A  
ENDBRANCH  13  14
ENDBRANCH  12  13
ENDBRANCH  11  12
ENDBRANCH   8  11
ENDBRANCH   4   5
ENDBRANCH   2   4
TORSDOF 6
ENDMDL
MODEL        5
REMARK 921   NORMALIZED FREE ENERGY PREDICTED BY IDOCK:   -7.64 KCAL/MOL
REMARK 922        TOTAL FREE ENERGY PREDICTED BY IDOCK:  -10.55 KCAL/MOL
REMARK 923 INTER-LIGAND FREE ENERGY PREDICTED BY IDOCK:   -9.97 KCAL/MOL
REMARK 924 INTRA-LIGAND FREE ENERGY PREDICTED BY IDOCK:   -0.58 KCAL/MOL
REMARK 927      BINDING AFFINITY PREDICTED BY RF-SCORE:    0.00 PKD
ROOT
HETATM    1  O   UNL     1      -5.426  21.047  69.431  1.00  0.00    -0.380 OA 
HETATM    2  C   UNL     1      -5.565  21.110  68.013  1.00  0.00    -0.332 C  
HETATM    3  H   UNL     1      -4.514  21.171  69.669  1.00  0.00     0.000 HD 
ENDROOT
BRANCH   2   4
HETATM    4  C   UNL     1      -7.041  20.911  67.629  1.00  0.00    -0.287 C  
BRANCH   4   5
HETATM    5  N   UNL     1      -7.288  19.726  66.782  1.00  0.00    -0.232 NA 
HETATM    6  C   UNL     1      -7.082  18.457  67.505  1.00  0.00    -0.205 C  
HETATM    7  C   UNL     1      -8.156  18.162  68.568  1.00  0.00    -0.302 C  
HETATM    8  N   UNL     1      -9.545  18.149  68.063  1.00  0.00    -0.289 NA 
HETATM    9  C   UNL     1      -8.672  19.738  66.253  1.00  0.00    -0.363 C  
HETATM   10  C   UNL     1      -9.779  19.382  67.279  1.00  0.00    -0.334 C  
BRANCH   8  11
HETATM   11  C   UNL     1      -9.871  16.943  67.287  1.00  0.00    -0.265 C  
BRANCH  11  12
HETATM   12  C   UNL     1     -10.841  16.000  68.011  1.00  0.00    -0.335 C  
BRANCH  12  13
HETATM   13  C   UNL     1     -10.108  14.965  68.880  1.00  0.00    -0.236 C  
BRANCH  13  14
HETATM   14  N   UNL     1     -10.918  13.727  69.021  1.00  0.00    -0.254 NA 
HETATM   15  C   UNL     1     -10.618  12.650  68.130  1.00  0.00    -0.228 A  
HETATM   16  C   UNL     1      -9.774  12.803  67.003  1.00  0.00    -0.224 A  
HETATM   17  C   UNL     1      -9.492  11.757  66.114  1.00  0.00    -0.240 A  
HETATM   18  C   UNL     1     -10.044  10.508  66.320  1.00  0.00    -0.290 A  
HETATM   19  C   UNL     1     -10.876  10.313  67.415  1.00  0.00    -0.336 A  
HETATM   20  C   UNL     1     -11.165  11.363  68.313  1.00  0.00    -0.263 A  
HETATM   21  S   UNL     1     -12.234  10.918  69.657  1.00  0.00    -0.207 SA 
HETATM   22  C   UNL     1     -12.332  12.422  70.590  1.00  0.00    -0.279 A  
HETATM   23  C   UNL     1     -11.729  13.630  70.198  1.00  0.00    -0.218 A  
HETATM   24  C   UNL     1     -11.966  14.737  71.051  1.00  0.00    -0.389 A  
HETATM   25  C   UNL     1     -12.667  14.652  72.270  1.00  0.00    -0.413 A  
HETATM   26  C   UNL     1     -13.222  13.430  72.632  1.00  0.00    -0.436 A  
HETATM   27  C   UNL     1     -12.789  15.847  73.184  1.00  0.00    -0.537 C  
HETATM   28  F   UNL     1     -12.159  16.962  72.717  1.00  0.00    -0.463 F  
HETATM   29  F   UNL     1     -12.244  15.613  74.412  1.00  0.00    -0.592 F  
HETATM   30  F   UNL     1     -14.079  16.212  73.411  1.00  0.00    -0.589 F  
HETATM   31  C   UNL     1     -13.069  12.333  71.792  1.00  0.00    -0.449 A  
ENDBRANCH  13  14
ENDBRANCH  12  13
ENDBRANCH  11  12
ENDBRANCH   8  11
ENDBRANCH   4   5
ENDBRANCH   2   4
TORSDOF 6
ENDMDL
MODEL        6
REMARK 921   NORMALIZED FREE ENERGY PREDICTED BY IDOCK:   -7.62 KCAL/MOL
REMARK 922        TOTAL FREE ENERGY PREDICTED BY IDOCK:  -10.53 KCAL/MOL
REMARK 923 INTER-LIGAND FREE ENERGY PREDICTED BY IDOCK:  -10.00 KCAL/MOL
REMARK 924 INTRA-LIGAND FREE ENERGY PREDICTED BY IDOCK:   -0.53 KCAL/MOL
REMARK 927      BINDING AFFINITY PREDICTED BY RF-SCORE:    0.00 PKD
ROOT
HETATM    1  O   UNL     1     -11.357   4.363  73.406  1.00  0.00    -0.300 OA 
HETATM    2  C   UNL     1     -10.509   5.320  74.039  1.00  0.00    -0.281 C  
HETATM    3  H   UNL     1     -11.199   3.502  73.775  1.00  0.00     0.000 HD 
ENDROOT
BRANCH   2   4
HETATM    4  C   UNL     1     -10.765   6.713  73.441  1.00  0.00    -0.289 C  
BRANCH   4   5
HETATM    5  N   UNL     1     -10.884   6.725  71.968  1.00  0.00    -0.222 NA 
HETATM    6  C   UNL     1     -12.112   7.396  71.502  1.00  0.00    -0.327 C  
HETATM    7  C   UNL     1     -12.106   8.922  71.707  1.00  0.00    -0.362 C  
HETATM    8  N   UNL     1     -10.967   9.629  71.086  1.00  0.00    -0.360 NA 
HETATM    9  C   UNL     1      -9.721   7.406  71.352  1.00  0.00    -0.167 C  
HETATM   10  C   UNL     1      -9.711   8.952  71.481  1.00  0.00    -0.302 C  
BRANCH   8  11
HETATM   11  C   UNL     1     -11.082   9.748  69.625  1.00  0.00    -0.217 C  
BRANCH  11  12
HETATM   12  C   UNL     1     -10.921  11.188  69.119  1.00  0.00    -0.295 C  
BRANCH  12  13
HETATM   13  C   UNL     1     -12.274  11.890  68.920  1.00  0.00    -0.006 C  
BRANCH  13  14
HETATM   14  N   UNL     1     -12.092  13.360  68.801  1.00  0.00    -0.310 NA 
HETATM   15  C   UNL     1     -12.083  14.113  70.017  1.00  0.00    -0.346 A  
HETATM   16  C   UNL     1     -12.468  13.560  71.262  1.00  0.00    -0.388 A  
HETATM   17  C   UNL     1     -12.481  14.298  72.453  1.00  0.00    -0.261 A  
HETATM   18  C   UNL     1     -12.104  15.627  72.447  1.00  0.00    -0.557 A  
HETATM   19  C   UNL     1     -11.716  16.210  71.247  1.00  0.00    -0.480 A  
HETATM   20  C   UNL     1     -11.703  15.471  70.044  1.00  0.00    -0.346 A  
HETATM   21  S   UNL     1     -11.165  16.383  68.619  1.00  0.00    -0.277 SA 
HETATM   22  C   UNL     1     -11.216  15.162  67.335  1.00  0.00    -0.323 A  
HETATM   23  C   UNL     1     -11.678  13.847  67.519  1.00  0.00    -0.380 A  
HETATM   24  C   UNL     1     -11.692  13.035  66.358  1.00  0.00    -0.444 A  
HETATM   25  C   UNL     1     -11.191  13.447  65.107  1.00  0.00    -0.321 A  
HETATM   26  C   UNL     1     -10.718  14.747  64.977  1.00  0.00    -0.452 A  
HETATM   27  C   UNL     1     -11.135  12.494  63.938  1.00  0.00    -0.423 C  
HETATM   28  F   UNL     1     -11.595  11.243  64.226  1.00  0.00    -0.334 F  
HETATM   29  F   UNL     1      -9.863  12.314  63.481  1.00  0.00    -0.375 F  
HETATM   30  F   UNL     1     -11.860  12.922  62.869  1.00  0.00    -0.535 F  
HETATM   31  C   UNL     1     -10.747  15.598  66.076  1.00  0.00    -0.322 A  
ENDBRANCH  13  14
ENDBRANCH  12  13
ENDBRANCH  11  12
ENDBRANCH   8  11
ENDBRANCH   4   5
ENDBRANCH   2   4
TORSDOF 6
ENDMDL
MODEL        7
REMARK 921   NORMALIZED FREE ENERGY PREDICTED BY IDOCK:   -7.59 KCAL/MOL
REMARK 922        TOTAL FREE ENERGY PREDICTED BY IDOCK:  -10.49 KCAL/MOL
REMARK 923 INTER-LIGAND FREE ENERGY PREDICTED BY IDOCK:   -9.97 KCAL/MOL
REMARK 924 INTRA-LIGAND FREE ENERGY PREDICTED BY IDOCK:   -0.52 KCAL/MOL
REMARK 927      BINDING AFFINITY PREDICTED BY RF-SCORE:    0.00 PKD
ROOT
HETATM    1  O   UNL     1      -5.675  20.907  69.837  1.00  0.00    -0.468 OA 
HETATM    2  C   UNL     1      -5.741  21.099  68.425  1.00  0.00    -0.310 C  
HETATM    3  H   UNL     1      -5.200  21.626  70.236  1.00  0.00     0.000 HD 
ENDROOT
BRANCH   2   4
HETATM    4  C   UNL     1      -6.509  19.934  67.780  1.00  0.00    -0.228 C  
BRANCH   4   5
HETATM    5  N   UNL     1      -7.782  19.605  68.453  1.00  0.00    -0.332 NA 
HETATM    6  C   UNL     1      -8.962  19.977  67.652  1.00  0.00    -0.331 C  
HETATM    7  C   UNL     1      -9.172  19.101  66.403  1.00  0.00    -0.343 C  
HETATM    8  N   UNL     1      -9.274  17.651  66.670  1.00  0.00    -0.263 NA 
HETATM    9  C   UNL     1      -7.861  18.155  68.748  1.00  0.00    -0.254 C  
HETATM   10  C   UNL     1      -8.135  17.242  67.524  1.00  0.00    -0.186 C  
BRANCH   8  11
HETATM   11  C   UNL     1     -10.562  17.256  67.259  1.00  0.00    -0.283 C  
BRANCH  11  12
HETATM   12  C   UNL     1     -10.502  15.918  68.008  1.00  0.00    -0.274 C  
BRANCH  12  13
HETATM   13  C   UNL     1     -11.842  15.167  67.967  1.00  0.00    -0.202 C  
BRANCH  13  14
HETATM   14  N   UNL     1     -11.807  13.977  68.857  1.00  0.00    -0.336 NA 
HETATM   15  C   UNL     1     -12.405  14.114  70.148  1.00  0.00    -0.351 A  
HETATM   16  C   UNL     1     -12.798  15.366  70.679  1.00  0.00    -0.484 A  
HETATM   17  C   UNL     1     -13.366  15.511  71.952  1.00  0.00    -0.569 A  
HETATM   18  C   UNL     1     -13.566  14.400  72.749  1.00  0.00    -0.531 A  
HETATM   19  C   UNL     1     -13.197  13.151  72.266  1.00  0.00    -0.555 A  
HETATM   20  C   UNL     1     -12.623  13.001  70.986  1.00  0.00    -0.299 A  
HETATM   21  S   UNL     1     -12.232  11.328  70.539  1.00  0.00    -0.380 SA 
HETATM   22  C   UNL     1     -11.600  11.503  68.892  1.00  0.00    -0.320 A  
HETATM   23  C   UNL     1     -11.423  12.739  68.247  1.00  0.00    -0.314 A  
HETATM   24  C   UNL     1     -10.855  12.676  66.949  1.00  0.00    -0.282 A  
HETATM   25  C   UNL     1     -10.568  11.471  66.277  1.00  0.00    -0.309 A  
HETATM   26  C   UNL     1     -10.785  10.271  66.944  1.00  0.00    -0.252 A  
HETATM   27  C   UNL     1     -10.066  11.474  64.854  1.00  0.00    -0.268 C  
HETATM   28  F   UNL     1      -9.941  12.721  64.318  1.00  0.00    -0.329 F  
HETATM   29  F   UNL     1     -10.902  10.802  64.012  1.00  0.00    -0.434 F  
HETATM   30  F   UNL     1      -8.848  10.885  64.719  1.00  0.00    -0.186 F  
HETATM   31  C   UNL     1     -11.281  10.290  68.243  1.00  0.00    -0.295 A  
ENDBRANCH  13  14
ENDBRANCH  12  13
ENDBRANCH  11  12
ENDBRANCH   8  11
ENDBRANCH   4   5
ENDBRANCH   2   4
TORSDOF 6
ENDMDL
MODEL        8
REMARK 921   NORMALIZED FREE ENERGY PREDICTED BY IDOCK:   -7.53 KCAL/MOL
REMARK 922        TOTAL FREE ENERGY PREDICTED BY IDOCK:  -10.41 KCAL/MOL
REMARK 923 INTER-LIGAND FREE ENERGY PREDICTED BY IDOCK:   -9.78 KCAL/MOL
REMARK 924 INTRA-LIGAND FREE ENERGY PREDICTED BY IDOCK:   -0.63 KCAL/MOL
REMARK 927      BINDING AFFINITY PREDICTED BY RF-SCORE:    0.00 PKD
ROOT
HETATM    1  O   UNL     1     -12.094   4.907  73.162  1.00  0.00    -0.405 OA 
HETATM    2  C   UNL     1     -10.924   5.686  72.922  1.00  0.00    -0.282 C  
HETATM    3  H   UNL     1     -12.286   4.896  74.092  1.00  0.00     0.000 HD 
ENDROOT
BRANCH   2   4
HETATM    4  C   UNL     1     -10.614   5.704  71.416  1.00  0.00    -0.253 C  
BRANCH   4   5
HETATM    5  N   UNL     1     -11.515   6.565  70.624  1.00  0.00    -0.352 NA 
HETATM    6  C   UNL     1     -11.452   7.981  71.031  1.00  0.00    -0.279 C  
HETATM    7  C   UNL     1     -10.133   8.682  70.652  1.00  0.00    -0.198 C  
HETATM    8  N   UNL     1      -9.793   8.631  69.215  1.00  0.00    -0.184 NA 
HETATM    9  C   UNL     1     -11.189   6.483  69.181  1.00  0.00    -0.303 C  
HETATM   10  C   UNL     1      -9.901   7.231  68.748  1.00  0.00    -0.161 C  
BRANCH   8  11
HETATM   11  C   UNL     1     -10.604   9.541  68.392  1.00  0.00    -0.219 C  
BRANCH  11  12
HETATM   12  C   UNL     1     -10.629  10.980  68.924  1.00  0.00    -0.239 C  
BRANCH  12  13
HETATM   13  C   UNL     1     -12.034  11.600  68.862  1.00  0.00    -0.292 C  
BRANCH  13  14
HETATM   14  N   UNL     1     -11.953  13.080  68.753  1.00  0.00    -0.306 NA 
HETATM   15  C   UNL     1     -12.044  13.826  69.969  1.00  0.00    -0.349 A  
HETATM   16  C   UNL     1     -12.437  13.241  71.197  1.00  0.00    -0.397 A  
HETATM   17  C   UNL     1     -12.548  13.971  72.389  1.00  0.00    -0.243 A  
HETATM   18  C   UNL     1     -12.267  15.323  72.399  1.00  0.00    -0.471 A  
HETATM   19  C   UNL     1     -11.876  15.938  71.216  1.00  0.00    -0.502 A  
HETATM   20  C   UNL     1     -11.763  15.208  70.013  1.00  0.00    -0.307 A  
HETATM   21  S   UNL     1     -11.236  16.161  68.612  1.00  0.00    -0.359 SA 
HETATM   22  C   UNL     1     -11.151  14.946  67.325  1.00  0.00    -0.336 A  
HETATM   23  C   UNL     1     -11.525  13.601  67.489  1.00  0.00    -0.329 A  
HETATM   24  C   UNL     1     -11.437  12.795  66.326  1.00  0.00    -0.405 A  
HETATM   25  C   UNL     1     -10.918  13.247  65.096  1.00  0.00    -0.314 A  
HETATM   26  C   UNL     1     -10.534  14.578  64.988  1.00  0.00    -0.454 A  
HETATM   27  C   UNL     1     -10.749  12.306  63.929  1.00  0.00    -0.420 C  
HETATM   28  F   UNL     1     -11.129  11.025  64.197  1.00  0.00    -0.426 F  
HETATM   29  F   UNL     1      -9.450  12.219  63.521  1.00  0.00    -0.236 F  
HETATM   30  F   UNL     1     -11.460  12.686  62.834  1.00  0.00    -0.444 F  
HETATM   31  C   UNL     1     -10.665  15.421  66.087  1.00  0.00    -0.316 A  
ENDBRANCH  13  14
ENDBRANCH  12  13
ENDBRANCH  11  12
ENDBRANCH   8  11
ENDBRANCH   4   5
ENDBRANCH   2   4
TORSDOF 6
ENDMDL
MODEL        9
REMARK 921   NORMALIZED FREE ENERGY PREDICTED BY IDOCK:   -7.29 KCAL/MOL
REMARK 922        TOTAL FREE ENERGY PREDICTED BY IDOCK:  -10.08 KCAL/MOL
REMARK 923 INTER-LIGAND FREE ENERGY PREDICTED BY IDOCK:   -9.47 KCAL/MOL
REMARK 924 INTRA-LIGAND FREE ENERGY PREDICTED BY IDOCK:   -0.61 KCAL/MOL
REMARK 927      BINDING AFFINITY PREDICTED BY RF-SCORE:    0.00 PKD
ROOT
HETATM    1  O   UNL     1      -5.734  19.502  62.938  1.00  0.00    -0.319 OA 
HETATM    2  C   UNL     1      -5.629  19.284  64.344  1.00  0.00    -0.268 C  
HETATM    3  H   UNL     1      -5.026  19.054  62.491  1.00  0.00     0.000 HD 
ENDROOT
BRANCH   2   4
HETATM    4  C   UNL     1      -6.776  20.011  65.067  1.00  0.00    -0.256 C  
BRANCH   4   5
HETATM    5  N   UNL     1      -6.885  19.684  66.503  1.00  0.00    -0.196 NA 
HETATM    6  C   UNL     1      -7.816  20.576  67.220  1.00  0.00    -0.323 C  
HETATM    7  C   UNL     1      -9.297  20.355  66.858  1.00  0.00    -0.342 C  
HETATM    8  N   UNL     1      -9.786  18.974  67.055  1.00  0.00    -0.304 NA 
HETATM    9  C   UNL     1      -7.344  18.288  66.692  1.00  0.00    -0.223 C  
HETATM   10  C   UNL     1      -8.846  18.037  66.399  1.00  0.00    -0.231 C  
BRANCH   8  11
HETATM   11  C   UNL     1      -9.998  18.628  68.468  1.00  0.00    -0.388 C  
BRANCH  11  12
HETATM   12  C   UNL     1     -10.101  17.117  68.714  1.00  0.00    -0.329 C  
BRANCH  12  13
HETATM   13  C   UNL     1     -11.558  16.637  68.798  1.00  0.00     0.086 C  
BRANCH  13  14
HETATM   14  N   UNL     1     -11.628  15.256  69.340  1.00  0.00    -0.309 NA 
HETATM   15  C   UNL     1     -12.038  15.113  70.703  1.00  0.00    -0.329 A  
HETATM   16  C   UNL     1     -12.141  16.212  71.589  1.00  0.00    -0.479 A  
HETATM   17  C   UNL     1     -12.522  16.078  72.931  1.00  0.00    -0.596 A  
HETATM   18  C   UNL     1     -12.819  14.829  73.442  1.00  0.00    -0.597 A  
HETATM   19  C   UNL     1     -12.733  13.723  72.607  1.00  0.00    -0.196 A  
HETATM   20  C   UNL     1     -12.349  13.853  71.255  1.00  0.00    -0.335 A  
HETATM   21  S   UNL     1     -12.311  12.331  70.344  1.00  0.00    -0.159 SA 
HETATM   22  C   UNL     1     -11.856  12.863  68.716  1.00  0.00    -0.315 A  
HETATM   23  C   UNL     1     -11.542  14.193  68.384  1.00  0.00    -0.318 A  
HETATM   24  C   UNL     1     -11.149  14.411  67.039  1.00  0.00    -0.317 A  
HETATM   25  C   UNL     1     -11.158  13.411  66.047  1.00  0.00    -0.294 A  
HETATM   26  C   UNL     1     -11.503  12.116  66.415  1.00  0.00    -0.430 A  
HETATM   27  C   UNL     1     -10.833  13.736  64.610  1.00  0.00    -0.406 C  
HETATM   28  F   UNL     1     -10.556  15.053  64.394  1.00  0.00    -0.335 F  
HETATM   29  F   UNL     1     -11.867  13.443  63.770  1.00  0.00    -0.437 F  
HETATM   30  F   UNL     1      -9.762  13.045  64.138  1.00  0.00    -0.232 F  
HETATM   31  C   UNL     1     -11.832  11.844  67.738  1.00  0.00    -0.289 A  
ENDBRANCH  13  14
ENDBRANCH  12  13
ENDBRANCH  11  12
ENDBRANCH   8  11
ENDBRANCH   4   5
ENDBRANCH   2   4
TORSDOF 6
ENDMDL
MODEL       10
REMARK 921   NORMALIZED FREE ENERGY PREDICTED BY IDOCK:   -7.27 KCAL/MOL
REMARK 922        TOTAL FREE ENERGY PREDICTED BY IDOCK:  -10.06 KCAL/MOL
REMARK 923 INTER-LIGAND FREE ENERGY PREDICTED BY IDOCK:   -9.61 KCAL/MOL
REMARK 924 INTRA-LIGAND FREE ENERGY PREDICTED BY IDOCK:   -0.44 KCAL/MOL
REMARK 927      BINDING AFFINITY PREDICTED BY RF-SCORE:    0.00 PKD
ROOT
HETATM    1  O   UNL     1      -9.329   4.092  69.907  1.00  0.00    -0.129 OA 
HETATM    2  C   UNL     1     -10.022   4.025  71.152  1.00  0.00    -0.127 C  
HETATM    3  H   UNL     1      -9.184   3.215  69.573  1.00  0.00     0.000 HD 
ENDROOT
BRANCH   2   4
HETATM    4  C   UNL     1     -10.257   5.445  71.691  1.00  0.00    -0.209 C  
BRANCH   4   5
HETATM    5  N   UNL     1     -11.320   6.190  70.986  1.00  0.00    -0.303 NA 
HETATM    6  C   UNL     1     -12.176   6.965  71.903  1.00  0.00    -0.332 C  
HETATM    7  C   UNL     1     -11.474   8.182  72.534  1.00  0.00    -0.404 C  
HETATM    8  N   UNL     1     -10.901   9.141  71.567  1.00  0.00    -0.343 NA 
HETATM    9  C   UNL     1     -10.739   7.124  69.994  1.00  0.00    -0.248 C  
HETATM   10  C   UNL     1     -10.078   8.396  70.587  1.00  0.00    -0.193 C  
BRANCH   8  11
HETATM   11  C   UNL     1     -11.915   9.973  70.901  1.00  0.00    -0.361 C  
BRANCH  11  12
HETATM   12  C   UNL     1     -11.460  10.509  69.537  1.00  0.00    -0.339 C  
BRANCH  12  13
HETATM   13  C   UNL     1     -12.380  11.622  69.012  1.00  0.00     0.089 C  
BRANCH  13  14
HETATM   14  N   UNL     1     -11.586  12.797  68.568  1.00  0.00    -0.299 NA 
HETATM   15  C   UNL     1     -11.131  12.798  67.212  1.00  0.00    -0.276 A  
HETATM   16  C   UNL     1     -11.201  11.654  66.381  1.00  0.00    -0.349 A  
HETATM   17  C   UNL     1     -10.739  11.643  65.058  1.00  0.00    -0.351 A  
HETATM   18  C   UNL     1     -10.186  12.784  64.510  1.00  0.00    -0.333 A  
HETATM   19  C   UNL     1     -10.100  13.930  65.289  1.00  0.00    -0.328 A  
HETATM   20  C   UNL     1     -10.563  13.947  66.623  1.00  0.00    -0.274 A  
HETATM   21  S   UNL     1     -10.382  15.505  67.453  1.00  0.00    -0.271 SA 
HETATM   22  C   UNL     1     -11.099  15.185  69.042  1.00  0.00    -0.255 A  
HETATM   23  C   UNL     1     -11.580  13.928  69.447  1.00  0.00    -0.297 A  
HETATM   24  C   UNL     1     -12.069  13.859  70.776  1.00  0.00    -0.404 A  
HETATM   25  C   UNL     1     -12.178  14.974  71.630  1.00  0.00    -0.411 A  
HETATM   26  C   UNL     1     -11.717  16.204  71.177  1.00  0.00    -0.454 A  
HETATM   27  C   UNL     1     -12.811  14.851  72.995  1.00  0.00    -0.486 C  
HETATM   28  F   UNL     1     -13.253  13.595  73.284  1.00  0.00    -0.455 F  
HETATM   29  F   UNL     1     -13.902  15.659  73.130  1.00  0.00    -0.572 F  
HETATM   30  F   UNL     1     -11.965  15.193  74.004  1.00  0.00    -0.581 F  
HETATM   31  C   UNL     1     -11.169  16.303  69.902  1.00  0.00    -0.319 A  
ENDBRANCH  13  14
ENDBRANCH  12  13
ENDBRANCH  11  12
ENDBRANCH   8  11
ENDBRANCH   4   5
ENDBRANCH   2   4
TORSDOF 6
ENDMDL
MODEL       11
REMARK 921   NORMALIZED FREE ENERGY PREDICTED BY IDOCK:   -7.26 KCAL/MOL
REMARK 922        TOTAL FREE ENERGY PREDICTED BY IDOCK:  -10.04 KCAL/MOL
REMARK 923 INTER-LIGAND FREE ENERGY PREDICTED BY IDOCK:   -9.45 KCAL/MOL
REMARK 924 INTRA-LIGAND FREE ENERGY PREDICTED BY IDOCK:   -0.59 KCAL/MOL
REMARK 927      BINDING AFFINITY PREDICTED BY RF-SCORE:    0.00 PKD
ROOT
HETATM    1  O   UNL     1     -10.815   2.924  73.289  1.00  0.00    -0.170 OA 
HETATM    2  C   UNL     1     -10.646   4.083  74.102  1.00  0.00    -0.227 C  
HETATM    3  H   UNL     1     -10.449   2.167  73.731  1.00  0.00     0.000 HD 
ENDROOT
BRANCH   2   4
HETATM    4  C   UNL     1     -11.239   5.308  73.386  1.00  0.00    -0.250 C  
BRANCH   4   5
HETATM    5  N   UNL     1     -10.233   6.177  72.743  1.00  0.00    -0.181 NA 
HETATM    6  C   UNL     1     -10.211   6.033  71.276  1.00  0.00    -0.205 C  
HETATM    7  C   UNL     1     -11.449   6.619  70.572  1.00  0.00    -0.376 C  
HETATM    8  N   UNL     1     -11.713   8.044  70.861  1.00  0.00    -0.279 NA 
HETATM    9  C   UNL     1     -10.485   7.601  73.066  1.00  0.00    -0.356 C  
HETATM   10  C   UNL     1     -11.687   8.247  72.327  1.00  0.00    -0.388 C  
BRANCH   8  11
HETATM   11  C   UNL     1     -10.792   8.959  70.170  1.00  0.00    -0.231 C  
BRANCH  11  12
HETATM   12  C   UNL     1     -11.055  10.437  70.485  1.00  0.00    -0.343 C  
BRANCH  12  13
HETATM   13  C   UNL     1     -12.387  10.930  69.898  1.00  0.00    -0.285 C  
BRANCH  13  14
HETATM   14  N   UNL     1     -12.283  12.350  69.473  1.00  0.00    -0.155 NA 
HETATM   15  C   UNL     1     -12.631  13.344  70.439  1.00  0.00    -0.167 A  
HETATM   16  C   UNL     1     -13.278  13.031  71.659  1.00  0.00    -0.426 A  
HETATM   17  C   UNL     1     -13.641  14.003  72.602  1.00  0.00    -0.623 A  
HETATM   18  C   UNL     1     -13.367  15.335  72.361  1.00  0.00    -0.534 A  
HETATM   19  C   UNL     1     -12.730  15.687  71.177  1.00  0.00    -0.525 A  
HETATM   20  C   UNL     1     -12.365  14.712  70.224  1.00  0.00    -0.349 A  
HETATM   21  S   UNL     1     -11.549  15.352  68.783  1.00  0.00    -0.368 SA 
HETATM   22  C   UNL     1     -11.192  13.885  67.855  1.00  0.00    -0.278 A  
HETATM   23  C   UNL     1     -11.594  12.594  68.241  1.00  0.00    -0.332 A  
HETATM   24  C   UNL     1     -11.260  11.554  67.338  1.00  0.00    -0.367 A  
HETATM   25  C   UNL     1     -10.490  11.743  66.173  1.00  0.00    -0.284 A  
HETATM   26  C   UNL     1     -10.090  13.033  65.845  1.00  0.00    -0.291 A  
HETATM   27  C   UNL     1     -10.077  10.573  65.314  1.00  0.00    -0.300 C  
HETATM   28  F   UNL     1     -10.507   9.368  65.783  1.00  0.00    -0.299 F  
HETATM   29  F   UNL     1      -8.721  10.460  65.217  1.00  0.00    -0.152 F  
HETATM   30  F   UNL     1     -10.536  10.664  64.037  1.00  0.00    -0.429 F  
HETATM   31  C   UNL     1     -10.452  14.092  66.670  1.00  0.00    -0.278 A  
ENDBRANCH  13  14
ENDBRANCH  12  13
ENDBRANCH  11  12
ENDBRANCH   8  11
ENDBRANCH   4   5
ENDBRANCH   2   4
TORSDOF 6
ENDMDL
MODEL       12
REMARK 921   NORMALIZED FREE ENERGY PREDICTED BY IDOCK:   -7.21 KCAL/MOL
REMARK 922        TOTAL FREE ENERGY PREDICTED BY IDOCK:   -9.98 KCAL/MOL
REMARK 923 INTER-LIGAND FREE ENERGY PREDICTED BY IDOCK:   -9.35 KCAL/MOL
REMARK 924 INTRA-LIGAND FREE ENERGY PREDICTED BY IDOCK:   -0.62 KCAL/MOL
REMARK 927      BINDING AFFINITY PREDICTED BY RF-SCORE:    0.00 PKD
ROOT
HETATM    1  O   UNL     1     -11.715  16.454  63.647  1.00  0.00    -1.520 OA 
HETATM    2  C   UNL     1     -11.163  16.720  64.936  1.00  0.00     0.022 C  
HETATM    3  H   UNL     1     -12.278  17.173  63.386  1.00  0.00     0.000 HD 
ENDROOT
BRANCH   2   4
HETATM    4  C   UNL     1     -10.253  15.556  65.359  1.00  0.00    -0.377 C  
BRANCH   4   5
HETATM    5  N   UNL     1     -10.741  14.226  64.941  1.00  0.00    -0.413 NA 
HETATM    6  C   UNL     1      -9.711  13.177  65.065  1.00  0.00     0.088 C  
HETATM    7  C   UNL     1      -9.367  12.808  66.520  1.00  0.00    -0.221 C  
HETATM    8  N   UNL     1     -10.518  12.381  67.343  1.00  0.00    -0.214 NA 
HETATM    9  C   UNL     1     -11.915  13.819  65.748  1.00  0.00    -0.399 C  
HETATM   10  C   UNL     1     -11.602  13.379  67.202  1.00  0.00    -0.358 C  
BRANCH   8  11
HETATM   11  C   UNL     1     -10.987  11.023  67.028  1.00  0.00    -0.272 C  
BRANCH  11  12
HETATM   12  C   UNL     1     -10.000   9.927  67.452  1.00  0.00    -0.235 C  
BRANCH  12  13
HETATM   13  C   UNL     1      -9.715   9.952  68.962  1.00  0.00    -0.193 C  
BRANCH  13  14
HETATM   14  N   UNL     1     -10.715   9.139  69.701  1.00  0.00    -0.230 NA 
HETATM   15  C   UNL     1     -10.491   7.729  69.759  1.00  0.00    -0.233 A  
HETATM   16  C   UNL     1      -9.519   7.076  68.963  1.00  0.00    -0.138 A  
HETATM   17  C   UNL     1      -9.307   5.691  68.999  1.00  0.00    -0.150 A  
HETATM   18  C   UNL     1     -10.063   4.899  69.840  1.00  0.00    -0.332 A  
HETATM   19  C   UNL     1     -11.027   5.498  70.641  1.00  0.00    -0.190 A  
HETATM   20  C   UNL     1     -11.245   6.892  70.607  1.00  0.00    -0.301 A  
HETATM   21  S   UNL     1     -12.508   7.473  71.711  1.00  0.00    -0.327 SA 
HETATM   22  C   UNL     1     -12.473   9.226  71.454  1.00  0.00    -0.341 A  
HETATM   23  C   UNL     1     -11.653   9.864  70.506  1.00  0.00    -0.309 A  
HETATM   24  C   UNL     1     -11.807  11.270  70.412  1.00  0.00    -0.443 A  
HETATM   25  C   UNL     1     -12.638  12.027  71.261  1.00  0.00    -0.357 A  
HETATM   26  C   UNL     1     -13.410  11.357  72.203  1.00  0.00    -0.271 A  
HETATM   27  C   UNL     1     -12.672  13.534  71.179  1.00  0.00    -0.344 C  
HETATM   28  F   UNL     1     -11.832  14.051  70.238  1.00  0.00    -0.323 F  
HETATM   29  F   UNL     1     -12.303  14.121  72.353  1.00  0.00    -0.326 F  
HETATM   30  F   UNL     1     -13.907  14.022  70.888  1.00  0.00    -0.259 F  
HETATM   31  C   UNL     1     -13.338   9.971  72.285  1.00  0.00    -0.387 A  
ENDBRANCH  13  14
ENDBRANCH  12  13
ENDBRANCH  11  12
ENDBRANCH   8  11
ENDBRANCH   4   5
ENDBRANCH   2   4
TORSDOF 6
ENDMDL
MODEL       13
REMARK 921   NORMALIZED FREE ENERGY PREDICTED BY IDOCK:   -7.16 KCAL/MOL
REMARK 922        TOTAL FREE ENERGY PREDICTED BY IDOCK:   -9.91 KCAL/MOL
REMARK 923 INTER-LIGAND FREE ENERGY PREDICTED BY IDOCK:   -9.12 KCAL/MOL
REMARK 924 INTRA-LIGAND FREE ENERGY PREDICTED BY IDOCK:   -0.79 KCAL/MOL
REMARK 927      BINDING AFFINITY PREDICTED BY RF-SCORE:    0.00 PKD
ROOT
HETATM    1  O   UNL     1      -8.907  20.245  65.908  1.00  0.00    -0.577 OA 
HETATM    2  C   UNL     1      -8.177  20.035  67.115  1.00  0.00    -0.322 C  
HETATM    3  H   UNL     1      -9.068  21.174  65.789  1.00  0.00     0.000 HD 
ENDROOT
BRANCH   2   4
HETATM    4  C   UNL     1      -7.918  18.531  67.308  1.00  0.00    -0.236 C  
BRANCH   4   5
HETATM    5  N   UNL     1      -8.477  17.978  68.558  1.00  0.00    -0.310 NA 
HETATM    6  C   UNL     1      -9.914  18.268  68.717  1.00  0.00    -0.370 C  
HETATM    7  C   UNL     1     -10.819  17.493  67.741  1.00  0.00    -0.249 C  
HETATM    8  N   UNL     1     -10.670  16.024  67.787  1.00  0.00    -0.316 NA 
HETATM    9  C   UNL     1      -8.292  16.508  68.611  1.00  0.00    -0.235 C  
HETATM   10  C   UNL     1      -9.231  15.687  67.689  1.00  0.00    -0.193 C  
BRANCH   8  11
HETATM   11  C   UNL     1     -11.290  15.412  68.971  1.00  0.00    -0.316 C  
BRANCH  11  12
HETATM   12  C   UNL     1     -11.058  13.898  69.064  1.00  0.00    -0.302 C  
BRANCH  12  13
HETATM   13  C   UNL     1     -12.270  13.091  68.574  1.00  0.00    -0.001 C  
BRANCH  13  14
HETATM   14  N   UNL     1     -11.870  12.126  67.518  1.00  0.00    -0.553 NA 
HETATM   15  C   UNL     1     -11.844  12.609  66.173  1.00  0.00    -0.418 A  
HETATM   16  C   UNL     1     -12.398  13.856  65.797  1.00  0.00    -0.518 A  
HETATM   17  C   UNL     1     -12.394  14.327  64.477  1.00  0.00    -0.432 A  
HETATM   18  C   UNL     1     -11.830  13.564  63.474  1.00  0.00    -0.313 A  
HETATM   19  C   UNL     1     -11.272  12.334  63.798  1.00  0.00    -0.510 A  
HETATM   20  C   UNL     1     -11.275  11.854  65.125  1.00  0.00    -0.289 A  
HETATM   21  S   UNL     1     -10.504  10.271  65.345  1.00  0.00     0.082 SA 
HETATM   22  C   UNL     1     -10.634  10.014  67.093  1.00  0.00    -0.232 A  
HETATM   23  C   UNL     1     -11.293  10.894  67.969  1.00  0.00    -0.312 A  
HETATM   24  C   UNL     1     -11.337  10.488  69.327  1.00  0.00    -0.325 A  
HETATM   25  C   UNL     1     -10.688   9.340  69.823  1.00  0.00    -0.245 A  
HETATM   26  C   UNL     1     -10.023   8.513  68.925  1.00  0.00    -0.197 A  
HETATM   27  C   UNL     1     -10.682   9.025  71.299  1.00  0.00    -0.309 C  
HETATM   28  F   UNL     1     -11.338   9.946  72.060  1.00  0.00    -0.300 F  
HETATM   29  F   UNL     1      -9.418   8.970  71.808  1.00  0.00    -0.322 F  
HETATM   30  F   UNL     1     -11.254   7.825  71.588  1.00  0.00    -0.245 F  
HETATM   31  C   UNL     1     -10.012   8.840  67.573  1.00  0.00    -0.254 A  
ENDBRANCH  13  14
ENDBRANCH  12  13
ENDBRANCH  11  12
ENDBRANCH   8  11
ENDBRANCH   4   5
ENDBRANCH   2   4
TORSDOF 6
ENDMDL
MODEL       14
REMARK 921   NORMALIZED FREE ENERGY PREDICTED BY IDOCK:   -7.12 KCAL/MOL
REMARK 922        TOTAL FREE ENERGY PREDICTED BY IDOCK:   -9.85 KCAL/MOL
REMARK 923 INTER-LIGAND FREE ENERGY PREDICTED BY IDOCK:   -9.14 KCAL/MOL
REMARK 924 INTRA-LIGAND FREE ENERGY PREDICTED BY IDOCK:   -0.71 KCAL/MOL
REMARK 927      BINDING AFFINITY PREDICTED BY RF-SCORE:    0.00 PKD
ROOT
HETATM    1  O   UNL     1      -8.078  20.537  65.650  1.00  0.00    -0.513 OA 
HETATM    2  C   UNL     1      -8.336  19.795  66.841  1.00  0.00    -0.311 C  
HETATM    3  H   UNL     1      -8.001  21.460  65.859  1.00  0.00     0.000 HD 
ENDROOT
BRANCH   2   4
HETATM    4  C   UNL     1      -8.460  18.301  66.504  1.00  0.00    -0.268 C  
BRANCH   4   5
HETATM    5  N   UNL     1      -9.832  17.766  66.628  1.00  0.00    -0.307 NA 
HETATM    6  C   UNL     1      -9.958  16.394  66.104  1.00  0.00    -0.339 C  
HETATM    7  C   UNL     1      -9.257  15.328  66.967  1.00  0.00    -0.218 C  
HETATM    8  N   UNL     1      -9.687  15.290  68.380  1.00  0.00    -0.209 NA 
HETATM    9  C   UNL     1     -10.268  17.763  68.044  1.00  0.00    -0.377 C  
HETATM   10  C   UNL     1      -9.632  16.662  68.933  1.00  0.00    -0.252 C  
BRANCH   8  11
HETATM   11  C   UNL     1     -11.013  14.683  68.568  1.00  0.00    -0.252 C  
BRANCH  11  12
HETATM   12  C   UNL     1     -10.953  13.186  68.904  1.00  0.00    -0.270 C  
BRANCH  12  13
HETATM   13  C   UNL     1     -12.032  12.379  68.165  1.00  0.00    -0.214 C  
BRANCH  13  14
HETATM   14  N   UNL     1     -11.424  11.249  67.415  1.00  0.00    -0.513 NA 
HETATM   15  C   UNL     1     -11.006  11.511  66.073  1.00  0.00    -0.259 A  
HETATM   16  C   UNL     1     -11.358  12.694  65.379  1.00  0.00    -0.348 A  
HETATM   17  C   UNL     1     -10.970  12.948  64.057  1.00  0.00    -0.447 A  
HETATM   18  C   UNL     1     -10.206  12.023  63.372  1.00  0.00    -0.457 A  
HETATM   19  C   UNL     1      -9.835  10.849  64.015  1.00  0.00    -0.377 A  
HETATM   20  C   UNL     1     -10.226  10.588  65.346  1.00  0.00    -0.270 A  
HETATM   21  S   UNL     1      -9.644   9.044  66.001  1.00  0.00    -0.255 SA 
HETATM   22  C   UNL     1     -10.256   9.072  67.664  1.00  0.00    -0.242 A  
HETATM   23  C   UNL     1     -11.070  10.094  68.184  1.00  0.00    -0.230 A  
HETATM   24  C   UNL     1     -11.503   9.911  69.522  1.00  0.00    -0.120 A  
HETATM   25  C   UNL     1     -11.085   8.843  70.342  1.00  0.00    -0.270 A  
HETATM   26  C   UNL     1     -10.258   7.871  69.794  1.00  0.00    -0.212 A  
HETATM   27  C   UNL     1     -11.497   8.768  71.792  1.00  0.00    -0.342 C  
HETATM   28  F   UNL     1     -12.273   9.812  72.198  1.00  0.00    -0.424 F  
HETATM   29  F   UNL     1     -10.423   8.769  72.632  1.00  0.00    -0.364 F  
HETATM   30  F   UNL     1     -12.200   7.642  72.086  1.00  0.00    -0.295 F  
HETATM   31  C   UNL     1      -9.862   7.978  68.465  1.00  0.00    -0.185 A  
ENDBRANCH  13  14
ENDBRANCH  12  13
ENDBRANCH  11  12
ENDBRANCH   8  11
ENDBRANCH   4   5
ENDBRANCH   2   4
TORSDOF 6
ENDMDL
MODEL       15
REMARK 921   NORMALIZED FREE ENERGY PREDICTED BY IDOCK:   -7.11 KCAL/MOL
REMARK 922        TOTAL FREE ENERGY PREDICTED BY IDOCK:   -9.85 KCAL/MOL
REMARK 923 INTER-LIGAND FREE ENERGY PREDICTED BY IDOCK:   -9.64 KCAL/MOL
REMARK 924 INTRA-LIGAND FREE ENERGY PREDICTED BY IDOCK:   -0.21 KCAL/MOL
REMARK 927      BINDING AFFINITY PREDICTED BY RF-SCORE:    0.00 PKD
ROOT
HETATM    1  O   UNL     1     -11.676  16.521  63.827  1.00  0.00    -1.548 OA 
HETATM    2  C   UNL     1     -12.495  15.444  64.280  1.00  0.00     0.066 C  
HETATM    3  H   UNL     1     -11.875  17.305  64.324  1.00  0.00     0.000 HD 
ENDROOT
BRANCH   2   4
HETATM    4  C   UNL     1     -12.173  14.174  63.476  1.00  0.00     0.144 C  
BRANCH   4   5
HETATM    5  N   UNL     1     -12.547  12.918  64.157  1.00  0.00    -0.665 NA 
HETATM    6  C   UNL     1     -11.740  11.767  63.711  1.00  0.00    -0.400 C  
HETATM    7  C   UNL     1     -10.275  11.812  64.182  1.00  0.00    -0.322 C  
HETATM    8  N   UNL     1     -10.094  11.924  65.644  1.00  0.00    -0.236 NA 
HETATM    9  C   UNL     1     -12.396  13.050  65.625  1.00  0.00    -0.446 C  
HETATM   10  C   UNL     1     -10.935  13.035  66.146  1.00  0.00    -0.280 C  
BRANCH   8  11
HETATM   11  C   UNL     1     -10.368  10.671  66.363  1.00  0.00    -0.231 C  
BRANCH  11  12
HETATM   12  C   UNL     1     -11.212  10.869  67.629  1.00  0.00    -0.379 C  
BRANCH  12  13
HETATM   13  C   UNL     1     -10.353  10.902  68.903  1.00  0.00    -0.204 C  
BRANCH  13  14
HETATM   14  N   UNL     1     -11.183  10.633  70.105  1.00  0.00    -0.304 NA 
HETATM   15  C   UNL     1     -11.944  11.725  70.626  1.00  0.00    -0.222 A  
HETATM   16  C   UNL     1     -11.755  13.062  70.198  1.00  0.00    -0.244 A  
HETATM   17  C   UNL     1     -12.483  14.140  70.718  1.00  0.00    -0.436 A  
HETATM   18  C   UNL     1     -13.438  13.923  71.692  1.00  0.00    -0.428 A  
HETATM   19  C   UNL     1     -13.659  12.626  72.140  1.00  0.00    -0.510 A  
HETATM   20  C   UNL     1     -12.927  11.537  71.620  1.00  0.00    -0.394 A  
HETATM   21  S   UNL     1     -13.360   9.958  72.304  1.00  0.00    -0.213 SA 
HETATM   22  C   UNL     1     -12.313   8.845  71.406  1.00  0.00    -0.313 A  
HETATM   23  C   UNL     1     -11.352   9.257  70.466  1.00  0.00    -0.258 A  
HETATM   24  C   UNL     1     -10.575   8.220  69.891  1.00  0.00    -0.232 A  
HETATM   25  C   UNL     1     -10.788   6.850  70.140  1.00  0.00    -0.300 A  
HETATM   26  C   UNL     1     -11.768   6.487  71.056  1.00  0.00    -0.402 A  
HETATM   27  C   UNL     1      -9.996   5.793  69.410  1.00  0.00    -0.187 C  
HETATM   28  F   UNL     1      -9.101   6.298  68.514  1.00  0.00    -0.125 F  
HETATM   29  F   UNL     1     -10.797   4.957  68.688  1.00  0.00    -0.057 F  
HETATM   30  F   UNL     1      -9.279   4.995  70.246  1.00  0.00    -0.143 F  
HETATM   31  C   UNL     1     -12.510   7.476  71.692  1.00  0.00    -0.371 A  
ENDBRANCH  13  14
ENDBRANCH  12  13
ENDBRANCH  11  12
ENDBRANCH   8  11
ENDBRANCH   4   5
ENDBRANCH   2   4
TORSDOF 6
ENDMDL
MODEL       16
REMARK 921   NORMALIZED FREE ENERGY PREDICTED BY IDOCK:   -7.06 KCAL/MOL
REMARK 922        TOTAL FREE ENERGY PREDICTED BY IDOCK:   -9.78 KCAL/MOL
REMARK 923 INTER-LIGAND FREE ENERGY PREDICTED BY IDOCK:   -8.91 KCAL/MOL
REMARK 924 INTRA-LIGAND FREE ENERGY PREDICTED BY IDOCK:   -0.87 KCAL/MOL
REMARK 927      BINDING AFFINITY PREDICTED BY RF-SCORE:    0.00 PKD
ROOT
HETATM    1  O   UNL     1      -7.612  18.422  65.509  1.00  0.00    -0.510 OA 
HETATM    2  C   UNL     1      -7.862  17.145  66.093  1.00  0.00    -0.268 C  
HETATM    3  H   UNL     1      -7.040  18.323  64.757  1.00  0.00     0.000 HD 
ENDROOT
BRANCH   2   4
HETATM    4  C   UNL     1      -8.787  17.305  67.311  1.00  0.00    -0.222 C  
BRANCH   4   5
HETATM    5  N   UNL     1     -10.095  16.636  67.167  1.00  0.00    -0.270 NA 
HETATM    6  C   UNL     1      -9.988  15.165  67.192  1.00  0.00    -0.237 C  
HETATM    7  C   UNL     1      -9.627  14.588  68.573  1.00  0.00    -0.220 C  
HETATM    8  N   UNL     1     -10.544  14.970  69.666  1.00  0.00    -0.251 NA 
HETATM    9  C   UNL     1     -11.020  17.050  68.248  1.00  0.00    -0.269 C  
HETATM   10  C   UNL     1     -10.728  16.439  69.643  1.00  0.00    -0.337 C  
BRANCH   8  11
HETATM   11  C   UNL     1     -11.832  14.262  69.621  1.00  0.00    -0.318 C  
BRANCH  11  12
HETATM   12  C   UNL     1     -11.784  12.874  70.273  1.00  0.00    -0.187 C  
BRANCH  12  13
HETATM   13  C   UNL     1     -12.394  11.786  69.375  1.00  0.00    -0.035 C  
BRANCH  13  14
HETATM   14  N   UNL     1     -11.387  10.742  69.053  1.00  0.00    -0.262 NA 
HETATM   15  C   UNL     1     -11.169   9.727  70.036  1.00  0.00    -0.251 A  
HETATM   16  C   UNL     1     -11.681   9.814  71.353  1.00  0.00    -0.475 A  
HETATM   17  C   UNL     1     -11.453   8.833  72.327  1.00  0.00    -0.376 A  
HETATM   18  C   UNL     1     -10.701   7.716  72.020  1.00  0.00    -0.270 A  
HETATM   19  C   UNL     1     -10.181   7.588  70.738  1.00  0.00    -0.194 A  
HETATM   20  C   UNL     1     -10.406   8.574  69.754  1.00  0.00    -0.212 A  
HETATM   21  S   UNL     1      -9.674   8.227  68.174  1.00  0.00    -0.163 SA 
HETATM   22  C   UNL     1     -10.193   9.609  67.193  1.00  0.00    -0.243 A  
HETATM   23  C   UNL     1     -10.932  10.695  67.696  1.00  0.00    -0.310 A  
HETATM   24  C   UNL     1     -11.206  11.731  66.767  1.00  0.00    -0.388 A  
HETATM   25  C   UNL     1     -10.868  11.668  65.400  1.00  0.00    -0.336 A  
HETATM   26  C   UNL     1     -10.163  10.562  64.942  1.00  0.00    -0.371 A  
HETATM   27  C   UNL     1     -11.287  12.758  64.444  1.00  0.00    -0.347 C  
HETATM   28  F   UNL     1     -12.007  13.756  65.029  1.00  0.00    -0.333 F  
HETATM   29  F   UNL     1     -12.078  12.283  63.439  1.00  0.00    -0.508 F  
HETATM   30  F   UNL     1     -10.233  13.364  63.835  1.00  0.00    -0.385 F  
HETATM   31  C   UNL     1      -9.816   9.553  65.834  1.00  0.00    -0.360 A  
ENDBRANCH  13  14
ENDBRANCH  12  13
ENDBRANCH  11  12
ENDBRANCH   8  11
ENDBRANCH   4   5
ENDBRANCH   2   4
TORSDOF 6
ENDMDL
MODEL       17
REMARK 921   NORMALIZED FREE ENERGY PREDICTED BY IDOCK:   -6.99 KCAL/MOL
REMARK 922        TOTAL FREE ENERGY PREDICTED BY IDOCK:   -9.67 KCAL/MOL
REMARK 923 INTER-LIGAND FREE ENERGY PREDICTED BY IDOCK:   -9.01 KCAL/MOL
REMARK 924 INTRA-LIGAND FREE ENERGY PREDICTED BY IDOCK:   -0.67 KCAL/MOL
REMARK 927      BINDING AFFINITY PREDICTED BY RF-SCORE:    0.00 PKD
ROOT
HETATM    1  O   UNL     1     -13.489  16.281  74.062  1.00  0.00    -0.915 OA 
HETATM    2  C   UNL     1     -12.406  15.377  74.271  1.00  0.00    -0.664 C  
HETATM    3  H   UNL     1     -13.939  16.437  74.884  1.00  0.00     0.000 HD 
ENDROOT
BRANCH   2   4
HETATM    4  C   UNL     1     -11.679  15.125  72.940  1.00  0.00    -0.314 C  
BRANCH   4   5
HETATM    5  N   UNL     1     -12.332  15.744  71.769  1.00  0.00    -0.419 NA 
HETATM    6  C   UNL     1     -11.365  16.308  70.809  1.00  0.00    -0.299 C  
HETATM    7  C   UNL     1     -10.556  15.246  70.040  1.00  0.00    -0.270 C  
HETATM    8  N   UNL     1     -11.370  14.259  69.301  1.00  0.00    -0.270 NA 
HETATM    9  C   UNL     1     -13.173  14.756  71.052  1.00  0.00    -0.380 C  
HETATM   10  C   UNL     1     -12.397  13.708  70.213  1.00  0.00    -0.322 C  
BRANCH   8  11
HETATM   11  C   UNL     1     -11.971  14.803  68.074  1.00  0.00    -0.227 C  
BRANCH  11  12
HETATM   12  C   UNL     1     -11.713  13.934  66.836  1.00  0.00    -0.425 C  
BRANCH  12  13
HETATM   13  C   UNL     1     -10.573  14.485  65.964  1.00  0.00    -0.307 C  
BRANCH  13  14
HETATM   14  N   UNL     1      -9.319  14.608  66.753  1.00  0.00    -0.245 NA 
HETATM   15  C   UNL     1      -8.594  13.403  67.011  1.00  0.00    -0.158 A  
HETATM   16  C   UNL     1      -9.132  12.118  66.760  1.00  0.00    -0.205 A  
HETATM   17  C   UNL     1      -8.435  10.932  67.030  1.00  0.00    -0.134 A  
HETATM   18  C   UNL     1      -7.162  10.986  67.563  1.00  0.00    -0.096 A  
HETATM   19  C   UNL     1      -6.594  12.227  67.823  1.00  0.00    -0.108 A  
HETATM   20  C   UNL     1      -7.293  13.424  67.554  1.00  0.00    -0.156 A  
HETATM   21  S   UNL     1      -6.398  14.908  67.938  1.00  0.00    -0.159 SA 
HETATM   22  C   UNL     1      -7.523  16.181  67.434  1.00  0.00    -0.169 A  
HETATM   23  C   UNL     1      -8.819  15.936  66.946  1.00  0.00    -0.236 A  
HETATM   24  C   UNL     1      -9.588  17.089  66.646  1.00  0.00    -0.279 A  
HETATM   25  C   UNL     1      -9.090  18.405  66.721  1.00  0.00    -0.293 A  
HETATM   26  C   UNL     1      -7.794  18.598  67.182  1.00  0.00    -0.241 A  
HETATM   27  C   UNL     1      -9.928  19.580  66.281  1.00  0.00    -0.450 C  
HETATM   28  F   UNL     1     -11.161  19.233  65.814  1.00  0.00    -0.405 F  
HETATM   29  F   UNL     1      -9.342  20.279  65.267  1.00  0.00    -0.124 F  
HETATM   30  F   UNL     1     -10.146  20.480  67.278  1.00  0.00    -0.553 F  
HETATM   31  C   UNL     1      -7.027  17.498  67.550  1.00  0.00    -0.183 A  
ENDBRANCH  13  14
ENDBRANCH  12  13
ENDBRANCH  11  12
ENDBRANCH   8  11
ENDBRANCH   4   5
ENDBRANCH   2   4
TORSDOF 6
ENDMDL
MODEL       18
REMARK 921   NORMALIZED FREE ENERGY PREDICTED BY IDOCK:   -6.98 KCAL/MOL
REMARK 922        TOTAL FREE ENERGY PREDICTED BY IDOCK:   -9.66 KCAL/MOL
REMARK 923 INTER-LIGAND FREE ENERGY PREDICTED BY IDOCK:   -9.16 KCAL/MOL
REMARK 924 INTRA-LIGAND FREE ENERGY PREDICTED BY IDOCK:   -0.50 KCAL/MOL
REMARK 927      BINDING AFFINITY PREDICTED BY RF-SCORE:    0.00 PKD
ROOT
HETATM    1  O   UNL     1     -14.142   8.751  73.056  1.00  0.00    -1.035 OA 
HETATM    2  C   UNL     1     -13.907   9.299  71.760  1.00  0.00    -0.325 C  
HETATM    3  H   UNL     1     -14.983   9.047  73.381  1.00  0.00     0.000 HD 
ENDROOT
BRANCH   2   4
HETATM    4  C   UNL     1     -12.544   8.819  71.234  1.00  0.00    -0.246 C  
BRANCH   4   5
HETATM    5  N   UNL     1     -11.454   9.802  71.402  1.00  0.00    -0.380 NA 
HETATM    6  C   UNL     1     -10.170   9.325  70.857  1.00  0.00    -0.301 C  
HETATM    7  C   UNL     1     -10.131   9.255  69.319  1.00  0.00    -0.200 C  
HETATM    8  N   UNL     1     -10.447  10.524  68.630  1.00  0.00    -0.180 NA 
HETATM    9  C   UNL     1     -11.793  11.082  70.738  1.00  0.00    -0.278 C  
HETATM   10  C   UNL     1     -11.703  11.071  69.189  1.00  0.00    -0.333 C  
BRANCH   8  11
HETATM   11  C   UNL     1      -9.354  11.506  68.691  1.00  0.00    -0.137 C  
BRANCH  11  12
HETATM   12  C   UNL     1      -9.776  12.911  68.240  1.00  0.00    -0.217 C  
BRANCH  12  13
HETATM   13  C   UNL     1      -8.820  13.497  67.188  1.00  0.00    -0.226 C  
BRANCH  13  14
HETATM   14  N   UNL     1      -9.576  14.230  66.139  1.00  0.00    -0.297 NA 
HETATM   15  C   UNL     1     -10.390  13.449  65.261  1.00  0.00    -0.319 A  
HETATM   16  C   UNL     1     -10.315  12.036  65.203  1.00  0.00    -0.313 A  
HETATM   17  C   UNL     1     -11.095  11.265  64.330  1.00  0.00    -0.273 A  
HETATM   18  C   UNL     1     -11.989  11.882  63.476  1.00  0.00    -0.567 A  
HETATM   19  C   UNL     1     -12.096  13.267  63.501  1.00  0.00    -0.550 A  
HETATM   20  C   UNL     1     -11.312  14.047  64.377  1.00  0.00    -0.319 A  
HETATM   21  S   UNL     1     -11.600  15.796  64.274  1.00  0.00     0.000 SA 
HETATM   22  C   UNL     1     -10.517  16.442  65.519  1.00  0.00    -0.330 A  
HETATM   23  C   UNL     1      -9.630  15.655  66.274  1.00  0.00    -0.308 A  
HETATM   24  C   UNL     1      -8.806  16.363  67.185  1.00  0.00    -0.214 A  
HETATM   25  C   UNL     1      -8.910  17.749  67.421  1.00  0.00    -0.240 A  
HETATM   26  C   UNL     1      -9.820  18.483  66.671  1.00  0.00    -0.370 A  
HETATM   27  C   UNL     1      -8.077  18.422  68.485  1.00  0.00    -0.319 C  
HETATM   28  F   UNL     1      -7.261  17.568  69.165  1.00  0.00    -0.241 F  
HETATM   29  F   UNL     1      -8.847  19.022  69.437  1.00  0.00    -0.203 F  
HETATM   30  F   UNL     1      -7.269  19.396  67.988  1.00  0.00    -0.268 F  
HETATM   31  C   UNL     1     -10.603  17.837  65.720  1.00  0.00    -0.175 A  
ENDBRANCH  13  14
ENDBRANCH  12  13
ENDBRANCH  11  12
ENDBRANCH   8  11
ENDBRANCH   4   5
ENDBRANCH   2   4
TORSDOF 6
ENDMDL
MODEL       19
REMARK 921   NORMALIZED FREE ENERGY PREDICTED BY IDOCK:   -6.97 KCAL/MOL
REMARK 922        TOTAL FREE ENERGY PREDICTED BY IDOCK:   -9.66 KCAL/MOL
REMARK 923 INTER-LIGAND FREE ENERGY PREDICTED BY IDOCK:   -8.88 KCAL/MOL
REMARK 924 INTRA-LIGAND FREE ENERGY PREDICTED BY IDOCK:   -0.78 KCAL/MOL
REMARK 927      BINDING AFFINITY PREDICTED BY RF-SCORE:    0.00 PKD
ROOT
HETATM    1  O   UNL     1      -8.763  21.049  67.163  1.00  0.00    -0.568 OA 
HETATM    2  C   UNL     1      -9.645  20.024  67.618  1.00  0.00    -0.389 C  
HETATM    3  H   UNL     1      -9.257  21.709  66.691  1.00  0.00     0.000 HD 
ENDROOT
BRANCH   2   4
HETATM    4  C   UNL     1      -8.847  18.955  68.382  1.00  0.00    -0.344 C  
BRANCH   4   5
HETATM    5  N   UNL     1      -8.203  17.948  67.514  1.00  0.00    -0.225 NA 
HETATM    6  C   UNL     1      -7.346  17.013  68.266  1.00  0.00    -0.203 C  
HETATM    7  C   UNL     1      -8.127  16.029  69.158  1.00  0.00    -0.238 C  
HETATM    8  N   UNL     1      -9.136  15.214  68.450  1.00  0.00    -0.179 NA 
HETATM    9  C   UNL     1      -9.221  17.157  66.782  1.00  0.00    -0.254 C  
HETATM   10  C   UNL     1      -9.985  16.109  67.632  1.00  0.00    -0.241 C  
BRANCH   8  11
HETATM   11  C   UNL     1      -8.549  14.136  67.640  1.00  0.00    -0.189 C  
BRANCH  11  12
HETATM   12  C   UNL     1      -8.989  12.734  68.085  1.00  0.00    -0.199 C  
BRANCH  12  13
HETATM   13  C   UNL     1     -10.433  12.417  67.667  1.00  0.00    -0.216 C  
BRANCH  13  14
HETATM   14  N   UNL     1     -11.044  11.427  68.592  1.00  0.00    -0.216 NA 
HETATM   15  C   UNL     1     -10.629  10.066  68.454  1.00  0.00    -0.220 A  
HETATM   16  C   UNL     1      -9.868   9.608  67.351  1.00  0.00    -0.218 A  
HETATM   17  C   UNL     1      -9.474   8.271  67.198  1.00  0.00    -0.206 A  
HETATM   18  C   UNL     1      -9.827   7.335  68.151  1.00  0.00    -0.165 A  
HETATM   19  C   UNL     1     -10.571   7.742  69.251  1.00  0.00    -0.199 A  
HETATM   20  C   UNL     1     -10.971   9.086  69.408  1.00  0.00    -0.065 A  
HETATM   21  S   UNL     1     -11.902   9.416  70.883  1.00  0.00    -0.284 SA 
HETATM   22  C   UNL     1     -12.179  11.164  70.785  1.00  0.00    -0.385 A  
HETATM   23  C   UNL     1     -11.779  11.962  69.699  1.00  0.00    -0.343 A  
HETATM   24  C   UNL     1     -12.139  13.331  69.781  1.00  0.00    -0.355 A  
HETATM   25  C   UNL     1     -12.764  13.912  70.902  1.00  0.00    -0.410 A  
HETATM   26  C   UNL     1     -13.117  13.089  71.965  1.00  0.00    -0.481 A  
HETATM   27  C   UNL     1     -13.020  15.398  70.969  1.00  0.00    -0.492 C  
HETATM   28  F   UNL     1     -12.583  16.080  69.873  1.00  0.00    -0.313 F  
HETATM   29  F   UNL     1     -12.392  15.980  72.031  1.00  0.00    -0.425 F  
HETATM   30  F   UNL     1     -14.338  15.704  71.101  1.00  0.00    -0.521 F  
HETATM   31  C   UNL     1     -12.841  11.728  71.898  1.00  0.00    -0.338 A  
ENDBRANCH  13  14
ENDBRANCH  12  13
ENDBRANCH  11  12
ENDBRANCH   8  11
ENDBRANCH   4   5
ENDBRANCH   2   4
TORSDOF 6
ENDMDL
MODEL       20
REMARK 921   NORMALIZED FREE ENERGY PREDICTED BY IDOCK:   -6.92 KCAL/MOL
REMARK 922        TOTAL FREE ENERGY PREDICTED BY IDOCK:   -9.58 KCAL/MOL
REMARK 923 INTER-LIGAND FREE ENERGY PREDICTED BY IDOCK:   -8.87 KCAL/MOL
REMARK 924 INTRA-LIGAND FREE ENERGY PREDICTED BY IDOCK:   -0.71 KCAL/MOL
REMARK 927      BINDING AFFINITY PREDICTED BY RF-SCORE:    0.00 PKD
ROOT
HETATM    1  O   UNL     1      -9.591   2.398  67.391  1.00  0.00    -0.406 OA 
HETATM    2  C   UNL     1      -9.030   3.127  68.482  1.00  0.00    -0.137 C  
HETATM    3  H   UNL     1      -9.285   1.500  67.415  1.00  0.00     0.000 HD 
ENDROOT
BRANCH   2   4
HETATM    4  C   UNL     1      -9.526   4.582  68.442  1.00  0.00    -0.151 C  
BRANCH   4   5
HETATM    5  N   UNL     1      -9.279   5.337  69.688  1.00  0.00    -0.114 NA 
HETATM    6  C   UNL     1      -8.711   6.675  69.438  1.00  0.00    -0.135 C  
HETATM    7  C   UNL     1      -9.704   7.667  68.805  1.00  0.00    -0.153 C  
HETATM    8  N   UNL     1     -10.955   7.866  69.565  1.00  0.00    -0.139 NA 
HETATM    9  C   UNL     1     -10.532   5.502  70.460  1.00  0.00    -0.277 C  
HETATM   10  C   UNL     1     -11.532   6.541  69.889  1.00  0.00    -0.403 C  
BRANCH   8  11
HETATM   11  C   UNL     1     -10.780   8.690  70.770  1.00  0.00    -0.216 C  
BRANCH  11  12
HETATM   12  C   UNL     1     -10.832  10.197  70.487  1.00  0.00    -0.340 C  
BRANCH  12  13
HETATM   13  C   UNL     1     -12.133  10.613  69.782  1.00  0.00    -0.272 C  
BRANCH  13  14
HETATM   14  N   UNL     1     -12.080  12.042  69.379  1.00  0.00    -0.246 NA 
HETATM   15  C   UNL     1     -12.448  13.010  70.365  1.00  0.00    -0.194 A  
HETATM   16  C   UNL     1     -13.069  12.657  71.587  1.00  0.00    -0.421 A  
HETATM   17  C   UNL     1     -13.451  13.601  72.550  1.00  0.00    -0.675 A  
HETATM   18  C   UNL     1     -13.223  14.945  72.327  1.00  0.00    -0.468 A  
HETATM   19  C   UNL     1     -12.614  15.336  71.141  1.00  0.00    -0.457 A  
HETATM   20  C   UNL     1     -12.229  14.389  70.168  1.00  0.00    -0.341 A  
HETATM   21  S   UNL     1     -11.453  15.077  68.728  1.00  0.00    -0.336 SA 
HETATM   22  C   UNL     1     -11.061  13.638  67.772  1.00  0.00    -0.272 A  
HETATM   23  C   UNL     1     -11.416  12.329  68.142  1.00  0.00    -0.316 A  
HETATM   24  C   UNL     1     -11.060  11.313  67.219  1.00  0.00    -0.367 A  
HETATM   25  C   UNL     1     -10.311  11.546  66.048  1.00  0.00    -0.290 A  
HETATM   26  C   UNL     1      -9.957  12.853  65.736  1.00  0.00    -0.261 A  
HETATM   27  C   UNL     1      -9.871  10.404  65.165  1.00  0.00    -0.313 C  
HETATM   28  F   UNL     1     -10.256   9.178  65.619  1.00  0.00    -0.344 F  
HETATM   29  F   UNL     1      -8.514  10.336  65.049  1.00  0.00    -0.146 F  
HETATM   30  F   UNL     1     -10.350  10.500  63.895  1.00  0.00    -0.403 F  
HETATM   31  C   UNL     1     -10.343  13.887  66.581  1.00  0.00    -0.278 A  
ENDBRANCH  13  14
ENDBRANCH  12  13
ENDBRANCH  11  12
ENDBRANCH   8  11
ENDBRANCH   4   5
ENDBRANCH   2   4
TORSDOF 6
ENDMDL
MODEL       21
REMARK 921   NORMALIZED FREE ENERGY PREDICTED BY IDOCK:   -6.90 KCAL/MOL
REMARK 922        TOTAL FREE ENERGY PREDICTED BY IDOCK:   -9.56 KCAL/MOL
REMARK 923 INTER-LIGAND FREE ENERGY PREDICTED BY IDOCK:   -8.87 KCAL/MOL
REMARK 924 INTRA-LIGAND FREE ENERGY PREDICTED BY IDOCK:   -0.69 KCAL/MOL
REMARK 927      BINDING AFFINITY PREDICTED BY RF-SCORE:    0.00 PKD
ROOT
HETATM    1  O   UNL     1     -11.537  16.505  63.780  1.00  0.00    -1.617 OA 
HETATM    2  C   UNL     1     -10.845  16.469  65.028  1.00  0.00    -0.229 C  
HETATM    3  H   UNL     1     -11.267  17.271  63.287  1.00  0.00     0.000 HD 
ENDROOT
BRANCH   2   4
HETATM    4  C   UNL     1     -11.282  15.230  65.826  1.00  0.00    -0.247 C  
BRANCH   4   5
HETATM    5  N   UNL     1     -11.292  13.979  65.040  1.00  0.00    -0.328 NA 
HETATM    6  C   UNL     1      -9.950  13.385  64.899  1.00  0.00    -0.136 C  
HETATM    7  C   UNL     1      -9.391  12.788  66.204  1.00  0.00    -0.106 C  
HETATM    8  N   UNL     1     -10.249  11.766  66.839  1.00  0.00    -0.206 NA 
HETATM    9  C   UNL     1     -12.181  12.972  65.664  1.00  0.00    -0.466 C  
HETATM   10  C   UNL     1     -11.626  12.300  66.947  1.00  0.00    -0.361 C  
BRANCH   8  11
HETATM   11  C   UNL     1     -10.224  10.471  66.144  1.00  0.00    -0.236 C  
BRANCH  11  12
HETATM   12  C   UNL     1     -10.400   9.273  67.086  1.00  0.00    -0.330 C  
BRANCH  12  13
HETATM   13  C   UNL     1      -9.525   9.387  68.344  1.00  0.00    -0.141 C  
BRANCH  13  14
HETATM   14  N   UNL     1     -10.131   8.643  69.478  1.00  0.00    -0.197 NA 
HETATM   15  C   UNL     1     -11.123   9.328  70.248  1.00  0.00    -0.251 A  
HETATM   16  C   UNL     1     -11.363  10.717  70.123  1.00  0.00    -0.390 A  
HETATM   17  C   UNL     1     -12.319  11.399  70.889  1.00  0.00    -0.483 A  
HETATM   18  C   UNL     1     -13.079  10.712  71.814  1.00  0.00    -0.571 A  
HETATM   19  C   UNL     1     -12.879   9.346  71.968  1.00  0.00    -0.496 A  
HETATM   20  C   UNL     1     -11.916   8.655  71.201  1.00  0.00    -0.279 A  
HETATM   21  S   UNL     1     -11.816   6.914  71.528  1.00  0.00    -0.344 SA 
HETATM   22  C   UNL     1     -10.581   6.372  70.378  1.00  0.00    -0.241 A  
HETATM   23  C   UNL     1      -9.867   7.236  69.528  1.00  0.00    -0.163 A  
HETATM   24  C   UNL     1      -8.881   6.619  68.717  1.00  0.00    -0.126 A  
HETATM   25  C   UNL     1      -8.670   5.227  68.661  1.00  0.00    -0.096 A  
HETATM   26  C   UNL     1      -9.419   4.409  69.499  1.00  0.00    -0.251 A  
HETATM   27  C   UNL     1      -7.679   4.628  67.694  1.00  0.00    -0.086 C  
HETATM   28  F   UNL     1      -7.051   5.549  66.910  1.00  0.00    -0.063 F  
HETATM   29  F   UNL     1      -8.269   3.757  66.826  1.00  0.00    -0.094 F  
HETATM   30  F   UNL     1      -6.691   3.927  68.313  1.00  0.00    -0.042 F  
HETATM   31  C   UNL     1     -10.352   4.979  70.358  1.00  0.00    -0.297 A  
ENDBRANCH  13  14
ENDBRANCH  12  13
ENDBRANCH  11  12
ENDBRANCH   8  11
ENDBRANCH   4   5
ENDBRANCH   2   4
TORSDOF 6
ENDMDL
MODEL       22
REMARK 921   NORMALIZED FREE ENERGY PREDICTED BY IDOCK:   -6.87 KCAL/MOL
REMARK 922        TOTAL FREE ENERGY PREDICTED BY IDOCK:   -9.52 KCAL/MOL
REMARK 923 INTER-LIGAND FREE ENERGY PREDICTED BY IDOCK:   -8.55 KCAL/MOL
REMARK 924 INTRA-LIGAND FREE ENERGY PREDICTED BY IDOCK:   -0.97 KCAL/MOL
REMARK 927      BINDING AFFINITY PREDICTED BY RF-SCORE:    0.00 PKD
ROOT
HETATM    1  O   UNL     1      -6.630   6.053  68.519  1.00  0.00    -0.053 OA 
HETATM    2  C   UNL     1      -6.974   5.634  69.839  1.00  0.00    -0.062 C  
HETATM    3  H   UNL     1      -5.696   6.217  68.469  1.00  0.00     0.000 HD 
ENDROOT
BRANCH   2   4
HETATM    4  C   UNL     1      -8.486   5.370  69.921  1.00  0.00    -0.103 C  
BRANCH   4   5
HETATM    5  N   UNL     1      -9.139   5.969  71.103  1.00  0.00    -0.146 NA 
HETATM    6  C   UNL     1      -8.926   7.425  71.196  1.00  0.00    -0.143 C  
HETATM    7  C   UNL     1      -9.681   8.237  70.126  1.00  0.00    -0.176 C  
HETATM    8  N   UNL     1     -11.142   8.017  70.096  1.00  0.00    -0.230 NA 
HETATM    9  C   UNL     1     -10.599   5.715  71.082  1.00  0.00    -0.245 C  
HETATM   10  C   UNL     1     -11.406   6.561  70.062  1.00  0.00    -0.410 C  
BRANCH   8  11
HETATM   11  C   UNL     1     -11.852   8.671  71.205  1.00  0.00    -0.295 C  
BRANCH  11  12
HETATM   12  C   UNL     1     -11.664  10.194  71.233  1.00  0.00    -0.426 C  
BRANCH  12  13
HETATM   13  C   UNL     1     -12.776  10.932  70.470  1.00  0.00    -0.280 C  
BRANCH  13  14
HETATM   14  N   UNL     1     -12.286  12.237  69.957  1.00  0.00    -0.241 NA 
HETATM   15  C   UNL     1     -12.517  13.385  70.777  1.00  0.00    -0.341 A  
HETATM   16  C   UNL     1     -13.376  13.360  71.902  1.00  0.00    -0.539 A  
HETATM   17  C   UNL     1     -13.624  14.487  72.699  1.00  0.00    -0.577 A  
HETATM   18  C   UNL     1     -13.015  15.690  72.400  1.00  0.00    -0.532 A  
HETATM   19  C   UNL     1     -12.162  15.759  71.306  1.00  0.00    -0.491 A  
HETATM   20  C   UNL     1     -11.911  14.628  70.500  1.00  0.00    -0.304 A  
HETATM   21  S   UNL     1     -10.783  14.908  69.158  1.00  0.00    -0.258 SA 
HETATM   22  C   UNL     1     -10.659  13.305  68.413  1.00  0.00    -0.252 A  
HETATM   23  C   UNL     1     -11.400  12.186  68.831  1.00  0.00    -0.283 A  
HETATM   24  C   UNL     1     -11.202  11.003  68.075  1.00  0.00    -0.372 A  
HETATM   25  C   UNL     1     -10.260  10.887  67.034  1.00  0.00    -0.256 A  
HETATM   26  C   UNL     1      -9.529  12.013  66.672  1.00  0.00    -0.222 A  
HETATM   27  C   UNL     1     -10.022   9.567  66.342  1.00  0.00    -0.269 C  
HETATM   28  F   UNL     1     -10.781   8.546  66.831  1.00  0.00    -0.366 F  
HETATM   29  F   UNL     1      -8.730   9.148  66.466  1.00  0.00    -0.120 F  
HETATM   30  F   UNL     1     -10.273   9.615  65.006  1.00  0.00    -0.341 F  
HETATM   31  C   UNL     1      -9.740  13.211  67.346  1.00  0.00    -0.220 A  
ENDBRANCH  13  14
ENDBRANCH  12  13
ENDBRANCH  11  12
ENDBRANCH   8  11
ENDBRANCH   4   5
ENDBRANCH   2   4
TORSDOF 6
ENDMDL
MODEL       23
REMARK 921   NORMALIZED FREE ENERGY PREDICTED BY IDOCK:   -6.86 KCAL/MOL
REMARK 922        TOTAL FREE ENERGY PREDICTED BY IDOCK:   -9.51 KCAL/MOL
REMARK 923 INTER-LIGAND FREE ENERGY PREDICTED BY IDOCK:   -8.97 KCAL/MOL
REMARK 924 INTRA-LIGAND FREE ENERGY PREDICTED BY IDOCK:   -0.54 KCAL/MOL
REMARK 927      BINDING AFFINITY PREDICTED BY RF-SCORE:    0.00 PKD
ROOT
HETATM    1  O   UNL     1      -9.020   5.114  64.642  1.00  0.00    -0.273 OA 
HETATM    2  C   UNL     1      -9.427   5.144  66.009  1.00  0.00    -0.160 C  
HETATM    3  H   UNL     1      -9.541   4.478  64.168  1.00  0.00     0.000 HD 
ENDROOT
BRANCH   2   4
HETATM    4  C   UNL     1      -8.583   6.175  66.777  1.00  0.00    -0.111 C  
BRANCH   4   5
HETATM    5  N   UNL     1      -8.987   7.577  66.547  1.00  0.00    -0.155 NA 
HETATM    6  C   UNL     1     -10.326   7.879  67.087  1.00  0.00    -0.328 C  
HETATM    7  C   UNL     1     -10.388   7.910  68.625  1.00  0.00    -0.201 C  
HETATM    8  N   UNL     1      -9.444   8.849  69.267  1.00  0.00    -0.159 NA 
HETATM    9  C   UNL     1      -8.018   8.512  67.165  1.00  0.00    -0.101 C  
HETATM   10  C   UNL     1      -8.091   8.620  68.710  1.00  0.00    -0.116 C  
BRANCH   8  11
HETATM   11  C   UNL     1      -9.849  10.257  69.144  1.00  0.00    -0.216 C  
BRANCH  11  12
HETATM   12  C   UNL     1     -11.296  10.512  69.588  1.00  0.00    -0.345 C  
BRANCH  12  13
HETATM   13  C   UNL     1     -12.161  11.086  68.454  1.00  0.00     0.063 C  
BRANCH  13  14
HETATM   14  N   UNL     1     -11.629  12.396  67.997  1.00  0.00    -0.327 NA 
HETATM   15  C   UNL     1     -11.239  12.495  66.625  1.00  0.00    -0.307 A  
HETATM   16  C   UNL     1     -11.119  11.365  65.781  1.00  0.00    -0.217 A  
HETATM   17  C   UNL     1     -10.718  11.452  64.441  1.00  0.00    -0.405 A  
HETATM   18  C   UNL     1     -10.420  12.683  63.888  1.00  0.00    -0.441 A  
HETATM   19  C   UNL     1     -10.527  13.819  64.680  1.00  0.00    -0.433 A  
HETATM   20  C   UNL     1     -10.929  13.736  66.031  1.00  0.00    -0.284 A  
HETATM   21  S   UNL     1     -11.021  15.294  66.875  1.00  0.00    -0.288 SA 
HETATM   22  C   UNL     1     -11.597  14.830  68.486  1.00  0.00    -0.321 A  
HETATM   23  C   UNL     1     -11.807  13.501  68.892  1.00  0.00    -0.345 A  
HETATM   24  C   UNL     1     -12.219  13.329  70.237  1.00  0.00    -0.391 A  
HETATM   25  C   UNL     1     -12.508  14.396  71.111  1.00  0.00    -0.429 A  
HETATM   26  C   UNL     1     -12.313  15.696  70.658  1.00  0.00    -0.457 A  
HETATM   27  C   UNL     1     -13.048  14.144  72.497  1.00  0.00    -0.463 C  
HETATM   28  F   UNL     1     -13.226  12.823  72.785  1.00  0.00    -0.498 F  
HETATM   29  F   UNL     1     -14.269  14.722  72.687  1.00  0.00    -0.502 F  
HETATM   30  F   UNL     1     -12.245  14.636  73.477  1.00  0.00    -0.433 F  
HETATM   31  C   UNL     1     -11.847  15.907  69.365  1.00  0.00    -0.325 A  
ENDBRANCH  13  14
ENDBRANCH  12  13
ENDBRANCH  11  12
ENDBRANCH   8  11
ENDBRANCH   4   5
ENDBRANCH   2   4
TORSDOF 6
ENDMDL
MODEL       24
REMARK 921   NORMALIZED FREE ENERGY PREDICTED BY IDOCK:   -6.86 KCAL/MOL
REMARK 922        TOTAL FREE ENERGY PREDICTED BY IDOCK:   -9.50 KCAL/MOL
REMARK 923 INTER-LIGAND FREE ENERGY PREDICTED BY IDOCK:   -8.79 KCAL/MOL
REMARK 924 INTRA-LIGAND FREE ENERGY PREDICTED BY IDOCK:   -0.71 KCAL/MOL
REMARK 927      BINDING AFFINITY PREDICTED BY RF-SCORE:    0.00 PKD
ROOT
HETATM    1  O   UNL     1     -13.310  16.172  74.009  1.00  0.00    -0.930 OA 
HETATM    2  C   UNL     1     -12.925  15.105  73.144  1.00  0.00    -0.518 C  
HETATM    3  H   UNL     1     -14.001  15.879  74.591  1.00  0.00     0.000 HD 
ENDROOT
BRANCH   2   4
HETATM    4  C   UNL     1     -11.807  15.581  72.202  1.00  0.00    -0.462 C  
BRANCH   4   5
HETATM    5  N   UNL     1     -12.253  15.838  70.818  1.00  0.00    -0.408 NA 
HETATM    6  C   UNL     1     -11.152  16.272  69.937  1.00  0.00    -0.347 C  
HETATM    7  C   UNL     1     -10.138  15.160  69.609  1.00  0.00    -0.190 C  
HETATM    8  N   UNL     1     -10.722  13.945  69.002  1.00  0.00    -0.227 NA 
HETATM    9  C   UNL     1     -12.867  14.625  70.229  1.00  0.00    -0.206 C  
HETATM   10  C   UNL     1     -11.871  13.506  69.825  1.00  0.00    -0.329 C  
BRANCH   8  11
HETATM   11  C   UNL     1     -11.101  14.123  67.593  1.00  0.00    -0.282 C  
BRANCH  11  12
HETATM   12  C   UNL     1     -10.442  13.102  66.655  1.00  0.00    -0.280 C  
BRANCH  12  13
HETATM   13  C   UNL     1     -11.355  11.900  66.369  1.00  0.00    -0.339 C  
BRANCH  13  14
HETATM   14  N   UNL     1     -10.551  10.677  66.111  1.00  0.00    -0.187 NA 
HETATM   15  C   UNL     1      -9.848  10.613  64.868  1.00  0.00    -0.302 A  
HETATM   16  C   UNL     1     -10.077  11.528  63.812  1.00  0.00    -0.407 A  
HETATM   17  C   UNL     1      -9.407  11.459  62.583  1.00  0.00    -0.247 A  
HETATM   18  C   UNL     1      -8.473  10.465  62.361  1.00  0.00    -0.231 A  
HETATM   19  C   UNL     1      -8.216   9.546  63.370  1.00  0.00    -0.163 A  
HETATM   20  C   UNL     1      -8.890   9.611  64.609  1.00  0.00    -0.219 A  
HETATM   21  S   UNL     1      -8.416   8.362  65.778  1.00  0.00    -0.164 SA 
HETATM   22  C   UNL     1      -9.392   8.770  67.200  1.00  0.00    -0.150 A  
HETATM   23  C   UNL     1     -10.340   9.808  67.230  1.00  0.00    -0.248 A  
HETATM   24  C   UNL     1     -11.059   9.945  68.444  1.00  0.00    -0.193 A  
HETATM   25  C   UNL     1     -10.800   9.181  69.599  1.00  0.00    -0.210 A  
HETATM   26  C   UNL     1      -9.834   8.184  69.532  1.00  0.00    -0.181 A  
HETATM   27  C   UNL     1     -11.529   9.453  70.893  1.00  0.00    -0.316 C  
HETATM   28  F   UNL     1     -12.415  10.486  70.817  1.00  0.00    -0.350 F  
HETATM   29  F   UNL     1     -10.675   9.783  71.904  1.00  0.00    -0.276 F  
HETATM   30  F   UNL     1     -12.238   8.382  71.338  1.00  0.00    -0.291 F  
HETATM   31  C   UNL     1      -9.150   7.972  68.340  1.00  0.00    -0.136 A  
ENDBRANCH  13  14
ENDBRANCH  12  13
ENDBRANCH  11  12
ENDBRANCH   8  11
ENDBRANCH   4   5
ENDBRANCH   2   4
TORSDOF 6
ENDMDL
MODEL       25
REMARK 921   NORMALIZED FREE ENERGY PREDICTED BY IDOCK:   -6.85 KCAL/MOL
REMARK 922        TOTAL FREE ENERGY PREDICTED BY IDOCK:   -9.50 KCAL/MOL
REMARK 923 INTER-LIGAND FREE ENERGY PREDICTED BY IDOCK:   -9.00 KCAL/MOL
REMARK 924 INTRA-LIGAND FREE ENERGY PREDICTED BY IDOCK:   -0.50 KCAL/MOL
REMARK 927      BINDING AFFINITY PREDICTED BY RF-SCORE:    0.00 PKD
ROOT
HETATM    1  O   UNL     1      -9.744  20.455  67.423  1.00  0.00    -0.418 OA 
HETATM    2  C   UNL     1      -9.884  19.957  66.094  1.00  0.00    -0.458 C  
HETATM    3  H   UNL     1      -9.306  21.297  67.405  1.00  0.00     0.000 HD 
ENDROOT
BRANCH   2   4
HETATM    4  C   UNL     1     -10.593  18.593  66.124  1.00  0.00    -0.363 C  
BRANCH   4   5
HETATM    5  N   UNL     1      -9.734  17.458  65.730  1.00  0.00    -0.543 NA 
HETATM    6  C   UNL     1      -8.664  17.188  66.707  1.00  0.00    -0.244 C  
HETATM    7  C   UNL     1      -9.167  16.596  68.038  1.00  0.00    -0.223 C  
HETATM    8  N   UNL     1      -9.954  15.353  67.907  1.00  0.00    -0.221 NA 
HETATM    9  C   UNL     1     -10.537  16.222  65.568  1.00  0.00    -0.353 C  
HETATM   10  C   UNL     1     -11.009  15.560  66.889  1.00  0.00    -0.268 C  
BRANCH   8  11
HETATM   11  C   UNL     1      -9.132  14.172  67.603  1.00  0.00    -0.194 C  
BRANCH  11  12
HETATM   12  C   UNL     1      -9.456  12.963  68.491  1.00  0.00    -0.098 C  
BRANCH  12  13
HETATM   13  C   UNL     1     -10.915  12.503  68.340  1.00  0.00    -0.248 C  
BRANCH  13  14
HETATM   14  N   UNL     1     -11.436  11.973  69.627  1.00  0.00    -0.276 NA 
HETATM   15  C   UNL     1     -12.263  12.845  70.400  1.00  0.00    -0.304 A  
HETATM   16  C   UNL     1     -12.400  14.225  70.113  1.00  0.00    -0.413 A  
HETATM   17  C   UNL     1     -13.193  15.090  70.879  1.00  0.00    -0.453 A  
HETATM   18  C   UNL     1     -13.887  14.605  71.970  1.00  0.00    -0.557 A  
HETATM   19  C   UNL     1     -13.784  13.257  72.287  1.00  0.00    -0.686 A  
HETATM   20  C   UNL     1     -12.986  12.382  71.520  1.00  0.00    -0.285 A  
HETATM   21  S   UNL     1     -12.992  10.695  72.071  1.00  0.00    -0.214 SA 
HETATM   22  C   UNL     1     -11.959   9.891  70.875  1.00  0.00    -0.345 A  
HETATM   23  C   UNL     1     -11.286  10.565  69.840  1.00  0.00    -0.307 A  
HETATM   24  C   UNL     1     -10.463   9.755  69.017  1.00  0.00    -0.229 A  
HETATM   25  C   UNL     1     -10.378   8.353  69.130  1.00  0.00    -0.229 A  
HETATM   26  C   UNL     1     -11.083   7.726  70.151  1.00  0.00    -0.216 A  
HETATM   27  C   UNL     1      -9.568   7.540  68.150  1.00  0.00    -0.148 C  
HETATM   28  F   UNL     1      -8.968   8.287  67.181  1.00  0.00    -0.130 F  
HETATM   29  F   UNL     1     -10.333   6.629  67.482  1.00  0.00    -0.167 F  
HETATM   30  F   UNL     1      -8.574   6.829  68.745  1.00  0.00    -0.121 F  
HETATM   31  C   UNL     1     -11.851   8.491  71.022  1.00  0.00    -0.290 A  
ENDBRANCH  13  14
ENDBRANCH  12  13
ENDBRANCH  11  12
ENDBRANCH   8  11
ENDBRANCH   4   5
ENDBRANCH   2   4
TORSDOF 6
ENDMDL
MODEL       26
REMARK 921   NORMALIZED FREE ENERGY PREDICTED BY IDOCK:   -6.84 KCAL/MOL
REMARK 922        TOTAL FREE ENERGY PREDICTED BY IDOCK:   -9.48 KCAL/MOL
REMARK 923 INTER-LIGAND FREE ENERGY PREDICTED BY IDOCK:   -8.74 KCAL/MOL
REMARK 924 INTRA-LIGAND FREE ENERGY PREDICTED BY IDOCK:   -0.74 KCAL/MOL
REMARK 927      BINDING AFFINITY PREDICTED BY RF-SCORE:    0.00 PKD
ROOT
HETATM    1  O   UNL     1     -13.406  11.915  72.232  1.00  0.00    -0.601 OA 
HETATM    2  C   UNL     1     -14.024  13.181  72.452  1.00  0.00    -0.397 C  
HETATM    3  H   UNL     1     -14.071  11.260  72.059  1.00  0.00     0.000 HD 
ENDROOT
BRANCH   2   4
HETATM    4  C   UNL     1     -12.946  14.241  72.733  1.00  0.00    -0.453 C  
BRANCH   4   5
HETATM    5  N   UNL     1     -13.086  15.472  71.927  1.00  0.00    -0.425 NA 
HETATM    6  C   UNL     1     -11.807  16.183  71.748  1.00  0.00    -0.506 C  
HETATM    7  C   UNL     1     -10.813  15.458  70.822  1.00  0.00    -0.252 C  
HETATM    8  N   UNL     1     -11.329  15.155  69.471  1.00  0.00    -0.266 NA 
HETATM    9  C   UNL     1     -13.636  15.163  70.587  1.00  0.00    -0.125 C  
HETATM   10  C   UNL     1     -12.645  14.489  69.601  1.00  0.00    -0.070 C  
BRANCH   8  11
HETATM   11  C   UNL     1     -11.403  16.335  68.597  1.00  0.00    -0.333 C  
BRANCH  11  12
HETATM   12  C   UNL     1     -10.068  17.081  68.472  1.00  0.00    -0.303 C  
BRANCH  12  13
HETATM   13  C   UNL     1      -9.314  16.715  67.184  1.00  0.00    -0.228 C  
BRANCH  13  14
HETATM   14  N   UNL     1      -8.568  15.441  67.354  1.00  0.00    -0.169 NA 
HETATM   15  C   UNL     1      -7.524  15.425  68.331  1.00  0.00    -0.115 A  
HETATM   16  C   UNL     1      -7.034  16.602  68.946  1.00  0.00    -0.200 A  
HETATM   17  C   UNL     1      -5.998  16.596  69.889  1.00  0.00    -0.214 A  
HETATM   18  C   UNL     1      -5.407  15.403  70.258  1.00  0.00    -0.127 A  
HETATM   19  C   UNL     1      -5.859  14.223  69.682  1.00  0.00    -0.106 A  
HETATM   20  C   UNL     1      -6.901  14.224  68.730  1.00  0.00    -0.099 A  
HETATM   21  S   UNL     1      -7.349  12.620  68.118  1.00  0.00    -0.125 SA 
HETATM   22  C   UNL     1      -8.691  12.984  67.018  1.00  0.00    -0.193 A  
HETATM   23  C   UNL     1      -9.135  14.285  66.725  1.00  0.00    -0.249 A  
HETATM   24  C   UNL     1     -10.187  14.375  65.779  1.00  0.00    -0.355 A  
HETATM   25  C   UNL     1     -10.840  13.256  65.224  1.00  0.00    -0.314 A  
HETATM   26  C   UNL     1     -10.385  11.987  65.564  1.00  0.00    -0.298 A  
HETATM   27  C   UNL     1     -12.026  13.422  64.307  1.00  0.00    -0.430 C  
HETATM   28  F   UNL     1     -12.382  14.721  64.098  1.00  0.00    -0.503 F  
HETATM   29  F   UNL     1     -13.145  12.816  64.797  1.00  0.00    -0.478 F  
HETATM   30  F   UNL     1     -11.822  12.887  63.073  1.00  0.00    -0.576 F  
HETATM   31  C   UNL     1      -9.312  11.856  66.439  1.00  0.00    -0.233 A  
ENDBRANCH  13  14
ENDBRANCH  12  13
ENDBRANCH  11  12
ENDBRANCH   8  11
ENDBRANCH   4   5
ENDBRANCH   2   4
TORSDOF 6
ENDMDL
MODEL       27
REMARK 921   NORMALIZED FREE ENERGY PREDICTED BY IDOCK:   -6.80 KCAL/MOL
REMARK 922        TOTAL FREE ENERGY PREDICTED BY IDOCK:   -9.42 KCAL/MOL
REMARK 923 INTER-LIGAND FREE ENERGY PREDICTED BY IDOCK:   -8.78 KCAL/MOL
REMARK 924 INTRA-LIGAND FREE ENERGY PREDICTED BY IDOCK:   -0.64 KCAL/MOL
REMARK 927      BINDING AFFINITY PREDICTED BY RF-SCORE:    0.00 PKD
ROOT
HETATM    1  O   UNL     1     -13.710  16.293  73.472  1.00  0.00    -0.873 OA 
HETATM    2  C   UNL     1     -14.396  15.514  72.494  1.00  0.00    -0.276 C  
HETATM    3  H   UNL     1     -14.253  16.384  74.247  1.00  0.00     0.000 HD 
ENDROOT
BRANCH   2   4
HETATM    4  C   UNL     1     -13.518  15.368  71.240  1.00  0.00    -0.519 C  
BRANCH   4   5
HETATM    5  N   UNL     1     -12.302  14.555  71.447  1.00  0.00    -0.340 NA 
HETATM    6  C   UNL     1     -12.366  13.251  70.762  1.00  0.00    -0.344 C  
HETATM    7  C   UNL     1     -12.275  13.346  69.227  1.00  0.00    -0.176 C  
HETATM    8  N   UNL     1     -11.076  14.042  68.717  1.00  0.00    -0.253 NA 
HETATM    9  C   UNL     1     -11.100  15.274  70.964  1.00  0.00    -0.291 C  
HETATM   10  C   UNL     1     -10.938  15.337  69.422  1.00  0.00    -0.271 C  
BRANCH   8  11
HETATM   11  C   UNL     1      -9.849  13.238  68.817  1.00  0.00    -0.003 C  
BRANCH  11  12
HETATM   12  C   UNL     1      -8.595  13.981  68.335  1.00  0.00    -0.174 C  
BRANCH  12  13
HETATM   13  C   UNL     1      -8.294  13.713  66.852  1.00  0.00     0.004 C  
BRANCH  13  14
HETATM   14  N   UNL     1      -9.279  14.405  65.980  1.00  0.00    -0.127 NA 
HETATM   15  C   UNL     1     -10.192  13.581  65.251  1.00  0.00    -0.306 A  
HETATM   16  C   UNL     1     -10.039  12.177  65.147  1.00  0.00    -0.288 A  
HETATM   17  C   UNL     1     -10.918  11.366  64.417  1.00  0.00    -0.371 A  
HETATM   18  C   UNL     1     -11.994  11.930  63.760  1.00  0.00    -0.547 A  
HETATM   19  C   UNL     1     -12.184  13.304  63.838  1.00  0.00    -0.491 A  
HETATM   20  C   UNL     1     -11.300  14.126  64.570  1.00  0.00    -0.348 A  
HETATM   21  S   UNL     1     -11.715  15.852  64.565  1.00  0.00    -0.008 SA 
HETATM   22  C   UNL     1     -10.460  16.556  65.600  1.00  0.00    -0.324 A  
HETATM   23  C   UNL     1      -9.398  15.822  66.157  1.00  0.00    -0.346 A  
HETATM   24  C   UNL     1      -8.465  16.574  66.914  1.00  0.00    -0.244 A  
HETATM   25  C   UNL     1      -8.611  17.946  67.199  1.00  0.00    -0.242 A  
HETATM   26  C   UNL     1      -9.692  18.626  66.651  1.00  0.00    -0.360 A  
HETATM   27  C   UNL     1      -7.638  18.661  68.104  1.00  0.00    -0.271 C  
HETATM   28  F   UNL     1      -6.655  17.857  68.599  1.00  0.00    -0.188 F  
HETATM   29  F   UNL     1      -8.252  19.197  69.198  1.00  0.00    -0.359 F  
HETATM   30  F   UNL     1      -7.002  19.694  67.489  1.00  0.00    -0.231 F  
HETATM   31  C   UNL     1     -10.596  17.940  65.848  1.00  0.00    -0.216 A  
ENDBRANCH  13  14
ENDBRANCH  12  13
ENDBRANCH  11  12
ENDBRANCH   8  11
ENDBRANCH   4   5
ENDBRANCH   2   4
TORSDOF 6
ENDMDL
MODEL       28
REMARK 921   NORMALIZED FREE ENERGY PREDICTED BY IDOCK:   -6.80 KCAL/MOL
REMARK 922        TOTAL FREE ENERGY PREDICTED BY IDOCK:   -9.42 KCAL/MOL
REMARK 923 INTER-LIGAND FREE ENERGY PREDICTED BY IDOCK:   -8.88 KCAL/MOL
REMARK 924 INTRA-LIGAND FREE ENERGY PREDICTED BY IDOCK:   -0.54 KCAL/MOL
REMARK 927      BINDING AFFINITY PREDICTED BY RF-SCORE:    0.00 PKD
ROOT
HETATM    1  O   UNL     1     -10.764  18.815  67.196  1.00  0.00    -0.429 OA 
HETATM    2  C   UNL     1     -10.197  18.265  66.008  1.00  0.00    -0.323 C  
HETATM    3  H   UNL     1     -10.179  19.472  67.555  1.00  0.00     0.000 HD 
ENDROOT
BRANCH   2   4
HETATM    4  C   UNL     1     -11.144  17.201  65.428  1.00  0.00     0.182 C  
BRANCH   4   5
HETATM    5  N   UNL     1     -10.473  15.941  65.048  1.00  0.00    -0.559 NA 
HETATM    6  C   UNL     1      -9.738  15.327  66.169  1.00  0.00    -0.314 C  
HETATM    7  C   UNL     1     -10.646  14.739  67.265  1.00  0.00    -0.273 C  
HETATM    8  N   UNL     1     -11.624  13.737  66.791  1.00  0.00    -0.351 NA 
HETATM    9  C   UNL     1     -11.456  14.954  64.542  1.00  0.00    -0.325 C  
HETATM   10  C   UNL     1     -12.348  14.291  65.625  1.00  0.00    -0.405 C  
BRANCH   8  11
HETATM   11  C   UNL     1     -11.019  12.432  66.484  1.00  0.00    -0.272 C  
BRANCH  11  12
HETATM   12  C   UNL     1     -11.471  11.315  67.434  1.00  0.00    -0.300 C  
BRANCH  12  13
HETATM   13  C   UNL     1     -10.502  11.123  68.611  1.00  0.00    -0.197 C  
BRANCH  13  14
HETATM   14  N   UNL     1     -11.240  10.744  69.844  1.00  0.00    -0.289 NA 
HETATM   15  C   UNL     1     -12.005  11.769  70.483  1.00  0.00    -0.289 A  
HETATM   16  C   UNL     1     -11.895  13.136  70.133  1.00  0.00    -0.328 A  
HETATM   17  C   UNL     1     -12.627  14.148  70.769  1.00  0.00    -0.432 A  
HETATM   18  C   UNL     1     -13.506  13.830  71.786  1.00  0.00    -0.456 A  
HETATM   19  C   UNL     1     -13.647  12.500  72.160  1.00  0.00    -0.458 A  
HETATM   20  C   UNL     1     -12.911  11.477  71.524  1.00  0.00    -0.380 A  
HETATM   21  S   UNL     1     -13.238   9.841  72.129  1.00  0.00    -0.387 SA 
HETATM   22  C   UNL     1     -12.213   8.832  71.094  1.00  0.00    -0.244 A  
HETATM   23  C   UNL     1     -11.333   9.342  70.124  1.00  0.00    -0.185 A  
HETATM   24  C   UNL     1     -10.557   8.377  69.432  1.00  0.00    -0.204 A  
HETATM   25  C   UNL     1     -10.702   6.986  69.604  1.00  0.00    -0.265 A  
HETATM   26  C   UNL     1     -11.605   6.526  70.555  1.00  0.00    -0.455 A  
HETATM   27  C   UNL     1      -9.921   6.012  68.756  1.00  0.00    -0.150 C  
HETATM   28  F   UNL     1      -9.108   6.609  67.840  1.00  0.00    -0.118 F  
HETATM   29  F   UNL     1     -10.737   5.191  68.034  1.00  0.00    -0.189 F  
HETATM   30  F   UNL     1      -9.121   5.193  69.490  1.00  0.00    -0.109 F  
HETATM   31  C   UNL     1     -12.339   7.440  71.302  1.00  0.00    -0.380 A  
ENDBRANCH  13  14
ENDBRANCH  12  13
ENDBRANCH  11  12
ENDBRANCH   8  11
ENDBRANCH   4   5
ENDBRANCH   2   4
TORSDOF 6
ENDMDL
MODEL       29
REMARK 921   NORMALIZED FREE ENERGY PREDICTED BY IDOCK:   -6.74 KCAL/MOL
REMARK 922        TOTAL FREE ENERGY PREDICTED BY IDOCK:   -9.34 KCAL/MOL
REMARK 923 INTER-LIGAND FREE ENERGY PREDICTED BY IDOCK:   -8.98 KCAL/MOL
REMARK 924 INTRA-LIGAND FREE ENERGY PREDICTED BY IDOCK:   -0.35 KCAL/MOL
REMARK 927      BINDING AFFINITY PREDICTED BY RF-SCORE:    0.00 PKD
ROOT
HETATM    1  O   UNL     1      -8.591   6.500  63.576  1.00  0.00    -0.326 OA 
HETATM    2  C   UNL     1      -7.634   7.534  63.352  1.00  0.00    -0.118 C  
HETATM    3  H   UNL     1      -8.169   5.760  63.996  1.00  0.00     0.000 HD 
ENDROOT
BRANCH   2   4
HETATM    4  C   UNL     1      -8.317   8.732  62.672  1.00  0.00    -0.198 C  
BRANCH   4   5
HETATM    5  N   UNL     1      -8.045  10.030  63.322  1.00  0.00    -0.152 NA 
HETATM    6  C   UNL     1      -8.881  11.121  62.787  1.00  0.00    -0.239 C  
HETATM    7  C   UNL     1     -10.368  11.018  63.175  1.00  0.00    -0.189 C  
HETATM    8  N   UNL     1     -10.628  10.950  64.628  1.00  0.00    -0.313 NA 
HETATM    9  C   UNL     1      -8.276   9.944  64.783  1.00  0.00    -0.151 C  
HETATM   10  C   UNL     1      -9.764   9.903  65.220  1.00  0.00    -0.313 C  
BRANCH   8  11
HETATM   11  C   UNL     1     -10.459  12.241  65.311  1.00  0.00    -0.282 C  
BRANCH  11  12
HETATM   12  C   UNL     1     -11.302  12.368  66.587  1.00  0.00    -0.394 C  
BRANCH  12  13
HETATM   13  C   UNL     1     -10.448  12.272  67.861  1.00  0.00    -0.213 C  
BRANCH  13  14
HETATM   14  N   UNL     1     -10.869  13.292  68.856  1.00  0.00    -0.235 NA 
HETATM   15  C   UNL     1     -10.676  14.664  68.500  1.00  0.00    -0.247 A  
HETATM   16  C   UNL     1      -9.906  15.062  67.381  1.00  0.00    -0.224 A  
HETATM   17  C   UNL     1      -9.695  16.404  67.038  1.00  0.00    -0.253 A  
HETATM   18  C   UNL     1     -10.252  17.409  67.806  1.00  0.00    -0.345 A  
HETATM   19  C   UNL     1     -11.017  17.063  68.912  1.00  0.00    -0.141 A  
HETATM   20  C   UNL     1     -11.231  15.712  69.263  1.00  0.00    -0.320 A  
HETATM   21  S   UNL     1     -12.246  15.469  70.698  1.00  0.00    -0.418 SA 
HETATM   22  C   UNL     1     -12.348  13.703  70.808  1.00  0.00    -0.371 A  
HETATM   23  C   UNL     1     -11.666  12.823  69.950  1.00  0.00    -0.251 A  
HETATM   24  C   UNL     1     -11.832  11.443  70.231  1.00  0.00    -0.438 A  
HETATM   25  C   UNL     1     -12.694  10.944  71.228  1.00  0.00    -0.542 A  
HETATM   26  C   UNL     1     -13.370  11.851  72.034  1.00  0.00    -0.425 A  
HETATM   27  C   UNL     1     -12.907   9.460  71.401  1.00  0.00    -0.345 C  
HETATM   28  F   UNL     1     -12.210   8.697  70.513  1.00  0.00    -0.175 F  
HETATM   29  F   UNL     1     -14.214   9.106  71.234  1.00  0.00    -0.406 F  
HETATM   30  F   UNL     1     -12.554   9.014  72.636  1.00  0.00    -0.434 F  
HETATM   31  C   UNL     1     -13.185  13.215  71.835  1.00  0.00    -0.526 A  
ENDBRANCH  13  14
ENDBRANCH  12  13
ENDBRANCH  11  12
ENDBRANCH   8  11
ENDBRANCH   4   5
ENDBRANCH   2   4
TORSDOF 6
ENDMDL
MODEL       30
REMARK 921   NORMALIZED FREE ENERGY PREDICTED BY IDOCK:   -6.72 KCAL/MOL
REMARK 922        TOTAL FREE ENERGY PREDICTED BY IDOCK:   -9.31 KCAL/MOL
REMARK 923 INTER-LIGAND FREE ENERGY PREDICTED BY IDOCK:   -8.59 KCAL/MOL
REMARK 924 INTRA-LIGAND FREE ENERGY PREDICTED BY IDOCK:   -0.72 KCAL/MOL
REMARK 927      BINDING AFFINITY PREDICTED BY RF-SCORE:    0.00 PKD
ROOT
HETATM    1  O   UNL     1     -11.062   4.585  65.552  1.00  0.00    -0.820 OA 
HETATM    2  C   UNL     1     -10.627   5.046  66.829  1.00  0.00    -0.157 C  
HETATM    3  H   UNL     1     -11.912   4.169  65.634  1.00  0.00     0.000 HD 
ENDROOT
BRANCH   2   4
HETATM    4  C   UNL     1      -9.251   5.719  66.696  1.00  0.00    -0.137 C  
BRANCH   4   5
HETATM    5  N   UNL     1      -9.279   7.014  65.986  1.00  0.00    -0.082 NA 
HETATM    6  C   UNL     1     -10.231   7.969  66.581  1.00  0.00    -0.245 C  
HETATM    7  C   UNL     1      -9.795   8.511  67.955  1.00  0.00    -0.169 C  
HETATM    8  N   UNL     1      -8.467   9.159  67.975  1.00  0.00    -0.121 NA 
HETATM    9  C   UNL     1      -7.936   7.640  65.981  1.00  0.00    -0.112 C  
HETATM   10  C   UNL     1      -7.486   8.256  67.332  1.00  0.00    -0.094 C  
BRANCH   8  11
HETATM   11  C   UNL     1      -8.460  10.494  67.359  1.00  0.00    -0.122 C  
BRANCH  11  12
HETATM   12  C   UNL     1      -8.961  11.598  68.299  1.00  0.00    -0.185 C  
BRANCH  12  13
HETATM   13  C   UNL     1     -10.361  12.102  67.913  1.00  0.00    -0.206 C  
BRANCH  13  14
HETATM   14  N   UNL     1     -10.812  13.170  68.843  1.00  0.00    -0.232 NA 
HETATM   15  C   UNL     1     -10.629  14.522  68.416  1.00  0.00    -0.244 A  
HETATM   16  C   UNL     1      -9.844  14.869  67.291  1.00  0.00    -0.229 A  
HETATM   17  C   UNL     1      -9.644  16.193  66.878  1.00  0.00    -0.243 A  
HETATM   18  C   UNL     1     -10.227  17.230  67.580  1.00  0.00    -0.333 A  
HETATM   19  C   UNL     1     -11.008  16.935  68.690  1.00  0.00    -0.262 A  
HETATM   20  C   UNL     1     -11.211  15.603  69.110  1.00  0.00    -0.315 A  
HETATM   21  S   UNL     1     -12.250  15.425  70.539  1.00  0.00    -0.422 SA 
HETATM   22  C   UNL     1     -12.332  13.667  70.743  1.00  0.00    -0.371 A  
HETATM   23  C   UNL     1     -11.624  12.750  69.947  1.00  0.00    -0.173 A  
HETATM   24  C   UNL     1     -11.778  11.385  70.300  1.00  0.00    -0.397 A  
HETATM   25  C   UNL     1     -12.652  10.930  71.307  1.00  0.00    -0.526 A  
HETATM   26  C   UNL     1     -13.354  11.871  72.051  1.00  0.00    -0.425 A  
HETATM   27  C   UNL     1     -12.851   9.456  71.558  1.00  0.00    -0.362 C  
HETATM   28  F   UNL     1     -12.129   8.654  70.725  1.00  0.00    -0.284 F  
HETATM   29  F   UNL     1     -14.150   9.076  71.388  1.00  0.00    -0.424 F  
HETATM   30  F   UNL     1     -12.515   9.082  72.822  1.00  0.00    -0.404 F  
HETATM   31  C   UNL     1     -13.182  13.224  71.781  1.00  0.00    -0.495 A  
ENDBRANCH  13  14
ENDBRANCH  12  13
ENDBRANCH  11  12
ENDBRANCH   8  11
ENDBRANCH   4   5
ENDBRANCH   2   4
TORSDOF 6
ENDMDL
MODEL       31
REMARK 921   NORMALIZED FREE ENERGY PREDICTED BY IDOCK:   -6.70 KCAL/MOL
REMARK 922        TOTAL FREE ENERGY PREDICTED BY IDOCK:   -9.29 KCAL/MOL
REMARK 923 INTER-LIGAND FREE ENERGY PREDICTED BY IDOCK:   -8.49 KCAL/MOL
REMARK 924 INTRA-LIGAND FREE ENERGY PREDICTED BY IDOCK:   -0.80 KCAL/MOL
REMARK 927      BINDING AFFINITY PREDICTED BY RF-SCORE:    0.00 PKD
ROOT
HETATM    1  O   UNL     1      -8.407   7.281  63.338  1.00  0.00    -0.356 OA 
HETATM    2  C   UNL     1      -7.988   8.458  62.649  1.00  0.00    -0.154 C  
HETATM    3  H   UNL     1      -7.703   6.644  63.341  1.00  0.00     0.000 HD 
ENDROOT
BRANCH   2   4
HETATM    4  C   UNL     1      -9.128   9.489  62.644  1.00  0.00    -0.199 C  
BRANCH   4   5
HETATM    5  N   UNL     1      -8.814  10.740  63.363  1.00  0.00    -0.176 NA 
HETATM    6  C   UNL     1      -9.818  11.796  63.135  1.00  0.00    -0.336 C  
HETATM    7  C   UNL     1     -11.176  11.523  63.808  1.00  0.00    -0.370 C  
HETATM    8  N   UNL     1     -11.113  11.297  65.267  1.00  0.00    -0.142 NA 
HETATM    9  C   UNL     1      -8.720  10.499  64.822  1.00  0.00    -0.185 C  
HETATM   10  C   UNL     1     -10.073  10.283  65.549  1.00  0.00    -0.281 C  
BRANCH   8  11
HETATM   11  C   UNL     1     -10.891  12.530  66.037  1.00  0.00    -0.276 C  
BRANCH  11  12
HETATM   12  C   UNL     1     -11.642  12.552  67.375  1.00  0.00    -0.434 C  
BRANCH  12  13
HETATM   13  C   UNL     1     -10.687  12.578  68.579  1.00  0.00    -0.239 C  
BRANCH  13  14
HETATM   14  N   UNL     1     -11.370  12.086  69.804  1.00  0.00    -0.184 NA 
HETATM   15  C   UNL     1     -12.213  13.011  70.494  1.00  0.00    -0.313 A  
HETATM   16  C   UNL     1     -12.230  14.396  70.200  1.00  0.00    -0.401 A  
HETATM   17  C   UNL     1     -13.039  15.312  70.885  1.00  0.00    -0.523 A  
HETATM   18  C   UNL     1     -13.871  14.875  71.898  1.00  0.00    -0.557 A  
HETATM   19  C   UNL     1     -13.888  13.524  72.218  1.00  0.00    -0.680 A  
HETATM   20  C   UNL     1     -13.074  12.597  71.532  1.00  0.00    -0.278 A  
HETATM   21  S   UNL     1     -13.245  10.915  72.072  1.00  0.00    -0.164 SA 
HETATM   22  C   UNL     1     -12.150  10.045  70.984  1.00  0.00    -0.373 A  
HETATM   23  C   UNL     1     -11.333  10.671  70.026  1.00  0.00    -0.324 A  
HETATM   24  C   UNL     1     -10.486   9.808  69.286  1.00  0.00    -0.236 A  
HETATM   25  C   UNL     1     -10.503   8.403  69.402  1.00  0.00    -0.222 A  
HETATM   26  C   UNL     1     -11.347   7.826  70.343  1.00  0.00    -0.219 A  
HETATM   27  C   UNL     1      -9.652   7.538  68.505  1.00  0.00    -0.150 C  
HETATM   28  F   UNL     1      -8.909   8.242  67.605  1.00  0.00    -0.132 F  
HETATM   29  F   UNL     1     -10.402   6.677  67.759  1.00  0.00    -0.158 F  
HETATM   30  F   UNL     1      -8.771   6.765  69.195  1.00  0.00    -0.128 F  
HETATM   31  C   UNL     1     -12.148   8.640  71.135  1.00  0.00    -0.297 A  
ENDBRANCH  13  14
ENDBRANCH  12  13
ENDBRANCH  11  12
ENDBRANCH   8  11
ENDBRANCH   4   5
ENDBRANCH   2   4
TORSDOF 6
ENDMDL
MODEL       32
REMARK 921   NORMALIZED FREE ENERGY PREDICTED BY IDOCK:   -6.67 KCAL/MOL
REMARK 922        TOTAL FREE ENERGY PREDICTED BY IDOCK:   -9.25 KCAL/MOL
REMARK 923 INTER-LIGAND FREE ENERGY PREDICTED BY IDOCK:   -8.53 KCAL/MOL
REMARK 924 INTRA-LIGAND FREE ENERGY PREDICTED BY IDOCK:   -0.71 KCAL/MOL
REMARK 927      BINDING AFFINITY PREDICTED BY RF-SCORE:    0.00 PKD
ROOT
HETATM    1  O   UNL     1     -11.663  16.463  63.659  1.00  0.00    -1.520 OA 
HETATM    2  C   UNL     1     -10.976  16.054  64.841  1.00  0.00    -0.384 C  
HETATM    3  H   UNL     1     -11.801  17.403  63.679  1.00  0.00     0.000 HD 
ENDROOT
BRANCH   2   4
HETATM    4  C   UNL     1     -10.753  14.533  64.808  1.00  0.00    -0.393 C  
BRANCH   4   5
HETATM    5  N   UNL     1      -9.986  14.011  65.958  1.00  0.00    -0.308 NA 
HETATM    6  C   UNL     1     -10.427  14.583  67.243  1.00  0.00    -0.266 C  
HETATM    7  C   UNL     1     -11.815  14.096  67.701  1.00  0.00    -0.392 C  
HETATM    8  N   UNL     1     -11.954  12.629  67.812  1.00  0.00    -0.374 NA 
HETATM    9  C   UNL     1     -10.103  12.536  66.042  1.00  0.00    -0.253 C  
HETATM   10  C   UNL     1     -11.466  12.007  66.561  1.00  0.00    -0.349 C  
BRANCH   8  11
HETATM   11  C   UNL     1     -11.282  12.069  68.994  1.00  0.00    -0.258 C  
BRANCH  11  12
HETATM   12  C   UNL     1     -11.213  10.536  68.983  1.00  0.00    -0.316 C  
BRANCH  12  13
HETATM   13  C   UNL     1      -9.831  10.011  69.402  1.00  0.00    -0.224 C  
BRANCH  13  14
HETATM   14  N   UNL     1      -9.789   8.527  69.341  1.00  0.00    -0.181 NA 
HETATM   15  C   UNL     1     -10.380   7.815  70.431  1.00  0.00    -0.212 A  
HETATM   16  C   UNL     1     -10.772   8.448  71.635  1.00  0.00    -0.333 A  
HETATM   17  C   UNL     1     -11.332   7.754  72.715  1.00  0.00    -0.446 A  
HETATM   18  C   UNL     1     -11.527   6.389  72.632  1.00  0.00    -0.234 A  
HETATM   19  C   UNL     1     -11.159   5.727  71.468  1.00  0.00    -0.281 A  
HETATM   20  C   UNL     1     -10.592   6.422  70.377  1.00  0.00    -0.241 A  
HETATM   21  S   UNL     1     -10.202   5.409  68.973  1.00  0.00    -0.209 SA 
HETATM   22  C   UNL     1      -9.580   6.587  67.805  1.00  0.00    -0.122 A  
HETATM   23  C   UNL     1      -9.408   7.954  68.084  1.00  0.00    -0.142 A  
HETATM   24  C   UNL     1      -8.847   8.727  67.036  1.00  0.00    -0.139 A  
HETATM   25  C   UNL     1      -8.562   8.219  65.753  1.00  0.00    -0.182 A  
HETATM   26  C   UNL     1      -8.775   6.867  65.513  1.00  0.00    -0.041 A  
HETATM   27  C   UNL     1      -8.069   9.123  64.650  1.00  0.00    -0.136 C  
HETATM   28  F   UNL     1      -7.948  10.428  65.021  1.00  0.00    -0.146 F  
HETATM   29  F   UNL     1      -8.909   9.129  63.576  1.00  0.00    -0.214 F  
HETATM   30  F   UNL     1      -6.851   8.756  64.169  1.00  0.00    -0.080 F  
HETATM   31  C   UNL     1      -9.263   6.059  66.534  1.00  0.00    -0.158 A  
ENDBRANCH  13  14
ENDBRANCH  12  13
ENDBRANCH  11  12
ENDBRANCH   8  11
ENDBRANCH   4   5
ENDBRANCH   2   4
TORSDOF 6
ENDMDL
MODEL       33
REMARK 921   NORMALIZED FREE ENERGY PREDICTED BY IDOCK:   -6.64 KCAL/MOL
REMARK 922        TOTAL FREE ENERGY PREDICTED BY IDOCK:   -9.21 KCAL/MOL
REMARK 923 INTER-LIGAND FREE ENERGY PREDICTED BY IDOCK:   -8.97 KCAL/MOL
REMARK 924 INTRA-LIGAND FREE ENERGY PREDICTED BY IDOCK:   -0.24 KCAL/MOL
REMARK 927      BINDING AFFINITY PREDICTED BY RF-SCORE:    0.00 PKD
ROOT
HETATM    1  O   UNL     1     -11.617  16.531  63.706  1.00  0.00    -1.617 OA 
HETATM    2  C   UNL     1     -11.231  15.506  64.620  1.00  0.00    -0.371 C  
HETATM    3  H   UNL     1     -12.005  16.139  62.932  1.00  0.00     0.000 HD 
ENDROOT
BRANCH   2   4
HETATM    4  C   UNL     1     -10.603  16.140  65.872  1.00  0.00    -0.312 C  
BRANCH   4   5
HETATM    5  N   UNL     1      -9.907  15.178  66.751  1.00  0.00    -0.235 NA 
HETATM    6  C   UNL     1     -10.156  15.430  68.182  1.00  0.00    -0.222 C  
HETATM    7  C   UNL     1     -11.591  15.101  68.634  1.00  0.00    -0.338 C  
HETATM    8  N   UNL     1     -12.028  13.716  68.359  1.00  0.00    -0.367 NA 
HETATM    9  C   UNL     1     -10.325  13.789  66.445  1.00  0.00    -0.290 C  
HETATM   10  C   UNL     1     -11.741  13.398  66.941  1.00  0.00    -0.389 C  
BRANCH   8  11
HETATM   11  C   UNL     1     -11.431  12.726  69.267  1.00  0.00    -0.289 C  
BRANCH  11  12
HETATM   12  C   UNL     1     -11.395  11.308  68.681  1.00  0.00    -0.336 C  
BRANCH  12  13
HETATM   13  C   UNL     1     -10.013  10.651  68.827  1.00  0.00    -0.193 C  
BRANCH  13  14
HETATM   14  N   UNL     1      -9.941   9.395  68.037  1.00  0.00    -0.168 NA 
HETATM   15  C   UNL     1      -9.240   9.450  66.792  1.00  0.00    -0.143 A  
HETATM   16  C   UNL     1      -8.838  10.669  66.194  1.00  0.00    -0.179 A  
HETATM   17  C   UNL     1      -8.169  10.733  64.964  1.00  0.00    -0.005 A  
HETATM   18  C   UNL     1      -7.872   9.570  64.280  1.00  0.00    -0.129 A  
HETATM   19  C   UNL     1      -8.246   8.351  64.831  1.00  0.00    -0.155 A  
HETATM   20  C   UNL     1      -8.921   8.283  66.068  1.00  0.00    -0.181 A  
HETATM   21  S   UNL     1      -9.303   6.638  66.616  1.00  0.00    -0.161 SA 
HETATM   22  C   UNL     1     -10.075   6.920  68.186  1.00  0.00    -0.166 A  
HETATM   23  C   UNL     1     -10.340   8.196  68.712  1.00  0.00    -0.202 A  
HETATM   24  C   UNL     1     -11.013   8.216  69.960  1.00  0.00    -0.199 A  
HETATM   25  C   UNL     1     -11.322   7.059  70.702  1.00  0.00    -0.349 A  
HETATM   26  C   UNL     1     -11.017   5.819  70.155  1.00  0.00    -0.368 A  
HETATM   27  C   UNL     1     -11.942   7.157  72.075  1.00  0.00    -0.295 C  
HETATM   28  F   UNL     1     -12.146   8.437  72.496  1.00  0.00    -0.399 F  
HETATM   29  F   UNL     1     -11.161   6.582  73.034  1.00  0.00    -0.262 F  
HETATM   30  F   UNL     1     -13.151   6.539  72.157  1.00  0.00    -0.322 F  
HETATM   31  C   UNL     1     -10.414   5.752  68.904  1.00  0.00    -0.326 A  
ENDBRANCH  13  14
ENDBRANCH  12  13
ENDBRANCH  11  12
ENDBRANCH   8  11
ENDBRANCH   4   5
ENDBRANCH   2   4
TORSDOF 6
ENDMDL
MODEL       34
REMARK 921   NORMALIZED FREE ENERGY PREDICTED BY IDOCK:   -6.63 KCAL/MOL
REMARK 922        TOTAL FREE ENERGY PREDICTED BY IDOCK:   -9.20 KCAL/MOL
REMARK 923 INTER-LIGAND FREE ENERGY PREDICTED BY IDOCK:   -8.67 KCAL/MOL
REMARK 924 INTRA-LIGAND FREE ENERGY PREDICTED BY IDOCK:   -0.53 KCAL/MOL
REMARK 927      BINDING AFFINITY PREDICTED BY RF-SCORE:    0.00 PKD
ROOT
HETATM    1  O   UNL     1      -9.285   2.372  73.385  1.00  0.00    -0.082 OA 
HETATM    2  C   UNL     1      -8.547   3.590  73.301  1.00  0.00    -0.086 C  
HETATM    3  H   UNL     1      -8.815   1.750  73.928  1.00  0.00     0.000 HD 
ENDROOT
BRANCH   2   4
HETATM    4  C   UNL     1      -9.308   4.596  72.421  1.00  0.00    -0.130 C  
BRANCH   4   5
HETATM    5  N   UNL     1      -9.813   5.775  73.153  1.00  0.00    -0.165 NA 
HETATM    6  C   UNL     1      -9.210   7.037  72.686  1.00  0.00    -0.134 C  
HETATM    7  C   UNL     1      -9.672   7.468  71.281  1.00  0.00    -0.164 C  
HETATM    8  N   UNL     1     -11.135   7.607  71.124  1.00  0.00    -0.247 NA 
HETATM    9  C   UNL     1     -11.285   5.888  73.018  1.00  0.00    -0.221 C  
HETATM   10  C   UNL     1     -11.789   6.382  71.637  1.00  0.00    -0.306 C  
BRANCH   8  11
HETATM   11  C   UNL     1     -11.677   8.817  71.760  1.00  0.00    -0.346 C  
BRANCH  11  12
HETATM   12  C   UNL     1     -11.176  10.117  71.116  1.00  0.00    -0.244 C  
BRANCH  12  13
HETATM   13  C   UNL     1     -12.196  10.710  70.131  1.00  0.00    -0.320 C  
BRANCH  13  14
HETATM   14  N   UNL     1     -11.542  11.682  69.216  1.00  0.00    -0.291 NA 
HETATM   15  C   UNL     1     -11.042  11.172  67.978  1.00  0.00    -0.276 A  
HETATM   16  C   UNL     1     -10.936   9.786  67.709  1.00  0.00    -0.242 A  
HETATM   17  C   UNL     1     -10.428   9.278  66.505  1.00  0.00    -0.204 A  
HETATM   18  C   UNL     1     -10.005  10.144  65.515  1.00  0.00    -0.363 A  
HETATM   19  C   UNL     1     -10.094  11.512  65.736  1.00  0.00    -0.278 A  
HETATM   20  C   UNL     1     -10.603  12.028  66.947  1.00  0.00    -0.229 A  
HETATM   21  S   UNL     1     -10.652  13.800  67.037  1.00  0.00    -0.279 SA 
HETATM   22  C   UNL     1     -11.380  14.088  68.627  1.00  0.00    -0.276 A  
HETATM   23  C   UNL     1     -11.711  13.068  69.536  1.00  0.00    -0.317 A  
HETATM   24  C   UNL     1     -12.236  13.502  70.779  1.00  0.00    -0.417 A  
HETATM   25  C   UNL     1     -12.517  14.849  71.084  1.00  0.00    -0.395 A  
HETATM   26  C   UNL     1     -12.199  15.822  70.144  1.00  0.00    -0.340 A  
HETATM   27  C   UNL     1     -13.178  15.231  72.386  1.00  0.00    -0.409 C  
HETATM   28  F   UNL     1     -13.468  14.167  73.188  1.00  0.00    -0.570 F  
HETATM   29  F   UNL     1     -14.367  15.870  72.191  1.00  0.00    -0.528 F  
HETATM   30  F   UNL     1     -12.420  16.072  73.139  1.00  0.00    -0.444 F  
HETATM   31  C   UNL     1     -11.622  15.445  68.937  1.00  0.00    -0.369 A  
ENDBRANCH  13  14
ENDBRANCH  12  13
ENDBRANCH  11  12
ENDBRANCH   8  11
ENDBRANCH   4   5
ENDBRANCH   2   4
TORSDOF 6
ENDMDL
MODEL       35
REMARK 921   NORMALIZED FREE ENERGY PREDICTED BY IDOCK:   -6.63 KCAL/MOL
REMARK 922        TOTAL FREE ENERGY PREDICTED BY IDOCK:   -9.20 KCAL/MOL
REMARK 923 INTER-LIGAND FREE ENERGY PREDICTED BY IDOCK:   -8.46 KCAL/MOL
REMARK 924 INTRA-LIGAND FREE ENERGY PREDICTED BY IDOCK:   -0.73 KCAL/MOL
REMARK 927      BINDING AFFINITY PREDICTED BY RF-SCORE:    0.00 PKD
ROOT
HETATM    1  O   UNL     1      -7.125   5.445  64.484  1.00  0.00    -0.048 OA 
HETATM    2  C   UNL     1      -7.925   6.604  64.708  1.00  0.00    -0.118 C  
HETATM    3  H   UNL     1      -6.989   5.324  63.552  1.00  0.00     0.000 HD 
ENDROOT
BRANCH   2   4
HETATM    4  C   UNL     1      -8.145   6.798  66.217  1.00  0.00    -0.112 C  
BRANCH   4   5
HETATM    5  N   UNL     1      -9.526   7.173  66.583  1.00  0.00    -0.168 NA 
HETATM    6  C   UNL     1      -9.880   6.770  67.956  1.00  0.00    -0.136 C  
HETATM    7  C   UNL     1      -9.164   7.584  69.050  1.00  0.00    -0.146 C  
HETATM    8  N   UNL     1      -9.360   9.046  68.967  1.00  0.00    -0.140 NA 
HETATM    9  C   UNL     1      -9.723   8.636  66.463  1.00  0.00    -0.255 C  
HETATM   10  C   UNL     1      -9.070   9.488  67.584  1.00  0.00    -0.120 C  
BRANCH   8  11
HETATM   11  C   UNL     1     -10.693   9.481  69.407  1.00  0.00    -0.225 C  
BRANCH  11  12
HETATM   12  C   UNL     1     -10.816  11.004  69.554  1.00  0.00    -0.267 C  
BRANCH  12  13
HETATM   13  C   UNL     1     -12.128  11.542  68.960  1.00  0.00    -0.238 C  
BRANCH  13  14
HETATM   14  N   UNL     1     -12.071  13.019  68.809  1.00  0.00    -0.244 NA 
HETATM   15  C   UNL     1     -12.232  13.800  69.996  1.00  0.00    -0.342 A  
HETATM   16  C   UNL     1     -12.668  13.245  71.223  1.00  0.00    -0.411 A  
HETATM   17  C   UNL     1     -12.848  14.007  72.385  1.00  0.00    -0.406 A  
HETATM   18  C   UNL     1     -12.594  15.365  72.366  1.00  0.00    -0.461 A  
HETATM   19  C   UNL     1     -12.161  15.951  71.183  1.00  0.00    -0.447 A  
HETATM   20  C   UNL     1     -11.980  15.188  70.010  1.00  0.00    -0.336 A  
HETATM   21  S   UNL     1     -11.409  16.110  68.605  1.00  0.00    -0.323 SA 
HETATM   22  C   UNL     1     -11.242  14.859  67.361  1.00  0.00    -0.338 A  
HETATM   23  C   UNL     1     -11.596  13.511  67.549  1.00  0.00    -0.350 A  
HETATM   24  C   UNL     1     -11.439  12.673  66.417  1.00  0.00    -0.409 A  
HETATM   25  C   UNL     1     -10.874  13.098  65.199  1.00  0.00    -0.321 A  
HETATM   26  C   UNL     1     -10.511  14.433  65.066  1.00  0.00    -0.454 A  
HETATM   27  C   UNL     1     -10.634  12.126  64.070  1.00  0.00    -0.389 C  
HETATM   28  F   UNL     1     -11.001  10.846  64.360  1.00  0.00    -0.408 F  
HETATM   29  F   UNL     1      -9.317  12.054  63.724  1.00  0.00    -0.137 F  
HETATM   30  F   UNL     1     -11.302  12.458  62.932  1.00  0.00    -0.392 F  
HETATM   31  C   UNL     1     -10.709  15.305  66.131  1.00  0.00    -0.322 A  
ENDBRANCH  13  14
ENDBRANCH  12  13
ENDBRANCH  11  12
ENDBRANCH   8  11
ENDBRANCH   4   5
ENDBRANCH   2   4
TORSDOF 6
ENDMDL
MODEL       36
REMARK 921   NORMALIZED FREE ENERGY PREDICTED BY IDOCK:   -6.63 KCAL/MOL
REMARK 922        TOTAL FREE ENERGY PREDICTED BY IDOCK:   -9.19 KCAL/MOL
REMARK 923 INTER-LIGAND FREE ENERGY PREDICTED BY IDOCK:   -8.59 KCAL/MOL
REMARK 924 INTRA-LIGAND FREE ENERGY PREDICTED BY IDOCK:   -0.60 KCAL/MOL
REMARK 927      BINDING AFFINITY PREDICTED BY RF-SCORE:    0.00 PKD
ROOT
HETATM    1  O   UNL     1     -13.515  16.511  73.904  1.00  0.00    -0.831 OA 
HETATM    2  C   UNL     1     -12.514  15.534  74.182  1.00  0.00    -0.662 C  
HETATM    3  H   UNL     1     -13.938  16.775  74.713  1.00  0.00     0.000 HD 
ENDROOT
BRANCH   2   4
HETATM    4  C   UNL     1     -11.830  15.107  72.873  1.00  0.00    -0.345 C  
BRANCH   4   5
HETATM    5  N   UNL     1     -12.429  15.698  71.659  1.00  0.00    -0.405 NA 
HETATM    6  C   UNL     1     -11.428  16.323  70.775  1.00  0.00    -0.297 C  
HETATM    7  C   UNL     1     -10.506  15.315  70.064  1.00  0.00    -0.247 C  
HETATM    8  N   UNL     1     -11.206  14.289  69.263  1.00  0.00    -0.265 NA 
HETATM    9  C   UNL     1     -13.158  14.670  70.879  1.00  0.00    -0.358 C  
HETATM   10  C   UNL     1     -12.264  13.673  70.096  1.00  0.00    -0.342 C  
BRANCH   8  11
HETATM   11  C   UNL     1     -11.746  14.807  67.997  1.00  0.00    -0.333 C  
BRANCH  11  12
HETATM   12  C   UNL     1     -11.037  14.242  66.759  1.00  0.00    -0.316 C  
BRANCH  12  13
HETATM   13  C   UNL     1     -10.296  15.329  65.965  1.00  0.00    -0.312 C  
BRANCH  13  14
HETATM   14  N   UNL     1      -9.246  15.968  66.799  1.00  0.00    -0.225 NA 
HETATM   15  C   UNL     1      -9.454  17.333  67.171  1.00  0.00    -0.256 A  
HETATM   16  C   UNL     1     -10.466  18.137  66.594  1.00  0.00    -0.354 A  
HETATM   17  C   UNL     1     -10.663  19.481  66.938  1.00  0.00    -0.576 A  
HETATM   18  C   UNL     1      -9.850  20.078  67.883  1.00  0.00    -0.538 A  
HETATM   19  C   UNL     1      -8.846  19.325  68.477  1.00  0.00    -0.411 A  
HETATM   20  C   UNL     1      -8.642  17.971  68.132  1.00  0.00    -0.273 A  
HETATM   21  S   UNL     1      -7.322  17.172  69.008  1.00  0.00    -0.175 SA 
HETATM   22  C   UNL     1      -7.388  15.515  68.383  1.00  0.00    -0.115 A  
HETATM   23  C   UNL     1      -8.268  15.091  67.372  1.00  0.00    -0.194 A  
HETATM   24  C   UNL     1      -8.133  13.739  66.969  1.00  0.00    -0.004 A  
HETATM   25  C   UNL     1      -7.259  12.821  67.586  1.00  0.00    -0.141 A  
HETATM   26  C   UNL     1      -6.427  13.277  68.601  1.00  0.00    -0.087 A  
HETATM   27  C   UNL     1      -7.244  11.367  67.180  1.00  0.00    -0.134 C  
HETATM   28  F   UNL     1      -8.142  11.060  66.202  1.00  0.00    -0.153 F  
HETATM   29  F   UNL     1      -7.547  10.540  68.221  1.00  0.00    -0.087 F  
HETATM   30  F   UNL     1      -6.032  10.958  66.718  1.00  0.00    -0.054 F  
HETATM   31  C   UNL     1      -6.481  14.613  68.983  1.00  0.00    -0.097 A  
ENDBRANCH  13  14
ENDBRANCH  12  13
ENDBRANCH  11  12
ENDBRANCH   8  11
ENDBRANCH   4   5
ENDBRANCH   2   4
TORSDOF 6
ENDMDL
MODEL       37
REMARK 921   NORMALIZED FREE ENERGY PREDICTED BY IDOCK:   -6.60 KCAL/MOL
REMARK 922        TOTAL FREE ENERGY PREDICTED BY IDOCK:   -9.15 KCAL/MOL
REMARK 923 INTER-LIGAND FREE ENERGY PREDICTED BY IDOCK:   -8.75 KCAL/MOL
REMARK 924 INTRA-LIGAND FREE ENERGY PREDICTED BY IDOCK:   -0.39 KCAL/MOL
REMARK 927      BINDING AFFINITY PREDICTED BY RF-SCORE:    0.00 PKD
ROOT
HETATM    1  O   UNL     1     -11.646  16.501  63.861  1.00  0.00    -1.598 OA 
HETATM    2  C   UNL     1     -11.049  15.338  64.433  1.00  0.00    -0.117 C  
HETATM    3  H   UNL     1     -11.697  16.402  62.918  1.00  0.00     0.000 HD 
ENDROOT
BRANCH   2   4
HETATM    4  C   UNL     1     -10.965  15.498  65.960  1.00  0.00    -0.251 C  
BRANCH   4   5
HETATM    5  N   UNL     1     -10.144  14.469  66.630  1.00  0.00    -0.266 NA 
HETATM    6  C   UNL     1     -10.547  14.242  68.030  1.00  0.00    -0.238 C  
HETATM    7  C   UNL     1     -11.906  13.533  68.182  1.00  0.00    -0.365 C  
HETATM    8  N   UNL     1     -12.010  12.233  67.488  1.00  0.00    -0.528 NA 
HETATM    9  C   UNL     1     -10.228  13.178  65.909  1.00  0.00    -0.291 C  
HETATM   10  C   UNL     1     -11.558  12.401  66.088  1.00  0.00    -0.396 C  
BRANCH   8  11
HETATM   11  C   UNL     1     -11.282  11.150  68.166  1.00  0.00    -0.292 C  
BRANCH  11  12
HETATM   12  C   UNL     1     -10.875  10.009  67.224  1.00  0.00    -0.284 C  
BRANCH  12  13
HETATM   13  C   UNL     1      -9.535   9.372  67.624  1.00  0.00    -0.132 C  
BRANCH  13  14
HETATM   14  N   UNL     1      -9.620   7.890  67.571  1.00  0.00    -0.147 NA 
HETATM   15  C   UNL     1      -8.986   7.243  66.465  1.00  0.00    -0.152 A  
HETATM   16  C   UNL     1      -8.509   7.951  65.336  1.00  0.00    -0.134 A  
HETATM   17  C   UNL     1      -7.905   7.322  64.239  1.00  0.00    -0.125 A  
HETATM   18  C   UNL     1      -7.752   5.949  64.229  1.00  0.00    -0.106 A  
HETATM   19  C   UNL     1      -8.204   5.214  65.317  1.00  0.00    -0.126 A  
HETATM   20  C   UNL     1      -8.814   5.843  66.424  1.00  0.00    -0.134 A  
HETATM   21  S   UNL     1      -9.312   4.741  67.723  1.00  0.00    -0.143 SA 
HETATM   22  C   UNL     1      -9.969   5.848  68.941  1.00  0.00    -0.157 A  
HETATM   23  C   UNL     1     -10.088   7.237  68.757  1.00  0.00    -0.176 A  
HETATM   24  C   UNL     1     -10.688   7.947  69.828  1.00  0.00    -0.233 A  
HETATM   25  C   UNL     1     -11.059   7.355  71.051  1.00  0.00    -0.277 A  
HETATM   26  C   UNL     1     -10.897   5.982  71.199  1.00  0.00    -0.338 A  
HETATM   27  C   UNL     1     -11.592   8.188  72.190  1.00  0.00    -0.357 C  
HETATM   28  F   UNL     1     -11.656   9.521  71.913  1.00  0.00    -0.432 F  
HETATM   29  F   UNL     1     -10.815   8.089  73.307  1.00  0.00    -0.410 F  
HETATM   30  F   UNL     1     -12.845   7.825  72.574  1.00  0.00    -0.193 F  
HETATM   31  C   UNL     1     -10.373   5.237  70.149  1.00  0.00    -0.354 A  
ENDBRANCH  13  14
ENDBRANCH  12  13
ENDBRANCH  11  12
ENDBRANCH   8  11
ENDBRANCH   4   5
ENDBRANCH   2   4
TORSDOF 6
ENDMDL
MODEL       38
REMARK 921   NORMALIZED FREE ENERGY PREDICTED BY IDOCK:   -6.58 KCAL/MOL
REMARK 922        TOTAL FREE ENERGY PREDICTED BY IDOCK:   -9.12 KCAL/MOL
REMARK 923 INTER-LIGAND FREE ENERGY PREDICTED BY IDOCK:   -8.39 KCAL/MOL
REMARK 924 INTRA-LIGAND FREE ENERGY PREDICTED BY IDOCK:   -0.73 KCAL/MOL
REMARK 927      BINDING AFFINITY PREDICTED BY RF-SCORE:    0.00 PKD
ROOT
HETATM    1  O   UNL     1     -10.215   4.611  71.269  1.00  0.00    -0.192 OA 
HETATM    2  C   UNL     1      -9.201   5.448  70.716  1.00  0.00    -0.149 C  
HETATM    3  H   UNL     1     -10.157   4.621  72.217  1.00  0.00     0.000 HD 
ENDROOT
BRANCH   2   4
HETATM    4  C   UNL     1      -9.295   5.432  69.182  1.00  0.00    -0.120 C  
BRANCH   4   5
HETATM    5  N   UNL     1     -10.309   6.353  68.630  1.00  0.00    -0.180 NA 
HETATM    6  C   UNL     1     -10.030   7.765  68.950  1.00  0.00    -0.182 C  
HETATM    7  C   UNL     1      -8.814   8.346  68.203  1.00  0.00    -0.142 C  
HETATM    8  N   UNL     1      -8.882   8.244  66.731  1.00  0.00    -0.134 NA 
HETATM    9  C   UNL     1     -10.395   6.220  67.157  1.00  0.00    -0.229 C  
HETATM   10  C   UNL     1      -9.220   6.850  66.364  1.00  0.00    -0.152 C  
BRANCH   8  11
HETATM   11  C   UNL     1      -9.814   9.206  66.123  1.00  0.00    -0.293 C  
BRANCH  11  12
HETATM   12  C   UNL     1      -9.802  10.579  66.808  1.00  0.00    -0.237 C  
BRANCH  12  13
HETATM   13  C   UNL     1     -11.219  11.121  67.052  1.00  0.00    -0.219 C  
BRANCH  13  14
HETATM   14  N   UNL     1     -11.177  12.352  67.882  1.00  0.00    -0.247 NA 
HETATM   15  C   UNL     1     -10.865  13.576  67.213  1.00  0.00    -0.276 A  
HETATM   16  C   UNL     1     -10.376  13.618  65.885  1.00  0.00    -0.304 A  
HETATM   17  C   UNL     1     -10.049  14.813  65.230  1.00  0.00    -0.388 A  
HETATM   18  C   UNL     1     -10.201  16.022  65.881  1.00  0.00    -0.386 A  
HETATM   19  C   UNL     1     -10.680  16.027  67.185  1.00  0.00    -0.283 A  
HETATM   20  C   UNL     1     -11.009  14.826  67.850  1.00  0.00    -0.278 A  
HETATM   21  S   UNL     1     -11.619  15.036  69.503  1.00  0.00    -0.333 SA 
HETATM   22  C   UNL     1     -11.977  13.373  70.000  1.00  0.00    -0.337 A  
HETATM   23  C   UNL     1     -11.711  12.243  69.208  1.00  0.00    -0.330 A  
HETATM   24  C   UNL     1     -12.019  10.993  69.801  1.00  0.00    -0.428 A  
HETATM   25  C   UNL     1     -12.645  10.854  71.056  1.00  0.00    -0.517 A  
HETATM   26  C   UNL     1     -12.915  12.001  71.793  1.00  0.00    -0.445 A  
HETATM   27  C   UNL     1     -13.045   9.497  71.581  1.00  0.00    -0.401 C  
HETATM   28  F   UNL     1     -12.754   8.471  70.731  1.00  0.00    -0.157 F  
HETATM   29  F   UNL     1     -14.387   9.408  71.807  1.00  0.00    -0.282 F  
HETATM   30  F   UNL     1     -12.446   9.187  72.762  1.00  0.00    -0.371 F  
HETATM   31  C   UNL     1     -12.569  13.244  71.275  1.00  0.00    -0.398 A  
ENDBRANCH  13  14
ENDBRANCH  12  13
ENDBRANCH  11  12
ENDBRANCH   8  11
ENDBRANCH   4   5
ENDBRANCH   2   4
TORSDOF 6
ENDMDL
MODEL       39
REMARK 921   NORMALIZED FREE ENERGY PREDICTED BY IDOCK:   -6.57 KCAL/MOL
REMARK 922        TOTAL FREE ENERGY PREDICTED BY IDOCK:   -9.11 KCAL/MOL
REMARK 923 INTER-LIGAND FREE ENERGY PREDICTED BY IDOCK:   -8.31 KCAL/MOL
REMARK 924 INTRA-LIGAND FREE ENERGY PREDICTED BY IDOCK:   -0.80 KCAL/MOL
REMARK 927      BINDING AFFINITY PREDICTED BY RF-SCORE:    0.00 PKD
ROOT
HETATM    1  O   UNL     1      -9.623   2.346  66.590  1.00  0.00    -0.380 OA 
HETATM    2  C   UNL     1      -9.377   2.695  67.951  1.00  0.00    -0.194 C  
HETATM    3  H   UNL     1      -9.874   1.432  66.535  1.00  0.00     0.000 HD 
ENDROOT
BRANCH   2   4
HETATM    4  C   UNL     1      -8.969   4.175  68.041  1.00  0.00    -0.121 C  
BRANCH   4   5
HETATM    5  N   UNL     1      -9.286   4.962  66.832  1.00  0.00    -0.125 NA 
HETATM    6  C   UNL     1     -10.608   5.611  66.905  1.00  0.00    -0.296 C  
HETATM    7  C   UNL     1     -10.679   6.772  67.915  1.00  0.00    -0.256 C  
HETATM    8  N   UNL     1      -9.685   7.844  67.701  1.00  0.00    -0.150 NA 
HETATM    9  C   UNL     1      -8.266   6.012  66.606  1.00  0.00    -0.106 C  
HETATM   10  C   UNL     1      -8.344   7.231  67.563  1.00  0.00    -0.116 C  
BRANCH   8  11
HETATM   11  C   UNL     1     -10.003   8.714  66.560  1.00  0.00    -0.282 C  
BRANCH  11  12
HETATM   12  C   UNL     1     -10.513  10.100  66.978  1.00  0.00    -0.302 C  
BRANCH  12  13
HETATM   13  C   UNL     1      -9.601  10.766  68.020  1.00  0.00    -0.163 C  
BRANCH  13  14
HETATM   14  N   UNL     1     -10.328  11.838  68.748  1.00  0.00    -0.205 NA 
HETATM   15  C   UNL     1     -10.326  13.141  68.158  1.00  0.00    -0.244 A  
HETATM   16  C   UNL     1      -9.485  13.487  67.072  1.00  0.00    -0.251 A  
HETATM   17  C   UNL     1      -9.462  14.767  66.502  1.00  0.00    -0.316 A  
HETATM   18  C   UNL     1     -10.288  15.758  66.997  1.00  0.00    -0.292 A  
HETATM   19  C   UNL     1     -11.131  15.461  68.061  1.00  0.00    -0.312 A  
HETATM   20  C   UNL     1     -11.156  14.174  68.639  1.00  0.00    -0.262 A  
HETATM   21  S   UNL     1     -12.307  13.983  69.977  1.00  0.00    -0.298 SA 
HETATM   22  C   UNL     1     -12.118  12.276  70.413  1.00  0.00    -0.300 A  
HETATM   23  C   UNL     1     -11.179  11.414  69.819  1.00  0.00    -0.192 A  
HETATM   24  C   UNL     1     -11.143  10.096  70.341  1.00  0.00    -0.393 A  
HETATM   25  C   UNL     1     -12.038   9.614  71.317  1.00  0.00    -0.457 A  
HETATM   26  C   UNL     1     -12.969  10.495  71.856  1.00  0.00    -0.553 A  
HETATM   27  C   UNL     1     -12.016   8.169  71.749  1.00  0.00    -0.305 C  
HETATM   28  F   UNL     1     -11.079   7.417  71.104  1.00  0.00    -0.245 F  
HETATM   29  F   UNL     1     -13.204   7.543  71.513  1.00  0.00    -0.346 F  
HETATM   30  F   UNL     1     -11.770   8.016  73.077  1.00  0.00    -0.443 F  
HETATM   31  C   UNL     1     -12.995  11.815  71.418  1.00  0.00    -0.408 A  
ENDBRANCH  13  14
ENDBRANCH  12  13
ENDBRANCH  11  12
ENDBRANCH   8  11
ENDBRANCH   4   5
ENDBRANCH   2   4
TORSDOF 6
ENDMDL
MODEL       40
REMARK 921   NORMALIZED FREE ENERGY PREDICTED BY IDOCK:   -6.55 KCAL/MOL
REMARK 922        TOTAL FREE ENERGY PREDICTED BY IDOCK:   -9.08 KCAL/MOL
REMARK 923 INTER-LIGAND FREE ENERGY PREDICTED BY IDOCK:   -8.33 KCAL/MOL
REMARK 924 INTRA-LIGAND FREE ENERGY PREDICTED BY IDOCK:   -0.75 KCAL/MOL
REMARK 927      BINDING AFFINITY PREDICTED BY RF-SCORE:    0.00 PKD
ROOT
HETATM    1  O   UNL     1     -13.147  12.492  64.189  1.00  0.00    -0.751 OA 
HETATM    2  C   UNL     1     -11.945  12.843  63.506  1.00  0.00    -0.556 C  
HETATM    3  H   UNL     1     -13.741  13.233  64.193  1.00  0.00     0.000 HD 
ENDROOT
BRANCH   2   4
HETATM    4  C   UNL     1     -10.984  11.643  63.500  1.00  0.00    -0.407 C  
BRANCH   4   5
HETATM    5  N   UNL     1      -9.798  11.816  64.363  1.00  0.00    -0.231 NA 
HETATM    6  C   UNL     1     -10.145  12.260  65.726  1.00  0.00    -0.252 C  
HETATM    7  C   UNL     1     -10.845  11.182  66.574  1.00  0.00    -0.245 C  
HETATM    8  N   UNL     1     -10.097   9.915  66.712  1.00  0.00    -0.218 NA 
HETATM    9  C   UNL     1      -9.035  10.550  64.468  1.00  0.00    -0.209 C  
HETATM   10  C   UNL     1      -9.676   9.461  65.368  1.00  0.00    -0.178 C  
BRANCH   8  11
HETATM   11  C   UNL     1      -8.955  10.011  67.634  1.00  0.00    -0.131 C  
BRANCH  11  12
HETATM   12  C   UNL     1      -8.777   8.763  68.509  1.00  0.00    -0.135 C  
BRANCH  12  13
HETATM   13  C   UNL     1      -8.830   9.092  70.010  1.00  0.00    -0.173 C  
BRANCH  13  14
HETATM   14  N   UNL     1     -10.131   8.674  70.595  1.00  0.00    -0.191 NA 
HETATM   15  C   UNL     1     -10.182   7.384  71.209  1.00  0.00    -0.188 A  
HETATM   16  C   UNL     1      -9.145   6.430  71.072  1.00  0.00    -0.154 A  
HETATM   17  C   UNL     1      -9.197   5.156  71.654  1.00  0.00    -0.174 A  
HETATM   18  C   UNL     1     -10.296   4.785  72.405  1.00  0.00    -0.261 A  
HETATM   19  C   UNL     1     -11.336   5.691  72.568  1.00  0.00    -0.349 A  
HETATM   20  C   UNL     1     -11.289   6.974  71.982  1.00  0.00    -0.264 A  
HETATM   21  S   UNL     1     -12.702   7.995  72.314  1.00  0.00    -0.150 SA 
HETATM   22  C   UNL     1     -12.289   9.511  71.495  1.00  0.00    -0.380 A  
HETATM   23  C   UNL     1     -11.126   9.696  70.726  1.00  0.00    -0.334 A  
HETATM   24  C   UNL     1     -10.998  10.964  70.105  1.00  0.00    -0.153 A  
HETATM   25  C   UNL     1     -11.901  12.028  70.302  1.00  0.00    -0.356 A  
HETATM   26  C   UNL     1     -13.023  11.808  71.092  1.00  0.00    -0.282 A  
HETATM   27  C   UNL     1     -11.647  13.387  69.698  1.00  0.00    -0.268 C  
HETATM   28  F   UNL     1     -10.488  13.463  68.983  1.00  0.00    -0.224 F  
HETATM   29  F   UNL     1     -11.550  14.362  70.647  1.00  0.00    -0.315 F  
HETATM   30  F   UNL     1     -12.635  13.786  68.852  1.00  0.00    -0.304 F  
HETATM   31  C   UNL     1     -13.220  10.558  71.668  1.00  0.00    -0.493 A  
ENDBRANCH  13  14
ENDBRANCH  12  13
ENDBRANCH  11  12
ENDBRANCH   8  11
ENDBRANCH   4   5
ENDBRANCH   2   4
TORSDOF 6
ENDMDL
MODEL       41
REMARK 921   NORMALIZED FREE ENERGY PREDICTED BY IDOCK:   -6.55 KCAL/MOL
REMARK 922        TOTAL FREE ENERGY PREDICTED BY IDOCK:   -9.08 KCAL/MOL
REMARK 923 INTER-LIGAND FREE ENERGY PREDICTED BY IDOCK:   -8.55 KCAL/MOL
REMARK 924 INTRA-LIGAND FREE ENERGY PREDICTED BY IDOCK:   -0.53 KCAL/MOL
REMARK 927      BINDING AFFINITY PREDICTED BY RF-SCORE:    0.00 PKD
ROOT
HETATM    1  O   UNL     1      -6.219   7.454  67.812  1.00  0.00    -0.040 OA 
HETATM    2  C   UNL     1      -6.181   7.013  69.168  1.00  0.00    -0.031 C  
HETATM    3  H   UNL     1      -5.336   7.623  67.506  1.00  0.00     0.000 HD 
ENDROOT
BRANCH   2   4
HETATM    4  C   UNL     1      -7.611   6.739  69.663  1.00  0.00    -0.101 C  
BRANCH   4   5
HETATM    5  N   UNL     1      -8.167   7.806  70.520  1.00  0.00    -0.118 NA 
HETATM    6  C   UNL     1      -8.242   9.108  69.832  1.00  0.00    -0.136 C  
HETATM    7  C   UNL     1      -9.313   9.170  68.727  1.00  0.00    -0.139 C  
HETATM    8  N   UNL     1     -10.684   8.838  69.170  1.00  0.00    -0.180 NA 
HETATM    9  C   UNL     1      -9.527   7.450  70.988  1.00  0.00    -0.157 C  
HETATM   10  C   UNL     1     -10.647   7.562  69.920  1.00  0.00    -0.237 C  
BRANCH   8  11
HETATM   11  C   UNL     1     -11.318   9.908  69.954  1.00  0.00    -0.222 C  
BRANCH  11  12
HETATM   12  C   UNL     1     -11.010  11.314  69.420  1.00  0.00    -0.282 C  
BRANCH  12  13
HETATM   13  C   UNL     1     -12.272  12.037  68.922  1.00  0.00     0.020 C  
BRANCH  13  14
HETATM   14  N   UNL     1     -12.033  13.499  68.814  1.00  0.00    -0.350 NA 
HETATM   15  C   UNL     1     -12.006  14.245  70.033  1.00  0.00    -0.334 A  
HETATM   16  C   UNL     1     -12.423  13.700  71.272  1.00  0.00    -0.412 A  
HETATM   17  C   UNL     1     -12.418  14.431  72.467  1.00  0.00    -0.296 A  
HETATM   18  C   UNL     1     -11.991  15.745  72.472  1.00  0.00    -0.600 A  
HETATM   19  C   UNL     1     -11.571  16.319  71.279  1.00  0.00    -0.402 A  
HETATM   20  C   UNL     1     -11.575  15.587  70.072  1.00  0.00    -0.341 A  
HETATM   21  S   UNL     1     -10.989  16.485  68.657  1.00  0.00    -0.324 SA 
HETATM   22  C   UNL     1     -11.076  15.275  67.365  1.00  0.00    -0.326 A  
HETATM   23  C   UNL     1     -11.589  13.978  67.538  1.00  0.00    -0.367 A  
HETATM   24  C   UNL     1     -11.624  13.173  66.372  1.00  0.00    -0.394 A  
HETATM   25  C   UNL     1     -11.096  13.572  65.128  1.00  0.00    -0.326 A  
HETATM   26  C   UNL     1     -10.573  14.854  65.010  1.00  0.00    -0.446 A  
HETATM   27  C   UNL     1     -11.066  12.624  63.954  1.00  0.00    -0.427 C  
HETATM   28  F   UNL     1     -11.576  11.391  64.230  1.00  0.00    -0.371 F  
HETATM   29  F   UNL     1      -9.798  12.399  63.507  1.00  0.00    -0.386 F  
HETATM   30  F   UNL     1     -11.764  13.086  62.881  1.00  0.00    -0.499 F  
HETATM   31  C   UNL     1     -10.579  15.700  66.114  1.00  0.00    -0.325 A  
ENDBRANCH  13  14
ENDBRANCH  12  13
ENDBRANCH  11  12
ENDBRANCH   8  11
ENDBRANCH   4   5
ENDBRANCH   2   4
TORSDOF 6
ENDMDL
MODEL       42
REMARK 921   NORMALIZED FREE ENERGY PREDICTED BY IDOCK:   -6.54 KCAL/MOL
REMARK 922        TOTAL FREE ENERGY PREDICTED BY IDOCK:   -9.07 KCAL/MOL
REMARK 923 INTER-LIGAND FREE ENERGY PREDICTED BY IDOCK:   -8.92 KCAL/MOL
REMARK 924 INTRA-LIGAND FREE ENERGY PREDICTED BY IDOCK:   -0.15 KCAL/MOL
REMARK 927      BINDING AFFINITY PREDICTED BY RF-SCORE:    0.00 PKD
ROOT
HETATM    1  O   UNL     1      -6.859  10.558  63.264  1.00  0.00    -0.299 OA 
HETATM    2  C   UNL     1      -8.086   9.991  62.807  1.00  0.00    -0.140 C  
HETATM    3  H   UNL     1      -6.199   9.878  63.335  1.00  0.00     0.000 HD 
ENDROOT
BRANCH   2   4
HETATM    4  C   UNL     1      -9.153  11.092  62.692  1.00  0.00    -0.343 C  
BRANCH   4   5
HETATM    5  N   UNL     1     -10.378  10.828  63.475  1.00  0.00    -0.256 NA 
HETATM    6  C   UNL     1     -10.092  10.488  64.882  1.00  0.00    -0.333 C  
HETATM    7  C   UNL     1      -9.579  11.675  65.719  1.00  0.00    -0.232 C  
HETATM    8  N   UNL     1     -10.467  12.856  65.734  1.00  0.00    -0.274 NA 
HETATM    9  C   UNL     1     -11.278  12.005  63.457  1.00  0.00    -0.445 C  
HETATM   10  C   UNL     1     -10.829  13.199  64.340  1.00  0.00    -0.397 C  
BRANCH   8  11
HETATM   11  C   UNL     1     -11.660  12.677  66.574  1.00  0.00    -0.381 C  
BRANCH  11  12
HETATM   12  C   UNL     1     -11.522  11.533  67.588  1.00  0.00    -0.357 C  
BRANCH  12  13
HETATM   13  C   UNL     1     -10.650  11.924  68.792  1.00  0.00    -0.206 C  
BRANCH  13  14
HETATM   14  N   UNL     1     -11.470  12.017  70.028  1.00  0.00    -0.175 NA 
HETATM   15  C   UNL     1     -12.065  13.284  70.319  1.00  0.00    -0.335 A  
HETATM   16  C   UNL     1     -11.716  14.469  69.628  1.00  0.00    -0.356 A  
HETATM   17  C   UNL     1     -12.280  15.718  69.921  1.00  0.00    -0.271 A  
HETATM   18  C   UNL     1     -13.224  15.831  70.924  1.00  0.00    -0.143 A  
HETATM   19  C   UNL     1     -13.598  14.693  71.626  1.00  0.00    -0.475 A  
HETATM   20  C   UNL     1     -13.031  13.433  71.336  1.00  0.00    -0.328 A  
HETATM   21  S   UNL     1     -13.645  12.096  72.329  1.00  0.00     0.169 SA 
HETATM   22  C   UNL     1     -12.783  10.695  71.670  1.00  0.00    -0.426 A  
HETATM   23  C   UNL     1     -11.806  10.777  70.662  1.00  0.00    -0.360 A  
HETATM   24  C   UNL     1     -11.190   9.551  70.306  1.00  0.00    -0.307 A  
HETATM   25  C   UNL     1     -11.572   8.300  70.830  1.00  0.00    -0.250 A  
HETATM   26  C   UNL     1     -12.562   8.264  71.805  1.00  0.00    -0.364 A  
HETATM   27  C   UNL     1     -10.949   7.021  70.326  1.00  0.00    -0.271 C  
HETATM   28  F   UNL     1     -10.025   7.210  69.342  1.00  0.00    -0.158 F  
HETATM   29  F   UNL     1     -11.875   6.173  69.793  1.00  0.00    -0.479 F  
HETATM   30  F   UNL     1     -10.317   6.318  71.303  1.00  0.00    -0.217 F  
HETATM   31  C   UNL     1     -13.148   9.451  72.230  1.00  0.00    -0.509 A  
ENDBRANCH  13  14
ENDBRANCH  12  13
ENDBRANCH  11  12
ENDBRANCH   8  11
ENDBRANCH   4   5
ENDBRANCH   2   4
TORSDOF 6
ENDMDL
MODEL       43
REMARK 921   NORMALIZED FREE ENERGY PREDICTED BY IDOCK:   -6.50 KCAL/MOL
REMARK 922        TOTAL FREE ENERGY PREDICTED BY IDOCK:   -9.02 KCAL/MOL
REMARK 923 INTER-LIGAND FREE ENERGY PREDICTED BY IDOCK:   -8.76 KCAL/MOL
REMARK 924 INTRA-LIGAND FREE ENERGY PREDICTED BY IDOCK:   -0.25 KCAL/MOL
REMARK 927      BINDING AFFINITY PREDICTED BY RF-SCORE:    0.00 PKD
ROOT
HETATM    1  O   UNL     1     -14.117   9.033  73.370  1.00  0.00    -1.231 OA 
HETATM    2  C   UNL     1     -13.788   8.891  71.989  1.00  0.00    -0.456 C  
HETATM    3  H   UNL     1     -14.988   9.402  73.455  1.00  0.00     0.000 HD 
ENDROOT
BRANCH   2   4
HETATM    4  C   UNL     1     -12.377   8.294  71.852  1.00  0.00    -0.338 C  
BRANCH   4   5
HETATM    5  N   UNL     1     -11.298   9.302  71.805  1.00  0.00    -0.385 NA 
HETATM    6  C   UNL     1      -9.953   8.699  71.860  1.00  0.00    -0.322 C  
HETATM    7  C   UNL     1      -9.559   7.934  70.583  1.00  0.00    -0.166 C  
HETATM    8  N   UNL     1      -9.624   8.727  69.338  1.00  0.00    -0.161 NA 
HETATM    9  C   UNL     1     -11.391  10.115  70.570  1.00  0.00    -0.338 C  
HETATM   10  C   UNL     1     -10.941   9.400  69.269  1.00  0.00    -0.117 C  
BRANCH   8  11
HETATM   11  C   UNL     1      -8.518   9.685  69.199  1.00  0.00    -0.143 C  
BRANCH  11  12
HETATM   12  C   UNL     1      -8.971  11.070  68.719  1.00  0.00    -0.153 C  
BRANCH  12  13
HETATM   13  C   UNL     1      -8.095  11.607  67.577  1.00  0.00    -0.144 C  
BRANCH  13  14
HETATM   14  N   UNL     1      -8.881  11.730  66.322  1.00  0.00    -0.178 NA 
HETATM   15  C   UNL     1      -8.601  10.787  65.285  1.00  0.00    -0.148 A  
HETATM   16  C   UNL     1      -7.477   9.927  65.317  1.00  0.00    -0.131 A  
HETATM   17  C   UNL     1      -7.184   9.015  64.294  1.00  0.00    -0.091 A  
HETATM   18  C   UNL     1      -8.012   8.924  63.192  1.00  0.00    -0.155 A  
HETATM   19  C   UNL     1      -9.128   9.748  63.120  1.00  0.00    -0.270 A  
HETATM   20  C   UNL     1      -9.426  10.670  64.147  1.00  0.00    -0.281 A  
HETATM   21  S   UNL     1     -10.900  11.624  63.884  1.00  0.00    -0.436 SA 
HETATM   22  C   UNL     1     -10.994  12.607  65.355  1.00  0.00    -0.286 A  
HETATM   23  C   UNL     1     -10.019  12.599  66.369  1.00  0.00    -0.255 A  
HETATM   24  C   UNL     1     -10.246  13.496  67.443  1.00  0.00    -0.237 A  
HETATM   25  C   UNL     1     -11.407  14.284  67.575  1.00  0.00    -0.346 A  
HETATM   26  C   UNL     1     -12.358  14.239  66.562  1.00  0.00    -0.345 A  
HETATM   27  C   UNL     1     -11.636  15.135  68.800  1.00  0.00    -0.349 C  
HETATM   28  F   UNL     1     -10.639  15.046  69.725  1.00  0.00    -0.235 F  
HETATM   29  F   UNL     1     -12.776  14.787  69.463  1.00  0.00    -0.243 F  
HETATM   30  F   UNL     1     -11.761  16.458  68.511  1.00  0.00    -0.354 F  
HETATM   31  C   UNL     1     -12.144  13.421  65.458  1.00  0.00    -0.467 A  
ENDBRANCH  13  14
ENDBRANCH  12  13
ENDBRANCH  11  12
ENDBRANCH   8  11
ENDBRANCH   4   5
ENDBRANCH   2   4
TORSDOF 6
ENDMDL
MODEL       44
REMARK 921   NORMALIZED FREE ENERGY PREDICTED BY IDOCK:   -6.48 KCAL/MOL
REMARK 922        TOTAL FREE ENERGY PREDICTED BY IDOCK:   -8.98 KCAL/MOL
REMARK 923 INTER-LIGAND FREE ENERGY PREDICTED BY IDOCK:   -8.52 KCAL/MOL
REMARK 924 INTRA-LIGAND FREE ENERGY PREDICTED BY IDOCK:   -0.46 KCAL/MOL
REMARK 927      BINDING AFFINITY PREDICTED BY RF-SCORE:    0.00 PKD
ROOT
HETATM    1  O   UNL     1      -6.645   6.191  73.101  1.00  0.00    -0.070 OA 
HETATM    2  C   UNL     1      -7.308   5.085  72.491  1.00  0.00    -0.093 C  
HETATM    3  H   UNL     1      -5.938   5.876  73.652  1.00  0.00     0.000 HD 
ENDROOT
BRANCH   2   4
HETATM    4  C   UNL     1      -8.453   5.596  71.600  1.00  0.00    -0.131 C  
BRANCH   4   5
HETATM    5  N   UNL     1      -8.141   6.843  70.872  1.00  0.00    -0.112 NA 
HETATM    6  C   UNL     1      -8.393   6.735  69.424  1.00  0.00    -0.132 C  
HETATM    7  C   UNL     1      -9.887   6.664  69.053  1.00  0.00    -0.144 C  
HETATM    8  N   UNL     1     -10.705   7.790  69.550  1.00  0.00    -0.226 NA 
HETATM    9  C   UNL     1      -8.941   7.973  71.399  1.00  0.00    -0.141 C  
HETATM   10  C   UNL     1     -10.438   7.973  70.995  1.00  0.00    -0.203 C  
BRANCH   8  11
HETATM   11  C   UNL     1     -10.498   9.036  68.798  1.00  0.00    -0.206 C  
BRANCH  11  12
HETATM   12  C   UNL     1     -11.164  10.255  69.450  1.00  0.00    -0.292 C  
BRANCH  12  13
HETATM   13  C   UNL     1     -12.130  10.972  68.494  1.00  0.00     0.004 C  
BRANCH  13  14
HETATM   14  N   UNL     1     -11.540  12.245  68.004  1.00  0.00    -0.329 NA 
HETATM   15  C   UNL     1     -11.092  12.273  66.647  1.00  0.00    -0.297 A  
HETATM   16  C   UNL     1     -10.972  11.105  65.857  1.00  0.00    -0.171 A  
HETATM   17  C   UNL     1     -10.514  11.122  64.533  1.00  0.00    -0.415 A  
HETATM   18  C   UNL     1     -10.156  12.318  63.942  1.00  0.00    -0.374 A  
HETATM   19  C   UNL     1     -10.260  13.490  64.680  1.00  0.00    -0.341 A  
HETATM   20  C   UNL     1     -10.720  13.478  66.015  1.00  0.00    -0.279 A  
HETATM   21  S   UNL     1     -10.798  15.073  66.788  1.00  0.00    -0.320 SA 
HETATM   22  C   UNL     1     -11.454  14.696  68.391  1.00  0.00    -0.311 A  
HETATM   23  C   UNL     1     -11.721  13.392  68.843  1.00  0.00    -0.328 A  
HETATM   24  C   UNL     1     -12.193  13.291  70.176  1.00  0.00    -0.376 A  
HETATM   25  C   UNL     1     -12.485  14.403  70.991  1.00  0.00    -0.425 A  
HETATM   26  C   UNL     1     -12.232  15.676  70.492  1.00  0.00    -0.437 A  
HETATM   27  C   UNL     1     -13.089  14.227  72.363  1.00  0.00    -0.431 C  
HETATM   28  F   UNL     1     -13.319  12.926  72.699  1.00  0.00    -0.595 F  
HETATM   29  F   UNL     1     -14.298  14.848  72.476  1.00  0.00    -0.510 F  
HETATM   30  F   UNL     1     -12.311  14.738  73.355  1.00  0.00    -0.450 F  
HETATM   31  C   UNL     1     -11.707  15.817  69.212  1.00  0.00    -0.384 A  
ENDBRANCH  13  14
ENDBRANCH  12  13
ENDBRANCH  11  12
ENDBRANCH   8  11
ENDBRANCH   4   5
ENDBRANCH   2   4
TORSDOF 6
ENDMDL
MODEL       45
REMARK 921   NORMALIZED FREE ENERGY PREDICTED BY IDOCK:   -6.48 KCAL/MOL
REMARK 922        TOTAL FREE ENERGY PREDICTED BY IDOCK:   -8.98 KCAL/MOL
REMARK 923 INTER-LIGAND FREE ENERGY PREDICTED BY IDOCK:   -8.45 KCAL/MOL
REMARK 924 INTRA-LIGAND FREE ENERGY PREDICTED BY IDOCK:   -0.53 KCAL/MOL
REMARK 927      BINDING AFFINITY PREDICTED BY RF-SCORE:    0.00 PKD
ROOT
HETATM    1  O   UNL     1     -12.335  14.784  63.679  1.00  0.00    -1.046 OA 
HETATM    2  C   UNL     1     -11.254  14.779  64.611  1.00  0.00    -0.342 C  
HETATM    3  H   UNL     1     -12.764  15.631  63.691  1.00  0.00     0.000 HD 
ENDROOT
BRANCH   2   4
HETATM    4  C   UNL     1     -10.560  13.407  64.591  1.00  0.00    -0.415 C  
BRANCH   4   5
HETATM    5  N   UNL     1     -11.430  12.285  64.998  1.00  0.00    -0.329 NA 
HETATM    6  C   UNL     1     -10.875  10.970  64.626  1.00  0.00    -0.178 C  
HETATM    7  C   UNL     1      -9.636  10.561  65.444  1.00  0.00    -0.237 C  
HETATM    8  N   UNL     1      -9.835  10.545  66.909  1.00  0.00    -0.186 NA 
HETATM    9  C   UNL     1     -11.652  12.296  66.463  1.00  0.00    -0.377 C  
HETATM   10  C   UNL     1     -10.447  11.828  67.321  1.00  0.00    -0.214 C  
BRANCH   8  11
HETATM   11  C   UNL     1     -10.621   9.394  67.377  1.00  0.00    -0.258 C  
BRANCH  11  12
HETATM   12  C   UNL     1     -10.006   8.042  66.992  1.00  0.00    -0.324 C  
BRANCH  12  13
HETATM   13  C   UNL     1     -11.060   6.928  66.900  1.00  0.00    -0.149 C  
BRANCH  13  14
HETATM   14  N   UNL     1     -10.650   5.746  67.702  1.00  0.00    -0.241 NA 
HETATM   15  C   UNL     1      -9.959   4.701  67.013  1.00  0.00    -0.195 A  
HETATM   16  C   UNL     1      -9.871   4.645  65.601  1.00  0.00    -0.217 A  
HETATM   17  C   UNL     1      -9.214   3.613  64.918  1.00  0.00    -0.147 A  
HETATM   18  C   UNL     1      -8.613   2.590  65.625  1.00  0.00    -0.114 A  
HETATM   19  C   UNL     1      -8.673   2.606  67.013  1.00  0.00    -0.137 A  
HETATM   20  C   UNL     1      -9.335   3.643  67.705  1.00  0.00    -0.194 A  
HETATM   21  S   UNL     1      -9.294   3.499  69.474  1.00  0.00    -0.167 SA 
HETATM   22  C   UNL     1     -10.147   4.959  70.003  1.00  0.00    -0.266 A  
HETATM   23  C   UNL     1     -10.742   5.882  69.125  1.00  0.00    -0.324 A  
HETATM   24  C   UNL     1     -11.426   6.960  69.742  1.00  0.00    -0.247 A  
HETATM   25  C   UNL     1     -11.444   7.184  71.133  1.00  0.00    -0.322 A  
HETATM   26  C   UNL     1     -10.818   6.260  71.962  1.00  0.00    -0.286 A  
HETATM   27  C   UNL     1     -12.098   8.413  71.716  1.00  0.00    -0.328 C  
HETATM   28  F   UNL     1     -12.634   9.247  70.780  1.00  0.00    -0.286 F  
HETATM   29  F   UNL     1     -11.217   9.179  72.421  1.00  0.00    -0.381 F  
HETATM   30  F   UNL     1     -13.109   8.118  72.577  1.00  0.00    -0.264 F  
HETATM   31  C   UNL     1     -10.191   5.153  71.401  1.00  0.00    -0.282 A  
ENDBRANCH  13  14
ENDBRANCH  12  13
ENDBRANCH  11  12
ENDBRANCH   8  11
ENDBRANCH   4   5
ENDBRANCH   2   4
TORSDOF 6
ENDMDL
MODEL       46
REMARK 921   NORMALIZED FREE ENERGY PREDICTED BY IDOCK:   -6.45 KCAL/MOL
REMARK 922        TOTAL FREE ENERGY PREDICTED BY IDOCK:   -8.95 KCAL/MOL
REMARK 923 INTER-LIGAND FREE ENERGY PREDICTED BY IDOCK:   -8.97 KCAL/MOL
REMARK 924 INTRA-LIGAND FREE ENERGY PREDICTED BY IDOCK:    0.02 KCAL/MOL
REMARK 927      BINDING AFFINITY PREDICTED BY RF-SCORE:    0.00 PKD
ROOT
HETATM    1  O   UNL     1      -6.516   9.927  63.464  1.00  0.00    -0.112 OA 
HETATM    2  C   UNL     1      -7.433   9.890  62.372  1.00  0.00    -0.115 C  
HETATM    3  H   UNL     1      -5.844   9.268  63.339  1.00  0.00     0.000 HD 
ENDROOT
BRANCH   2   4
HETATM    4  C   UNL     1      -8.522  10.956  62.574  1.00  0.00    -0.240 C  
BRANCH   4   5
HETATM    5  N   UNL     1      -9.697  10.482  63.334  1.00  0.00    -0.325 NA 
HETATM    6  C   UNL     1      -9.346   9.992  64.679  1.00  0.00    -0.279 C  
HETATM    7  C   UNL     1      -8.919  11.102  65.657  1.00  0.00    -0.184 C  
HETATM    8  N   UNL     1      -9.909  12.185  65.839  1.00  0.00    -0.245 NA 
HETATM    9  C   UNL     1     -10.699  11.563  63.482  1.00  0.00    -0.414 C  
HETATM   10  C   UNL     1     -10.336  12.669  64.507  1.00  0.00    -0.344 C  
BRANCH   8  11
HETATM   11  C   UNL     1     -11.059  11.790  66.666  1.00  0.00    -0.310 C  
BRANCH  11  12
HETATM   12  C   UNL     1     -10.817  10.504  67.467  1.00  0.00    -0.357 C  
BRANCH  12  13
HETATM   13  C   UNL     1     -10.391  10.790  68.916  1.00  0.00    -0.202 C  
BRANCH  13  14
HETATM   14  N   UNL     1     -11.413  10.294  69.873  1.00  0.00    -0.264 NA 
HETATM   15  C   UNL     1     -11.387   8.898  70.184  1.00  0.00    -0.106 A  
HETATM   16  C   UNL     1     -10.608   7.967  69.456  1.00  0.00    -0.216 A  
HETATM   17  C   UNL     1     -10.593   6.595  69.742  1.00  0.00    -0.270 A  
HETATM   18  C   UNL     1     -11.361   6.098  70.777  1.00  0.00    -0.364 A  
HETATM   19  C   UNL     1     -12.139   6.977  71.520  1.00  0.00    -0.392 A  
HETATM   20  C   UNL     1     -12.159   8.359  71.234  1.00  0.00    -0.284 A  
HETATM   21  S   UNL     1     -13.201   9.323  72.300  1.00  0.00    -0.447 SA 
HETATM   22  C   UNL     1     -12.944  10.973  71.707  1.00  0.00    -0.438 A  
HETATM   23  C   UNL     1     -12.147  11.291  70.593  1.00  0.00    -0.383 A  
HETATM   24  C   UNL     1     -12.108  12.664  70.241  1.00  0.00    -0.372 A  
HETATM   25  C   UNL     1     -12.728  13.684  70.991  1.00  0.00    -0.408 A  
HETATM   26  C   UNL     1     -13.482  13.325  72.101  1.00  0.00    -0.655 A  
HETATM   27  C   UNL     1     -12.555  15.137  70.622  1.00  0.00    -0.395 C  
HETATM   28  F   UNL     1     -11.755  15.337  69.536  1.00  0.00    -0.271 F  
HETATM   29  F   UNL     1     -11.983  15.858  71.629  1.00  0.00    -0.364 F  
HETATM   30  F   UNL     1     -13.732  15.756  70.340  1.00  0.00    -0.207 F  
HETATM   31  C   UNL     1     -13.601  11.982  72.444  1.00  0.00    -0.009 A  
ENDBRANCH  13  14
ENDBRANCH  12  13
ENDBRANCH  11  12
ENDBRANCH   8  11
ENDBRANCH   4   5
ENDBRANCH   2   4
TORSDOF 6
ENDMDL
MODEL       47
REMARK 921   NORMALIZED FREE ENERGY PREDICTED BY IDOCK:   -6.45 KCAL/MOL
REMARK 922        TOTAL FREE ENERGY PREDICTED BY IDOCK:   -8.95 KCAL/MOL
REMARK 923 INTER-LIGAND FREE ENERGY PREDICTED BY IDOCK:   -8.38 KCAL/MOL
REMARK 924 INTRA-LIGAND FREE ENERGY PREDICTED BY IDOCK:   -0.57 KCAL/MOL
REMARK 927      BINDING AFFINITY PREDICTED BY RF-SCORE:    0.00 PKD
ROOT
HETATM    1  O   UNL     1     -13.029  16.382  74.332  1.00  0.00    -0.913 OA 
HETATM    2  C   UNL     1     -12.949  15.361  73.339  1.00  0.00    -0.538 C  
HETATM    3  H   UNL     1     -13.495  16.054  75.092  1.00  0.00     0.000 HD 
ENDROOT
BRANCH   2   4
HETATM    4  C   UNL     1     -12.194  15.893  72.110  1.00  0.00    -0.494 C  
BRANCH   4   5
HETATM    5  N   UNL     1     -12.822  15.544  70.819  1.00  0.00    -0.478 NA 
HETATM    6  C   UNL     1     -11.882  15.632  69.686  1.00  0.00    -0.362 C  
HETATM    7  C   UNL     1     -10.805  14.531  69.681  1.00  0.00    -0.151 C  
HETATM    8  N   UNL     1     -11.329  13.149  69.699  1.00  0.00    -0.169 NA 
HETATM    9  C   UNL     1     -13.374  14.170  70.857  1.00  0.00    -0.163 C  
HETATM   10  C   UNL     1     -12.325  13.030  70.788  1.00  0.00    -0.310 C  
BRANCH   8  11
HETATM   11  C   UNL     1     -11.886  12.720  68.407  1.00  0.00    -0.310 C  
BRANCH  11  12
HETATM   12  C   UNL     1     -11.464  11.300  68.006  1.00  0.00    -0.369 C  
BRANCH  12  13
HETATM   13  C   UNL     1     -10.217  10.825  68.770  1.00  0.00    -0.193 C  
BRANCH  13  14
HETATM   14  N   UNL     1     -10.226   9.348  68.926  1.00  0.00    -0.194 NA 
HETATM   15  C   UNL     1     -11.022   8.812  69.986  1.00  0.00    -0.209 A  
HETATM   16  C   UNL     1     -11.586   9.621  71.002  1.00  0.00    -0.436 A  
HETATM   17  C   UNL     1     -12.350   9.101  72.056  1.00  0.00    -0.448 A  
HETATM   18  C   UNL     1     -12.584   7.742  72.134  1.00  0.00    -0.250 A  
HETATM   19  C   UNL     1     -12.051   6.911  71.157  1.00  0.00    -0.428 A  
HETATM   20  C   UNL     1     -11.279   7.430  70.094  1.00  0.00    -0.218 A  
HETATM   21  S   UNL     1     -10.698   6.216  68.937  1.00  0.00    -0.339 SA 
HETATM   22  C   UNL     1      -9.839   7.201  67.740  1.00  0.00    -0.145 A  
HETATM   23  C   UNL     1      -9.661   8.591  67.849  1.00  0.00    -0.162 A  
HETATM   24  C   UNL     1      -8.899   9.194  66.816  1.00  0.00    -0.143 A  
HETATM   25  C   UNL     1      -8.422   8.499  65.687  1.00  0.00    -0.170 A  
HETATM   26  C   UNL     1      -8.646   7.130  65.607  1.00  0.00    -0.119 A  
HETATM   27  C   UNL     1      -7.712   9.224  64.569  1.00  0.00    -0.114 C  
HETATM   28  F   UNL     1      -7.603  10.568  64.768  1.00  0.00    -0.147 F  
HETATM   29  F   UNL     1      -8.357   9.086  63.376  1.00  0.00    -0.157 F  
HETATM   30  F   UNL     1      -6.446   8.772  64.364  1.00  0.00    -0.069 F  
HETATM   31  C   UNL     1      -9.333   6.488  66.631  1.00  0.00    -0.184 A  
ENDBRANCH  13  14
ENDBRANCH  12  13
ENDBRANCH  11  12
ENDBRANCH   8  11
ENDBRANCH   4   5
ENDBRANCH   2   4
TORSDOF 6
ENDMDL
MODEL       48
REMARK 921   NORMALIZED FREE ENERGY PREDICTED BY IDOCK:   -6.40 KCAL/MOL
REMARK 922        TOTAL FREE ENERGY PREDICTED BY IDOCK:   -8.88 KCAL/MOL
REMARK 923 INTER-LIGAND FREE ENERGY PREDICTED BY IDOCK:   -8.08 KCAL/MOL
REMARK 924 INTRA-LIGAND FREE ENERGY PREDICTED BY IDOCK:   -0.80 KCAL/MOL
REMARK 927      BINDING AFFINITY PREDICTED BY RF-SCORE:    0.00 PKD
ROOT
HETATM    1  O   UNL     1     -13.683  16.253  73.679  1.00  0.00    -0.911 OA 
HETATM    2  C   UNL     1     -12.545  15.422  73.904  1.00  0.00    -0.611 C  
HETATM    3  H   UNL     1     -14.200  16.309  74.474  1.00  0.00     0.000 HD 
ENDROOT
BRANCH   2   4
HETATM    4  C   UNL     1     -11.708  15.332  72.618  1.00  0.00    -0.415 C  
BRANCH   4   5
HETATM    5  N   UNL     1     -12.472  15.595  71.381  1.00  0.00    -0.410 NA 
HETATM    6  C   UNL     1     -11.645  16.192  70.317  1.00  0.00    -0.259 C  
HETATM    7  C   UNL     1     -10.616  15.223  69.706  1.00  0.00    -0.282 C  
HETATM    8  N   UNL     1     -11.187  13.975  69.158  1.00  0.00    -0.260 NA 
HETATM    9  C   UNL     1     -13.069  14.344  70.857  1.00  0.00    -0.328 C  
HETATM   10  C   UNL     1     -12.074  13.368  70.175  1.00  0.00    -0.344 C  
BRANCH   8  11
HETATM   11  C   UNL     1     -11.883  14.166  67.877  1.00  0.00    -0.370 C  
BRANCH  11  12
HETATM   12  C   UNL     1     -11.130  15.089  66.909  1.00  0.00    -0.331 C  
BRANCH  12  13
HETATM   13  C   UNL     1     -10.109  14.325  66.051  1.00  0.00    -0.318 C  
BRANCH  13  14
HETATM   14  N   UNL     1      -8.771  14.326  66.698  1.00  0.00    -0.137 NA 
HETATM   15  C   UNL     1      -8.124  15.592  66.849  1.00  0.00    -0.249 A  
HETATM   16  C   UNL     1      -8.587  16.768  66.211  1.00  0.00    -0.340 A  
HETATM   17  C   UNL     1      -7.947  18.008  66.338  1.00  0.00    -0.296 A  
HETATM   18  C   UNL     1      -6.810  18.121  67.115  1.00  0.00    -0.210 A  
HETATM   19  C   UNL     1      -6.323  16.993  67.762  1.00  0.00    -0.157 A  
HETATM   20  C   UNL     1      -6.963  15.741  67.636  1.00  0.00    -0.169 A  
HETATM   21  S   UNL     1      -6.202  14.422  68.546  1.00  0.00    -0.099 SA 
HETATM   22  C   UNL     1      -7.273  13.050  68.213  1.00  0.00    -0.113 A  
HETATM   23  C   UNL     1      -8.378  13.110  67.345  1.00  0.00    -0.188 A  
HETATM   24  C   UNL     1      -9.082  11.893  67.167  1.00  0.00    -0.178 A  
HETATM   25  C   UNL     1      -8.790  10.707  67.871  1.00  0.00    -0.131 A  
HETATM   26  C   UNL     1      -7.706  10.702  68.740  1.00  0.00    -0.117 A  
HETATM   27  C   UNL     1      -9.650   9.477  67.714  1.00  0.00    -0.133 C  
HETATM   28  F   UNL     1     -10.699   9.644  66.861  1.00  0.00    -0.304 F  
HETATM   29  F   UNL     1     -10.204   9.083  68.896  1.00  0.00    -0.184 F  
HETATM   30  F   UNL     1      -8.958   8.402  67.250  1.00  0.00    -0.125 F  
HETATM   31  C   UNL     1      -6.948  11.858  68.895  1.00  0.00    -0.110 A  
ENDBRANCH  13  14
ENDBRANCH  12  13
ENDBRANCH  11  12
ENDBRANCH   8  11
ENDBRANCH   4   5
ENDBRANCH   2   4
TORSDOF 6
ENDMDL
MODEL       49
REMARK 921   NORMALIZED FREE ENERGY PREDICTED BY IDOCK:   -6.37 KCAL/MOL
REMARK 922        TOTAL FREE ENERGY PREDICTED BY IDOCK:   -8.85 KCAL/MOL
REMARK 923 INTER-LIGAND FREE ENERGY PREDICTED BY IDOCK:   -8.44 KCAL/MOL
REMARK 924 INTRA-LIGAND FREE ENERGY PREDICTED BY IDOCK:   -0.41 KCAL/MOL
REMARK 927      BINDING AFFINITY PREDICTED BY RF-SCORE:    0.00 PKD
ROOT
HETATM    1  O   UNL     1      -9.814  20.402  65.753  1.00  0.00    -0.637 OA 
HETATM    2  C   UNL     1      -9.402  19.531  66.805  1.00  0.00    -0.356 C  
HETATM    3  H   UNL     1      -9.471  21.274  65.908  1.00  0.00     0.000 HD 
ENDROOT
BRANCH   2   4
HETATM    4  C   UNL     1      -9.957  18.119  66.555  1.00  0.00    -0.374 C  
BRANCH   4   5
HETATM    5  N   UNL     1      -9.381  17.080  67.433  1.00  0.00    -0.237 NA 
HETATM    6  C   UNL     1     -10.048  17.011  68.747  1.00  0.00    -0.307 C  
HETATM    7  C   UNL     1     -11.479  16.445  68.692  1.00  0.00    -0.224 C  
HETATM    8  N   UNL     1     -11.595  15.105  68.079  1.00  0.00    -0.341 NA 
HETATM    9  C   UNL     1      -9.471  15.745  66.797  1.00  0.00    -0.240 C  
HETATM   10  C   UNL     1     -10.887  15.111  66.779  1.00  0.00    -0.322 C  
BRANCH   8  11
HETATM   11  C   UNL     1     -11.117  14.023  68.952  1.00  0.00    -0.268 C  
BRANCH  11  12
HETATM   12  C   UNL     1     -10.600  12.803  68.178  1.00  0.00    -0.242 C  
BRANCH  12  13
HETATM   13  C   UNL     1     -11.659  11.696  68.059  1.00  0.00    -0.313 C  
BRANCH  13  14
HETATM   14  N   UNL     1     -11.151  10.418  68.621  1.00  0.00    -0.258 NA 
HETATM   15  C   UNL     1     -11.708   9.989  69.866  1.00  0.00    -0.125 A  
HETATM   16  C   UNL     1     -12.518  10.826  70.670  1.00  0.00    -0.461 A  
HETATM   17  C   UNL     1     -13.051  10.420  71.901  1.00  0.00    -0.563 A  
HETATM   18  C   UNL     1     -12.794   9.149  72.378  1.00  0.00    -0.438 A  
HETATM   19  C   UNL     1     -12.006   8.293  71.620  1.00  0.00    -0.346 A  
HETATM   20  C   UNL     1     -11.466   8.698  70.381  1.00  0.00    -0.136 A  
HETATM   21  S   UNL     1     -10.498   7.462  69.552  1.00  0.00    -0.234 SA 
HETATM   22  C   UNL     1     -10.040   8.273  68.045  1.00  0.00    -0.198 A  
HETATM   23  C   UNL     1     -10.359   9.609  67.743  1.00  0.00    -0.236 A  
HETATM   24  C   UNL     1      -9.857  10.094  66.509  1.00  0.00    -0.268 A  
HETATM   25  C   UNL     1      -9.169   9.296  65.574  1.00  0.00    -0.292 A  
HETATM   26  C   UNL     1      -8.900   7.973  65.902  1.00  0.00    -0.189 A  
HETATM   27  C   UNL     1      -8.758   9.849  64.231  1.00  0.00    -0.209 C  
HETATM   28  F   UNL     1      -9.126  11.146  64.035  1.00  0.00    -0.196 F  
HETATM   29  F   UNL     1      -9.316   9.155  63.197  1.00  0.00    -0.141 F  
HETATM   30  F   UNL     1      -7.414   9.805  64.028  1.00  0.00    -0.111 F  
HETATM   31  C   UNL     1      -9.317   7.474  67.131  1.00  0.00    -0.174 A  
ENDBRANCH  13  14
ENDBRANCH  12  13
ENDBRANCH  11  12
ENDBRANCH   8  11
ENDBRANCH   4   5
ENDBRANCH   2   4
TORSDOF 6
ENDMDL
MODEL       50
REMARK 921   NORMALIZED FREE ENERGY PREDICTED BY IDOCK:   -6.33 KCAL/MOL
REMARK 922        TOTAL FREE ENERGY PREDICTED BY IDOCK:   -8.79 KCAL/MOL
REMARK 923 INTER-LIGAND FREE ENERGY PREDICTED BY IDOCK:   -8.23 KCAL/MOL
REMARK 924 INTRA-LIGAND FREE ENERGY PREDICTED BY IDOCK:   -0.56 KCAL/MOL
REMARK 927      BINDING AFFINITY PREDICTED BY RF-SCORE:    0.00 PKD
ROOT
HETATM    1  O   UNL     1     -10.197   5.217  74.484  1.00  0.00    -0.234 OA 
HETATM    2  C   UNL     1     -10.563   4.575  73.264  1.00  0.00    -0.216 C  
HETATM    3  H   UNL     1     -10.283   4.605  75.205  1.00  0.00     0.000 HD 
ENDROOT
BRANCH   2   4
HETATM    4  C   UNL     1     -10.425   5.566  72.096  1.00  0.00    -0.220 C  
BRANCH   4   5
HETATM    5  N   UNL     1     -11.639   6.366  71.837  1.00  0.00    -0.305 NA 
HETATM    6  C   UNL     1     -11.642   7.648  72.567  1.00  0.00    -0.330 C  
HETATM    7  C   UNL     1     -10.620   8.671  72.038  1.00  0.00    -0.351 C  
HETATM    8  N   UNL     1     -10.750   8.993  70.601  1.00  0.00    -0.223 NA 
HETATM    9  C   UNL     1     -11.780   6.656  70.391  1.00  0.00    -0.386 C  
HETATM   10  C   UNL     1     -10.810   7.730  69.832  1.00  0.00    -0.226 C  
BRANCH   8  11
HETATM   11  C   UNL     1     -11.895   9.865  70.301  1.00  0.00    -0.184 C  
BRANCH  11  12
HETATM   12  C   UNL     1     -11.752  10.618  68.972  1.00  0.00    -0.305 C  
BRANCH  12  13
HETATM   13  C   UNL     1     -10.352  11.227  68.794  1.00  0.00    -0.205 C  
BRANCH  13  14
HETATM   14  N   UNL     1     -10.352  12.240  67.707  1.00  0.00    -0.204 NA 
HETATM   15  C   UNL     1     -10.122  11.765  66.378  1.00  0.00    -0.210 A  
HETATM   16  C   UNL     1      -9.671  10.451  66.103  1.00  0.00    -0.262 A  
HETATM   17  C   UNL     1      -9.424   9.985  64.804  1.00  0.00    -0.366 A  
HETATM   18  C   UNL     1      -9.621  10.821  63.722  1.00  0.00    -0.339 A  
HETATM   19  C   UNL     1     -10.065  12.118  63.946  1.00  0.00    -0.387 A  
HETATM   20  C   UNL     1     -10.314  12.592  65.252  1.00  0.00    -0.289 A  
HETATM   21  S   UNL     1     -10.889  14.269  65.336  1.00  0.00    -0.366 SA 
HETATM   22  C   UNL     1     -11.147  14.505  67.073  1.00  0.00    -0.322 A  
HETATM   23  C   UNL     1     -10.844  13.541  68.050  1.00  0.00    -0.250 A  
HETATM   24  C   UNL     1     -11.071  13.937  69.392  1.00  0.00    -0.226 A  
HETATM   25  C   UNL     1     -11.655  15.166  69.759  1.00  0.00    -0.338 A  
HETATM   26  C   UNL     1     -11.965  16.078  68.757  1.00  0.00    -0.088 A  
HETATM   27  C   UNL     1     -11.970  15.479  71.201  1.00  0.00    -0.382 C  
HETATM   28  F   UNL     1     -11.649  14.474  72.064  1.00  0.00    -0.348 F  
HETATM   29  F   UNL     1     -13.299  15.712  71.398  1.00  0.00    -0.476 F  
HETATM   30  F   UNL     1     -11.324  16.585  71.657  1.00  0.00    -0.400 F  
HETATM   31  C   UNL     1     -11.698  15.755  67.431  1.00  0.00     0.212 A  
ENDBRANCH  13  14
ENDBRANCH  12  13
ENDBRANCH  11  12
ENDBRANCH   8  11
ENDBRANCH   4   5
ENDBRANCH   2   4
TORSDOF 6
ENDMDL
MODEL       51
REMARK 921   NORMALIZED FREE ENERGY PREDICTED BY IDOCK:   -6.32 KCAL/MOL
REMARK 922        TOTAL FREE ENERGY PREDICTED BY IDOCK:   -8.78 KCAL/MOL
REMARK 923 INTER-LIGAND FREE ENERGY PREDICTED BY IDOCK:   -8.33 KCAL/MOL
REMARK 924 INTRA-LIGAND FREE ENERGY PREDICTED BY IDOCK:   -0.44 KCAL/MOL
REMARK 927      BINDING AFFINITY PREDICTED BY RF-SCORE:    0.00 PKD
ROOT
HETATM    1  O   UNL     1      -9.081   5.715  63.753  1.00  0.00    -0.273 OA 
HETATM    2  C   UNL     1      -7.824   6.366  63.927  1.00  0.00    -0.109 C  
HETATM    3  H   UNL     1      -9.065   4.868  64.181  1.00  0.00     0.000 HD 
ENDROOT
BRANCH   2   4
HETATM    4  C   UNL     1      -7.850   7.737  63.233  1.00  0.00    -0.129 C  
BRANCH   4   5
HETATM    5  N   UNL     1      -7.383   8.852  64.083  1.00  0.00    -0.101 NA 
HETATM    6  C   UNL     1      -8.009  10.139  63.727  1.00  0.00    -0.153 C  
HETATM    7  C   UNL     1      -9.502  10.231  64.092  1.00  0.00    -0.301 C  
HETATM    8  N   UNL     1      -9.812   9.981  65.515  1.00  0.00    -0.288 NA 
HETATM    9  C   UNL     1      -7.667   8.578  65.512  1.00  0.00    -0.093 C  
HETATM   10  C   UNL     1      -9.153   8.723  65.933  1.00  0.00    -0.218 C  
BRANCH   8  11
HETATM   11  C   UNL     1      -9.448  11.101  66.395  1.00  0.00    -0.193 C  
BRANCH  11  12
HETATM   12  C   UNL     1     -10.487  11.373  67.491  1.00  0.00    -0.233 C  
BRANCH  12  13
HETATM   13  C   UNL     1      -9.978  10.982  68.887  1.00  0.00    -0.188 C  
BRANCH  13  14
HETATM   14  N   UNL     1     -11.077  10.415  69.710  1.00  0.00    -0.275 NA 
HETATM   15  C   UNL     1     -11.074   9.000  69.913  1.00  0.00    -0.142 A  
HETATM   16  C   UNL     1     -10.230   8.126  69.186  1.00  0.00    -0.219 A  
HETATM   17  C   UNL     1     -10.235   6.736  69.365  1.00  0.00    -0.204 A  
HETATM   18  C   UNL     1     -11.089   6.162  70.286  1.00  0.00    -0.436 A  
HETATM   19  C   UNL     1     -11.933   6.983  71.024  1.00  0.00    -0.406 A  
HETATM   20  C   UNL     1     -11.932   8.383  70.846  1.00  0.00    -0.177 A  
HETATM   21  S   UNL     1     -13.067   9.264  71.889  1.00  0.00    -0.451 SA 
HETATM   22  C   UNL     1     -12.765  10.954  71.450  1.00  0.00    -0.434 A  
HETATM   23  C   UNL     1     -11.875  11.356  70.439  1.00  0.00    -0.335 A  
HETATM   24  C   UNL     1     -11.811  12.752  70.199  1.00  0.00    -0.326 A  
HETATM   25  C   UNL     1     -12.498  13.712  70.969  1.00  0.00    -0.456 A  
HETATM   26  C   UNL     1     -13.346  13.270  71.977  1.00  0.00    -0.582 A  
HETATM   27  C   UNL     1     -12.299  15.189  70.730  1.00  0.00    -0.360 C  
HETATM   28  F   UNL     1     -11.408  15.470  69.738  1.00  0.00    -0.239 F  
HETATM   29  F   UNL     1     -11.820  15.828  71.836  1.00  0.00    -0.370 F  
HETATM   30  F   UNL     1     -13.449  15.832  70.395  1.00  0.00    -0.343 F  
HETATM   31  C   UNL     1     -13.488  11.906  72.203  1.00  0.00    -0.300 A  
ENDBRANCH  13  14
ENDBRANCH  12  13
ENDBRANCH  11  12
ENDBRANCH   8  11
ENDBRANCH   4   5
ENDBRANCH   2   4
TORSDOF 6
ENDMDL
MODEL       52
REMARK 921   NORMALIZED FREE ENERGY PREDICTED BY IDOCK:   -6.32 KCAL/MOL
REMARK 922        TOTAL FREE ENERGY PREDICTED BY IDOCK:   -8.78 KCAL/MOL
REMARK 923 INTER-LIGAND FREE ENERGY PREDICTED BY IDOCK:   -8.10 KCAL/MOL
REMARK 924 INTRA-LIGAND FREE ENERGY PREDICTED BY IDOCK:   -0.67 KCAL/MOL
REMARK 927      BINDING AFFINITY PREDICTED BY RF-SCORE:    0.00 PKD
ROOT
HETATM    1  O   UNL     1     -12.026  16.192  63.596  1.00  0.00    -1.375 OA 
HETATM    2  C   UNL     1     -11.120  15.822  64.634  1.00  0.00    -0.361 C  
HETATM    3  H   UNL     1     -11.610  16.820  63.017  1.00  0.00     0.000 HD 
ENDROOT
BRANCH   2   4
HETATM    4  C   UNL     1     -11.795  14.806  65.571  1.00  0.00    -0.231 C  
BRANCH   4   5
HETATM    5  N   UNL     1     -11.181  14.723  66.912  1.00  0.00    -0.340 NA 
HETATM    6  C   UNL     1     -11.868  13.761  67.794  1.00  0.00    -0.369 C  
HETATM    7  C   UNL     1     -11.658  12.288  67.395  1.00  0.00    -0.355 C  
HETATM    8  N   UNL     1     -10.246  11.862  67.309  1.00  0.00    -0.199 NA 
HETATM    9  C   UNL     1      -9.756  14.328  66.815  1.00  0.00    -0.275 C  
HETATM   10  C   UNL     1      -9.503  12.835  66.478  1.00  0.00    -0.253 C  
BRANCH   8  11
HETATM   11  C   UNL     1      -9.613  11.676  68.623  1.00  0.00    -0.133 C  
BRANCH  11  12
HETATM   12  C   UNL     1      -8.617  10.510  68.657  1.00  0.00    -0.139 C  
BRANCH  12  13
HETATM   13  C   UNL     1      -9.265   9.177  68.251  1.00  0.00    -0.132 C  
BRANCH  13  14
HETATM   14  N   UNL     1      -8.986   8.125  69.263  1.00  0.00    -0.147 NA 
HETATM   15  C   UNL     1      -7.737   7.438  69.157  1.00  0.00    -0.111 A  
HETATM   16  C   UNL     1      -6.895   7.552  68.025  1.00  0.00    -0.067 A  
HETATM   17  C   UNL     1      -5.679   6.866  67.905  1.00  0.00    -0.020 A  
HETATM   18  C   UNL     1      -5.252   6.034  68.923  1.00  0.00    -0.004 A  
HETATM   19  C   UNL     1      -6.046   5.895  70.054  1.00  0.00    -0.026 A  
HETATM   20  C   UNL     1      -7.272   6.583  70.178  1.00  0.00    -0.080 A  
HETATM   21  S   UNL     1      -8.137   6.290  71.700  1.00  0.00    -0.106 SA 
HETATM   22  C   UNL     1      -9.565   7.329  71.543  1.00  0.00    -0.156 A  
HETATM   23  C   UNL     1      -9.863   8.084  70.395  1.00  0.00    -0.183 A  
HETATM   24  C   UNL     1     -11.079   8.811  70.440  1.00  0.00    -0.261 A  
HETATM   25  C   UNL     1     -11.910   8.880  71.576  1.00  0.00    -0.402 A  
HETATM   26  C   UNL     1     -11.561   8.139  72.699  1.00  0.00    -0.441 A  
HETATM   27  C   UNL     1     -13.135   9.762  71.593  1.00  0.00    -0.419 C  
HETATM   28  F   UNL     1     -13.326  10.459  70.438  1.00  0.00    -0.386 F  
HETATM   29  F   UNL     1     -13.077  10.703  72.578  1.00  0.00    -0.435 F  
HETATM   30  F   UNL     1     -14.285   9.068  71.807  1.00  0.00    -0.406 F  
HETATM   31  C   UNL     1     -10.409   7.360  72.674  1.00  0.00    -0.292 A  
ENDBRANCH  13  14
ENDBRANCH  12  13
ENDBRANCH  11  12
ENDBRANCH   8  11
ENDBRANCH   4   5
ENDBRANCH   2   4
TORSDOF 6
ENDMDL
MODEL       53
REMARK 921   NORMALIZED FREE ENERGY PREDICTED BY IDOCK:   -6.28 KCAL/MOL
REMARK 922        TOTAL FREE ENERGY PREDICTED BY IDOCK:   -8.72 KCAL/MOL
REMARK 923 INTER-LIGAND FREE ENERGY PREDICTED BY IDOCK:   -8.09 KCAL/MOL
REMARK 924 INTRA-LIGAND FREE ENERGY PREDICTED BY IDOCK:   -0.63 KCAL/MOL
REMARK 927      BINDING AFFINITY PREDICTED BY RF-SCORE:    0.00 PKD
ROOT
HETATM    1  O   UNL     1      -9.897   3.180  66.849  1.00  0.00    -0.390 OA 
HETATM    2  C   UNL     1      -8.733   3.595  67.562  1.00  0.00    -0.108 C  
HETATM    3  H   UNL     1      -9.877   2.239  66.725  1.00  0.00     0.000 HD 
ENDROOT
BRANCH   2   4
HETATM    4  C   UNL     1      -8.765   5.120  67.762  1.00  0.00    -0.103 C  
BRANCH   4   5
HETATM    5  N   UNL     1      -9.295   5.869  66.605  1.00  0.00    -0.141 NA 
HETATM    6  C   UNL     1     -10.601   6.495  66.883  1.00  0.00    -0.305 C  
HETATM    7  C   UNL     1     -10.530   7.680  67.864  1.00  0.00    -0.207 C  
HETATM    8  N   UNL     1      -9.609   8.765  67.464  1.00  0.00    -0.147 NA 
HETATM    9  C   UNL     1      -8.350   6.932  66.189  1.00  0.00    -0.130 C  
HETATM   10  C   UNL     1      -8.296   8.173  67.119  1.00  0.00    -0.120 C  
BRANCH   8  11
HETATM   11  C   UNL     1     -10.131   9.599  66.372  1.00  0.00    -0.247 C  
BRANCH  11  12
HETATM   12  C   UNL     1     -10.823  10.878  66.864  1.00  0.00    -0.307 C  
BRANCH  12  13
HETATM   13  C   UNL     1     -10.185  11.428  68.149  1.00  0.00    -0.187 C  
BRANCH  13  14
HETATM   14  N   UNL     1     -11.183  12.184  68.950  1.00  0.00    -0.251 NA 
HETATM   15  C   UNL     1     -11.826  11.482  70.017  1.00  0.00    -0.355 A  
HETATM   16  C   UNL     1     -11.729  10.079  70.176  1.00  0.00    -0.285 A  
HETATM   17  C   UNL     1     -12.373   9.381  71.207  1.00  0.00    -0.422 A  
HETATM   18  C   UNL     1     -13.144  10.065  72.126  1.00  0.00    -0.482 A  
HETATM   19  C   UNL     1     -13.265  11.444  72.009  1.00  0.00    -0.432 A  
HETATM   20  C   UNL     1     -12.620  12.151  70.972  1.00  0.00    -0.263 A  
HETATM   21  S   UNL     1     -12.881  13.906  70.995  1.00  0.00    -0.299 SA 
HETATM   22  C   UNL     1     -11.904  14.463  69.625  1.00  0.00    -0.321 A  
HETATM   23  C   UNL     1     -11.209  13.603  68.756  1.00  0.00    -0.279 A  
HETATM   24  C   UNL     1     -10.527  14.236  67.686  1.00  0.00    -0.248 A  
HETATM   25  C   UNL     1     -10.441  15.633  67.528  1.00  0.00    -0.285 A  
HETATM   26  C   UNL     1     -11.121  16.446  68.428  1.00  0.00    -0.351 A  
HETATM   27  C   UNL     1      -9.606  16.243  66.428  1.00  0.00    -0.291 C  
HETATM   28  F   UNL     1      -8.965  15.325  65.651  1.00  0.00    -0.291 F  
HETATM   29  F   UNL     1      -8.622  17.051  66.918  1.00  0.00    -0.203 F  
HETATM   30  F   UNL     1     -10.333  17.014  65.576  1.00  0.00    -0.317 F  
HETATM   31  C   UNL     1     -11.856  15.864  69.454  1.00  0.00    -0.325 A  
ENDBRANCH  13  14
ENDBRANCH  12  13
ENDBRANCH  11  12
ENDBRANCH   8  11
ENDBRANCH   4   5
ENDBRANCH   2   4
TORSDOF 6
ENDMDL
MODEL       54
REMARK 921   NORMALIZED FREE ENERGY PREDICTED BY IDOCK:   -6.26 KCAL/MOL
REMARK 922        TOTAL FREE ENERGY PREDICTED BY IDOCK:   -8.69 KCAL/MOL
REMARK 923 INTER-LIGAND FREE ENERGY PREDICTED BY IDOCK:   -8.26 KCAL/MOL
REMARK 924 INTRA-LIGAND FREE ENERGY PREDICTED BY IDOCK:   -0.43 KCAL/MOL
REMARK 927      BINDING AFFINITY PREDICTED BY RF-SCORE:    0.00 PKD
ROOT
HETATM    1  O   UNL     1     -11.547  16.253  63.705  1.00  0.00    -1.539 OA 
HETATM    2  C   UNL     1     -11.182  15.608  64.924  1.00  0.00    -0.369 C  
HETATM    3  H   UNL     1     -11.774  17.159  63.879  1.00  0.00     0.000 HD 
ENDROOT
BRANCH   2   4
HETATM    4  C   UNL     1     -10.815  14.141  64.644  1.00  0.00    -0.386 C  
BRANCH   4   5
HETATM    5  N   UNL     1     -11.680  13.161  65.332  1.00  0.00    -0.334 NA 
HETATM    6  C   UNL     1     -11.500  11.788  64.825  1.00  0.00    -0.215 C  
HETATM    7  C   UNL     1     -10.149  11.153  65.204  1.00  0.00    -0.281 C  
HETATM    8  N   UNL     1      -9.864  11.117  66.654  1.00  0.00    -0.194 NA 
HETATM    9  C   UNL     1     -11.412  13.155  66.789  1.00  0.00    -0.343 C  
HETATM   10  C   UNL     1     -10.089  12.467  67.219  1.00  0.00    -0.213 C  
BRANCH   8  11
HETATM   11  C   UNL     1     -10.636  10.093  67.374  1.00  0.00    -0.272 C  
BRANCH  11  12
HETATM   12  C   UNL     1     -10.005   8.696  67.302  1.00  0.00    -0.282 C  
BRANCH  12  13
HETATM   13  C   UNL     1     -11.023   7.582  67.591  1.00  0.00    -0.023 C  
BRANCH  13  14
HETATM   14  N   UNL     1     -10.545   6.703  68.690  1.00  0.00    -0.214 NA 
HETATM   15  C   UNL     1     -10.896   7.082  70.023  1.00  0.00    -0.261 A  
HETATM   16  C   UNL     1     -11.455   8.345  70.337  1.00  0.00    -0.129 A  
HETATM   17  C   UNL     1     -11.783   8.731  71.644  1.00  0.00    -0.402 A  
HETATM   18  C   UNL     1     -11.566   7.861  72.696  1.00  0.00    -0.435 A  
HETATM   19  C   UNL     1     -11.021   6.611  72.433  1.00  0.00    -0.277 A  
HETATM   20  C   UNL     1     -10.688   6.218  71.119  1.00  0.00    -0.249 A  
HETATM   21  S   UNL     1     -10.018   4.580  70.980  1.00  0.00    -0.157 SA 
HETATM   22  C   UNL     1      -9.775   4.406  69.233  1.00  0.00    -0.182 A  
HETATM   23  C   UNL     1     -10.014   5.431  68.301  1.00  0.00    -0.159 A  
HETATM   24  C   UNL     1      -9.709   5.115  66.953  1.00  0.00    -0.175 A  
HETATM   25  C   UNL     1      -9.290   3.841  66.522  1.00  0.00    -0.204 A  
HETATM   26  C   UNL     1      -9.094   2.849  67.475  1.00  0.00    -0.215 A  
HETATM   27  C   UNL     1      -9.088   3.543  65.056  1.00  0.00    -0.140 C  
HETATM   28  F   UNL     1      -9.358   4.599  64.238  1.00  0.00    -0.157 F  
HETATM   29  F   UNL     1      -9.896   2.533  64.621  1.00  0.00    -0.146 F  
HETATM   30  F   UNL     1      -7.817   3.157  64.763  1.00  0.00    -0.074 F  
HETATM   31  C   UNL     1      -9.319   3.136  68.817  1.00  0.00    -0.231 A  
ENDBRANCH  13  14
ENDBRANCH  12  13
ENDBRANCH  11  12
ENDBRANCH   8  11
ENDBRANCH   4   5
ENDBRANCH   2   4
TORSDOF 6
ENDMDL
MODEL       55
REMARK 921   NORMALIZED FREE ENERGY PREDICTED BY IDOCK:   -6.26 KCAL/MOL
REMARK 922        TOTAL FREE ENERGY PREDICTED BY IDOCK:   -8.69 KCAL/MOL
REMARK 923 INTER-LIGAND FREE ENERGY PREDICTED BY IDOCK:   -8.54 KCAL/MOL
REMARK 924 INTRA-LIGAND FREE ENERGY PREDICTED BY IDOCK:   -0.15 KCAL/MOL
REMARK 927      BINDING AFFINITY PREDICTED BY RF-SCORE:    0.00 PKD
ROOT
HETATM    1  O   UNL     1      -6.530  10.241  63.505  1.00  0.00    -0.151 OA 
HETATM    2  C   UNL     1      -7.346  10.230  62.334  1.00  0.00    -0.138 C  
HETATM    3  H   UNL     1      -5.815   9.624  63.402  1.00  0.00     0.000 HD 
ENDROOT
BRANCH   2   4
HETATM    4  C   UNL     1      -8.503  11.229  62.501  1.00  0.00    -0.097 C  
BRANCH   4   5
HETATM    5  N   UNL     1      -9.705  10.659  63.142  1.00  0.00    -0.329 NA 
HETATM    6  C   UNL     1      -9.430  10.119  64.487  1.00  0.00    -0.303 C  
HETATM    7  C   UNL     1      -9.140  11.198  65.546  1.00  0.00    -0.195 C  
HETATM    8  N   UNL     1     -10.197  12.219  65.700  1.00  0.00    -0.256 NA 
HETATM    9  C   UNL     1     -10.772  11.680  63.262  1.00  0.00    -0.333 C  
HETATM   10  C   UNL     1     -10.547  12.749  64.363  1.00  0.00    -0.379 C  
BRANCH   8  11
HETATM   11  C   UNL     1     -11.383  11.726  66.415  1.00  0.00    -0.297 C  
BRANCH  11  12
HETATM   12  C   UNL     1     -11.046  10.743  67.544  1.00  0.00    -0.374 C  
BRANCH  12  13
HETATM   13  C   UNL     1     -10.446  11.448  68.771  1.00  0.00    -0.204 C  
BRANCH  13  14
HETATM   14  N   UNL     1     -11.514  11.839  69.728  1.00  0.00    -0.271 NA 
HETATM   15  C   UNL     1     -12.049  10.807  70.560  1.00  0.00    -0.366 A  
HETATM   16  C   UNL     1     -11.780   9.434  70.344  1.00  0.00    -0.195 A  
HETATM   17  C   UNL     1     -12.317   8.416  71.143  1.00  0.00    -0.219 A  
HETATM   18  C   UNL     1     -13.150   8.733  72.199  1.00  0.00    -0.451 A  
HETATM   19  C   UNL     1     -13.439  10.069  72.449  1.00  0.00    -0.232 A  
HETATM   20  C   UNL     1     -12.901  11.098  71.646  1.00  0.00    -0.419 A  
HETATM   21  S   UNL     1     -13.372  12.740  72.129  1.00  0.00    -0.384 SA 
HETATM   22  C   UNL     1     -12.493  13.753  70.971  1.00  0.00    -0.380 A  
HETATM   23  C   UNL     1     -11.715  13.245  69.916  1.00  0.00    -0.259 A  
HETATM   24  C   UNL     1     -11.133  14.216  69.062  1.00  0.00    -0.292 A  
HETATM   25  C   UNL     1     -11.219  15.605  69.281  1.00  0.00    -0.320 A  
HETATM   26  C   UNL     1     -11.977  16.062  70.353  1.00  0.00    -0.245 A  
HETATM   27  C   UNL     1     -10.484  16.580  68.395  1.00  0.00    -0.307 C  
HETATM   28  F   UNL     1      -9.750  15.985  67.413  1.00  0.00    -0.224 F  
HETATM   29  F   UNL     1      -9.596  17.343  69.096  1.00  0.00    -0.254 F  
HETATM   30  F   UNL     1     -11.313  17.455  67.766  1.00  0.00    -0.231 F  
HETATM   31  C   UNL     1     -12.619  15.144  71.178  1.00  0.00    -0.433 A  
ENDBRANCH  13  14
ENDBRANCH  12  13
ENDBRANCH  11  12
ENDBRANCH   8  11
ENDBRANCH   4   5
ENDBRANCH   2   4
TORSDOF 6
ENDMDL
MODEL       56
REMARK 921   NORMALIZED FREE ENERGY PREDICTED BY IDOCK:   -6.23 KCAL/MOL
REMARK 922        TOTAL FREE ENERGY PREDICTED BY IDOCK:   -8.66 KCAL/MOL
REMARK 923 INTER-LIGAND FREE ENERGY PREDICTED BY IDOCK:   -8.05 KCAL/MOL
REMARK 924 INTRA-LIGAND FREE ENERGY PREDICTED BY IDOCK:   -0.61 KCAL/MOL
REMARK 927      BINDING AFFINITY PREDICTED BY RF-SCORE:    0.00 PKD
ROOT
HETATM    1  O   UNL     1     -10.727  18.737  65.232  1.00  0.00    -0.541 OA 
HETATM    2  C   UNL     1     -10.512  18.781  66.642  1.00  0.00    -0.426 C  
HETATM    3  H   UNL     1     -10.716  19.619  64.879  1.00  0.00     0.000 HD 
ENDROOT
BRANCH   2   4
HETATM    4  C   UNL     1     -10.531  17.354  67.213  1.00  0.00    -0.321 C  
BRANCH   4   5
HETATM    5  N   UNL     1     -10.143  16.311  66.241  1.00  0.00    -0.306 NA 
HETATM    6  C   UNL     1      -8.818  15.730  66.529  1.00  0.00    -0.310 C  
HETATM    7  C   UNL     1      -8.784  14.844  67.788  1.00  0.00    -0.167 C  
HETATM    8  N   UNL     1      -9.752  13.727  67.789  1.00  0.00    -0.224 NA 
HETATM    9  C   UNL     1     -11.136  15.212  66.224  1.00  0.00    -0.309 C  
HETATM   10  C   UNL     1     -11.092  14.257  67.446  1.00  0.00    -0.304 C  
BRANCH   8  11
HETATM   11  C   UNL     1      -9.365  12.619  66.903  1.00  0.00    -0.228 C  
BRANCH  11  12
HETATM   12  C   UNL     1      -9.332  11.259  67.613  1.00  0.00    -0.162 C  
BRANCH  12  13
HETATM   13  C   UNL     1     -10.671  10.513  67.505  1.00  0.00    -0.276 C  
BRANCH  13  14
HETATM   14  N   UNL     1     -10.923   9.703  68.725  1.00  0.00    -0.165 NA 
HETATM   15  C   UNL     1     -11.658  10.329  69.779  1.00  0.00    -0.227 A  
HETATM   16  C   UNL     1     -11.935  11.717  69.799  1.00  0.00    -0.392 A  
HETATM   17  C   UNL     1     -12.637  12.341  70.839  1.00  0.00    -0.334 A  
HETATM   18  C   UNL     1     -13.096  11.594  71.907  1.00  0.00    -0.490 A  
HETATM   19  C   UNL     1     -12.850  10.227  71.927  1.00  0.00    -0.528 A  
HETATM   20  C   UNL     1     -12.141   9.595  70.883  1.00  0.00    -0.300 A  
HETATM   21  S   UNL     1     -11.938   7.843  71.078  1.00  0.00    -0.204 SA 
HETATM   22  C   UNL     1     -11.079   7.383  69.598  1.00  0.00    -0.111 A  
HETATM   23  C   UNL     1     -10.644   8.301  68.625  1.00  0.00    -0.108 A  
HETATM   24  C   UNL     1      -9.926   7.745  67.537  1.00  0.00    -0.242 A  
HETATM   25  C   UNL     1      -9.730   6.362  67.352  1.00  0.00    -0.141 A  
HETATM   26  C   UNL     1     -10.202   5.489  68.324  1.00  0.00    -0.237 A  
HETATM   27  C   UNL     1      -9.051   5.831  66.113  1.00  0.00    -0.153 C  
HETATM   28  F   UNL     1      -8.680   6.801  65.230  1.00  0.00    -0.140 F  
HETATM   29  F   UNL     1      -9.858   4.989  65.405  1.00  0.00    -0.171 F  
HETATM   30  F   UNL     1      -7.923   5.124  66.387  1.00  0.00    -0.100 F  
HETATM   31  C   UNL     1     -10.854   5.998  69.442  1.00  0.00    -0.433 A  
ENDBRANCH  13  14
ENDBRANCH  12  13
ENDBRANCH  11  12
ENDBRANCH   8  11
ENDBRANCH   4   5
ENDBRANCH   2   4
TORSDOF 6
ENDMDL
MODEL       57
REMARK 921   NORMALIZED FREE ENERGY PREDICTED BY IDOCK:   -6.13 KCAL/MOL
REMARK 922        TOTAL FREE ENERGY PREDICTED BY IDOCK:   -8.51 KCAL/MOL
REMARK 923 INTER-LIGAND FREE ENERGY PREDICTED BY IDOCK:   -7.70 KCAL/MOL
REMARK 924 INTRA-LIGAND FREE ENERGY PREDICTED BY IDOCK:   -0.81 KCAL/MOL
REMARK 927      BINDING AFFINITY PREDICTED BY RF-SCORE:    0.00 PKD
ROOT
HETATM    1  O   UNL     1     -13.564  15.533  70.684  1.00  0.00    -0.826 OA 
HETATM    2  C   UNL     1     -12.250  15.827  70.212  1.00  0.00    -0.339 C  
HETATM    3  H   UNL     1     -13.982  16.331  70.984  1.00  0.00     0.000 HD 
ENDROOT
BRANCH   2   4
HETATM    4  C   UNL     1     -11.574  14.535  69.725  1.00  0.00    -0.295 C  
BRANCH   4   5
HETATM    5  N   UNL     1     -11.140  14.576  68.314  1.00  0.00    -0.252 NA 
HETATM    6  C   UNL     1      -9.741  14.144  68.136  1.00  0.00    -0.225 C  
HETATM    7  C   UNL     1      -9.519  12.637  68.362  1.00  0.00    -0.163 C  
HETATM    8  N   UNL     1     -10.353  11.751  67.522  1.00  0.00    -0.194 NA 
HETATM    9  C   UNL     1     -12.002  13.712  67.473  1.00  0.00    -0.358 C  
HETATM   10  C   UNL     1     -11.764  12.187  67.625  1.00  0.00    -0.316 C  
BRANCH   8  11
HETATM   11  C   UNL     1      -9.906  11.686  66.123  1.00  0.00    -0.223 C  
BRANCH  11  12
HETATM   12  C   UNL     1      -9.666  10.253  65.629  1.00  0.00    -0.308 C  
BRANCH  12  13
HETATM   13  C   UNL     1      -8.805   9.437  66.606  1.00  0.00    -0.135 C  
BRANCH  13  14
HETATM   14  N   UNL     1      -9.298   8.038  66.701  1.00  0.00    -0.184 NA 
HETATM   15  C   UNL     1      -8.782   7.102  65.752  1.00  0.00    -0.107 A  
HETATM   16  C   UNL     1      -8.033   7.498  64.617  1.00  0.00    -0.133 A  
HETATM   17  C   UNL     1      -7.541   6.588  63.672  1.00  0.00    -0.096 A  
HETATM   18  C   UNL     1      -7.780   5.236  63.826  1.00  0.00    -0.081 A  
HETATM   19  C   UNL     1      -8.509   4.803  64.926  1.00  0.00    -0.140 A  
HETATM   20  C   UNL     1      -9.008   5.716  65.880  1.00  0.00    -0.155 A  
HETATM   21  S   UNL     1      -9.902   4.973  67.222  1.00  0.00    -0.187 SA 
HETATM   22  C   UNL     1     -10.320   6.370  68.230  1.00  0.00    -0.191 A  
HETATM   23  C   UNL     1     -10.028   7.701  67.887  1.00  0.00    -0.169 A  
HETATM   24  C   UNL     1     -10.491   8.684  68.798  1.00  0.00    -0.209 A  
HETATM   25  C   UNL     1     -11.115   8.383  70.025  1.00  0.00    -0.148 A  
HETATM   26  C   UNL     1     -11.358   7.051  70.336  1.00  0.00    -0.354 A  
HETATM   27  C   UNL     1     -11.484   9.475  70.999  1.00  0.00    -0.349 C  
HETATM   28  F   UNL     1     -11.148  10.726  70.576  1.00  0.00    -0.353 F  
HETATM   29  F   UNL     1     -10.862   9.322  72.203  1.00  0.00    -0.414 F  
HETATM   30  F   UNL     1     -12.816   9.516  71.270  1.00  0.00    -0.347 F  
HETATM   31  C   UNL     1     -10.978   6.058  69.440  1.00  0.00    -0.455 A  
ENDBRANCH  13  14
ENDBRANCH  12  13
ENDBRANCH  11  12
ENDBRANCH   8  11
ENDBRANCH   4   5
ENDBRANCH   2   4
TORSDOF 6
ENDMDL
MODEL       58
REMARK 921   NORMALIZED FREE ENERGY PREDICTED BY IDOCK:   -6.11 KCAL/MOL
REMARK 922        TOTAL FREE ENERGY PREDICTED BY IDOCK:   -8.49 KCAL/MOL
REMARK 923 INTER-LIGAND FREE ENERGY PREDICTED BY IDOCK:   -7.88 KCAL/MOL
REMARK 924 INTRA-LIGAND FREE ENERGY PREDICTED BY IDOCK:   -0.61 KCAL/MOL
REMARK 927      BINDING AFFINITY PREDICTED BY RF-SCORE:    0.00 PKD
ROOT
HETATM    1  O   UNL     1      -8.890   7.531  74.554  1.00  0.00    -0.377 OA 
HETATM    2  C   UNL     1      -9.988   6.686  74.215  1.00  0.00    -0.345 C  
HETATM    3  H   UNL     1      -8.292   7.065  75.126  1.00  0.00     0.000 HD 
ENDROOT
BRANCH   2   4
HETATM    4  C   UNL     1     -10.956   7.442  73.290  1.00  0.00    -0.318 C  
BRANCH   4   5
HETATM    5  N   UNL     1     -11.527   6.613  72.208  1.00  0.00    -0.275 NA 
HETATM    6  C   UNL     1     -12.278   7.408  71.218  1.00  0.00    -0.341 C  
HETATM    7  C   UNL     1     -11.391   8.301  70.331  1.00  0.00    -0.175 C  
HETATM    8  N   UNL     1     -10.330   7.586  69.592  1.00  0.00    -0.220 NA 
HETATM    9  C   UNL     1     -10.460   5.874  71.494  1.00  0.00    -0.233 C  
HETATM   10  C   UNL     1      -9.584   6.727  70.539  1.00  0.00    -0.169 C  
BRANCH   8  11
HETATM   11  C   UNL     1     -10.836   6.816  68.446  1.00  0.00    -0.223 C  
BRANCH  11  12
HETATM   12  C   UNL     1     -10.617   7.517  67.099  1.00  0.00    -0.415 C  
BRANCH  12  13
HETATM   13  C   UNL     1      -9.428   8.491  67.136  1.00  0.00    -0.162 C  
BRANCH  13  14
HETATM   14  N   UNL     1      -8.887   8.713  65.770  1.00  0.00    -0.183 NA 
HETATM   15  C   UNL     1      -8.086   7.669  65.210  1.00  0.00    -0.133 A  
HETATM   16  C   UNL     1      -7.610   6.578  65.976  1.00  0.00    -0.087 A  
HETATM   17  C   UNL     1      -6.808   5.561  65.439  1.00  0.00    -0.056 A  
HETATM   18  C   UNL     1      -6.450   5.596  64.105  1.00  0.00    -0.033 A  
HETATM   19  C   UNL     1      -6.898   6.648  63.316  1.00  0.00    -0.046 A  
HETATM   20  C   UNL     1      -7.705   7.675  63.853  1.00  0.00    -0.126 A  
HETATM   21  S   UNL     1      -8.190   8.923  62.688  1.00  0.00    -0.200 SA 
HETATM   22  C   UNL     1      -9.213   9.990  63.665  1.00  0.00    -0.274 A  
HETATM   23  C   UNL     1      -9.432   9.822  65.044  1.00  0.00    -0.272 A  
HETATM   24  C   UNL     1     -10.239  10.811  65.661  1.00  0.00    -0.320 A  
HETATM   25  C   UNL     1     -10.880  11.850  64.958  1.00  0.00    -0.351 A  
HETATM   26  C   UNL     1     -10.656  11.962  63.591  1.00  0.00    -0.500 A  
HETATM   27  C   UNL     1     -11.814  12.805  65.660  1.00  0.00    -0.425 C  
HETATM   28  F   UNL     1     -11.966  12.547  66.990  1.00  0.00    -0.418 F  
HETATM   29  F   UNL     1     -13.073  12.769  65.139  1.00  0.00    -0.531 F  
HETATM   30  F   UNL     1     -11.411  14.101  65.574  1.00  0.00    -0.303 F  
HETATM   31  C   UNL     1      -9.819  11.051  62.957  1.00  0.00    -0.370 A  
ENDBRANCH  13  14
ENDBRANCH  12  13
ENDBRANCH  11  12
ENDBRANCH   8  11
ENDBRANCH   4   5
ENDBRANCH   2   4
TORSDOF 6
ENDMDL
MODEL       59
REMARK 921   NORMALIZED FREE ENERGY PREDICTED BY IDOCK:   -6.10 KCAL/MOL
REMARK 922        TOTAL FREE ENERGY PREDICTED BY IDOCK:   -8.48 KCAL/MOL
REMARK 923 INTER-LIGAND FREE ENERGY PREDICTED BY IDOCK:   -7.93 KCAL/MOL
REMARK 924 INTRA-LIGAND FREE ENERGY PREDICTED BY IDOCK:   -0.55 KCAL/MOL
REMARK 927      BINDING AFFINITY PREDICTED BY RF-SCORE:    0.00 PKD
ROOT
HETATM    1  O   UNL     1      -7.386   5.614  63.143  1.00  0.00    -0.048 OA 
HETATM    2  C   UNL     1      -7.335   6.732  64.027  1.00  0.00    -0.082 C  
HETATM    3  H   UNL     1      -6.981   4.861  63.555  1.00  0.00     0.000 HD 
ENDROOT
BRANCH   2   4
HETATM    4  C   UNL     1      -7.991   7.951  63.358  1.00  0.00    -0.125 C  
BRANCH   4   5
HETATM    5  N   UNL     1      -7.664   9.240  64.000  1.00  0.00    -0.112 NA 
HETATM    6  C   UNL     1      -8.212  10.397  63.267  1.00  0.00    -0.148 C  
HETATM    7  C   UNL     1      -9.744  10.522  63.354  1.00  0.00    -0.316 C  
HETATM    8  N   UNL     1     -10.287  10.586  64.727  1.00  0.00    -0.305 NA 
HETATM    9  C   UNL     1      -8.182   9.283  65.388  1.00  0.00    -0.127 C  
HETATM   10  C   UNL     1      -9.716   9.473  65.518  1.00  0.00    -0.273 C  
BRANCH   8  11
HETATM   11  C   UNL     1     -10.066  11.885  65.380  1.00  0.00    -0.253 C  
BRANCH  11  12
HETATM   12  C   UNL     1     -11.032  12.152  66.542  1.00  0.00    -0.325 C  
BRANCH  12  13
HETATM   13  C   UNL     1     -10.297  12.333  67.880  1.00  0.00    -0.208 C  
BRANCH  13  14
HETATM   14  N   UNL     1     -11.116  13.136  68.826  1.00  0.00    -0.260 NA 
HETATM   15  C   UNL     1     -11.814  12.421  69.848  1.00  0.00    -0.305 A  
HETATM   16  C   UNL     1     -11.943  11.011  69.843  1.00  0.00    -0.427 A  
HETATM   17  C   UNL     1     -12.643  10.305  70.831  1.00  0.00    -0.465 A  
HETATM   18  C   UNL     1     -13.245  10.986  71.871  1.00  0.00    -0.503 A  
HETATM   19  C   UNL     1     -13.142  12.371  71.916  1.00  0.00    -0.471 A  
HETATM   20  C   UNL     1     -12.439  13.087  70.923  1.00  0.00    -0.310 A  
HETATM   21  S   UNL     1     -12.404  14.845  71.160  1.00  0.00    -0.356 SA 
HETATM   22  C   UNL     1     -11.416  15.401  69.797  1.00  0.00    -0.324 A  
HETATM   23  C   UNL     1     -10.916  14.554  68.793  1.00  0.00    -0.250 A  
HETATM   24  C   UNL     1     -10.191  15.195  67.757  1.00  0.00    -0.236 A  
HETATM   25  C   UNL     1      -9.883  16.570  67.750  1.00  0.00    -0.240 A  
HETATM   26  C   UNL     1     -10.375  17.365  68.778  1.00  0.00    -0.357 A  
HETATM   27  C   UNL     1      -9.013  17.168  66.671  1.00  0.00    -0.253 C  
HETATM   28  F   UNL     1      -8.571  16.260  65.755  1.00  0.00    -0.345 F  
HETATM   29  F   UNL     1      -7.887  17.744  67.180  1.00  0.00    -0.200 F  
HETATM   30  F   UNL     1      -9.643  18.141  65.961  1.00  0.00    -0.283 F  
HETATM   31  C   UNL     1     -11.146  16.787  69.781  1.00  0.00    -0.021 A  
ENDBRANCH  13  14
ENDBRANCH  12  13
ENDBRANCH  11  12
ENDBRANCH   8  11
ENDBRANCH   4   5
ENDBRANCH   2   4
TORSDOF 6
ENDMDL
MODEL       60
REMARK 921   NORMALIZED FREE ENERGY PREDICTED BY IDOCK:   -6.10 KCAL/MOL
REMARK 922        TOTAL FREE ENERGY PREDICTED BY IDOCK:   -8.47 KCAL/MOL
REMARK 923 INTER-LIGAND FREE ENERGY PREDICTED BY IDOCK:   -8.00 KCAL/MOL
REMARK 924 INTRA-LIGAND FREE ENERGY PREDICTED BY IDOCK:   -0.47 KCAL/MOL
REMARK 927      BINDING AFFINITY PREDICTED BY RF-SCORE:    0.00 PKD
ROOT
HETATM    1  O   UNL     1     -10.277  19.717  69.491  1.00  0.00    -0.633 OA 
HETATM    2  C   UNL     1      -9.558  18.894  68.575  1.00  0.00    -0.380 C  
HETATM    3  H   UNL     1      -9.739  20.456  69.749  1.00  0.00     0.000 HD 
ENDROOT
BRANCH   2   4
HETATM    4  C   UNL     1     -10.430  17.699  68.158  1.00  0.00    -0.385 C  
BRANCH   4   5
HETATM    5  N   UNL     1     -10.453  16.597  69.142  1.00  0.00    -0.314 NA 
HETATM    6  C   UNL     1     -11.640  15.733  69.001  1.00  0.00    -0.400 C  
HETATM    7  C   UNL     1     -11.631  14.859  67.733  1.00  0.00    -0.339 C  
HETATM    8  N   UNL     1     -10.446  13.989  67.586  1.00  0.00    -0.244 NA 
HETATM    9  C   UNL     1      -9.245  15.749  69.010  1.00  0.00    -0.243 C  
HETATM   10  C   UNL     1      -9.227  14.806  67.778  1.00  0.00    -0.194 C  
BRANCH   8  11
HETATM   11  C   UNL     1     -10.464  12.824  68.483  1.00  0.00    -0.238 C  
BRANCH  11  12
HETATM   12  C   UNL     1     -10.442  11.483  67.736  1.00  0.00    -0.216 C  
BRANCH  12  13
HETATM   13  C   UNL     1      -9.342  10.544  68.258  1.00  0.00    -0.156 C  
BRANCH  13  14
HETATM   14  N   UNL     1      -9.562   9.156  67.775  1.00  0.00    -0.143 NA 
HETATM   15  C   UNL     1      -8.824   8.746  66.621  1.00  0.00    -0.131 A  
HETATM   16  C   UNL     1      -8.103   9.656  65.811  1.00  0.00    -0.113 A  
HETATM   17  C   UNL     1      -7.395   9.265  64.667  1.00  0.00    -0.101 A  
HETATM   18  C   UNL     1      -7.377   7.937  64.287  1.00  0.00    -0.088 A  
HETATM   19  C   UNL     1      -8.069   7.009  65.054  1.00  0.00    -0.119 A  
HETATM   20  C   UNL     1      -8.785   7.399  66.206  1.00  0.00    -0.149 A  
HETATM   21  S   UNL     1      -9.592   6.070  67.064  1.00  0.00    -0.140 SA 
HETATM   22  C   UNL     1     -10.326   6.893  68.452  1.00  0.00    -0.190 A  
HETATM   23  C   UNL     1     -10.277   8.283  68.657  1.00  0.00    -0.204 A  
HETATM   24  C   UNL     1     -10.970   8.758  69.799  1.00  0.00    -0.146 A  
HETATM   25  C   UNL     1     -11.590   7.918  70.745  1.00  0.00    -0.258 A  
HETATM   26  C   UNL     1     -11.589   6.547  70.517  1.00  0.00    -0.455 A  
HETATM   27  C   UNL     1     -12.216   8.484  71.997  1.00  0.00    -0.366 C  
HETATM   28  F   UNL     1     -12.103   9.838  72.104  1.00  0.00    -0.420 F  
HETATM   29  F   UNL     1     -11.643   7.984  73.129  1.00  0.00    -0.451 F  
HETATM   30  F   UNL     1     -13.544   8.209  72.097  1.00  0.00    -0.327 F  
HETATM   31  C   UNL     1     -10.977   6.044  69.374  1.00  0.00    -0.455 A  
ENDBRANCH  13  14
ENDBRANCH  12  13
ENDBRANCH  11  12
ENDBRANCH   8  11
ENDBRANCH   4   5
ENDBRANCH   2   4
TORSDOF 6
ENDMDL
MODEL       61
REMARK 921   NORMALIZED FREE ENERGY PREDICTED BY IDOCK:   -6.08 KCAL/MOL
REMARK 922        TOTAL FREE ENERGY PREDICTED BY IDOCK:   -8.45 KCAL/MOL
REMARK 923 INTER-LIGAND FREE ENERGY PREDICTED BY IDOCK:   -8.04 KCAL/MOL
REMARK 924 INTRA-LIGAND FREE ENERGY PREDICTED BY IDOCK:   -0.41 KCAL/MOL
REMARK 927      BINDING AFFINITY PREDICTED BY RF-SCORE:    0.00 PKD
ROOT
HETATM    1  O   UNL     1      -5.365  15.452  67.238  1.00  0.00    -0.338 OA 
HETATM    2  C   UNL     1      -6.038  16.551  67.850  1.00  0.00    -0.129 C  
HETATM    3  H   UNL     1      -4.540  15.295  67.682  1.00  0.00     0.000 HD 
ENDROOT
BRANCH   2   4
HETATM    4  C   UNL     1      -7.373  16.805  67.132  1.00  0.00    -0.187 C  
BRANCH   4   5
HETATM    5  N   UNL     1      -8.096  15.574  66.751  1.00  0.00    -0.238 NA 
HETATM    6  C   UNL     1      -8.579  14.813  67.918  1.00  0.00    -0.166 C  
HETATM    7  C   UNL     1      -9.738  15.492  68.671  1.00  0.00    -0.208 C  
HETATM    8  N   UNL     1     -10.921  15.804  67.843  1.00  0.00    -0.317 NA 
HETATM    9  C   UNL     1      -9.261  15.893  65.892  1.00  0.00    -0.297 C  
HETATM   10  C   UNL     1     -10.476  16.520  66.626  1.00  0.00    -0.266 C  
BRANCH   8  11
HETATM   11  C   UNL     1     -11.727  14.620  67.510  1.00  0.00    -0.379 C  
BRANCH  11  12
HETATM   12  C   UNL     1     -11.370  13.387  68.351  1.00  0.00    -0.329 C  
BRANCH  12  13
HETATM   13  C   UNL     1     -11.979  12.097  67.780  1.00  0.00    -0.128 C  
BRANCH  13  14
HETATM   14  N   UNL     1     -11.127  10.923  68.105  1.00  0.00    -0.257 NA 
HETATM   15  C   UNL     1     -11.338  10.300  69.374  1.00  0.00    -0.221 A  
HETATM   16  C   UNL     1     -12.131  10.884  70.391  1.00  0.00    -0.453 A  
HETATM   17  C   UNL     1     -12.325  10.289  71.645  1.00  0.00    -0.445 A  
HETATM   18  C   UNL     1     -11.733   9.074  71.932  1.00  0.00    -0.445 A  
HETATM   19  C   UNL     1     -10.949   8.463  70.961  1.00  0.00    -0.288 A  
HETATM   20  C   UNL     1     -10.748   9.060  69.698  1.00  0.00    -0.219 A  
HETATM   21  S   UNL     1      -9.729   8.123  68.587  1.00  0.00    -0.156 SA 
HETATM   22  C   UNL     1      -9.739   9.116  67.119  1.00  0.00    -0.182 A  
HETATM   23  C   UNL     1     -10.371  10.368  67.022  1.00  0.00    -0.240 A  
HETATM   24  C   UNL     1     -10.222  11.034  65.780  1.00  0.00    -0.316 A  
HETATM   25  C   UNL     1      -9.580  10.470  64.660  1.00  0.00    -0.349 A  
HETATM   26  C   UNL     1      -8.993   9.217  64.793  1.00  0.00    -0.217 A  
HETATM   27  C   UNL     1      -9.553  11.190  63.333  1.00  0.00    -0.332 C  
HETATM   28  F   UNL     1     -10.204  12.387  63.344  1.00  0.00    -0.406 F  
HETATM   29  F   UNL     1     -10.147  10.465  62.343  1.00  0.00    -0.202 F  
HETATM   30  F   UNL     1      -8.291  11.453  62.898  1.00  0.00    -0.088 F  
HETATM   31  C   UNL     1      -9.059   8.557  66.015  1.00  0.00    -0.246 A  
ENDBRANCH  13  14
ENDBRANCH  12  13
ENDBRANCH  11  12
ENDBRANCH   8  11
ENDBRANCH   4   5
ENDBRANCH   2   4
TORSDOF 6
ENDMDL
MODEL       62
REMARK 921   NORMALIZED FREE ENERGY PREDICTED BY IDOCK:   -6.07 KCAL/MOL
REMARK 922        TOTAL FREE ENERGY PREDICTED BY IDOCK:   -8.43 KCAL/MOL
REMARK 923 INTER-LIGAND FREE ENERGY PREDICTED BY IDOCK:   -7.82 KCAL/MOL
REMARK 924 INTRA-LIGAND FREE ENERGY PREDICTED BY IDOCK:   -0.62 KCAL/MOL
REMARK 927      BINDING AFFINITY PREDICTED BY RF-SCORE:    0.00 PKD
ROOT
HETATM    1  O   UNL     1     -13.506  15.533  70.400  1.00  0.00    -0.791 OA 
HETATM    2  C   UNL     1     -12.087  15.676  70.400  1.00  0.00    -0.394 C  
HETATM    3  H   UNL     1     -13.821  15.474  71.294  1.00  0.00     0.000 HD 
ENDROOT
BRANCH   2   4
HETATM    4  C   UNL     1     -11.576  15.771  68.953  1.00  0.00    -0.394 C  
BRANCH   4   5
HETATM    5  N   UNL     1     -10.540  14.774  68.612  1.00  0.00    -0.247 NA 
HETATM    6  C   UNL     1     -10.833  13.438  69.163  1.00  0.00    -0.114 C  
HETATM    7  C   UNL     1     -12.017  12.727  68.481  1.00  0.00    -0.225 C  
HETATM    8  N   UNL     1     -11.890  12.570  67.017  1.00  0.00    -0.503 NA 
HETATM    9  C   UNL     1     -10.395  14.648  67.143  1.00  0.00    -0.265 C  
HETATM   10  C   UNL     1     -11.537  13.881  66.426  1.00  0.00    -0.367 C  
BRANCH   8  11
HETATM   11  C   UNL     1     -10.934  11.524  66.624  1.00  0.00    -0.296 C  
BRANCH  11  12
HETATM   12  C   UNL     1     -11.060  10.243  67.460  1.00  0.00    -0.302 C  
BRANCH  12  13
HETATM   13  C   UNL     1      -9.690   9.665  67.850  1.00  0.00    -0.146 C  
BRANCH  13  14
HETATM   14  N   UNL     1      -9.629   8.210  67.557  1.00  0.00    -0.151 NA 
HETATM   15  C   UNL     1      -8.931   7.815  66.374  1.00  0.00    -0.163 A  
HETATM   16  C   UNL     1      -8.520   8.740  65.384  1.00  0.00    -0.186 A  
HETATM   17  C   UNL     1      -7.854   8.357  64.212  1.00  0.00    -0.143 A  
HETATM   18  C   UNL     1      -7.567   7.025  63.984  1.00  0.00    -0.105 A  
HETATM   19  C   UNL     1      -7.950   6.084  64.930  1.00  0.00    -0.126 A  
HETATM   20  C   UNL     1      -8.623   6.464  66.112  1.00  0.00    -0.144 A  
HETATM   21  S   UNL     1      -9.016   5.123  67.206  1.00  0.00    -0.113 SA 
HETATM   22  C   UNL     1      -9.783   5.949  68.574  1.00  0.00    -0.126 A  
HETATM   23  C   UNL     1     -10.037   7.332  68.613  1.00  0.00    -0.176 A  
HETATM   24  C   UNL     1     -10.707   7.798  69.772  1.00  0.00    -0.236 A  
HETATM   25  C   UNL     1     -11.024   6.981  70.876  1.00  0.00    -0.282 A  
HETATM   26  C   UNL     1     -10.729   5.625  70.804  1.00  0.00    -0.320 A  
HETATM   27  C   UNL     1     -11.640   7.564  72.124  1.00  0.00    -0.298 C  
HETATM   28  F   UNL     1     -11.833   8.912  72.064  1.00  0.00    -0.370 F  
HETATM   29  F   UNL     1     -10.862   7.360  73.226  1.00  0.00    -0.333 F  
HETATM   30  F   UNL     1     -12.854   7.025  72.419  1.00  0.00    -0.169 F  
HETATM   31  C   UNL     1     -10.130   5.114  69.658  1.00  0.00    -0.332 A  
ENDBRANCH  13  14
ENDBRANCH  12  13
ENDBRANCH  11  12
ENDBRANCH   8  11
ENDBRANCH   4   5
ENDBRANCH   2   4
TORSDOF 6
ENDMDL
MODEL       63
REMARK 921   NORMALIZED FREE ENERGY PREDICTED BY IDOCK:   -6.06 KCAL/MOL
REMARK 922        TOTAL FREE ENERGY PREDICTED BY IDOCK:   -8.42 KCAL/MOL
REMARK 923 INTER-LIGAND FREE ENERGY PREDICTED BY IDOCK:   -7.83 KCAL/MOL
REMARK 924 INTRA-LIGAND FREE ENERGY PREDICTED BY IDOCK:   -0.60 KCAL/MOL
REMARK 927      BINDING AFFINITY PREDICTED BY RF-SCORE:    0.00 PKD
ROOT
HETATM    1  O   UNL     1      -6.053   3.256  64.352  1.00  0.00    -0.021 OA 
HETATM    2  C   UNL     1      -6.415   4.631  64.469  1.00  0.00    -0.039 C  
HETATM    3  H   UNL     1      -5.259   3.177  63.837  1.00  0.00     0.000 HD 
ENDROOT
BRANCH   2   4
HETATM    4  C   UNL     1      -7.701   4.758  65.302  1.00  0.00    -0.086 C  
BRANCH   4   5
HETATM    5  N   UNL     1      -7.542   5.550  66.539  1.00  0.00    -0.087 NA 
HETATM    6  C   UNL     1      -7.296   6.980  66.272  1.00  0.00    -0.076 C  
HETATM    7  C   UNL     1      -8.521   7.731  65.717  1.00  0.00    -0.144 C  
HETATM    8  N   UNL     1      -9.733   7.653  66.560  1.00  0.00    -0.203 NA 
HETATM    9  C   UNL     1      -8.747   5.439  67.393  1.00  0.00    -0.107 C  
HETATM   10  C   UNL     1      -9.985   6.235  66.902  1.00  0.00    -0.169 C  
BRANCH   8  11
HETATM   11  C   UNL     1      -9.661   8.496  67.762  1.00  0.00    -0.162 C  
BRANCH  11  12
HETATM   12  C   UNL     1      -9.597   9.997  67.447  1.00  0.00    -0.182 C  
BRANCH  12  13
HETATM   13  C   UNL     1     -10.992  10.615  67.265  1.00  0.00    -0.284 C  
BRANCH  13  14
HETATM   14  N   UNL     1     -11.119  11.872  68.048  1.00  0.00    -0.223 NA 
HETATM   15  C   UNL     1     -10.874  13.097  67.353  1.00  0.00    -0.255 A  
HETATM   16  C   UNL     1     -10.301  13.140  66.059  1.00  0.00    -0.292 A  
HETATM   17  C   UNL     1     -10.039  14.338  65.380  1.00  0.00    -0.379 A  
HETATM   18  C   UNL     1     -10.344  15.548  65.972  1.00  0.00    -0.342 A  
HETATM   19  C   UNL     1     -10.910  15.552  67.241  1.00  0.00    -0.313 A  
HETATM   20  C   UNL     1     -11.174  14.348  67.929  1.00  0.00    -0.286 A  
HETATM   21  S   UNL     1     -11.912  14.555  69.530  1.00  0.00    -0.315 SA 
HETATM   22  C   UNL     1     -12.151  12.883  70.067  1.00  0.00    -0.286 A  
HETATM   23  C   UNL     1     -11.730  11.757  69.338  1.00  0.00    -0.341 A  
HETATM   24  C   UNL     1     -11.963  10.504  69.959  1.00  0.00    -0.367 A  
HETATM   25  C   UNL     1     -12.658  10.349  71.175  1.00  0.00    -0.512 A  
HETATM   26  C   UNL     1     -13.081  11.489  71.847  1.00  0.00    -0.492 A  
HETATM   27  C   UNL     1     -12.969   8.978  71.725  1.00  0.00    -0.377 C  
HETATM   28  F   UNL     1     -12.528   7.957  70.937  1.00  0.00    -0.288 F  
HETATM   29  F   UNL     1     -14.309   8.773  71.867  1.00  0.00    -0.422 F  
HETATM   30  F   UNL     1     -12.426   8.764  72.954  1.00  0.00    -0.426 F  
HETATM   31  C   UNL     1     -12.815  12.742  71.305  1.00  0.00    -0.355 A  
ENDBRANCH  13  14
ENDBRANCH  12  13
ENDBRANCH  11  12
ENDBRANCH   8  11
ENDBRANCH   4   5
ENDBRANCH   2   4
TORSDOF 6
ENDMDL
MODEL       64
REMARK 921   NORMALIZED FREE ENERGY PREDICTED BY IDOCK:   -6.04 KCAL/MOL
REMARK 922        TOTAL FREE ENERGY PREDICTED BY IDOCK:   -8.39 KCAL/MOL
REMARK 923 INTER-LIGAND FREE ENERGY PREDICTED BY IDOCK:   -8.23 KCAL/MOL
REMARK 924 INTRA-LIGAND FREE ENERGY PREDICTED BY IDOCK:   -0.16 KCAL/MOL
REMARK 927      BINDING AFFINITY PREDICTED BY RF-SCORE:    0.00 PKD
ROOT
HETATM    1  O   UNL     1     -13.543  15.659  70.333  1.00  0.00    -0.805 OA 
HETATM    2  C   UNL     1     -12.139  15.788  70.115  1.00  0.00    -0.333 C  
HETATM    3  H   UNL     1     -13.721  15.647  71.266  1.00  0.00     0.000 HD 
ENDROOT
BRANCH   2   4
HETATM    4  C   UNL     1     -11.850  15.808  68.605  1.00  0.00    -0.275 C  
BRANCH   4   5
HETATM    5  N   UNL     1     -10.734  14.932  68.193  1.00  0.00    -0.246 NA 
HETATM    6  C   UNL     1     -10.734  13.639  68.902  1.00  0.00    -0.212 C  
HETATM    7  C   UNL     1     -11.881  12.699  68.487  1.00  0.00    -0.300 C  
HETATM    8  N   UNL     1     -11.946  12.397  67.042  1.00  0.00    -0.565 NA 
HETATM    9  C   UNL     1     -10.787  14.662  66.737  1.00  0.00    -0.312 C  
HETATM   10  C   UNL     1     -11.890  13.668  66.286  1.00  0.00    -0.392 C  
BRANCH   8  11
HETATM   11  C   UNL     1     -10.909  11.455  66.596  1.00  0.00    -0.289 C  
BRANCH  11  12
HETATM   12  C   UNL     1     -11.001  10.084  67.278  1.00  0.00    -0.225 C  
BRANCH  12  13
HETATM   13  C   UNL     1      -9.975   9.926  68.412  1.00  0.00    -0.158 C  
BRANCH  13  14
HETATM   14  N   UNL     1     -10.371   8.828  69.332  1.00  0.00    -0.211 NA 
HETATM   15  C   UNL     1     -11.378   9.126  70.302  1.00  0.00    -0.188 A  
HETATM   16  C   UNL     1     -11.820  10.445  70.565  1.00  0.00    -0.430 A  
HETATM   17  C   UNL     1     -12.792  10.747  71.528  1.00  0.00    -0.567 A  
HETATM   18  C   UNL     1     -13.366   9.733  72.271  1.00  0.00    -0.472 A  
HETATM   19  C   UNL     1     -12.963   8.423  72.044  1.00  0.00    -0.388 A  
HETATM   20  C   UNL     1     -11.984   8.114  71.076  1.00  0.00    -0.240 A  
HETATM   21  S   UNL     1     -11.612   6.386  70.920  1.00  0.00    -0.282 SA 
HETATM   22  C   UNL     1     -10.418   6.361  69.611  1.00  0.00    -0.227 A  
HETATM   23  C   UNL     1      -9.908   7.516  68.991  1.00  0.00    -0.170 A  
HETATM   24  C   UNL     1      -8.920   7.293  68.000  1.00  0.00    -0.131 A  
HETATM   25  C   UNL     1      -8.521   6.014  67.564  1.00  0.00    -0.107 A  
HETATM   26  C   UNL     1      -9.072   4.900  68.185  1.00  0.00    -0.134 A  
HETATM   27  C   UNL     1      -7.543   5.848  66.426  1.00  0.00    -0.091 C  
HETATM   28  F   UNL     1      -7.121   7.027  65.889  1.00  0.00    -0.064 F  
HETATM   29  F   UNL     1      -8.079   5.148  65.385  1.00  0.00    -0.104 F  
HETATM   30  F   UNL     1      -6.417   5.177  66.788  1.00  0.00    -0.036 F  
HETATM   31  C   UNL     1      -9.998   5.074  69.208  1.00  0.00    -0.277 A  
ENDBRANCH  13  14
ENDBRANCH  12  13
ENDBRANCH  11  12
ENDBRANCH   8  11
ENDBRANCH   4   5
ENDBRANCH   2   4
TORSDOF 6
ENDMDL
MODEL       65
REMARK 921   NORMALIZED FREE ENERGY PREDICTED BY IDOCK:   -6.02 KCAL/MOL
REMARK 922        TOTAL FREE ENERGY PREDICTED BY IDOCK:   -8.37 KCAL/MOL
REMARK 923 INTER-LIGAND FREE ENERGY PREDICTED BY IDOCK:   -7.69 KCAL/MOL
REMARK 924 INTRA-LIGAND FREE ENERGY PREDICTED BY IDOCK:   -0.68 KCAL/MOL
REMARK 927      BINDING AFFINITY PREDICTED BY RF-SCORE:    0.00 PKD
ROOT
HETATM    1  O   UNL     1      -5.796   6.085  71.579  1.00  0.00    -0.025 OA 
HETATM    2  C   UNL     1      -6.144   4.882  70.896  1.00  0.00    -0.018 C  
HETATM    3  H   UNL     1      -4.886   6.047  71.851  1.00  0.00     0.000 HD 
ENDROOT
BRANCH   2   4
HETATM    4  C   UNL     1      -7.616   4.945  70.457  1.00  0.00    -0.062 C  
BRANCH   4   5
HETATM    5  N   UNL     1      -7.809   5.345  69.048  1.00  0.00    -0.089 NA 
HETATM    6  C   UNL     1      -9.226   5.327  68.640  1.00  0.00    -0.116 C  
HETATM    7  C   UNL     1     -10.073   6.445  69.275  1.00  0.00    -0.172 C  
HETATM    8  N   UNL     1      -9.574   7.816  69.037  1.00  0.00    -0.154 NA 
HETATM    9  C   UNL     1      -7.275   6.706  68.810  1.00  0.00    -0.085 C  
HETATM   10  C   UNL     1      -8.134   7.866  69.380  1.00  0.00    -0.125 C  
BRANCH   8  11
HETATM   11  C   UNL     1      -9.822   8.297  67.670  1.00  0.00    -0.169 C  
BRANCH  11  12
HETATM   12  C   UNL     1      -9.721   9.822  67.536  1.00  0.00    -0.192 C  
BRANCH  12  13
HETATM   13  C   UNL     1     -11.095  10.483  67.342  1.00  0.00    -0.252 C  
BRANCH  13  14
HETATM   14  N   UNL     1     -11.187  11.746  68.120  1.00  0.00    -0.239 NA 
HETATM   15  C   UNL     1     -10.933  12.963  67.414  1.00  0.00    -0.260 A  
HETATM   16  C   UNL     1     -10.382  12.990  66.110  1.00  0.00    -0.285 A  
HETATM   17  C   UNL     1     -10.112  14.179  65.420  1.00  0.00    -0.359 A  
HETATM   18  C   UNL     1     -10.387  15.398  66.010  1.00  0.00    -0.339 A  
HETATM   19  C   UNL     1     -10.931  15.418  67.288  1.00  0.00    -0.317 A  
HETATM   20  C   UNL     1     -11.203  14.223  67.988  1.00  0.00    -0.280 A  
HETATM   21  S   UNL     1     -11.909  14.451  69.600  1.00  0.00    -0.340 SA 
HETATM   22  C   UNL     1     -12.167  12.786  70.151  1.00  0.00    -0.249 A  
HETATM   23  C   UNL     1     -11.778  11.649  69.422  1.00  0.00    -0.340 A  
HETATM   24  C   UNL     1     -12.021  10.404  70.054  1.00  0.00    -0.324 A  
HETATM   25  C   UNL     1     -12.698  10.267  71.282  1.00  0.00    -0.523 A  
HETATM   26  C   UNL     1     -13.090  11.418  71.955  1.00  0.00    -0.505 A  
HETATM   27  C   UNL     1     -13.022   8.905  71.846  1.00  0.00    -0.382 C  
HETATM   28  F   UNL     1     -12.612   7.872  71.056  1.00  0.00    -0.305 F  
HETATM   29  F   UNL     1     -14.363   8.723  72.011  1.00  0.00    -0.431 F  
HETATM   30  F   UNL     1     -12.462   8.689  73.066  1.00  0.00    -0.394 F  
HETATM   31  C   UNL     1     -12.812  12.663  71.401  1.00  0.00    -0.358 A  
ENDBRANCH  13  14
ENDBRANCH  12  13
ENDBRANCH  11  12
ENDBRANCH   8  11
ENDBRANCH   4   5
ENDBRANCH   2   4
TORSDOF 6
ENDMDL
MODEL       66
REMARK 921   NORMALIZED FREE ENERGY PREDICTED BY IDOCK:   -6.01 KCAL/MOL
REMARK 922        TOTAL FREE ENERGY PREDICTED BY IDOCK:   -8.35 KCAL/MOL
REMARK 923 INTER-LIGAND FREE ENERGY PREDICTED BY IDOCK:   -8.19 KCAL/MOL
REMARK 924 INTRA-LIGAND FREE ENERGY PREDICTED BY IDOCK:   -0.16 KCAL/MOL
REMARK 927      BINDING AFFINITY PREDICTED BY RF-SCORE:    0.00 PKD
ROOT
HETATM    1  O   UNL     1      -5.573  11.647  65.837  1.00  0.00    -0.506 OA 
HETATM    2  C   UNL     1      -5.231  12.017  67.171  1.00  0.00    -0.106 C  
HETATM    3  H   UNL     1      -5.191  10.802  65.632  1.00  0.00     0.000 HD 
ENDROOT
BRANCH   2   4
HETATM    4  C   UNL     1      -5.849  13.386  67.502  1.00  0.00    -0.016 C  
BRANCH   4   5
HETATM    5  N   UNL     1      -7.313  13.355  67.697  1.00  0.00    -0.155 NA 
HETATM    6  C   UNL     1      -7.707  13.601  69.097  1.00  0.00     0.182 C  
HETATM    7  C   UNL     1      -7.480  15.051  69.564  1.00  0.00    -0.194 C  
HETATM    8  N   UNL     1      -8.149  16.081  68.742  1.00  0.00    -0.198 NA 
HETATM    9  C   UNL     1      -7.978  14.368  66.844  1.00  0.00     0.134 C  
HETATM   10  C   UNL     1      -7.828  15.837  67.317  1.00  0.00    -0.195 C  
BRANCH   8  11
HETATM   11  C   UNL     1      -9.600  16.153  68.966  1.00  0.00    -0.251 C  
BRANCH  11  12
HETATM   12  C   UNL     1     -10.424  15.729  67.743  1.00  0.00    -0.283 C  
BRANCH  12  13
HETATM   13  C   UNL     1     -11.848  15.292  68.122  1.00  0.00    -0.195 C  
BRANCH  13  14
HETATM   14  N   UNL     1     -11.817  14.071  68.968  1.00  0.00    -0.334 NA 
HETATM   15  C   UNL     1     -12.399  14.168  70.270  1.00  0.00    -0.356 A  
HETATM   16  C   UNL     1     -12.773  15.404  70.850  1.00  0.00    -0.520 A  
HETATM   17  C   UNL     1     -13.325  15.510  72.134  1.00  0.00    -0.561 A  
HETATM   18  C   UNL     1     -13.529  14.373  72.893  1.00  0.00    -0.516 A  
HETATM   19  C   UNL     1     -13.180  13.139  72.362  1.00  0.00    -0.519 A  
HETATM   20  C   UNL     1     -12.621  13.028  71.070  1.00  0.00    -0.299 A  
HETATM   21  S   UNL     1     -12.254  11.368  70.559  1.00  0.00    -0.370 SA 
HETATM   22  C   UNL     1     -11.639  11.595  68.913  1.00  0.00    -0.314 A  
HETATM   23  C   UNL     1     -11.454  12.851  68.310  1.00  0.00    -0.311 A  
HETATM   24  C   UNL     1     -10.901  12.829  67.005  1.00  0.00    -0.282 A  
HETATM   25  C   UNL     1     -10.635  11.646  66.286  1.00  0.00    -0.301 A  
HETATM   26  C   UNL     1     -10.859  10.425  66.912  1.00  0.00    -0.229 A  
HETATM   27  C   UNL     1     -10.149  11.694  64.859  1.00  0.00    -0.260 C  
HETATM   28  F   UNL     1     -10.015  12.958  64.366  1.00  0.00    -0.321 F  
HETATM   29  F   UNL     1     -11.002  11.062  64.003  1.00  0.00    -0.437 F  
HETATM   30  F   UNL     1      -8.939  11.097  64.690  1.00  0.00    -0.186 F  
HETATM   31  C   UNL     1     -11.340  10.403  68.217  1.00  0.00    -0.292 A  
ENDBRANCH  13  14
ENDBRANCH  12  13
ENDBRANCH  11  12
ENDBRANCH   8  11
ENDBRANCH   4   5
ENDBRANCH   2   4
TORSDOF 6
ENDMDL
MODEL       67
REMARK 921   NORMALIZED FREE ENERGY PREDICTED BY IDOCK:   -5.97 KCAL/MOL
REMARK 922        TOTAL FREE ENERGY PREDICTED BY IDOCK:   -8.31 KCAL/MOL
REMARK 923 INTER-LIGAND FREE ENERGY PREDICTED BY IDOCK:   -8.33 KCAL/MOL
REMARK 924 INTRA-LIGAND FREE ENERGY PREDICTED BY IDOCK:    0.02 KCAL/MOL
REMARK 927      BINDING AFFINITY PREDICTED BY RF-SCORE:    0.00 PKD
ROOT
HETATM    1  O   UNL     1      -5.915  12.021  66.422  1.00  0.00    -0.499 OA 
HETATM    2  C   UNL     1      -5.481  12.460  67.708  1.00  0.00    -0.097 C  
HETATM    3  H   UNL     1      -5.563  11.157  66.244  1.00  0.00     0.000 HD 
ENDROOT
BRANCH   2   4
HETATM    4  C   UNL     1      -6.049  13.859  67.996  1.00  0.00    -0.141 C  
BRANCH   4   5
HETATM    5  N   UNL     1      -7.405  14.082  67.454  1.00  0.00    -0.163 NA 
HETATM    6  C   UNL     1      -8.465  13.823  68.447  1.00  0.00    -0.154 C  
HETATM    7  C   UNL     1      -8.534  14.868  69.575  1.00  0.00    -0.002 C  
HETATM    8  N   UNL     1      -8.703  16.264  69.121  1.00  0.00    -0.240 NA 
HETATM    9  C   UNL     1      -7.555  15.474  66.970  1.00  0.00    -0.193 C  
HETATM   10  C   UNL     1      -7.693  16.552  68.077  1.00  0.00    -0.159 C  
BRANCH   8  11
HETATM   11  C   UNL     1     -10.064  16.564  68.654  1.00  0.00    -0.255 C  
BRANCH  11  12
HETATM   12  C   UNL     1     -10.370  15.989  67.265  1.00  0.00    -0.295 C  
BRANCH  12  13
HETATM   13  C   UNL     1     -11.795  15.420  67.169  1.00  0.00     0.170 C  
BRANCH  13  14
HETATM   14  N   UNL     1     -11.783  13.941  67.307  1.00  0.00    -0.363 NA 
HETATM   15  C   UNL     1     -11.277  13.190  66.200  1.00  0.00    -0.295 A  
HETATM   16  C   UNL     1     -11.024  13.771  64.934  1.00  0.00    -0.378 A  
HETATM   17  C   UNL     1     -10.548  13.038  63.839  1.00  0.00    -0.292 A  
HETATM   18  C   UNL     1     -10.302  11.685  63.968  1.00  0.00    -0.405 A  
HETATM   19  C   UNL     1     -10.535  11.074  65.194  1.00  0.00    -0.329 A  
HETATM   20  C   UNL     1     -11.016  11.808  66.299  1.00  0.00    -0.300 A  
HETATM   21  S   UNL     1     -11.236  10.858  67.782  1.00  0.00    -0.297 SA 
HETATM   22  C   UNL     1     -11.780  12.077  68.948  1.00  0.00    -0.326 A  
HETATM   23  C   UNL     1     -12.022  13.423  68.621  1.00  0.00    -0.327 A  
HETATM   24  C   UNL     1     -12.504  14.233  69.680  1.00  0.00    -0.215 A  
HETATM   25  C   UNL     1     -12.647  13.784  71.008  1.00  0.00    -0.446 A  
HETATM   26  C   UNL     1     -12.369  12.452  71.291  1.00  0.00    -0.154 A  
HETATM   27  C   UNL     1     -13.061  14.729  72.109  1.00  0.00    -0.341 C  
HETATM   28  F   UNL     1     -13.258  16.010  71.689  1.00  0.00    -0.516 F  
HETATM   29  F   UNL     1     -12.121  14.813  73.094  1.00  0.00    -0.394 F  
HETATM   30  F   UNL     1     -14.214  14.355  72.724  1.00  0.00    -0.475 F  
HETATM   31  C   UNL     1     -11.956  11.606  70.268  1.00  0.00    -0.445 A  
ENDBRANCH  13  14
ENDBRANCH  12  13
ENDBRANCH  11  12
ENDBRANCH   8  11
ENDBRANCH   4   5
ENDBRANCH   2   4
TORSDOF 6
ENDMDL
MODEL       68
REMARK 921   NORMALIZED FREE ENERGY PREDICTED BY IDOCK:   -5.93 KCAL/MOL
REMARK 922        TOTAL FREE ENERGY PREDICTED BY IDOCK:   -8.25 KCAL/MOL
REMARK 923 INTER-LIGAND FREE ENERGY PREDICTED BY IDOCK:   -8.02 KCAL/MOL
REMARK 924 INTRA-LIGAND FREE ENERGY PREDICTED BY IDOCK:   -0.23 KCAL/MOL
REMARK 927      BINDING AFFINITY PREDICTED BY RF-SCORE:    0.00 PKD
ROOT
HETATM    1  O   UNL     1      -6.136  20.567  70.704  1.00  0.00    -0.533 OA 
HETATM    2  C   UNL     1      -5.403  20.633  69.482  1.00  0.00    -0.343 C  
HETATM    3  H   UNL     1      -5.546  20.372  71.421  1.00  0.00     0.000 HD 
ENDROOT
BRANCH   2   4
HETATM    4  C   UNL     1      -6.359  20.949  68.320  1.00  0.00    -0.269 C  
BRANCH   4   5
HETATM    5  N   UNL     1      -6.375  19.924  67.256  1.00  0.00    -0.188 NA 
HETATM    6  C   UNL     1      -6.543  18.557  67.785  1.00  0.00    -0.214 C  
HETATM    7  C   UNL     1      -7.949  18.274  68.346  1.00  0.00    -0.306 C  
HETATM    8  N   UNL     1      -9.057  18.508  67.397  1.00  0.00    -0.273 NA 
HETATM    9  C   UNL     1      -7.468  20.185  66.290  1.00  0.00    -0.274 C  
HETATM   10  C   UNL     1      -8.895  19.851  66.796  1.00  0.00    -0.348 C  
BRANCH   8  11
HETATM   11  C   UNL     1      -9.173  17.464  66.368  1.00  0.00    -0.249 C  
BRANCH  11  12
HETATM   12  C   UNL     1      -8.381  16.193  66.702  1.00  0.00    -0.321 C  
BRANCH  12  13
HETATM   13  C   UNL     1      -9.168  15.237  67.611  1.00  0.00    -0.187 C  
BRANCH  13  14
HETATM   14  N   UNL     1      -8.577  13.874  67.583  1.00  0.00    -0.177 NA 
HETATM   15  C   UNL     1      -7.589  13.574  68.572  1.00  0.00    -0.129 A  
HETATM   16  C   UNL     1      -7.003  14.567  69.393  1.00  0.00    -0.151 A  
HETATM   17  C   UNL     1      -6.020  14.284  70.351  1.00  0.00    -0.171 A  
HETATM   18  C   UNL     1      -5.583  12.985  70.528  1.00  0.00    -0.175 A  
HETATM   19  C   UNL     1      -6.133  11.978  69.745  1.00  0.00    -0.145 A  
HETATM   20  C   UNL     1      -7.122  12.259  68.778  1.00  0.00    -0.107 A  
HETATM   21  S   UNL     1      -7.714  10.843  67.887  1.00  0.00    -0.106 SA 
HETATM   22  C   UNL     1      -8.952  11.539  66.827  1.00  0.00    -0.181 A  
HETATM   23  C   UNL     1      -9.236  12.913  66.749  1.00  0.00    -0.230 A  
HETATM   24  C   UNL     1     -10.224  13.281  65.802  1.00  0.00    -0.296 A  
HETATM   25  C   UNL     1     -10.968  12.354  65.045  1.00  0.00    -0.336 A  
HETATM   26  C   UNL     1     -10.673  11.002  65.176  1.00  0.00    -0.253 A  
HETATM   27  C   UNL     1     -12.083  12.808  64.135  1.00  0.00    -0.438 C  
HETATM   28  F   UNL     1     -12.284  14.156  64.142  1.00  0.00    -0.458 F  
HETATM   29  F   UNL     1     -13.285  12.263  64.482  1.00  0.00    -0.514 F  
HETATM   30  F   UNL     1     -11.880  12.466  62.835  1.00  0.00    -0.394 F  
HETATM   31  C   UNL     1      -9.665  10.603  66.046  1.00  0.00    -0.258 A  
ENDBRANCH  13  14
ENDBRANCH  12  13
ENDBRANCH  11  12
ENDBRANCH   8  11
ENDBRANCH   4   5
ENDBRANCH   2   4
TORSDOF 6
ENDMDL
MODEL       69
REMARK 921   NORMALIZED FREE ENERGY PREDICTED BY IDOCK:   -5.92 KCAL/MOL
REMARK 922        TOTAL FREE ENERGY PREDICTED BY IDOCK:   -8.23 KCAL/MOL
REMARK 923 INTER-LIGAND FREE ENERGY PREDICTED BY IDOCK:   -7.41 KCAL/MOL
REMARK 924 INTRA-LIGAND FREE ENERGY PREDICTED BY IDOCK:   -0.82 KCAL/MOL
REMARK 927      BINDING AFFINITY PREDICTED BY RF-SCORE:    0.00 PKD
ROOT
HETATM    1  O   UNL     1     -10.787   3.423  73.705  1.00  0.00    -0.196 OA 
HETATM    2  C   UNL     1     -11.370   4.706  73.483  1.00  0.00    -0.268 C  
HETATM    3  H   UNL     1     -11.455   2.814  73.995  1.00  0.00     0.000 HD 
ENDROOT
BRANCH   2   4
HETATM    4  C   UNL     1     -10.288   5.693  73.015  1.00  0.00    -0.203 C  
BRANCH   4   5
HETATM    5  N   UNL     1     -10.593   7.107  73.313  1.00  0.00    -0.330 NA 
HETATM    6  C   UNL     1      -9.548   8.028  72.828  1.00  0.00    -0.277 C  
HETATM    7  C   UNL     1      -9.494   8.162  71.295  1.00  0.00    -0.159 C  
HETATM    8  N   UNL     1     -10.763   8.579  70.662  1.00  0.00    -0.214 NA 
HETATM    9  C   UNL     1     -11.882   7.508  72.703  1.00  0.00    -0.174 C  
HETATM   10  C   UNL     1     -11.855   7.715  71.166  1.00  0.00    -0.293 C  
BRANCH   8  11
HETATM   11  C   UNL     1     -11.068  10.004  70.854  1.00  0.00    -0.314 C  
BRANCH  11  12
HETATM   12  C   UNL     1     -10.797  10.856  69.606  1.00  0.00    -0.271 C  
BRANCH  12  13
HETATM   13  C   UNL     1     -11.834  10.613  68.498  1.00  0.00    -0.013 C  
BRANCH  13  14
HETATM   14  N   UNL     1     -11.215  10.759  67.155  1.00  0.00    -0.349 NA 
HETATM   15  C   UNL     1     -11.196  12.071  66.588  1.00  0.00    -0.327 A  
HETATM   16  C   UNL     1     -11.934  13.150  67.133  1.00  0.00    -0.397 A  
HETATM   17  C   UNL     1     -11.937  14.434  66.571  1.00  0.00    -0.406 A  
HETATM   18  C   UNL     1     -11.195  14.692  65.435  1.00  0.00    -0.347 A  
HETATM   19  C   UNL     1     -10.453  13.663  64.868  1.00  0.00    -0.426 A  
HETATM   20  C   UNL     1     -10.449  12.367  65.429  1.00  0.00    -0.277 A  
HETATM   21  S   UNL     1      -9.431  11.191  64.574  1.00  0.00    -0.197 SA 
HETATM   22  C   UNL     1      -9.614   9.730  65.560  1.00  0.00    -0.282 A  
HETATM   23  C   UNL     1     -10.462   9.637  66.677  1.00  0.00    -0.163 A  
HETATM   24  C   UNL     1     -10.512   8.367  67.304  1.00  0.00    -0.373 A  
HETATM   25  C   UNL     1      -9.705   7.275  66.928  1.00  0.00    -0.252 A  
HETATM   26  C   UNL     1      -8.859   7.420  65.835  1.00  0.00    -0.149 A  
HETATM   27  C   UNL     1      -9.728   5.983  67.709  1.00  0.00    -0.115 C  
HETATM   28  F   UNL     1     -10.574   6.003  68.778  1.00  0.00    -0.213 F  
HETATM   29  F   UNL     1      -8.504   5.671  68.223  1.00  0.00    -0.104 F  
HETATM   30  F   UNL     1     -10.101   4.914  66.956  1.00  0.00    -0.175 F  
HETATM   31  C   UNL     1      -8.828   8.630  65.151  1.00  0.00    -0.147 A  
ENDBRANCH  13  14
ENDBRANCH  12  13
ENDBRANCH  11  12
ENDBRANCH   8  11
ENDBRANCH   4   5
ENDBRANCH   2   4
TORSDOF 6
ENDMDL
MODEL       70
REMARK 921   NORMALIZED FREE ENERGY PREDICTED BY IDOCK:   -5.89 KCAL/MOL
REMARK 922        TOTAL FREE ENERGY PREDICTED BY IDOCK:   -8.19 KCAL/MOL
REMARK 923 INTER-LIGAND FREE ENERGY PREDICTED BY IDOCK:   -7.63 KCAL/MOL
REMARK 924 INTRA-LIGAND FREE ENERGY PREDICTED BY IDOCK:   -0.56 KCAL/MOL
REMARK 927      BINDING AFFINITY PREDICTED BY RF-SCORE:    0.00 PKD
ROOT
HETATM    1  O   UNL     1      -8.832   4.402  72.112  1.00  0.00    -0.114 OA 
HETATM    2  C   UNL     1     -10.251   4.366  71.970  1.00  0.00    -0.163 C  
HETATM    3  H   UNL     1      -8.447   3.653  71.672  1.00  0.00     0.000 HD 
ENDROOT
BRANCH   2   4
HETATM    4  C   UNL     1     -10.873   5.578  72.682  1.00  0.00    -0.257 C  
BRANCH   4   5
HETATM    5  N   UNL     1     -11.596   6.501  71.783  1.00  0.00    -0.297 NA 
HETATM    6  C   UNL     1     -11.693   7.867  72.327  1.00  0.00    -0.355 C  
HETATM    7  C   UNL     1     -10.355   8.629  72.349  1.00  0.00    -0.247 C  
HETATM    8  N   UNL     1      -9.678   8.735  71.039  1.00  0.00    -0.208 NA 
HETATM    9  C   UNL     1     -10.930   6.575  70.461  1.00  0.00    -0.294 C  
HETATM   10  C   UNL     1      -9.610   7.389  70.427  1.00  0.00    -0.165 C  
BRANCH   8  11
HETATM   11  C   UNL     1     -10.307   9.710  70.136  1.00  0.00    -0.266 C  
BRANCH  11  12
HETATM   12  C   UNL     1      -9.594   9.832  68.783  1.00  0.00    -0.155 C  
BRANCH  12  13
HETATM   13  C   UNL     1     -10.482   9.381  67.613  1.00  0.00    -0.268 C  
BRANCH  13  14
HETATM   14  N   UNL     1      -9.773   9.547  66.318  1.00  0.00    -0.225 NA 
HETATM   15  C   UNL     1      -9.053   8.416  65.822  1.00  0.00    -0.139 A  
HETATM   16  C   UNL     1      -8.803   7.265  66.608  1.00  0.00    -0.151 A  
HETATM   17  C   UNL     1      -8.081   6.160  66.135  1.00  0.00    -0.115 A  
HETATM   18  C   UNL     1      -7.580   6.163  64.848  1.00  0.00    -0.090 A  
HETATM   19  C   UNL     1      -7.804   7.271  64.041  1.00  0.00    -0.114 A  
HETATM   20  C   UNL     1      -8.529   8.386  64.513  1.00  0.00    -0.060 A  
HETATM   21  S   UNL     1      -8.725   9.697  63.333  1.00  0.00    -0.227 SA 
HETATM   22  C   UNL     1      -9.706  10.876  64.221  1.00  0.00    -0.294 A  
HETATM   23  C   UNL     1     -10.093  10.723  65.564  1.00  0.00    -0.274 A  
HETATM   24  C   UNL     1     -10.832  11.800  66.116  1.00  0.00    -0.336 A  
HETATM   25  C   UNL     1     -11.258  12.920  65.373  1.00  0.00    -0.314 A  
HETATM   26  C   UNL     1     -10.876  13.016  64.041  1.00  0.00    -0.408 A  
HETATM   27  C   UNL     1     -12.136  13.978  65.995  1.00  0.00    -0.439 C  
HETATM   28  F   UNL     1     -12.462  13.728  67.294  1.00  0.00    -0.388 F  
HETATM   29  F   UNL     1     -13.326  14.107  65.342  1.00  0.00    -0.494 F  
HETATM   30  F   UNL     1     -11.567  15.213  65.983  1.00  0.00    -0.326 F  
HETATM   31  C   UNL     1     -10.095  12.012  63.478  1.00  0.00    -0.448 A  
ENDBRANCH  13  14
ENDBRANCH  12  13
ENDBRANCH  11  12
ENDBRANCH   8  11
ENDBRANCH   4   5
ENDBRANCH   2   4
TORSDOF 6
ENDMDL
MODEL       71
REMARK 921   NORMALIZED FREE ENERGY PREDICTED BY IDOCK:   -5.87 KCAL/MOL
REMARK 922        TOTAL FREE ENERGY PREDICTED BY IDOCK:   -8.17 KCAL/MOL
REMARK 923 INTER-LIGAND FREE ENERGY PREDICTED BY IDOCK:   -7.60 KCAL/MOL
REMARK 924 INTRA-LIGAND FREE ENERGY PREDICTED BY IDOCK:   -0.57 KCAL/MOL
REMARK 927      BINDING AFFINITY PREDICTED BY RF-SCORE:    0.00 PKD
ROOT
HETATM    1  O   UNL     1     -12.438  16.885  74.513  1.00  0.00    -0.666 OA 
HETATM    2  C   UNL     1     -12.955  15.780  73.774  1.00  0.00    -0.505 C  
HETATM    3  H   UNL     1     -12.708  16.817  75.421  1.00  0.00     0.000 HD 
ENDROOT
BRANCH   2   4
HETATM    4  C   UNL     1     -12.518  15.890  72.304  1.00  0.00    -0.465 C  
BRANCH   4   5
HETATM    5  N   UNL     1     -13.372  15.137  71.363  1.00  0.00    -0.430 NA 
HETATM    6  C   UNL     1     -12.740  14.953  70.044  1.00  0.00    -0.153 C  
HETATM    7  C   UNL     1     -11.551  13.974  70.051  1.00  0.00    -0.232 C  
HETATM    8  N   UNL     1     -11.859  12.626  70.572  1.00  0.00    -0.180 NA 
HETATM    9  C   UNL     1     -13.704  13.800  71.908  1.00  0.00    -0.426 C  
HETATM   10  C   UNL     1     -12.550  12.764  71.875  1.00  0.00     0.047 C  
BRANCH   8  11
HETATM   11  C   UNL     1     -12.633  11.801  69.633  1.00  0.00     0.205 C  
BRANCH  11  12
HETATM   12  C   UNL     1     -11.804  10.687  68.979  1.00  0.00    -0.256 C  
BRANCH  12  13
HETATM   13  C   UNL     1     -10.299  10.994  68.996  1.00  0.00    -0.209 C  
BRANCH  13  14
HETATM   14  N   UNL     1      -9.631  10.421  67.799  1.00  0.00    -0.151 NA 
HETATM   15  C   UNL     1      -9.081   9.108  67.929  1.00  0.00    -0.127 A  
HETATM   16  C   UNL     1      -8.943   8.457  69.178  1.00  0.00    -0.147 A  
HETATM   17  C   UNL     1      -8.386   7.178  69.316  1.00  0.00    -0.133 A  
HETATM   18  C   UNL     1      -7.945   6.494  68.200  1.00  0.00    -0.110 A  
HETATM   19  C   UNL     1      -8.064   7.094  66.953  1.00  0.00    -0.116 A  
HETATM   20  C   UNL     1      -8.622   8.382  66.810  1.00  0.00    -0.118 A  
HETATM   21  S   UNL     1      -8.703   8.975  65.138  1.00  0.00    -0.175 SA 
HETATM   22  C   UNL     1      -9.489  10.552  65.323  1.00  0.00    -0.229 A  
HETATM   23  C   UNL     1      -9.834  11.118  66.563  1.00  0.00    -0.208 A  
HETATM   24  C   UNL     1     -10.407  12.413  66.508  1.00  0.00    -0.248 A  
HETATM   25  C   UNL     1     -10.721  13.080  65.307  1.00  0.00    -0.317 A  
HETATM   26  C   UNL     1     -10.388  12.471  64.103  1.00  0.00    -0.416 A  
HETATM   27  C   UNL     1     -11.431  14.412  65.319  1.00  0.00    -0.350 C  
HETATM   28  F   UNL     1     -11.730  14.864  66.569  1.00  0.00    -0.356 F  
HETATM   29  F   UNL     1     -12.624  14.364  64.658  1.00  0.00    -0.432 F  
HETATM   30  F   UNL     1     -10.714  15.402  64.723  1.00  0.00    -0.397 F  
HETATM   31  C   UNL     1      -9.765  11.228  64.114  1.00  0.00    -0.298 A  
ENDBRANCH  13  14
ENDBRANCH  12  13
ENDBRANCH  11  12
ENDBRANCH   8  11
ENDBRANCH   4   5
ENDBRANCH   2   4
TORSDOF 6
ENDMDL
MODEL       72
REMARK 921   NORMALIZED FREE ENERGY PREDICTED BY IDOCK:   -5.86 KCAL/MOL
REMARK 922        TOTAL FREE ENERGY PREDICTED BY IDOCK:   -8.15 KCAL/MOL
REMARK 923 INTER-LIGAND FREE ENERGY PREDICTED BY IDOCK:   -7.67 KCAL/MOL
REMARK 924 INTRA-LIGAND FREE ENERGY PREDICTED BY IDOCK:   -0.48 KCAL/MOL
REMARK 927      BINDING AFFINITY PREDICTED BY RF-SCORE:    0.00 PKD
ROOT
HETATM    1  O   UNL     1      -9.200   7.619  74.527  1.00  0.00    -0.416 OA 
HETATM    2  C   UNL     1      -9.696   6.610  73.649  1.00  0.00    -0.203 C  
HETATM    3  H   UNL     1      -8.381   7.333  74.914  1.00  0.00     0.000 HD 
ENDROOT
BRANCH   2   4
HETATM    4  C   UNL     1     -11.022   7.074  73.024  1.00  0.00    -0.292 C  
BRANCH   4   5
HETATM    5  N   UNL     1     -11.037   7.039  71.547  1.00  0.00    -0.239 NA 
HETATM    6  C   UNL     1     -12.159   7.804  70.971  1.00  0.00    -0.244 C  
HETATM    7  C   UNL     1     -12.020   9.330  71.126  1.00  0.00    -0.322 C  
HETATM    8  N   UNL     1     -10.777   9.901  70.567  1.00  0.00    -0.306 NA 
HETATM    9  C   UNL     1      -9.774   7.582  70.995  1.00  0.00    -0.167 C  
HETATM   10  C   UNL     1      -9.623   9.124  71.074  1.00  0.00    -0.280 C  
BRANCH   8  11
HETATM   11  C   UNL     1     -10.778   9.972  69.098  1.00  0.00    -0.220 C  
BRANCH  11  12
HETATM   12  C   UNL     1     -11.071  11.379  68.559  1.00  0.00    -0.287 C  
BRANCH  12  13
HETATM   13  C   UNL     1      -9.796  12.228  68.425  1.00  0.00    -0.199 C  
BRANCH  13  14
HETATM   14  N   UNL     1      -8.855  11.615  67.452  1.00  0.00    -0.156 NA 
HETATM   15  C   UNL     1      -7.688  10.986  67.987  1.00  0.00    -0.106 A  
HETATM   16  C   UNL     1      -7.291  11.132  69.338  1.00  0.00    -0.062 A  
HETATM   17  C   UNL     1      -6.137  10.536  69.863  1.00  0.00    -0.079 A  
HETATM   18  C   UNL     1      -5.330   9.761  69.053  1.00  0.00    -0.036 A  
HETATM   19  C   UNL     1      -5.683   9.589  67.720  1.00  0.00    -0.041 A  
HETATM   20  C   UNL     1      -6.843  10.190  67.186  1.00  0.00    -0.082 A  
HETATM   21  S   UNL     1      -7.135   9.843  65.470  1.00  0.00    -0.125 SA 
HETATM   22  C   UNL     1      -8.663  10.685  65.158  1.00  0.00    -0.186 A  
HETATM   23  C   UNL     1      -9.332  11.476  66.108  1.00  0.00    -0.215 A  
HETATM   24  C   UNL     1     -10.513  12.113  65.653  1.00  0.00    -0.290 A  
HETATM   25  C   UNL     1     -11.069  11.912  64.373  1.00  0.00    -0.395 A  
HETATM   26  C   UNL     1     -10.388  11.099  63.475  1.00  0.00    -0.446 A  
HETATM   27  C   UNL     1     -12.389  12.535  63.990  1.00  0.00    -0.469 C  
HETATM   28  F   UNL     1     -12.959  13.270  64.986  1.00  0.00    -0.461 F  
HETATM   29  F   UNL     1     -13.322  11.598  63.655  1.00  0.00    -0.487 F  
HETATM   30  F   UNL     1     -12.292  13.366  62.919  1.00  0.00    -0.575 F  
HETATM   31  C   UNL     1      -9.190  10.506  63.860  1.00  0.00    -0.287 A  
ENDBRANCH  13  14
ENDBRANCH  12  13
ENDBRANCH  11  12
ENDBRANCH   8  11
ENDBRANCH   4   5
ENDBRANCH   2   4
TORSDOF 6
ENDMDL
MODEL       73
REMARK 921   NORMALIZED FREE ENERGY PREDICTED BY IDOCK:   -5.86 KCAL/MOL
REMARK 922        TOTAL FREE ENERGY PREDICTED BY IDOCK:   -8.15 KCAL/MOL
REMARK 923 INTER-LIGAND FREE ENERGY PREDICTED BY IDOCK:   -7.38 KCAL/MOL
REMARK 924 INTRA-LIGAND FREE ENERGY PREDICTED BY IDOCK:   -0.77 KCAL/MOL
REMARK 927      BINDING AFFINITY PREDICTED BY RF-SCORE:    0.00 PKD
ROOT
HETATM    1  O   UNL     1     -11.326  14.499  70.435  1.00  0.00    -0.410 OA 
HETATM    2  C   UNL     1     -11.147  14.755  69.043  1.00  0.00    -0.256 C  
HETATM    3  H   UNL     1     -11.992  15.079  70.784  1.00  0.00     0.000 HD 
ENDROOT
BRANCH   2   4
HETATM    4  C   UNL     1     -10.068  13.817  68.478  1.00  0.00    -0.225 C  
BRANCH   4   5
HETATM    5  N   UNL     1     -10.495  13.055  67.286  1.00  0.00    -0.238 NA 
HETATM    6  C   UNL     1      -9.380  12.342  66.636  1.00  0.00    -0.227 C  
HETATM    7  C   UNL     1      -8.845  11.147  67.447  1.00  0.00    -0.139 C  
HETATM    8  N   UNL     1      -9.859  10.131  67.799  1.00  0.00    -0.159 NA 
HETATM    9  C   UNL     1     -11.536  12.062  67.641  1.00  0.00    -0.322 C  
HETATM   10  C   UNL     1     -11.027  10.811  68.404  1.00  0.00    -0.248 C  
BRANCH   8  11
HETATM   11  C   UNL     1     -10.253   9.284  66.664  1.00  0.00    -0.253 C  
BRANCH  11  12
HETATM   12  C   UNL     1      -9.811   7.822  66.815  1.00  0.00    -0.312 C  
BRANCH  12  13
HETATM   13  C   UNL     1     -11.004   6.863  66.951  1.00  0.00    -0.258 C  
BRANCH  13  14
HETATM   14  N   UNL     1     -10.643   5.687  67.783  1.00  0.00    -0.222 NA 
HETATM   15  C   UNL     1      -9.958   4.615  67.130  1.00  0.00    -0.177 A  
HETATM   16  C   UNL     1      -9.831   4.534  65.723  1.00  0.00    -0.231 A  
HETATM   17  C   UNL     1      -9.179   3.476  65.075  1.00  0.00    -0.149 A  
HETATM   18  C   UNL     1      -8.621   2.452  65.815  1.00  0.00    -0.113 A  
HETATM   19  C   UNL     1      -8.720   2.493  67.200  1.00  0.00    -0.139 A  
HETATM   20  C   UNL     1      -9.377   3.555  67.857  1.00  0.00    -0.187 A  
HETATM   21  S   UNL     1      -9.387   3.440  69.628  1.00  0.00    -0.158 SA 
HETATM   22  C   UNL     1     -10.222   4.927  70.110  1.00  0.00    -0.240 A  
HETATM   23  C   UNL     1     -10.772   5.848  69.201  1.00  0.00    -0.324 A  
HETATM   24  C   UNL     1     -11.447   6.952  69.781  1.00  0.00    -0.247 A  
HETATM   25  C   UNL     1     -11.499   7.199  71.167  1.00  0.00    -0.322 A  
HETATM   26  C   UNL     1     -10.917   6.275  72.028  1.00  0.00    -0.299 A  
HETATM   27  C   UNL     1     -12.141   8.451  71.712  1.00  0.00    -0.328 C  
HETATM   28  F   UNL     1     -12.631   9.281  70.748  1.00  0.00    -0.286 F  
HETATM   29  F   UNL     1     -11.263   9.209  72.429  1.00  0.00    -0.381 F  
HETATM   30  F   UNL     1     -13.181   8.193  72.549  1.00  0.00    -0.251 F  
HETATM   31  C   UNL     1     -10.300   5.145  71.503  1.00  0.00    -0.278 A  
ENDBRANCH  13  14
ENDBRANCH  12  13
ENDBRANCH  11  12
ENDBRANCH   8  11
ENDBRANCH   4   5
ENDBRANCH   2   4
TORSDOF 6
ENDMDL
MODEL       74
REMARK 921   NORMALIZED FREE ENERGY PREDICTED BY IDOCK:   -5.82 KCAL/MOL
REMARK 922        TOTAL FREE ENERGY PREDICTED BY IDOCK:   -8.09 KCAL/MOL
REMARK 923 INTER-LIGAND FREE ENERGY PREDICTED BY IDOCK:   -7.66 KCAL/MOL
REMARK 924 INTRA-LIGAND FREE ENERGY PREDICTED BY IDOCK:   -0.44 KCAL/MOL
REMARK 927      BINDING AFFINITY PREDICTED BY RF-SCORE:    0.00 PKD
ROOT
HETATM    1  O   UNL     1     -13.866   7.589  70.872  1.00  0.00    -0.633 OA 
HETATM    2  C   UNL     1     -13.051   8.406  71.711  1.00  0.00    -0.351 C  
HETATM    3  H   UNL     1     -14.770   7.872  70.931  1.00  0.00     0.000 HD 
ENDROOT
BRANCH   2   4
HETATM    4  C   UNL     1     -11.586   7.947  71.615  1.00  0.00    -0.272 C  
BRANCH   4   5
HETATM    5  N   UNL     1     -10.603   9.044  71.715  1.00  0.00    -0.354 NA 
HETATM    6  C   UNL     1      -9.222   8.596  71.458  1.00  0.00    -0.246 C  
HETATM    7  C   UNL     1      -8.948   8.225  69.988  1.00  0.00    -0.142 C  
HETATM    8  N   UNL     1      -9.242   9.294  69.011  1.00  0.00    -0.142 NA 
HETATM    9  C   UNL     1     -10.924  10.127  70.755  1.00  0.00    -0.242 C  
HETATM   10  C   UNL     1     -10.603   9.816  69.270  1.00  0.00    -0.221 C  
BRANCH   8  11
HETATM   11  C   UNL     1      -8.241  10.370  69.007  1.00  0.00    -0.141 C  
BRANCH  11  12
HETATM   12  C   UNL     1      -8.844  11.759  68.761  1.00  0.00     0.018 C  
BRANCH  12  13
HETATM   13  C   UNL     1      -8.055  12.560  67.712  1.00  0.00    -0.164 C  
BRANCH  13  14
HETATM   14  N   UNL     1      -8.478  13.985  67.710  1.00  0.00    -0.171 NA 
HETATM   15  C   UNL     1      -7.626  14.915  68.382  1.00  0.00    -0.113 A  
HETATM   16  C   UNL     1      -6.563  14.509  69.224  1.00  0.00    -0.125 A  
HETATM   17  C   UNL     1      -5.737  15.415  69.903  1.00  0.00    -0.132 A  
HETATM   18  C   UNL     1      -5.943  16.774  69.763  1.00  0.00    -0.226 A  
HETATM   19  C   UNL     1      -6.973  17.218  68.945  1.00  0.00    -0.233 A  
HETATM   20  C   UNL     1      -7.809  16.309  68.260  1.00  0.00    -0.164 A  
HETATM   21  S   UNL     1      -9.059  17.064  67.252  1.00  0.00    -0.226 SA 
HETATM   22  C   UNL     1      -9.862  15.665  66.516  1.00  0.00    -0.261 A  
HETATM   23  C   UNL     1      -9.543  14.329  66.816  1.00  0.00    -0.280 A  
HETATM   24  C   UNL     1     -10.334  13.350  66.164  1.00  0.00    -0.295 A  
HETATM   25  C   UNL     1     -11.315  13.651  65.198  1.00  0.00    -0.319 A  
HETATM   26  C   UNL     1     -11.578  14.985  64.912  1.00  0.00    -0.374 A  
HETATM   27  C   UNL     1     -12.045  12.554  64.462  1.00  0.00    -0.425 C  
HETATM   28  F   UNL     1     -11.653  11.298  64.817  1.00  0.00    -0.226 F  
HETATM   29  F   UNL     1     -11.853  12.624  63.113  1.00  0.00    -0.535 F  
HETATM   30  F   UNL     1     -13.391  12.593  64.650  1.00  0.00    -0.363 F  
HETATM   31  C   UNL     1     -10.869  15.980  65.577  1.00  0.00    -0.301 A  
ENDBRANCH  13  14
ENDBRANCH  12  13
ENDBRANCH  11  12
ENDBRANCH   8  11
ENDBRANCH   4   5
ENDBRANCH   2   4
TORSDOF 6
ENDMDL
MODEL       75
REMARK 921   NORMALIZED FREE ENERGY PREDICTED BY IDOCK:   -5.78 KCAL/MOL
REMARK 922        TOTAL FREE ENERGY PREDICTED BY IDOCK:   -8.04 KCAL/MOL
REMARK 923 INTER-LIGAND FREE ENERGY PREDICTED BY IDOCK:   -7.52 KCAL/MOL
REMARK 924 INTRA-LIGAND FREE ENERGY PREDICTED BY IDOCK:   -0.52 KCAL/MOL
REMARK 927      BINDING AFFINITY PREDICTED BY RF-SCORE:    0.00 PKD
ROOT
HETATM    1  O   UNL     1     -10.670   1.824  63.863  1.00  0.00    -0.368 OA 
HETATM    2  C   UNL     1      -9.290   1.990  64.183  1.00  0.00    -0.126 C  
HETATM    3  H   UNL     1     -10.774   1.762  62.921  1.00  0.00     0.000 HD 
ENDROOT
BRANCH   2   4
HETATM    4  C   UNL     1      -9.122   2.091  65.708  1.00  0.00    -0.062 C  
BRANCH   4   5
HETATM    5  N   UNL     1      -8.071   3.036  66.138  1.00  0.00    -0.085 NA 
HETATM    6  C   UNL     1      -8.019   4.249  65.301  1.00  0.00    -0.100 C  
HETATM    7  C   UNL     1      -9.220   5.194  65.495  1.00  0.00    -0.136 C  
HETATM    8  N   UNL     1      -9.441   5.640  66.887  1.00  0.00    -0.130 NA 
HETATM    9  C   UNL     1      -8.281   3.452  67.544  1.00  0.00    -0.085 C  
HETATM   10  C   UNL     1      -9.441   4.455  67.774  1.00  0.00    -0.163 C  
BRANCH   8  11
HETATM   11  C   UNL     1      -8.472   6.652  67.335  1.00  0.00    -0.120 C  
BRANCH  11  12
HETATM   12  C   UNL     1      -8.729   8.043  66.740  1.00  0.00    -0.142 C  
BRANCH  12  13
HETATM   13  C   UNL     1     -10.229   8.358  66.621  1.00  0.00    -0.265 C  
BRANCH  13  14
HETATM   14  N   UNL     1     -10.502   9.770  66.994  1.00  0.00    -0.239 NA 
HETATM   15  C   UNL     1     -10.561  10.723  65.930  1.00  0.00    -0.147 A  
HETATM   16  C   UNL     1     -10.144  10.422  64.611  1.00  0.00    -0.378 A  
HETATM   17  C   UNL     1     -10.179  11.357  63.567  1.00  0.00    -0.461 A  
HETATM   18  C   UNL     1     -10.638  12.638  63.803  1.00  0.00    -0.432 A  
HETATM   19  C   UNL     1     -11.060  12.976  65.083  1.00  0.00    -0.317 A  
HETATM   20  C   UNL     1     -11.024  12.038  66.138  1.00  0.00    -0.302 A  
HETATM   21  S   UNL     1     -11.617  12.650  67.695  1.00  0.00    -0.367 SA 
HETATM   22  C   UNL     1     -11.487  11.229  68.746  1.00  0.00    -0.293 A  
HETATM   23  C   UNL     1     -10.944   9.998  68.338  1.00  0.00    -0.217 A  
HETATM   24  C   UNL     1     -10.877   8.997  69.339  1.00  0.00    -0.152 A  
HETATM   25  C   UNL     1     -11.401   9.150  70.638  1.00  0.00    -0.323 A  
HETATM   26  C   UNL     1     -11.954  10.376  70.989  1.00  0.00    -0.481 A  
HETATM   27  C   UNL     1     -11.395   8.005  71.621  1.00  0.00    -0.262 C  
HETATM   28  F   UNL     1     -10.859   6.856  71.122  1.00  0.00    -0.243 F  
HETATM   29  F   UNL     1     -12.653   7.670  72.028  1.00  0.00    -0.304 F  
HETATM   30  F   UNL     1     -10.697   8.283  72.755  1.00  0.00    -0.375 F  
HETATM   31  C   UNL     1     -11.981  11.407  70.057  1.00  0.00    -0.442 A  
ENDBRANCH  13  14
ENDBRANCH  12  13
ENDBRANCH  11  12
ENDBRANCH   8  11
ENDBRANCH   4   5
ENDBRANCH   2   4
TORSDOF 6
ENDMDL
MODEL       76
REMARK 921   NORMALIZED FREE ENERGY PREDICTED BY IDOCK:   -5.77 KCAL/MOL
REMARK 922        TOTAL FREE ENERGY PREDICTED BY IDOCK:   -8.03 KCAL/MOL
REMARK 923 INTER-LIGAND FREE ENERGY PREDICTED BY IDOCK:   -7.57 KCAL/MOL
REMARK 924 INTRA-LIGAND FREE ENERGY PREDICTED BY IDOCK:   -0.46 KCAL/MOL
REMARK 927      BINDING AFFINITY PREDICTED BY RF-SCORE:    0.00 PKD
ROOT
HETATM    1  O   UNL     1     -12.400   5.459  72.897  1.00  0.00    -0.494 OA 
HETATM    2  C   UNL     1     -10.990   5.241  72.859  1.00  0.00    -0.287 C  
HETATM    3  H   UNL     1     -12.734   5.234  73.757  1.00  0.00     0.000 HD 
ENDROOT
BRANCH   2   4
HETATM    4  C   UNL     1     -10.449   5.606  71.467  1.00  0.00    -0.239 C  
BRANCH   4   5
HETATM    5  N   UNL     1     -11.305   6.545  70.713  1.00  0.00    -0.321 NA 
HETATM    6  C   UNL     1     -10.982   7.957  70.990  1.00  0.00    -0.244 C  
HETATM    7  C   UNL     1      -9.633   8.416  70.406  1.00  0.00    -0.169 C  
HETATM    8  N   UNL     1      -9.486   8.218  68.949  1.00  0.00    -0.151 NA 
HETATM    9  C   UNL     1     -11.177   6.318  69.255  1.00  0.00    -0.389 C  
HETATM   10  C   UNL     1      -9.857   6.824  68.616  1.00  0.00    -0.142 C  
BRANCH   8  11
HETATM   11  C   UNL     1     -10.249   9.188  68.150  1.00  0.00    -0.207 C  
BRANCH  11  12
HETATM   12  C   UNL     1      -9.823  10.642  68.392  1.00  0.00    -0.170 C  
BRANCH  12  13
HETATM   13  C   UNL     1      -8.604  11.041  67.546  1.00  0.00    -0.128 C  
BRANCH  13  14
HETATM   14  N   UNL     1      -9.022  11.452  66.180  1.00  0.00    -0.202 NA 
HETATM   15  C   UNL     1      -8.825  10.504  65.129  1.00  0.00    -0.190 A  
HETATM   16  C   UNL     1      -8.055   9.327  65.294  1.00  0.00    -0.121 A  
HETATM   17  C   UNL     1      -7.841   8.404  64.262  1.00  0.00    -0.143 A  
HETATM   18  C   UNL     1      -8.395   8.621  63.015  1.00  0.00    -0.153 A  
HETATM   19  C   UNL     1      -9.161   9.761  62.809  1.00  0.00    -0.286 A  
HETATM   20  C   UNL     1      -9.378  10.695  63.845  1.00  0.00    -0.267 A  
HETATM   21  S   UNL     1     -10.393  12.080  63.396  1.00  0.00    -0.374 SA 
HETATM   22  C   UNL     1     -10.499  12.992  64.912  1.00  0.00    -0.339 A  
HETATM   23  C   UNL     1      -9.820  12.638  66.090  1.00  0.00    -0.259 A  
HETATM   24  C   UNL     1      -9.989  13.524  67.184  1.00  0.00    -0.246 A  
HETATM   25  C   UNL     1     -10.852  14.638  67.165  1.00  0.00    -0.303 A  
HETATM   26  C   UNL     1     -11.526  14.934  65.986  1.00  0.00    -0.275 A  
HETATM   27  C   UNL     1     -11.069  15.476  68.400  1.00  0.00    -0.315 C  
HETATM   28  F   UNL     1     -10.375  15.041  69.489  1.00  0.00    -0.224 F  
HETATM   29  F   UNL     1     -12.377  15.491  68.788  1.00  0.00    -0.269 F  
HETATM   30  F   UNL     1     -10.717  16.778  68.227  1.00  0.00    -0.299 F  
HETATM   31  C   UNL     1     -11.337  14.128  64.868  1.00  0.00    -0.365 A  
ENDBRANCH  13  14
ENDBRANCH  12  13
ENDBRANCH  11  12
ENDBRANCH   8  11
ENDBRANCH   4   5
ENDBRANCH   2   4
TORSDOF 6
ENDMDL
MODEL       77
REMARK 921   NORMALIZED FREE ENERGY PREDICTED BY IDOCK:   -5.76 KCAL/MOL
REMARK 922        TOTAL FREE ENERGY PREDICTED BY IDOCK:   -8.01 KCAL/MOL
REMARK 923 INTER-LIGAND FREE ENERGY PREDICTED BY IDOCK:   -7.80 KCAL/MOL
REMARK 924 INTRA-LIGAND FREE ENERGY PREDICTED BY IDOCK:   -0.22 KCAL/MOL
REMARK 927      BINDING AFFINITY PREDICTED BY RF-SCORE:    0.00 PKD
ROOT
HETATM    1  O   UNL     1      -8.304  11.594  62.647  1.00  0.00    -0.627 OA 
HETATM    2  C   UNL     1      -9.549  10.907  62.767  1.00  0.00    -0.308 C  
HETATM    3  H   UNL     1      -7.616  10.975  62.435  1.00  0.00     0.000 HD 
ENDROOT
BRANCH   2   4
HETATM    4  C   UNL     1     -10.663  11.909  63.111  1.00  0.00    -0.244 C  
BRANCH   4   5
HETATM    5  N   UNL     1     -11.464  11.536  64.294  1.00  0.00    -0.252 NA 
HETATM    6  C   UNL     1     -10.643  11.357  65.506  1.00  0.00    -0.271 C  
HETATM    7  C   UNL     1     -10.066  12.669  66.069  1.00  0.00    -0.262 C  
HETATM    8  N   UNL     1     -11.071  13.707  66.380  1.00  0.00    -0.301 NA 
HETATM    9  C   UNL     1     -12.491  12.566  64.579  1.00  0.00    -0.459 C  
HETATM   10  C   UNL     1     -11.958  13.880  65.208  1.00  0.00    -0.375 C  
BRANCH   8  11
HETATM   11  C   UNL     1     -11.837  13.428  67.604  1.00  0.00    -0.354 C  
BRANCH  11  12
HETATM   12  C   UNL     1     -11.690  11.981  68.094  1.00  0.00    -0.398 C  
BRANCH  12  13
HETATM   13  C   UNL     1     -10.817  11.879  69.356  1.00  0.00    -0.032 C  
BRANCH  13  14
HETATM   14  N   UNL     1     -10.649  10.461  69.768  1.00  0.00    -0.260 NA 
HETATM   15  C   UNL     1     -11.664   9.905  70.607  1.00  0.00    -0.323 A  
HETATM   16  C   UNL     1     -12.658  10.696  71.232  1.00  0.00    -0.533 A  
HETATM   17  C   UNL     1     -13.644  10.160  72.072  1.00  0.00    -0.328 A  
HETATM   18  C   UNL     1     -13.675   8.801  72.320  1.00  0.00    -0.494 A  
HETATM   19  C   UNL     1     -12.721   7.987  71.724  1.00  0.00    -0.352 A  
HETATM   20  C   UNL     1     -11.725   8.522  70.879  1.00  0.00    -0.245 A  
HETATM   21  S   UNL     1     -10.604   7.325  70.201  1.00  0.00    -0.237 SA 
HETATM   22  C   UNL     1      -9.554   8.314  69.171  1.00  0.00    -0.160 A  
HETATM   23  C   UNL     1      -9.642   9.714  69.076  1.00  0.00    -0.168 A  
HETATM   24  C   UNL     1      -8.678  10.332  68.239  1.00  0.00    -0.126 A  
HETATM   25  C   UNL     1      -7.745   9.620  67.460  1.00  0.00    -0.095 A  
HETATM   26  C   UNL     1      -7.712   8.235  67.565  1.00  0.00    -0.099 A  
HETATM   27  C   UNL     1      -6.819  10.336  66.507  1.00  0.00    -0.101 C  
HETATM   28  F   UNL     1      -6.994  11.687  66.482  1.00  0.00    -0.130 F  
HETATM   29  F   UNL     1      -6.991   9.925  65.218  1.00  0.00    -0.096 F  
HETATM   30  F   UNL     1      -5.505  10.134  66.791  1.00  0.00    -0.042 F  
HETATM   31  C   UNL     1      -8.597   7.593  68.424  1.00  0.00    -0.124 A  
ENDBRANCH  13  14
ENDBRANCH  12  13
ENDBRANCH  11  12
ENDBRANCH   8  11
ENDBRANCH   4   5
ENDBRANCH   2   4
TORSDOF 6
ENDMDL
MODEL       78
REMARK 921   NORMALIZED FREE ENERGY PREDICTED BY IDOCK:   -5.75 KCAL/MOL
REMARK 922        TOTAL FREE ENERGY PREDICTED BY IDOCK:   -8.00 KCAL/MOL
REMARK 923 INTER-LIGAND FREE ENERGY PREDICTED BY IDOCK:   -7.28 KCAL/MOL
REMARK 924 INTRA-LIGAND FREE ENERGY PREDICTED BY IDOCK:   -0.72 KCAL/MOL
REMARK 927      BINDING AFFINITY PREDICTED BY RF-SCORE:    0.00 PKD
ROOT
HETATM    1  O   UNL     1     -12.524  14.105  63.266  1.00  0.00    -1.146 OA 
HETATM    2  C   UNL     1     -12.379  14.952  64.405  1.00  0.00    -0.323 C  
HETATM    3  H   UNL     1     -12.477  14.626  62.473  1.00  0.00     0.000 HD 
ENDROOT
BRANCH   2   4
HETATM    4  C   UNL     1     -12.456  14.109  65.689  1.00  0.00    -0.469 C  
BRANCH   4   5
HETATM    5  N   UNL     1     -11.196  14.065  66.458  1.00  0.00    -0.314 NA 
HETATM    6  C   UNL     1     -11.413  13.802  67.893  1.00  0.00    -0.314 C  
HETATM    7  C   UNL     1     -11.877  12.367  68.201  1.00  0.00    -0.315 C  
HETATM    8  N   UNL     1     -10.984  11.302  67.699  1.00  0.00    -0.240 NA 
HETATM    9  C   UNL     1     -10.292  13.019  65.927  1.00  0.00    -0.288 C  
HETATM   10  C   UNL     1     -10.690  11.559  66.271  1.00  0.00    -0.272 C  
BRANCH   8  11
HETATM   11  C   UNL     1      -9.751  11.156  68.488  1.00  0.00    -0.196 C  
BRANCH  11  12
HETATM   12  C   UNL     1      -9.582   9.758  69.096  1.00  0.00    -0.192 C  
BRANCH  12  13
HETATM   13  C   UNL     1     -10.375   8.688  68.328  1.00  0.00    -0.207 C  
BRANCH  13  14
HETATM   14  N   UNL     1      -9.569   7.451  68.164  1.00  0.00    -0.141 NA 
HETATM   15  C   UNL     1      -9.729   6.435  69.158  1.00  0.00    -0.136 A  
HETATM   16  C   UNL     1     -10.419   6.658  70.374  1.00  0.00    -0.249 A  
HETATM   17  C   UNL     1     -10.562   5.674  71.362  1.00  0.00    -0.317 A  
HETATM   18  C   UNL     1     -10.019   4.418  71.169  1.00  0.00    -0.243 A  
HETATM   19  C   UNL     1      -9.336   4.155  69.988  1.00  0.00    -0.237 A  
HETATM   20  C   UNL     1      -9.188   5.144  68.991  1.00  0.00    -0.117 A  
HETATM   21  S   UNL     1      -8.298   4.616  67.549  1.00  0.00    -0.104 SA 
HETATM   22  C   UNL     1      -8.352   6.053  66.512  1.00  0.00    -0.113 A  
HETATM   23  C   UNL     1      -8.919   7.280  66.899  1.00  0.00    -0.135 A  
HETATM   24  C   UNL     1      -8.818   8.328  65.950  1.00  0.00    -0.197 A  
HETATM   25  C   UNL     1      -8.283   8.165  64.656  1.00  0.00    -0.128 A  
HETATM   26  C   UNL     1      -7.759   6.926  64.306  1.00  0.00    -0.113 A  
HETATM   27  C   UNL     1      -8.305   9.295  63.656  1.00  0.00    -0.185 C  
HETATM   28  F   UNL     1      -8.887  10.434  64.127  1.00  0.00    -0.169 F  
HETATM   29  F   UNL     1      -9.004   8.971  62.530  1.00  0.00    -0.229 F  
HETATM   30  F   UNL     1      -7.064   9.655  63.235  1.00  0.00    -0.098 F  
HETATM   31  C   UNL     1      -7.780   5.888  65.232  1.00  0.00    -0.095 A  
ENDBRANCH  13  14
ENDBRANCH  12  13
ENDBRANCH  11  12
ENDBRANCH   8  11
ENDBRANCH   4   5
ENDBRANCH   2   4
TORSDOF 6
ENDMDL
MODEL       79
REMARK 921   NORMALIZED FREE ENERGY PREDICTED BY IDOCK:   -5.75 KCAL/MOL
REMARK 922        TOTAL FREE ENERGY PREDICTED BY IDOCK:   -8.00 KCAL/MOL
REMARK 923 INTER-LIGAND FREE ENERGY PREDICTED BY IDOCK:   -7.27 KCAL/MOL
REMARK 924 INTRA-LIGAND FREE ENERGY PREDICTED BY IDOCK:   -0.72 KCAL/MOL
REMARK 927      BINDING AFFINITY PREDICTED BY RF-SCORE:    0.00 PKD
ROOT
HETATM    1  O   UNL     1     -10.360  15.993  68.148  1.00  0.00    -0.247 OA 
HETATM    2  C   UNL     1     -11.060  14.766  68.346  1.00  0.00    -0.263 C  
HETATM    3  H   UNL     1     -10.969  16.721  68.200  1.00  0.00     0.000 HD 
ENDROOT
BRANCH   2   4
HETATM    4  C   UNL     1     -10.074  13.589  68.262  1.00  0.00    -0.247 C  
BRANCH   4   5
HETATM    5  N   UNL     1     -10.319  12.677  67.126  1.00  0.00    -0.231 NA 
HETATM    6  C   UNL     1      -9.217  11.721  66.916  1.00  0.00    -0.189 C  
HETATM    7  C   UNL     1      -9.109  10.641  68.009  1.00  0.00    -0.147 C  
HETATM    8  N   UNL     1     -10.336   9.845  68.220  1.00  0.00    -0.190 NA 
HETATM    9  C   UNL     1     -11.569  11.907  67.329  1.00  0.00    -0.293 C  
HETATM   10  C   UNL     1     -11.483  10.767  68.378  1.00  0.00    -0.288 C  
BRANCH   8  11
HETATM   11  C   UNL     1     -10.578   8.856  67.159  1.00  0.00    -0.231 C  
BRANCH  11  12
HETATM   12  C   UNL     1     -10.041   7.459  67.497  1.00  0.00    -0.250 C  
BRANCH  12  13
HETATM   13  C   UNL     1     -11.159   6.491  67.914  1.00  0.00    -0.255 C  
BRANCH  13  14
HETATM   14  N   UNL     1     -10.790   5.762  69.155  1.00  0.00    -0.309 NA 
HETATM   15  C   UNL     1      -9.928   4.630  69.011  1.00  0.00    -0.116 A  
HETATM   16  C   UNL     1      -9.623   4.057  67.753  1.00  0.00    -0.204 A  
HETATM   17  C   UNL     1      -8.796   2.935  67.606  1.00  0.00    -0.163 A  
HETATM   18  C   UNL     1      -8.236   2.339  68.720  1.00  0.00    -0.074 A  
HETATM   19  C   UNL     1      -8.506   2.871  69.974  1.00  0.00    -0.091 A  
HETATM   20  C   UNL     1      -9.340   3.999  70.128  1.00  0.00    -0.170 A  
HETATM   21  S   UNL     1      -9.556   4.540  71.804  1.00  0.00    -0.168 SA 
HETATM   22  C   UNL     1     -10.585   5.972  71.621  1.00  0.00    -0.236 A  
HETATM   23  C   UNL     1     -11.107   6.412  70.392  1.00  0.00    -0.339 A  
HETATM   24  C   UNL     1     -11.953   7.547  70.458  1.00  0.00    -0.088 A  
HETATM   25  C   UNL     1     -12.198   8.276  71.639  1.00  0.00    -0.350 A  
HETATM   26  C   UNL     1     -11.638   7.820  72.827  1.00  0.00    -0.368 A  
HETATM   27  C   UNL     1     -13.021   9.540  71.618  1.00  0.00    -0.396 C  
HETATM   28  F   UNL     1     -13.468   9.884  70.377  1.00  0.00    -0.256 F  
HETATM   29  F   UNL     1     -12.316  10.620  72.060  1.00  0.00    -0.388 F  
HETATM   30  F   UNL     1     -14.126   9.467  72.407  1.00  0.00    -0.444 F  
HETATM   31  C   UNL     1     -10.854   6.672  72.818  1.00  0.00    -0.283 A  
ENDBRANCH  13  14
ENDBRANCH  12  13
ENDBRANCH  11  12
ENDBRANCH   8  11
ENDBRANCH   4   5
ENDBRANCH   2   4
TORSDOF 6
ENDMDL
MODEL       80
REMARK 921   NORMALIZED FREE ENERGY PREDICTED BY IDOCK:   -5.74 KCAL/MOL
REMARK 922        TOTAL FREE ENERGY PREDICTED BY IDOCK:   -7.99 KCAL/MOL
REMARK 923 INTER-LIGAND FREE ENERGY PREDICTED BY IDOCK:   -7.37 KCAL/MOL
REMARK 924 INTRA-LIGAND FREE ENERGY PREDICTED BY IDOCK:   -0.62 KCAL/MOL
REMARK 927      BINDING AFFINITY PREDICTED BY RF-SCORE:    0.00 PKD
ROOT
HETATM    1  O   UNL     1      -9.443   2.781  64.664  1.00  0.00    -0.151 OA 
HETATM    2  C   UNL     1      -8.022   2.900  64.697  1.00  0.00    -0.078 C  
HETATM    3  H   UNL     1      -9.685   1.942  64.290  1.00  0.00     0.000 HD 
ENDROOT
BRANCH   2   4
HETATM    4  C   UNL     1      -7.630   4.258  65.302  1.00  0.00    -0.085 C  
BRANCH   4   5
HETATM    5  N   UNL     1      -8.531   5.367  64.927  1.00  0.00    -0.149 NA 
HETATM    6  C   UNL     1      -9.062   6.089  66.098  1.00  0.00    -0.147 C  
HETATM    7  C   UNL     1      -8.011   6.936  66.840  1.00  0.00    -0.109 C  
HETATM    8  N   UNL     1      -7.311   7.932  66.002  1.00  0.00    -0.073 NA 
HETATM    9  C   UNL     1      -7.831   6.343  64.060  1.00  0.00    -0.111 C  
HETATM   10  C   UNL     1      -6.809   7.260  64.782  1.00  0.00    -0.050 C  
BRANCH   8  11
HETATM   11  C   UNL     1      -8.138   9.103  65.675  1.00  0.00    -0.113 C  
BRANCH  11  12
HETATM   12  C   UNL     1      -8.885   9.675  66.887  1.00  0.00    -0.143 C  
BRANCH  12  13
HETATM   13  C   UNL     1     -10.408   9.510  66.764  1.00  0.00    -0.228 C  
BRANCH  13  14
HETATM   14  N   UNL     1     -11.107  10.242  67.853  1.00  0.00    -0.297 NA 
HETATM   15  C   UNL     1     -11.150   9.611  69.135  1.00  0.00    -0.092 A  
HETATM   16  C   UNL     1     -10.777   8.260  69.336  1.00  0.00    -0.160 A  
HETATM   17  C   UNL     1     -10.837   7.629  70.586  1.00  0.00    -0.245 A  
HETATM   18  C   UNL     1     -11.273   8.331  71.693  1.00  0.00    -0.330 A  
HETATM   19  C   UNL     1     -11.646   9.660  71.542  1.00  0.00    -0.451 A  
HETATM   20  C   UNL     1     -11.590  10.300  70.285  1.00  0.00    -0.316 A  
HETATM   21  S   UNL     1     -12.092  12.002  70.294  1.00  0.00    -0.245 SA 
HETATM   22  C   UNL     1     -11.846  12.489  68.608  1.00  0.00    -0.297 A  
HETATM   23  C   UNL     1     -11.432  11.612  67.590  1.00  0.00    -0.303 A  
HETATM   24  C   UNL     1     -11.343  12.178  66.293  1.00  0.00    -0.411 A  
HETATM   25  C   UNL     1     -11.549  13.545  66.019  1.00  0.00    -0.363 A  
HETATM   26  C   UNL     1     -11.931  14.381  67.062  1.00  0.00    -0.424 A  
HETATM   27  C   UNL     1     -11.332  14.103  64.633  1.00  0.00    -0.371 C  
HETATM   28  F   UNL     1     -10.920  13.173  63.725  1.00  0.00    -0.403 F  
HETATM   29  F   UNL     1     -10.375  15.074  64.615  1.00  0.00    -0.400 F  
HETATM   30  F   UNL     1     -12.450  14.670  64.108  1.00  0.00    -0.503 F  
HETATM   31  C   UNL     1     -12.092  13.853  68.338  1.00  0.00    -0.327 A  
ENDBRANCH  13  14
ENDBRANCH  12  13
ENDBRANCH  11  12
ENDBRANCH   8  11
ENDBRANCH   4   5
ENDBRANCH   2   4
TORSDOF 6
ENDMDL
MODEL       81
REMARK 921   NORMALIZED FREE ENERGY PREDICTED BY IDOCK:   -5.73 KCAL/MOL
REMARK 922        TOTAL FREE ENERGY PREDICTED BY IDOCK:   -7.98 KCAL/MOL
REMARK 923 INTER-LIGAND FREE ENERGY PREDICTED BY IDOCK:   -7.25 KCAL/MOL
REMARK 924 INTRA-LIGAND FREE ENERGY PREDICTED BY IDOCK:   -0.72 KCAL/MOL
REMARK 927      BINDING AFFINITY PREDICTED BY RF-SCORE:    0.00 PKD
ROOT
HETATM    1  O   UNL     1     -12.616  14.224  63.948  1.00  0.00    -0.801 OA 
HETATM    2  C   UNL     1     -12.014  13.070  63.364  1.00  0.00    -0.520 C  
HETATM    3  H   UNL     1     -12.817  14.858  63.269  1.00  0.00     0.000 HD 
ENDROOT
BRANCH   2   4
HETATM    4  C   UNL     1     -11.688  12.045  64.463  1.00  0.00    -0.305 C  
BRANCH   4   5
HETATM    5  N   UNL     1     -10.415  12.299  65.166  1.00  0.00    -0.279 NA 
HETATM    6  C   UNL     1     -10.613  12.846  66.522  1.00  0.00    -0.259 C  
HETATM    7  C   UNL     1     -11.190  11.832  67.527  1.00  0.00    -0.291 C  
HETATM    8  N   UNL     1     -10.405  10.588  67.675  1.00  0.00    -0.204 NA 
HETATM    9  C   UNL     1      -9.619  11.054  65.281  1.00  0.00    -0.227 C  
HETATM   10  C   UNL     1     -10.132  10.033  66.330  1.00  0.00    -0.241 C  
BRANCH   8  11
HETATM   11  C   UNL     1      -9.168  10.769  68.449  1.00  0.00    -0.164 C  
BRANCH  11  12
HETATM   12  C   UNL     1      -8.421   9.455  68.715  1.00  0.00    -0.122 C  
BRANCH  12  13
HETATM   13  C   UNL     1      -8.257   9.172  70.216  1.00  0.00    -0.159 C  
BRANCH  13  14
HETATM   14  N   UNL     1      -8.721   7.800  70.547  1.00  0.00    -0.139 NA 
HETATM   15  C   UNL     1      -7.719   6.788  70.673  1.00  0.00    -0.097 A  
HETATM   16  C   UNL     1      -6.376   6.987  70.271  1.00  0.00    -0.038 A  
HETATM   17  C   UNL     1      -5.393   5.994  70.372  1.00  0.00    -0.013 A  
HETATM   18  C   UNL     1      -5.716   4.753  70.885  1.00  0.00    -0.016 A  
HETATM   19  C   UNL     1      -7.022   4.514  71.295  1.00  0.00    -0.039 A  
HETATM   20  C   UNL     1      -8.016   5.511  71.194  1.00  0.00    -0.111 A  
HETATM   21  S   UNL     1      -9.619   5.024  71.781  1.00  0.00    -0.160 SA 
HETATM   22  C   UNL     1     -10.577   6.499  71.562  1.00  0.00    -0.229 A  
HETATM   23  C   UNL     1     -10.084   7.675  70.970  1.00  0.00    -0.189 A  
HETATM   24  C   UNL     1     -11.020   8.731  70.835  1.00  0.00    -0.315 A  
HETATM   25  C   UNL     1     -12.336   8.682  71.338  1.00  0.00    -0.344 A  
HETATM   26  C   UNL     1     -12.772   7.508  71.941  1.00  0.00    -0.318 A  
HETATM   27  C   UNL     1     -13.246   9.883  71.258  1.00  0.00    -0.383 C  
HETATM   28  F   UNL     1     -12.667  10.973  70.679  1.00  0.00    -0.375 F  
HETATM   29  F   UNL     1     -13.654  10.303  72.490  1.00  0.00    -0.433 F  
HETATM   30  F   UNL     1     -14.382   9.642  70.550  1.00  0.00    -0.100 F  
HETATM   31  C   UNL     1     -11.905   6.425  72.036  1.00  0.00    -0.382 A  
ENDBRANCH  13  14
ENDBRANCH  12  13
ENDBRANCH  11  12
ENDBRANCH   8  11
ENDBRANCH   4   5
ENDBRANCH   2   4
TORSDOF 6
ENDMDL
MODEL       82
REMARK 921   NORMALIZED FREE ENERGY PREDICTED BY IDOCK:   -5.72 KCAL/MOL
REMARK 922        TOTAL FREE ENERGY PREDICTED BY IDOCK:   -7.96 KCAL/MOL
REMARK 923 INTER-LIGAND FREE ENERGY PREDICTED BY IDOCK:   -7.39 KCAL/MOL
REMARK 924 INTRA-LIGAND FREE ENERGY PREDICTED BY IDOCK:   -0.57 KCAL/MOL
REMARK 927      BINDING AFFINITY PREDICTED BY RF-SCORE:    0.00 PKD
ROOT
HETATM    1  O   UNL     1     -14.240   7.227  70.771  1.00  0.00    -0.461 OA 
HETATM    2  C   UNL     1     -13.754   8.085  71.802  1.00  0.00    -0.359 C  
HETATM    3  H   UNL     1     -15.162   7.398  70.621  1.00  0.00     0.000 HD 
ENDROOT
BRANCH   2   4
HETATM    4  C   UNL     1     -12.261   7.808  72.045  1.00  0.00    -0.305 C  
BRANCH   4   5
HETATM    5  N   UNL     1     -11.411   9.015  72.016  1.00  0.00    -0.363 NA 
HETATM    6  C   UNL     1      -9.971   8.698  72.046  1.00  0.00    -0.329 C  
HETATM    7  C   UNL     1      -9.445   8.060  70.747  1.00  0.00    -0.161 C  
HETATM    8  N   UNL     1      -9.686   8.852  69.522  1.00  0.00    -0.170 NA 
HETATM    9  C   UNL     1     -11.683   9.821  70.802  1.00  0.00    -0.328 C  
HETATM   10  C   UNL     1     -11.113   9.243  69.480  1.00  0.00    -0.080 C  
BRANCH   8  11
HETATM   11  C   UNL     1      -8.800  10.019  69.400  1.00  0.00    -0.190 C  
BRANCH  11  12
HETATM   12  C   UNL     1      -9.343  11.096  68.451  1.00  0.00    -0.185 C  
BRANCH  12  13
HETATM   13  C   UNL     1      -8.239  11.713  67.577  1.00  0.00    -0.148 C  
BRANCH  13  14
HETATM   14  N   UNL     1      -8.293  11.168  66.196  1.00  0.00    -0.165 NA 
HETATM   15  C   UNL     1      -7.454  10.047  65.908  1.00  0.00    -0.115 A  
HETATM   16  C   UNL     1      -6.436   9.608  66.787  1.00  0.00    -0.067 A  
HETATM   17  C   UNL     1      -5.596   8.522  66.502  1.00  0.00    -0.039 A  
HETATM   18  C   UNL     1      -5.745   7.827  65.318  1.00  0.00    -0.037 A  
HETATM   19  C   UNL     1      -6.734   8.222  64.426  1.00  0.00    -0.066 A  
HETATM   20  C   UNL     1      -7.581   9.316  64.708  1.00  0.00    -0.109 A  
HETATM   21  S   UNL     1      -8.792   9.660  63.457  1.00  0.00    -0.213 SA 
HETATM   22  C   UNL     1      -9.693  11.019  64.150  1.00  0.00    -0.285 A  
HETATM   23  C   UNL     1      -9.365  11.638  65.369  1.00  0.00    -0.127 A  
HETATM   24  C   UNL     1     -10.173  12.745  65.730  1.00  0.00    -0.302 A  
HETATM   25  C   UNL     1     -11.300  13.166  64.997  1.00  0.00    -0.325 A  
HETATM   26  C   UNL     1     -11.603  12.506  63.812  1.00  0.00    -0.552 A  
HETATM   27  C   UNL     1     -12.182  14.284  65.496  1.00  0.00    -0.402 C  
HETATM   28  F   UNL     1     -11.783  14.806  66.691  1.00  0.00    -0.361 F  
HETATM   29  F   UNL     1     -13.468  13.876  65.692  1.00  0.00    -0.422 F  
HETATM   30  F   UNL     1     -12.249  15.333  64.633  1.00  0.00    -0.354 F  
HETATM   31  C   UNL     1     -10.798  11.456  63.387  1.00  0.00    -0.375 A  
ENDBRANCH  13  14
ENDBRANCH  12  13
ENDBRANCH  11  12
ENDBRANCH   8  11
ENDBRANCH   4   5
ENDBRANCH   2   4
TORSDOF 6
ENDMDL
MODEL       83
REMARK 921   NORMALIZED FREE ENERGY PREDICTED BY IDOCK:   -5.69 KCAL/MOL
REMARK 922        TOTAL FREE ENERGY PREDICTED BY IDOCK:   -7.92 KCAL/MOL
REMARK 923 INTER-LIGAND FREE ENERGY PREDICTED BY IDOCK:   -7.21 KCAL/MOL
REMARK 924 INTRA-LIGAND FREE ENERGY PREDICTED BY IDOCK:   -0.71 KCAL/MOL
REMARK 927      BINDING AFFINITY PREDICTED BY RF-SCORE:    0.00 PKD
ROOT
HETATM    1  O   UNL     1     -14.388  13.469  72.579  1.00  0.00    -0.713 OA 
HETATM    2  C   UNL     1     -13.294  12.743  72.022  1.00  0.00    -0.466 C  
HETATM    3  H   UNL     1     -15.010  12.864  72.965  1.00  0.00     0.000 HD 
ENDROOT
BRANCH   2   4
HETATM    4  C   UNL     1     -12.287  13.724  71.396  1.00  0.00    -0.252 C  
BRANCH   4   5
HETATM    5  N   UNL     1     -12.746  14.333  70.131  1.00  0.00    -0.279 NA 
HETATM    6  C   UNL     1     -12.402  15.764  70.032  1.00  0.00    -0.219 C  
HETATM    7  C   UNL     1     -10.897  16.033  69.842  1.00  0.00    -0.351 C  
HETATM    8  N   UNL     1     -10.288  15.362  68.675  1.00  0.00    -0.228 NA 
HETATM    9  C   UNL     1     -12.156  13.633  68.966  1.00  0.00    -0.309 C  
HETATM   10  C   UNL     1     -10.657  13.928  68.702  1.00  0.00    -0.257 C  
BRANCH   8  11
HETATM   11  C   UNL     1     -10.641  15.988  67.392  1.00  0.00    -0.316 C  
BRANCH  11  12
HETATM   12  C   UNL     1      -9.705  17.139  67.001  1.00  0.00    -0.265 C  
BRANCH  12  13
HETATM   13  C   UNL     1      -8.377  16.637  66.412  1.00  0.00    -0.318 C  
BRANCH  13  14
HETATM   14  N   UNL     1      -7.282  16.750  67.410  1.00  0.00    -0.149 NA 
HETATM   15  C   UNL     1      -6.923  18.067  67.834  1.00  0.00    -0.211 A  
HETATM   16  C   UNL     1      -7.390  19.234  67.182  1.00  0.00    -0.226 A  
HETATM   17  C   UNL     1      -7.027  20.528  67.578  1.00  0.00    -0.370 A  
HETATM   18  C   UNL     1      -6.177  20.707  68.653  1.00  0.00    -0.341 A  
HETATM   19  C   UNL     1      -5.696  19.590  69.323  1.00  0.00    -0.259 A  
HETATM   20  C   UNL     1      -6.058  18.284  68.926  1.00  0.00    -0.217 A  
HETATM   21  S   UNL     1      -5.357  16.986  69.913  1.00  0.00    -0.205 SA 
HETATM   22  C   UNL     1      -6.051  15.527  69.187  1.00  0.00    -0.110 A  
HETATM   23  C   UNL     1      -6.877  15.533  68.049  1.00  0.00    -0.136 A  
HETATM   24  C   UNL     1      -7.291  14.258  67.586  1.00  0.00    -0.192 A  
HETATM   25  C   UNL     1      -7.001  13.051  68.252  1.00  0.00    -0.101 A  
HETATM   26  C   UNL     1      -6.205  13.095  69.390  1.00  0.00    -0.111 A  
HETATM   27  C   UNL     1      -7.566  11.738  67.766  1.00  0.00    -0.127 C  
HETATM   28  F   UNL     1      -8.361  11.857  66.665  1.00  0.00    -0.174 F  
HETATM   29  F   UNL     1      -8.342  11.132  68.708  1.00  0.00    -0.135 F  
HETATM   30  F   UNL     1      -6.603  10.836  67.437  1.00  0.00    -0.064 F  
HETATM   31  C   UNL     1      -5.723  14.319  69.841  1.00  0.00    -0.111 A  
ENDBRANCH  13  14
ENDBRANCH  12  13
ENDBRANCH  11  12
ENDBRANCH   8  11
ENDBRANCH   4   5
ENDBRANCH   2   4
TORSDOF 6
ENDMDL
MODEL       84
REMARK 921   NORMALIZED FREE ENERGY PREDICTED BY IDOCK:   -5.69 KCAL/MOL
REMARK 922        TOTAL FREE ENERGY PREDICTED BY IDOCK:   -7.92 KCAL/MOL
REMARK 923 INTER-LIGAND FREE ENERGY PREDICTED BY IDOCK:   -7.20 KCAL/MOL
REMARK 924 INTRA-LIGAND FREE ENERGY PREDICTED BY IDOCK:   -0.73 KCAL/MOL
REMARK 927      BINDING AFFINITY PREDICTED BY RF-SCORE:    0.00 PKD
ROOT
HETATM    1  O   UNL     1      -9.935  18.079  66.372  1.00  0.00    -0.334 OA 
HETATM    2  C   UNL     1     -10.545  17.881  67.646  1.00  0.00    -0.387 C  
HETATM    3  H   UNL     1     -10.037  18.985  66.106  1.00  0.00     0.000 HD 
ENDROOT
BRANCH   2   4
HETATM    4  C   UNL     1     -10.380  16.415  68.077  1.00  0.00    -0.288 C  
BRANCH   4   5
HETATM    5  N   UNL     1     -10.623  15.438  66.996  1.00  0.00    -0.303 NA 
HETATM    6  C   UNL     1      -9.542  14.441  66.877  1.00  0.00    -0.256 C  
HETATM    7  C   UNL     1      -9.490  13.433  68.040  1.00  0.00    -0.218 C  
HETATM    8  N   UNL     1     -10.743  12.684  68.270  1.00  0.00    -0.223 NA 
HETATM    9  C   UNL     1     -11.897  14.715  67.217  1.00  0.00    -0.351 C  
HETATM   10  C   UNL     1     -11.868  13.644  68.339  1.00  0.00    -0.372 C  
BRANCH   8  11
HETATM   11  C   UNL     1     -10.986  11.635  67.269  1.00  0.00    -0.267 C  
BRANCH  11  12
HETATM   12  C   UNL     1      -9.826  10.638  67.140  1.00  0.00    -0.208 C  
BRANCH  12  13
HETATM   13  C   UNL     1     -10.298   9.179  67.230  1.00  0.00    -0.270 C  
BRANCH  13  14
HETATM   14  N   UNL     1      -9.498   8.426  68.231  1.00  0.00    -0.138 NA 
HETATM   15  C   UNL     1      -8.213   7.959  67.815  1.00  0.00    -0.129 A  
HETATM   16  C   UNL     1      -7.793   7.976  66.463  1.00  0.00    -0.097 A  
HETATM   17  C   UNL     1      -6.543   7.501  66.045  1.00  0.00    -0.046 A  
HETATM   18  C   UNL     1      -5.655   6.987  66.971  1.00  0.00    -0.018 A  
HETATM   19  C   UNL     1      -6.025   6.953  68.309  1.00  0.00    -0.028 A  
HETATM   20  C   UNL     1      -7.284   7.429  68.735  1.00  0.00    -0.090 A  
HETATM   21  S   UNL     1      -7.568   7.317  70.483  1.00  0.00    -0.089 SA 
HETATM   22  C   UNL     1      -9.178   8.037  70.662  1.00  0.00    -0.154 A  
HETATM   23  C   UNL     1      -9.967   8.472  69.584  1.00  0.00    -0.192 A  
HETATM   24  C   UNL     1     -11.249   8.972  69.926  1.00  0.00    -0.092 A  
HETATM   25  C   UNL     1     -11.700   9.133  71.252  1.00  0.00    -0.396 A  
HETATM   26  C   UNL     1     -10.873   8.714  72.288  1.00  0.00    -0.392 A  
HETATM   27  C   UNL     1     -13.033   9.773  71.549  1.00  0.00    -0.407 C  
HETATM   28  F   UNL     1     -13.713  10.170  70.436  1.00  0.00    -0.291 F  
HETATM   29  F   UNL     1     -12.906  10.896  72.313  1.00  0.00    -0.497 F  
HETATM   30  F   UNL     1     -13.877   8.952  72.229  1.00  0.00    -0.380 F  
HETATM   31  C   UNL     1      -9.634   8.158  71.993  1.00  0.00    -0.284 A  
ENDBRANCH  13  14
ENDBRANCH  12  13
ENDBRANCH  11  12
ENDBRANCH   8  11
ENDBRANCH   4   5
ENDBRANCH   2   4
TORSDOF 6
ENDMDL
MODEL       85
REMARK 921   NORMALIZED FREE ENERGY PREDICTED BY IDOCK:   -5.64 KCAL/MOL
REMARK 922        TOTAL FREE ENERGY PREDICTED BY IDOCK:   -7.86 KCAL/MOL
REMARK 923 INTER-LIGAND FREE ENERGY PREDICTED BY IDOCK:   -7.35 KCAL/MOL
REMARK 924 INTRA-LIGAND FREE ENERGY PREDICTED BY IDOCK:   -0.51 KCAL/MOL
REMARK 927      BINDING AFFINITY PREDICTED BY RF-SCORE:    0.00 PKD
ROOT
HETATM    1  O   UNL     1     -11.715   4.809  73.669  1.00  0.00    -0.373 OA 
HETATM    2  C   UNL     1     -10.380   5.312  73.706  1.00  0.00    -0.245 C  
HETATM    3  H   UNL     1     -11.702   3.862  73.739  1.00  0.00     0.000 HD 
ENDROOT
BRANCH   2   4
HETATM    4  C   UNL     1     -10.402   6.845  73.591  1.00  0.00    -0.365 C  
BRANCH   4   5
HETATM    5  N   UNL     1      -9.519   7.383  72.536  1.00  0.00    -0.147 NA 
HETATM    6  C   UNL     1      -9.418   6.489  71.368  1.00  0.00    -0.158 C  
HETATM    7  C   UNL     1     -10.705   6.415  70.524  1.00  0.00    -0.257 C  
HETATM    8  N   UNL     1     -11.199   7.717  70.029  1.00  0.00    -0.191 NA 
HETATM    9  C   UNL     1     -10.003   8.703  72.069  1.00  0.00    -0.329 C  
HETATM   10  C   UNL     1     -11.261   8.667  71.162  1.00  0.00    -0.272 C  
BRANCH   8  11
HETATM   11  C   UNL     1     -10.406   8.255  68.914  1.00  0.00    -0.215 C  
BRANCH  11  12
HETATM   12  C   UNL     1     -10.901   9.621  68.421  1.00  0.00    -0.212 C  
BRANCH  12  13
HETATM   13  C   UNL     1      -9.792  10.427  67.726  1.00  0.00    -0.168 C  
BRANCH  13  14
HETATM   14  N   UNL     1     -10.180  10.763  66.331  1.00  0.00    -0.233 NA 
HETATM   15  C   UNL     1     -10.910  11.977  66.135  1.00  0.00    -0.286 A  
HETATM   16  C   UNL     1     -11.464  12.717  67.207  1.00  0.00    -0.393 A  
HETATM   17  C   UNL     1     -12.198  13.897  67.021  1.00  0.00    -0.392 A  
HETATM   18  C   UNL     1     -12.406  14.387  65.746  1.00  0.00    -0.345 A  
HETATM   19  C   UNL     1     -11.877  13.693  64.665  1.00  0.00    -0.427 A  
HETATM   20  C   UNL     1     -11.139  12.504  64.847  1.00  0.00    -0.299 A  
HETATM   21  S   UNL     1     -10.533  11.769  63.349  1.00  0.00    -0.419 SA 
HETATM   22  C   UNL     1      -9.629  10.365  63.943  1.00  0.00    -0.312 A  
HETATM   23  C   UNL     1      -9.562   9.989  65.296  1.00  0.00    -0.291 A  
HETATM   24  C   UNL     1      -8.832   8.804  65.567  1.00  0.00    -0.229 A  
HETATM   25  C   UNL     1      -8.122   8.080  64.589  1.00  0.00    -0.140 A  
HETATM   26  C   UNL     1      -8.193   8.505  63.267  1.00  0.00    -0.141 A  
HETATM   27  C   UNL     1      -7.275   6.889  64.963  1.00  0.00    -0.074 C  
HETATM   28  F   UNL     1      -7.269   6.617  66.299  1.00  0.00    -0.065 F  
HETATM   29  F   UNL     1      -5.965   7.062  64.625  1.00  0.00    -0.034 F  
HETATM   30  F   UNL     1      -7.671   5.742  64.349  1.00  0.00    -0.074 F  
HETATM   31  C   UNL     1      -8.952   9.626  62.948  1.00  0.00    -0.260 A  
ENDBRANCH  13  14
ENDBRANCH  12  13
ENDBRANCH  11  12
ENDBRANCH   8  11
ENDBRANCH   4   5
ENDBRANCH   2   4
TORSDOF 6
ENDMDL
MODEL       86
REMARK 921   NORMALIZED FREE ENERGY PREDICTED BY IDOCK:   -5.63 KCAL/MOL
REMARK 922        TOTAL FREE ENERGY PREDICTED BY IDOCK:   -7.84 KCAL/MOL
REMARK 923 INTER-LIGAND FREE ENERGY PREDICTED BY IDOCK:   -7.10 KCAL/MOL
REMARK 924 INTRA-LIGAND FREE ENERGY PREDICTED BY IDOCK:   -0.74 KCAL/MOL
REMARK 927      BINDING AFFINITY PREDICTED BY RF-SCORE:    0.00 PKD
ROOT
HETATM    1  O   UNL     1      -7.300   8.997  74.460  1.00  0.00    -0.423 OA 
HETATM    2  C   UNL     1      -7.754   7.679  74.156  1.00  0.00    -0.155 C  
HETATM    3  H   UNL     1      -6.360   8.988  74.593  1.00  0.00     0.000 HD 
ENDROOT
BRANCH   2   4
HETATM    4  C   UNL     1      -9.277   7.692  73.943  1.00  0.00    -0.247 C  
BRANCH   4   5
HETATM    5  N   UNL     1      -9.699   8.257  72.645  1.00  0.00    -0.284 NA 
HETATM    6  C   UNL     1      -9.050   7.595  71.498  1.00  0.00    -0.132 C  
HETATM    7  C   UNL     1      -9.539   6.156  71.249  1.00  0.00    -0.171 C  
HETATM    8  N   UNL     1     -10.998   6.018  71.057  1.00  0.00    -0.284 NA 
HETATM    9  C   UNL     1     -11.167   8.146  72.475  1.00  0.00    -0.391 C  
HETATM   10  C   UNL     1     -11.693   6.721  72.159  1.00  0.00    -0.297 C  
BRANCH   8  11
HETATM   11  C   UNL     1     -11.458   6.485  69.741  1.00  0.00    -0.379 C  
BRANCH  11  12
HETATM   12  C   UNL     1     -10.690   5.855  68.571  1.00  0.00    -0.327 C  
BRANCH  12  13
HETATM   13  C   UNL     1     -11.067   6.485  67.221  1.00  0.00    -0.350 C  
BRANCH  13  14
HETATM   14  N   UNL     1      -9.858   6.988  66.518  1.00  0.00    -0.149 NA 
HETATM   15  C   UNL     1      -9.118   6.043  65.742  1.00  0.00    -0.067 A  
HETATM   16  C   UNL     1      -9.349   4.648  65.813  1.00  0.00    -0.158 A  
HETATM   17  C   UNL     1      -8.613   3.714  65.070  1.00  0.00    -0.109 A  
HETATM   18  C   UNL     1      -7.612   4.142  64.221  1.00  0.00    -0.072 A  
HETATM   19  C   UNL     1      -7.353   5.503  64.119  1.00  0.00    -0.058 A  
HETATM   20  C   UNL     1      -8.090   6.447  64.866  1.00  0.00    -0.120 A  
HETATM   21  S   UNL     1      -7.624   8.138  64.591  1.00  0.00    -0.118 SA 
HETATM   22  C   UNL     1      -8.763   9.027  65.618  1.00  0.00    -0.175 A  
HETATM   23  C   UNL     1      -9.701   8.411  66.465  1.00  0.00    -0.260 A  
HETATM   24  C   UNL     1     -10.488   9.292  67.249  1.00  0.00    -0.334 A  
HETATM   25  C   UNL     1     -10.437  10.696  67.141  1.00  0.00    -0.295 A  
HETATM   26  C   UNL     1      -9.513  11.261  66.270  1.00  0.00    -0.227 A  
HETATM   27  C   UNL     1     -11.381  11.573  67.927  1.00  0.00    -0.303 C  
HETATM   28  F   UNL     1     -12.256  10.877  68.706  1.00  0.00    -0.383 F  
HETATM   29  F   UNL     1     -12.156  12.348  67.116  1.00  0.00    -0.422 F  
HETATM   30  F   UNL     1     -10.737  12.432  68.761  1.00  0.00    -0.223 F  
HETATM   31  C   UNL     1      -8.675  10.433  65.529  1.00  0.00    -0.190 A  
ENDBRANCH  13  14
ENDBRANCH  12  13
ENDBRANCH  11  12
ENDBRANCH   8  11
ENDBRANCH   4   5
ENDBRANCH   2   4
TORSDOF 6
ENDMDL
MODEL       87
REMARK 921   NORMALIZED FREE ENERGY PREDICTED BY IDOCK:   -5.62 KCAL/MOL
REMARK 922        TOTAL FREE ENERGY PREDICTED BY IDOCK:   -7.83 KCAL/MOL
REMARK 923 INTER-LIGAND FREE ENERGY PREDICTED BY IDOCK:   -7.38 KCAL/MOL
REMARK 924 INTRA-LIGAND FREE ENERGY PREDICTED BY IDOCK:   -0.44 KCAL/MOL
REMARK 927      BINDING AFFINITY PREDICTED BY RF-SCORE:    0.00 PKD
ROOT
HETATM    1  O   UNL     1     -13.581  13.627  72.800  1.00  0.00    -0.672 OA 
HETATM    2  C   UNL     1     -13.393  12.906  71.584  1.00  0.00    -0.269 C  
HETATM    3  H   UNL     1     -13.948  14.482  72.611  1.00  0.00     0.000 HD 
ENDROOT
BRANCH   2   4
HETATM    4  C   UNL     1     -12.797  11.522  71.890  1.00  0.00    -0.266 C  
BRANCH   4   5
HETATM    5  N   UNL     1     -12.908  10.558  70.776  1.00  0.00    -0.374 NA 
HETATM    6  C   UNL     1     -12.436  11.113  69.494  1.00  0.00    -0.074 C  
HETATM    7  C   UNL     1     -10.911  11.315  69.424  1.00  0.00    -0.228 C  
HETATM    8  N   UNL     1     -10.110  10.102  69.688  1.00  0.00    -0.229 NA 
HETATM    9  C   UNL     1     -12.129   9.330  71.063  1.00  0.00    -0.280 C  
HETATM   10  C   UNL     1     -10.590   9.476  70.940  1.00  0.00    -0.325 C  
BRANCH   8  11
HETATM   11  C   UNL     1     -10.113   9.147  68.569  1.00  0.00    -0.191 C  
BRANCH  11  12
HETATM   12  C   UNL     1      -8.732   8.959  67.929  1.00  0.00    -0.129 C  
BRANCH  12  13
HETATM   13  C   UNL     1      -8.209  10.249  67.279  1.00  0.00    -0.121 C  
BRANCH  13  14
HETATM   14  N   UNL     1      -8.358  10.193  65.801  1.00  0.00    -0.139 NA 
HETATM   15  C   UNL     1      -7.779   9.070  65.133  1.00  0.00    -0.101 A  
HETATM   16  C   UNL     1      -6.895   8.170  65.776  1.00  0.00    -0.063 A  
HETATM   17  C   UNL     1      -6.307   7.079  65.121  1.00  0.00    -0.037 A  
HETATM   18  C   UNL     1      -6.585   6.842  63.789  1.00  0.00    -0.042 A  
HETATM   19  C   UNL     1      -7.449   7.698  63.120  1.00  0.00    -0.112 A  
HETATM   20  C   UNL     1      -8.042   8.800  63.774  1.00  0.00    -0.165 A  
HETATM   21  S   UNL     1      -9.128   9.770  62.759  1.00  0.00    -0.220 SA 
HETATM   22  C   UNL     1      -9.722  10.999  63.889  1.00  0.00    -0.292 A  
HETATM   23  C   UNL     1      -9.288  11.116  65.221  1.00  0.00    -0.219 A  
HETATM   24  C   UNL     1      -9.841  12.197  65.952  1.00  0.00    -0.265 A  
HETATM   25  C   UNL     1     -10.837  13.057  65.448  1.00  0.00    -0.304 A  
HETATM   26  C   UNL     1     -11.258  12.886  64.135  1.00  0.00    -0.432 A  
HETATM   27  C   UNL     1     -11.462  14.120  66.318  1.00  0.00    -0.352 C  
HETATM   28  F   UNL     1     -10.979  14.140  67.593  1.00  0.00    -0.253 F  
HETATM   29  F   UNL     1     -12.810  13.953  66.445  1.00  0.00    -0.419 F  
HETATM   30  F   UNL     1     -11.285  15.376  65.830  1.00  0.00    -0.332 F  
HETATM   31  C   UNL     1     -10.693  11.878  63.361  1.00  0.00    -0.476 A  
ENDBRANCH  13  14
ENDBRANCH  12  13
ENDBRANCH  11  12
ENDBRANCH   8  11
ENDBRANCH   4   5
ENDBRANCH   2   4
TORSDOF 6
ENDMDL
MODEL       88
REMARK 921   NORMALIZED FREE ENERGY PREDICTED BY IDOCK:   -5.61 KCAL/MOL
REMARK 922        TOTAL FREE ENERGY PREDICTED BY IDOCK:   -7.82 KCAL/MOL
REMARK 923 INTER-LIGAND FREE ENERGY PREDICTED BY IDOCK:   -7.28 KCAL/MOL
REMARK 924 INTRA-LIGAND FREE ENERGY PREDICTED BY IDOCK:   -0.53 KCAL/MOL
REMARK 927      BINDING AFFINITY PREDICTED BY RF-SCORE:    0.00 PKD
ROOT
HETATM    1  O   UNL     1      -8.717   1.727  65.172  1.00  0.00    -0.102 OA 
HETATM    2  C   UNL     1      -9.025   1.827  66.561  1.00  0.00    -0.092 C  
HETATM    3  H   UNL     1      -8.927   0.855  64.860  1.00  0.00     0.000 HD 
ENDROOT
BRANCH   2   4
HETATM    4  C   UNL     1      -8.684   3.238  67.067  1.00  0.00    -0.125 C  
BRANCH   4   5
HETATM    5  N   UNL     1      -8.801   4.292  66.039  1.00  0.00    -0.117 NA 
HETATM    6  C   UNL     1     -10.145   4.898  65.996  1.00  0.00    -0.239 C  
HETATM    7  C   UNL     1     -10.472   5.780  67.215  1.00  0.00    -0.266 C  
HETATM    8  N   UNL     1      -9.513   6.877  67.464  1.00  0.00    -0.127 NA 
HETATM    9  C   UNL     1      -7.814   5.371  66.277  1.00  0.00    -0.100 C  
HETATM   10  C   UNL     1      -8.141   6.322  67.458  1.00  0.00    -0.113 C  
BRANCH   8  11
HETATM   11  C   UNL     1      -9.650   7.996  66.520  1.00  0.00    -0.226 C  
BRANCH  11  12
HETATM   12  C   UNL     1     -10.471   9.165  67.079  1.00  0.00    -0.311 C  
BRANCH  12  13
HETATM   13  C   UNL     1      -9.922   9.673  68.422  1.00  0.00    -0.158 C  
BRANCH  13  14
HETATM   14  N   UNL     1     -11.031  10.065  69.330  1.00  0.00    -0.238 NA 
HETATM   15  C   UNL     1     -11.514   9.067  70.233  1.00  0.00    -0.124 A  
HETATM   16  C   UNL     1     -11.152   7.702  70.128  1.00  0.00    -0.229 A  
HETATM   17  C   UNL     1     -11.637   6.715  70.996  1.00  0.00    -0.399 A  
HETATM   18  C   UNL     1     -12.509   7.057  72.012  1.00  0.00    -0.279 A  
HETATM   19  C   UNL     1     -12.888   8.385  72.153  1.00  0.00    -0.385 A  
HETATM   20  C   UNL     1     -12.403   9.383  71.280  1.00  0.00    -0.341 A  
HETATM   21  S   UNL     1     -12.989  11.022  71.628  1.00  0.00    -0.397 SA 
HETATM   22  C   UNL     1     -12.156  11.999  70.406  1.00  0.00    -0.321 A  
HETATM   23  C   UNL     1     -11.326  11.465  69.405  1.00  0.00    -0.297 A  
HETATM   24  C   UNL     1     -10.792  12.404  68.487  1.00  0.00    -0.270 A  
HETATM   25  C   UNL     1     -10.973  13.797  68.596  1.00  0.00    -0.287 A  
HETATM   26  C   UNL     1     -11.779  14.283  69.618  1.00  0.00    -0.362 A  
HETATM   27  C   UNL     1     -10.285  14.748  67.647  1.00  0.00    -0.232 C  
HETATM   28  F   UNL     1      -9.496  14.129  66.724  1.00  0.00    -0.235 F  
HETATM   29  F   UNL     1      -9.463  15.619  68.299  1.00  0.00    -0.192 F  
HETATM   30  F   UNL     1     -11.157  15.515  66.940  1.00  0.00    -0.318 F  
HETATM   31  C   UNL     1     -12.375  13.391  70.502  1.00  0.00    -0.401 A  
ENDBRANCH  13  14
ENDBRANCH  12  13
ENDBRANCH  11  12
ENDBRANCH   8  11
ENDBRANCH   4   5
ENDBRANCH   2   4
TORSDOF 6
ENDMDL
MODEL       89
REMARK 921   NORMALIZED FREE ENERGY PREDICTED BY IDOCK:   -5.60 KCAL/MOL
REMARK 922        TOTAL FREE ENERGY PREDICTED BY IDOCK:   -7.80 KCAL/MOL
REMARK 923 INTER-LIGAND FREE ENERGY PREDICTED BY IDOCK:   -7.24 KCAL/MOL
REMARK 924 INTRA-LIGAND FREE ENERGY PREDICTED BY IDOCK:   -0.56 KCAL/MOL
REMARK 927      BINDING AFFINITY PREDICTED BY RF-SCORE:    0.00 PKD
ROOT
HETATM    1  O   UNL     1      -8.065  10.517  64.087  1.00  0.00    -0.282 OA 
HETATM    2  C   UNL     1      -9.354  10.404  63.488  1.00  0.00    -0.297 C  
HETATM    3  H   UNL     1      -7.634   9.671  64.080  1.00  0.00     0.000 HD 
ENDROOT
BRANCH   2   4
HETATM    4  C   UNL     1     -10.052  11.774  63.499  1.00  0.00    -0.438 C  
BRANCH   4   5
HETATM    5  N   UNL     1     -11.037  11.940  64.588  1.00  0.00    -0.312 NA 
HETATM    6  C   UNL     1     -10.420  11.883  65.926  1.00  0.00    -0.258 C  
HETATM    7  C   UNL     1      -9.549  13.107  66.265  1.00  0.00    -0.234 C  
HETATM    8  N   UNL     1     -10.240  14.410  66.165  1.00  0.00    -0.295 NA 
HETATM    9  C   UNL     1     -11.749  13.233  64.460  1.00  0.00    -0.378 C  
HETATM   10  C   UNL     1     -10.925  14.487  64.854  1.00  0.00    -0.410 C  
BRANCH   8  11
HETATM   11  C   UNL     1     -11.168  14.664  67.277  1.00  0.00    -0.337 C  
BRANCH  11  12
HETATM   12  C   UNL     1     -10.585  14.301  68.649  1.00  0.00    -0.254 C  
BRANCH  12  13
HETATM   13  C   UNL     1     -10.027  15.528  69.388  1.00  0.00    -0.277 C  
BRANCH  13  14
HETATM   14  N   UNL     1      -8.941  16.168  68.602  1.00  0.00    -0.210 NA 
HETATM   15  C   UNL     1      -9.124  17.538  68.238  1.00  0.00    -0.274 A  
HETATM   16  C   UNL     1     -10.362  18.209  68.384  1.00  0.00    -0.371 A  
HETATM   17  C   UNL     1     -10.555  19.546  68.009  1.00  0.00    -0.458 A  
HETATM   18  C   UNL     1      -9.509  20.270  67.472  1.00  0.00    -0.539 A  
HETATM   19  C   UNL     1      -8.275  19.652  67.313  1.00  0.00    -0.331 A  
HETATM   20  C   UNL     1      -8.076  18.305  67.687  1.00  0.00    -0.245 A  
HETATM   21  S   UNL     1      -6.430  17.696  67.422  1.00  0.00    -0.163 SA 
HETATM   22  C   UNL     1      -6.525  16.038  68.040  1.00  0.00    -0.135 A  
HETATM   23  C   UNL     1      -7.707  15.444  68.517  1.00  0.00    -0.132 A  
HETATM   24  C   UNL     1      -7.593  14.090  68.919  1.00  0.00    -0.080 A  
HETATM   25  C   UNL     1      -6.375  13.382  68.951  1.00  0.00    -0.099 A  
HETATM   26  C   UNL     1      -5.226  14.018  68.496  1.00  0.00    -0.098 A  
HETATM   27  C   UNL     1      -6.305  11.976  69.495  1.00  0.00    -0.123 C  
HETATM   28  F   UNL     1      -7.502  11.499  69.941  1.00  0.00     0.063 F  
HETATM   29  F   UNL     1      -5.458  11.877  70.558  1.00  0.00    -0.095 F  
HETATM   30  F   UNL     1      -5.862  11.074  68.579  1.00  0.00    -0.044 F  
HETATM   31  C   UNL     1      -5.306  15.326  68.031  1.00  0.00    -0.133 A  
ENDBRANCH  13  14
ENDBRANCH  12  13
ENDBRANCH  11  12
ENDBRANCH   8  11
ENDBRANCH   4   5
ENDBRANCH   2   4
TORSDOF 6
ENDMDL
MODEL       90
REMARK 921   NORMALIZED FREE ENERGY PREDICTED BY IDOCK:   -5.59 KCAL/MOL
REMARK 922        TOTAL FREE ENERGY PREDICTED BY IDOCK:   -7.79 KCAL/MOL
REMARK 923 INTER-LIGAND FREE ENERGY PREDICTED BY IDOCK:   -7.19 KCAL/MOL
REMARK 924 INTRA-LIGAND FREE ENERGY PREDICTED BY IDOCK:   -0.60 KCAL/MOL
REMARK 927      BINDING AFFINITY PREDICTED BY RF-SCORE:    0.00 PKD
ROOT
HETATM    1  O   UNL     1      -7.869   6.001  70.265  1.00  0.00    -0.097 OA 
HETATM    2  C   UNL     1      -7.137   7.194  69.988  1.00  0.00    -0.066 C  
HETATM    3  H   UNL     1      -8.006   5.919  71.201  1.00  0.00     0.000 HD 
ENDROOT
BRANCH   2   4
HETATM    4  C   UNL     1      -6.915   7.325  68.473  1.00  0.00    -0.079 C  
BRANCH   4   5
HETATM    5  N   UNL     1      -8.106   7.781  67.726  1.00  0.00    -0.123 NA 
HETATM    6  C   UNL     1      -8.814   8.883  68.402  1.00  0.00    -0.134 C  
HETATM    7  C   UNL     1      -8.051  10.221  68.383  1.00  0.00    -0.109 C  
HETATM    8  N   UNL     1      -7.682  10.708  67.037  1.00  0.00    -0.113 NA 
HETATM    9  C   UNL     1      -7.731   8.235  66.366  1.00  0.00    -0.091 C  
HETATM   10  C   UNL     1      -7.017   9.611  66.299  1.00  0.00    -0.092 C  
BRANCH   8  11
HETATM   11  C   UNL     1      -8.819  11.257  66.284  1.00  0.00    -0.191 C  
BRANCH  11  12
HETATM   12  C   UNL     1      -9.138  12.714  66.644  1.00  0.00    -0.193 C  
BRANCH  12  13
HETATM   13  C   UNL     1     -10.634  12.932  66.921  1.00  0.00    -0.253 C  
BRANCH  13  14
HETATM   14  N   UNL     1     -10.830  13.955  67.982  1.00  0.00    -0.242 NA 
HETATM   15  C   UNL     1     -10.683  15.324  67.598  1.00  0.00    -0.282 A  
HETATM   16  C   UNL     1     -10.142  15.714  66.350  1.00  0.00    -0.301 A  
HETATM   17  C   UNL     1      -9.976  17.055  65.975  1.00  0.00    -0.288 A  
HETATM   18  C   UNL     1     -10.351  18.065  66.840  1.00  0.00    -0.377 A  
HETATM   19  C   UNL     1     -10.889  17.727  68.075  1.00  0.00    -0.217 A  
HETATM   20  C   UNL     1     -11.056  16.378  68.457  1.00  0.00    -0.357 A  
HETATM   21  S   UNL     1     -11.773  16.146  70.064  1.00  0.00    -0.082 SA 
HETATM   22  C   UNL     1     -11.887  14.381  70.188  1.00  0.00    -0.314 A  
HETATM   23  C   UNL     1     -11.405  13.493  69.210  1.00  0.00    -0.262 A  
HETATM   24  C   UNL     1     -11.540  12.116  69.515  1.00  0.00    -0.382 A  
HETATM   25  C   UNL     1     -12.198  11.627  70.661  1.00  0.00    -0.461 A  
HETATM   26  C   UNL     1     -12.683  12.542  71.588  1.00  0.00    -0.297 A  
HETATM   27  C   UNL     1     -12.402  10.146  70.870  1.00  0.00    -0.363 C  
HETATM   28  F   UNL     1     -11.910   9.376  69.860  1.00  0.00    -0.137 F  
HETATM   29  F   UNL     1     -13.723   9.818  70.964  1.00  0.00    -0.422 F  
HETATM   30  F   UNL     1     -11.822   9.686  72.010  1.00  0.00    -0.437 F  
HETATM   31  C   UNL     1     -12.514  13.903  71.359  1.00  0.00    -0.424 A  
ENDBRANCH  13  14
ENDBRANCH  12  13
ENDBRANCH  11  12
ENDBRANCH   8  11
ENDBRANCH   4   5
ENDBRANCH   2   4
TORSDOF 6
ENDMDL
MODEL       91
REMARK 921   NORMALIZED FREE ENERGY PREDICTED BY IDOCK:   -5.57 KCAL/MOL
REMARK 922        TOTAL FREE ENERGY PREDICTED BY IDOCK:   -7.76 KCAL/MOL
REMARK 923 INTER-LIGAND FREE ENERGY PREDICTED BY IDOCK:   -7.28 KCAL/MOL
REMARK 924 INTRA-LIGAND FREE ENERGY PREDICTED BY IDOCK:   -0.48 KCAL/MOL
REMARK 927      BINDING AFFINITY PREDICTED BY RF-SCORE:    0.00 PKD
ROOT
HETATM    1  O   UNL     1     -10.022  19.248  65.800  1.00  0.00    -0.443 OA 
HETATM    2  C   UNL     1      -9.883  18.810  67.151  1.00  0.00    -0.316 C  
HETATM    3  H   UNL     1      -9.348  19.888  65.601  1.00  0.00     0.000 HD 
ENDROOT
BRANCH   2   4
HETATM    4  C   UNL     1     -10.974  17.775  67.473  1.00  0.00    -0.080 C  
BRANCH   4   5
HETATM    5  N   UNL     1     -10.626  16.858  68.578  1.00  0.00    -0.348 NA 
HETATM    6  C   UNL     1     -11.668  15.843  68.823  1.00  0.00    -0.349 C  
HETATM    7  C   UNL     1     -11.776  14.778  67.715  1.00  0.00    -0.343 C  
HETATM    8  N   UNL     1     -10.523  14.049  67.429  1.00  0.00    -0.262 NA 
HETATM    9  C   UNL     1      -9.352  16.156  68.298  1.00  0.00    -0.205 C  
HETATM   10  C   UNL     1      -9.433  15.032  67.232  1.00  0.00    -0.208 C  
BRANCH   8  11
HETATM   11  C   UNL     1     -10.178  13.056  68.457  1.00  0.00    -0.215 C  
BRANCH  11  12
HETATM   12  C   UNL     1      -9.588  11.764  67.878  1.00  0.00    -0.187 C  
BRANCH  12  13
HETATM   13  C   UNL     1     -10.665  10.703  67.601  1.00  0.00    -0.267 C  
BRANCH  13  14
HETATM   14  N   UNL     1     -10.046   9.378  67.339  1.00  0.00    -0.200 NA 
HETATM   15  C   UNL     1      -9.442   9.187  66.058  1.00  0.00    -0.255 A  
HETATM   16  C   UNL     1      -9.618  10.094  64.985  1.00  0.00    -0.362 A  
HETATM   17  C   UNL     1      -9.046   9.902  63.721  1.00  0.00    -0.293 A  
HETATM   18  C   UNL     1      -8.266   8.788  63.477  1.00  0.00    -0.164 A  
HETATM   19  C   UNL     1      -8.064   7.873  64.502  1.00  0.00    -0.114 A  
HETATM   20  C   UNL     1      -8.640   8.060  65.777  1.00  0.00    -0.153 A  
HETATM   21  S   UNL     1      -8.257   6.793  66.959  1.00  0.00    -0.114 SA 
HETATM   22  C   UNL     1      -9.075   7.367  68.423  1.00  0.00    -0.132 A  
HETATM   23  C   UNL     1      -9.875   8.521  68.474  1.00  0.00    -0.173 A  
HETATM   24  C   UNL     1     -10.489   8.786  69.724  1.00  0.00    -0.222 A  
HETATM   25  C   UNL     1     -10.256   8.027  70.888  1.00  0.00    -0.213 A  
HETATM   26  C   UNL     1      -9.434   6.909  70.798  1.00  0.00    -0.165 A  
HETATM   27  C   UNL     1     -10.855   8.429  72.214  1.00  0.00    -0.352 C  
HETATM   28  F   UNL     1     -11.603   9.567  72.156  1.00  0.00    -0.422 F  
HETATM   29  F   UNL     1      -9.901   8.672  73.157  1.00  0.00    -0.259 F  
HETATM   30  F   UNL     1     -11.667   7.474  72.741  1.00  0.00    -0.325 F  
HETATM   31  C   UNL     1      -8.864   6.576  69.574  1.00  0.00    -0.138 A  
ENDBRANCH  13  14
ENDBRANCH  12  13
ENDBRANCH  11  12
ENDBRANCH   8  11
ENDBRANCH   4   5
ENDBRANCH   2   4
TORSDOF 6
ENDMDL
MODEL       92
REMARK 921   NORMALIZED FREE ENERGY PREDICTED BY IDOCK:   -5.53 KCAL/MOL
REMARK 922        TOTAL FREE ENERGY PREDICTED BY IDOCK:   -7.71 KCAL/MOL
REMARK 923 INTER-LIGAND FREE ENERGY PREDICTED BY IDOCK:   -7.18 KCAL/MOL
REMARK 924 INTRA-LIGAND FREE ENERGY PREDICTED BY IDOCK:   -0.53 KCAL/MOL
REMARK 927      BINDING AFFINITY PREDICTED BY RF-SCORE:    0.00 PKD
ROOT
HETATM    1  O   UNL     1      -6.020   5.372  71.793  1.00  0.00    -0.026 OA 
HETATM    2  C   UNL     1      -5.893   4.993  70.424  1.00  0.00    -0.017 C  
HETATM    3  H   UNL     1      -5.292   5.020  72.291  1.00  0.00     0.000 HD 
ENDROOT
BRANCH   2   4
HETATM    4  C   UNL     1      -7.072   5.563  69.618  1.00  0.00    -0.064 C  
BRANCH   4   5
HETATM    5  N   UNL     1      -6.774   6.837  68.933  1.00  0.00    -0.051 NA 
HETATM    6  C   UNL     1      -7.157   6.820  67.508  1.00  0.00    -0.085 C  
HETATM    7  C   UNL     1      -8.678   6.823  67.270  1.00  0.00    -0.119 C  
HETATM    8  N   UNL     1      -9.404   7.947  67.897  1.00  0.00    -0.140 NA 
HETATM    9  C   UNL     1      -7.479   7.964  69.588  1.00  0.00    -0.092 C  
HETATM   10  C   UNL     1      -9.005   8.039  69.319  1.00  0.00    -0.148 C  
BRANCH   8  11
HETATM   11  C   UNL     1      -9.213   9.226  67.197  1.00  0.00    -0.130 C  
BRANCH  11  12
HETATM   12  C   UNL     1      -9.715  10.436  67.996  1.00  0.00    -0.166 C  
BRANCH  12  13
HETATM   13  C   UNL     1     -11.086  10.930  67.508  1.00  0.00    -0.310 C  
BRANCH  13  14
HETATM   14  N   UNL     1     -11.708  11.834  68.509  1.00  0.00    -0.319 NA 
HETATM   15  C   UNL     1     -12.132  11.245  69.741  1.00  0.00    -0.325 A  
HETATM   16  C   UNL     1     -12.199   9.844  69.935  1.00  0.00     0.133 A  
HETATM   17  C   UNL     1     -12.633   9.260  71.133  1.00  0.00    -0.324 A  
HETATM   18  C   UNL     1     -13.018  10.059  72.191  1.00  0.00    -0.460 A  
HETATM   19  C   UNL     1     -12.967  11.440  72.045  1.00  0.00    -0.378 A  
HETATM   20  C   UNL     1     -12.532  12.033  70.840  1.00  0.00    -0.288 A  
HETATM   21  S   UNL     1     -12.521  13.808  70.848  1.00  0.00    -0.372 SA 
HETATM   22  C   UNL     1     -11.883  14.200  69.242  1.00  0.00    -0.338 A  
HETATM   23  C   UNL     1     -11.582  13.240  68.261  1.00  0.00    -0.334 A  
HETATM   24  C   UNL     1     -11.132  13.754  67.019  1.00  0.00    -0.313 A  
HETATM   25  C   UNL     1     -10.892  15.121  66.777  1.00  0.00    -0.322 A  
HETATM   26  C   UNL     1     -11.177  16.033  67.786  1.00  0.00    -0.231 A  
HETATM   27  C   UNL     1     -10.308  15.589  65.466  1.00  0.00    -0.394 C  
HETATM   28  F   UNL     1     -10.041  14.579  64.591  1.00  0.00    -0.414 F  
HETATM   29  F   UNL     1      -9.122  16.242  65.635  1.00  0.00    -0.330 F  
HETATM   30  F   UNL     1     -11.120  16.455  64.803  1.00  0.00    -0.432 F  
HETATM   31  C   UNL     1     -11.682  15.577  68.998  1.00  0.00    -0.392 A  
ENDBRANCH  13  14
ENDBRANCH  12  13
ENDBRANCH  11  12
ENDBRANCH   8  11
ENDBRANCH   4   5
ENDBRANCH   2   4
TORSDOF 6
ENDMDL
MODEL       93
REMARK 921   NORMALIZED FREE ENERGY PREDICTED BY IDOCK:   -5.53 KCAL/MOL
REMARK 922        TOTAL FREE ENERGY PREDICTED BY IDOCK:   -7.71 KCAL/MOL
REMARK 923 INTER-LIGAND FREE ENERGY PREDICTED BY IDOCK:   -7.13 KCAL/MOL
REMARK 924 INTRA-LIGAND FREE ENERGY PREDICTED BY IDOCK:   -0.58 KCAL/MOL
REMARK 927      BINDING AFFINITY PREDICTED BY RF-SCORE:    0.00 PKD
ROOT
HETATM    1  O   UNL     1     -10.904   5.774  67.935  1.00  0.00    -0.248 OA 
HETATM    2  C   UNL     1     -10.737   6.882  68.817  1.00  0.00    -0.219 C  
HETATM    3  H   UNL     1     -11.825   5.555  67.867  1.00  0.00     0.000 HD 
ENDROOT
BRANCH   2   4
HETATM    4  C   UNL     1      -9.244   7.236  68.926  1.00  0.00    -0.141 C  
BRANCH   4   5
HETATM    5  N   UNL     1      -8.762   8.151  67.872  1.00  0.00    -0.128 NA 
HETATM    6  C   UNL     1      -9.584   9.369  67.756  1.00  0.00    -0.134 C  
HETATM    7  C   UNL     1      -9.430  10.342  68.940  1.00  0.00    -0.188 C  
HETATM    8  N   UNL     1      -8.044  10.781  69.208  1.00  0.00    -0.132 NA 
HETATM    9  C   UNL     1      -7.361   8.559  68.130  1.00  0.00    -0.092 C  
HETATM   10  C   UNL     1      -7.170   9.588  69.274  1.00  0.00    -0.063 C  
BRANCH   8  11
HETATM   11  C   UNL     1      -7.547  11.764  68.235  1.00  0.00    -0.122 C  
BRANCH  11  12
HETATM   12  C   UNL     1      -7.937  13.208  68.578  1.00  0.00    -0.094 C  
BRANCH  12  13
HETATM   13  C   UNL     1      -7.323  14.225  67.602  1.00  0.00    -0.176 C  
BRANCH  13  14
HETATM   14  N   UNL     1      -8.231  15.386  67.411  1.00  0.00    -0.168 NA 
HETATM   15  C   UNL     1      -7.806  16.639  67.952  1.00  0.00    -0.166 A  
HETATM   16  C   UNL     1      -6.709  16.756  68.839  1.00  0.00    -0.195 A  
HETATM   17  C   UNL     1      -6.299  17.977  69.390  1.00  0.00    -0.243 A  
HETATM   18  C   UNL     1      -6.974  19.140  69.071  1.00  0.00    -0.371 A  
HETATM   19  C   UNL     1      -8.056  19.071  68.202  1.00  0.00    -0.347 A  
HETATM   20  C   UNL     1      -8.474  17.843  67.646  1.00  0.00    -0.234 A  
HETATM   21  S   UNL     1      -9.863  17.959  66.548  1.00  0.00    -0.350 SA 
HETATM   22  C   UNL     1     -10.071  16.284  66.006  1.00  0.00    -0.356 A  
HETATM   23  C   UNL     1      -9.306  15.205  66.480  1.00  0.00    -0.280 A  
HETATM   24  C   UNL     1      -9.658  13.932  65.966  1.00  0.00    -0.210 A  
HETATM   25  C   UNL     1     -10.635  13.731  64.970  1.00  0.00    -0.402 A  
HETATM   26  C   UNL     1     -11.348  14.832  64.510  1.00  0.00    -0.309 A  
HETATM   27  C   UNL     1     -10.884  12.362  64.388  1.00  0.00    -0.337 C  
HETATM   28  F   UNL     1     -10.081  11.390  64.906  1.00  0.00    -0.252 F  
HETATM   29  F   UNL     1     -10.667  12.328  63.041  1.00  0.00    -0.433 F  
HETATM   30  F   UNL     1     -12.160  11.931  64.571  1.00  0.00    -0.394 F  
HETATM   31  C   UNL     1     -11.079  16.091  65.035  1.00  0.00    -0.345 A  
ENDBRANCH  13  14
ENDBRANCH  12  13
ENDBRANCH  11  12
ENDBRANCH   8  11
ENDBRANCH   4   5
ENDBRANCH   2   4
TORSDOF 6
ENDMDL
MODEL       94
REMARK 921   NORMALIZED FREE ENERGY PREDICTED BY IDOCK:   -5.52 KCAL/MOL
REMARK 922        TOTAL FREE ENERGY PREDICTED BY IDOCK:   -7.70 KCAL/MOL
REMARK 923 INTER-LIGAND FREE ENERGY PREDICTED BY IDOCK:   -6.88 KCAL/MOL
REMARK 924 INTRA-LIGAND FREE ENERGY PREDICTED BY IDOCK:   -0.82 KCAL/MOL
REMARK 927      BINDING AFFINITY PREDICTED BY RF-SCORE:    0.00 PKD
ROOT
HETATM    1  O   UNL     1      -5.995   4.447  71.221  1.00  0.00    -0.015 OA 
HETATM    2  C   UNL     1      -5.888   3.906  69.905  1.00  0.00    -0.018 C  
HETATM    3  H   UNL     1      -5.293   4.109  71.764  1.00  0.00     0.000 HD 
ENDROOT
BRANCH   2   4
HETATM    4  C   UNL     1      -7.026   4.452  69.027  1.00  0.00    -0.051 C  
BRANCH   4   5
HETATM    5  N   UNL     1      -6.582   5.405  67.989  1.00  0.00    -0.048 NA 
HETATM    6  C   UNL     1      -7.329   5.260  66.726  1.00  0.00    -0.086 C  
HETATM    7  C   UNL     1      -8.794   5.731  66.808  1.00  0.00    -0.117 C  
HETATM    8  N   UNL     1      -8.974   7.128  67.256  1.00  0.00    -0.122 NA 
HETATM    9  C   UNL     1      -6.735   6.802  68.459  1.00  0.00    -0.064 C  
HETATM   10  C   UNL     1      -8.191   7.336  68.495  1.00  0.00    -0.125 C  
BRANCH   8  11
HETATM   11  C   UNL     1      -8.631   8.118  66.225  1.00  0.00    -0.144 C  
BRANCH  11  12
HETATM   12  C   UNL     1      -8.981   9.557  66.627  1.00  0.00    -0.168 C  
BRANCH  12  13
HETATM   13  C   UNL     1     -10.498   9.784  66.722  1.00  0.00    -0.189 C  
BRANCH  13  14
HETATM   14  N   UNL     1     -10.800  11.004  67.513  1.00  0.00    -0.244 NA 
HETATM   15  C   UNL     1     -10.889  12.238  66.796  1.00  0.00    -0.253 A  
HETATM   16  C   UNL     1     -10.477  12.370  65.448  1.00  0.00    -0.306 A  
HETATM   17  C   UNL     1     -10.542  13.581  64.745  1.00  0.00    -0.429 A  
HETATM   18  C   UNL     1     -11.028  14.714  65.366  1.00  0.00    -0.358 A  
HETATM   19  C   UNL     1     -11.447  14.629  66.688  1.00  0.00    -0.363 A  
HETATM   20  C   UNL     1     -11.381  13.413  67.401  1.00  0.00    -0.309 A  
HETATM   21  S   UNL     1     -11.975  13.498  69.072  1.00  0.00    -0.303 SA 
HETATM   22  C   UNL     1     -11.803  11.826  69.631  1.00  0.00    -0.339 A  
HETATM   23  C   UNL     1     -11.236  10.795  68.862  1.00  0.00    -0.268 A  
HETATM   24  C   UNL     1     -11.138   9.535  69.504  1.00  0.00    -0.168 A  
HETATM   25  C   UNL     1     -11.655   9.266  70.788  1.00  0.00    -0.345 A  
HETATM   26  C   UNL     1     -12.233  10.310  71.501  1.00  0.00    -0.449 A  
HETATM   27  C   UNL     1     -11.614   7.874  71.368  1.00  0.00    -0.272 C  
HETATM   28  F   UNL     1     -11.056   6.948  70.538  1.00  0.00    -0.258 F  
HETATM   29  F   UNL     1     -12.861   7.399  71.652  1.00  0.00    -0.333 F  
HETATM   30  F   UNL     1     -10.914   7.804  72.532  1.00  0.00    -0.274 F  
HETATM   31  C   UNL     1     -12.291  11.578  70.933  1.00  0.00    -0.460 A  
ENDBRANCH  13  14
ENDBRANCH  12  13
ENDBRANCH  11  12
ENDBRANCH   8  11
ENDBRANCH   4   5
ENDBRANCH   2   4
TORSDOF 6
ENDMDL
MODEL       95
REMARK 921   NORMALIZED FREE ENERGY PREDICTED BY IDOCK:   -5.49 KCAL/MOL
REMARK 922        TOTAL FREE ENERGY PREDICTED BY IDOCK:   -7.65 KCAL/MOL
REMARK 923 INTER-LIGAND FREE ENERGY PREDICTED BY IDOCK:   -7.04 KCAL/MOL
REMARK 924 INTRA-LIGAND FREE ENERGY PREDICTED BY IDOCK:   -0.61 KCAL/MOL
REMARK 927      BINDING AFFINITY PREDICTED BY RF-SCORE:    0.00 PKD
ROOT
HETATM    1  O   UNL     1     -11.745  16.419  63.878  1.00  0.00    -1.504 OA 
HETATM    2  C   UNL     1     -11.248  15.331  64.655  1.00  0.00    -0.356 C  
HETATM    3  H   UNL     1     -11.958  16.116  63.003  1.00  0.00     0.000 HD 
ENDROOT
BRANCH   2   4
HETATM    4  C   UNL     1     -10.904  15.821  66.071  1.00  0.00    -0.255 C  
BRANCH   4   5
HETATM    5  N   UNL     1     -10.059  14.887  66.843  1.00  0.00    -0.239 NA 
HETATM    6  C   UNL     1     -10.339  14.931  68.291  1.00  0.00    -0.232 C  
HETATM    7  C   UNL     1     -11.701  14.329  68.682  1.00  0.00    -0.345 C  
HETATM    8  N   UNL     1     -11.913  12.933  68.245  1.00  0.00    -0.311 NA 
HETATM    9  C   UNL     1     -10.252  13.494  66.376  1.00  0.00    -0.291 C  
HETATM   10  C   UNL     1     -11.586  12.829  66.805  1.00  0.00    -0.370 C  
BRANCH   8  11
HETATM   11  C   UNL     1     -11.162  11.953  69.044  1.00  0.00    -0.258 C  
BRANCH  11  12
HETATM   12  C   UNL     1     -10.862  10.653  68.284  1.00  0.00    -0.287 C  
BRANCH  12  13
HETATM   13  C   UNL     1      -9.562   9.986  68.760  1.00  0.00    -0.168 C  
BRANCH  13  14
HETATM   14  N   UNL     1      -8.555   9.956  67.668  1.00  0.00    -0.122 NA 
HETATM   15  C   UNL     1      -7.586  11.008  67.649  1.00  0.00    -0.104 A  
HETATM   16  C   UNL     1      -7.697  12.164  68.459  1.00  0.00    -0.119 A  
HETATM   17  C   UNL     1      -6.762  13.208  68.431  1.00  0.00    -0.095 A  
HETATM   18  C   UNL     1      -5.671  13.135  67.587  1.00  0.00    -0.103 A  
HETATM   19  C   UNL     1      -5.522  12.017  66.776  1.00  0.00     0.009 A  
HETATM   20  C   UNL     1      -6.461  10.964  66.799  1.00  0.00    -0.115 A  
HETATM   21  S   UNL     1      -6.093   9.616  65.705  1.00  0.00    -0.065 SA 
HETATM   22  C   UNL     1      -7.414   8.479  66.030  1.00  0.00    -0.085 A  
HETATM   23  C   UNL     1      -8.482   8.746  66.904  1.00  0.00    -0.111 A  
HETATM   24  C   UNL     1      -9.470   7.733  66.991  1.00  0.00    -0.210 A  
HETATM   25  C   UNL     1      -9.374   6.487  66.339  1.00  0.00    -0.175 A  
HETATM   26  C   UNL     1      -8.286   6.256  65.506  1.00  0.00    -0.147 A  
HETATM   27  C   UNL     1     -10.408   5.411  66.562  1.00  0.00    -0.269 C  
HETATM   28  F   UNL     1     -11.392   5.766  67.436  1.00  0.00    -0.243 F  
HETATM   29  F   UNL     1      -9.862   4.272  67.076  1.00  0.00    -0.199 F  
HETATM   30  F   UNL     1     -11.041   5.038  65.417  1.00  0.00    -0.193 F  
HETATM   31  C   UNL     1      -7.327   7.249  65.342  1.00  0.00    -0.079 A  
ENDBRANCH  13  14
ENDBRANCH  12  13
ENDBRANCH  11  12
ENDBRANCH   8  11
ENDBRANCH   4   5
ENDBRANCH   2   4
TORSDOF 6
ENDMDL
MODEL       96
REMARK 921   NORMALIZED FREE ENERGY PREDICTED BY IDOCK:   -5.49 KCAL/MOL
REMARK 922        TOTAL FREE ENERGY PREDICTED BY IDOCK:   -7.65 KCAL/MOL
REMARK 923 INTER-LIGAND FREE ENERGY PREDICTED BY IDOCK:   -6.88 KCAL/MOL
REMARK 924 INTRA-LIGAND FREE ENERGY PREDICTED BY IDOCK:   -0.77 KCAL/MOL
REMARK 927      BINDING AFFINITY PREDICTED BY RF-SCORE:    0.00 PKD
ROOT
HETATM    1  O   UNL     1      -8.217   2.377  73.721  1.00  0.00    -0.060 OA 
HETATM    2  C   UNL     1      -9.532   2.901  73.552  1.00  0.00    -0.091 C  
HETATM    3  H   UNL     1      -8.257   1.563  74.209  1.00  0.00     0.000 HD 
ENDROOT
BRANCH   2   4
HETATM    4  C   UNL     1      -9.467   4.219  72.763  1.00  0.00    -0.125 C  
BRANCH   4   5
HETATM    5  N   UNL     1      -9.934   5.399  73.519  1.00  0.00    -0.167 NA 
HETATM    6  C   UNL     1      -9.123   6.602  73.256  1.00  0.00    -0.128 C  
HETATM    7  C   UNL     1      -9.315   7.189  71.845  1.00  0.00    -0.138 C  
HETATM    8  N   UNL     1     -10.711   7.526  71.496  1.00  0.00    -0.218 NA 
HETATM    9  C   UNL     1     -11.345   5.710  73.189  1.00  0.00    -0.180 C  
HETATM   10  C   UNL     1     -11.574   6.362  71.801  1.00  0.00    -0.316 C  
BRANCH   8  11
HETATM   11  C   UNL     1     -11.197   8.747  72.155  1.00  0.00    -0.338 C  
BRANCH  11  12
HETATM   12  C   UNL     1     -10.984  10.015  71.316  1.00  0.00    -0.079 C  
BRANCH  12  13
HETATM   13  C   UNL     1     -12.162  10.291  70.368  1.00  0.00    -0.261 C  
BRANCH  13  14
HETATM   14  N   UNL     1     -11.704  11.014  69.154  1.00  0.00    -0.309 NA 
HETATM   15  C   UNL     1     -11.678  12.442  69.219  1.00  0.00    -0.329 A  
HETATM   16  C   UNL     1     -12.280  13.170  70.274  1.00  0.00    -0.376 A  
HETATM   17  C   UNL     1     -12.276  14.570  70.334  1.00  0.00    -0.394 A  
HETATM   18  C   UNL     1     -11.664  15.302  69.335  1.00  0.00    -0.361 A  
HETATM   19  C   UNL     1     -11.058  14.628  68.283  1.00  0.00    -0.283 A  
HETATM   20  C   UNL     1     -11.061  13.218  68.217  1.00  0.00    -0.266 A  
HETATM   21  S   UNL     1     -10.225  12.539  66.806  1.00  0.00    -0.234 SA 
HETATM   22  C   UNL     1     -10.371  10.793  67.070  1.00  0.00    -0.228 A  
HETATM   23  C   UNL     1     -11.081  10.217  68.138  1.00  0.00    -0.264 A  
HETATM   24  C   UNL     1     -11.128   8.801  68.149  1.00  0.00     0.245 A  
HETATM   25  C   UNL     1     -10.438   7.986  67.230  1.00  0.00    -0.384 A  
HETATM   26  C   UNL     1      -9.724   8.599  66.207  1.00  0.00    -0.322 A  
HETATM   27  C   UNL     1     -10.441   6.483  67.365  1.00  0.00    -0.252 C  
HETATM   28  F   UNL     1     -11.148   6.030  68.438  1.00  0.00    -0.329 F  
HETATM   29  F   UNL     1      -9.184   5.978  67.521  1.00  0.00    -0.116 F  
HETATM   30  F   UNL     1     -10.964   5.854  66.279  1.00  0.00    -0.292 F  
HETATM   31  C   UNL     1      -9.706   9.987  66.121  1.00  0.00    -0.286 A  
ENDBRANCH  13  14
ENDBRANCH  12  13
ENDBRANCH  11  12
ENDBRANCH   8  11
ENDBRANCH   4   5
ENDBRANCH   2   4
TORSDOF 6
ENDMDL
MODEL       97
REMARK 921   NORMALIZED FREE ENERGY PREDICTED BY IDOCK:   -5.48 KCAL/MOL
REMARK 922        TOTAL FREE ENERGY PREDICTED BY IDOCK:   -7.64 KCAL/MOL
REMARK 923 INTER-LIGAND FREE ENERGY PREDICTED BY IDOCK:   -7.11 KCAL/MOL
REMARK 924 INTRA-LIGAND FREE ENERGY PREDICTED BY IDOCK:   -0.53 KCAL/MOL
REMARK 927      BINDING AFFINITY PREDICTED BY RF-SCORE:    0.00 PKD
ROOT
HETATM    1  O   UNL     1     -12.650  14.242  63.858  1.00  0.00    -0.801 OA 
HETATM    2  C   UNL     1     -12.061  13.098  63.243  1.00  0.00    -0.386 C  
HETATM    3  H   UNL     1     -12.802  14.914  63.205  1.00  0.00     0.000 HD 
ENDROOT
BRANCH   2   4
HETATM    4  C   UNL     1     -11.815  12.010  64.301  1.00  0.00    -0.346 C  
BRANCH   4   5
HETATM    5  N   UNL     1     -10.543  12.160  65.036  1.00  0.00    -0.280 NA 
HETATM    6  C   UNL     1     -10.710  12.852  66.327  1.00  0.00    -0.274 C  
HETATM    7  C   UNL     1     -11.451  12.020  67.391  1.00  0.00    -0.336 C  
HETATM    8  N   UNL     1     -10.846  10.704  67.683  1.00  0.00    -0.270 NA 
HETATM    9  C   UNL     1      -9.926  10.838  65.295  1.00  0.00    -0.282 C  
HETATM   10  C   UNL     1     -10.605   9.995  66.406  1.00  0.00    -0.068 C  
BRANCH   8  11
HETATM   11  C   UNL     1      -9.621  10.793  68.493  1.00  0.00    -0.183 C  
BRANCH  11  12
HETATM   12  C   UNL     1      -9.166   9.439  69.054  1.00  0.00    -0.145 C  
BRANCH  12  13
HETATM   13  C   UNL     1      -8.961   9.479  70.577  1.00  0.00    -0.211 C  
BRANCH  13  14
HETATM   14  N   UNL     1      -9.860   8.509  71.255  1.00  0.00    -0.197 NA 
HETATM   15  C   UNL     1     -11.221   8.904  71.437  1.00  0.00    -0.312 A  
HETATM   16  C   UNL     1     -11.668  10.230  71.222  1.00  0.00    -0.378 A  
HETATM   17  C   UNL     1     -12.997  10.629  71.419  1.00  0.00    -0.545 A  
HETATM   18  C   UNL     1     -13.939   9.710  71.840  1.00  0.00    -0.191 A  
HETATM   19  C   UNL     1     -13.545   8.397  72.061  1.00  0.00    -0.389 A  
HETATM   20  C   UNL     1     -12.207   7.991  71.866  1.00  0.00    -0.319 A  
HETATM   21  S   UNL     1     -11.899   6.272  72.185  1.00  0.00    -0.261 SA 
HETATM   22  C   UNL     1     -10.179   6.106  71.794  1.00  0.00    -0.202 A  
HETATM   23  C   UNL     1      -9.352   7.179  71.417  1.00  0.00    -0.154 A  
HETATM   24  C   UNL     1      -7.990   6.854  71.196  1.00  0.00    -0.101 A  
HETATM   25  C   UNL     1      -7.480   5.541  71.241  1.00  0.00    -0.097 A  
HETATM   26  C   UNL     1      -8.340   4.507  71.590  1.00  0.00    -0.105 A  
HETATM   27  C   UNL     1      -6.041   5.252  70.887  1.00  0.00    -0.022 C  
HETATM   28  F   UNL     1      -5.332   6.358  70.525  1.00  0.00    -0.015 F  
HETATM   29  F   UNL     1      -5.934   4.393  69.833  1.00  0.00    -0.015 F  
HETATM   30  F   UNL     1      -5.349   4.680  71.908  1.00  0.00    -0.003 F  
HETATM   31  C   UNL     1      -9.670   4.791  71.879  1.00  0.00    -0.219 A  
ENDBRANCH  13  14
ENDBRANCH  12  13
ENDBRANCH  11  12
ENDBRANCH   8  11
ENDBRANCH   4   5
ENDBRANCH   2   4
TORSDOF 6
ENDMDL
MODEL       98
REMARK 921   NORMALIZED FREE ENERGY PREDICTED BY IDOCK:   -5.48 KCAL/MOL
REMARK 922        TOTAL FREE ENERGY PREDICTED BY IDOCK:   -7.64 KCAL/MOL
REMARK 923 INTER-LIGAND FREE ENERGY PREDICTED BY IDOCK:   -7.63 KCAL/MOL
REMARK 924 INTRA-LIGAND FREE ENERGY PREDICTED BY IDOCK:   -0.01 KCAL/MOL
REMARK 927      BINDING AFFINITY PREDICTED BY RF-SCORE:    0.00 PKD
ROOT
HETATM    1  O   UNL     1      -6.470  18.408  65.561  1.00  0.00    -0.263 OA 
HETATM    2  C   UNL     1      -6.324  18.448  66.980  1.00  0.00    -0.174 C  
HETATM    3  H   UNL     1      -5.627  18.245  65.157  1.00  0.00     0.000 HD 
ENDROOT
BRANCH   2   4
HETATM    4  C   UNL     1      -7.690  18.713  67.633  1.00  0.00    -0.231 C  
BRANCH   4   5
HETATM    5  N   UNL     1      -8.150  17.632  68.529  1.00  0.00    -0.278 NA 
HETATM    6  C   UNL     1      -9.532  17.833  69.002  1.00  0.00    -0.096 C  
HETATM    7  C   UNL     1     -10.600  17.644  67.908  1.00  0.00    -0.387 C  
HETATM    8  N   UNL     1     -10.565  16.335  67.225  1.00  0.00    -0.311 NA 
HETATM    9  C   UNL     1      -8.080  16.318  67.848  1.00  0.00    -0.146 C  
HETATM   10  C   UNL     1      -9.179  16.063  66.783  1.00  0.00    -0.240 C  
BRANCH   8  11
HETATM   11  C   UNL     1     -11.098  15.236  68.044  1.00  0.00    -0.312 C  
BRANCH  11  12
HETATM   12  C   UNL     1     -10.933  13.857  67.391  1.00  0.00    -0.299 C  
BRANCH  12  13
HETATM   13  C   UNL     1      -9.754  13.069  67.984  1.00  0.00    -0.224 C  
BRANCH  13  14
HETATM   14  N   UNL     1     -10.169  11.688  68.341  1.00  0.00    -0.202 NA 
HETATM   15  C   UNL     1      -9.462  10.615  67.714  1.00  0.00    -0.153 A  
HETATM   16  C   UNL     1      -8.579  10.814  66.625  1.00  0.00    -0.143 A  
HETATM   17  C   UNL     1      -7.899   9.765  65.992  1.00  0.00    -0.107 A  
HETATM   18  C   UNL     1      -8.074   8.466  66.428  1.00  0.00    -0.104 A  
HETATM   19  C   UNL     1      -8.930   8.225  67.495  1.00  0.00    -0.141 A  
HETATM   20  C   UNL     1      -9.619   9.278  68.135  1.00  0.00    -0.143 A  
HETATM   21  S   UNL     1     -10.654   8.776  69.486  1.00  0.00    -0.192 SA 
HETATM   22  C   UNL     1     -11.301  10.317  70.074  1.00  0.00    -0.301 A  
HETATM   23  C   UNL     1     -11.044  11.559  69.468  1.00  0.00    -0.191 A  
HETATM   24  C   UNL     1     -11.696  12.673  70.054  1.00  0.00    -0.289 A  
HETATM   25  C   UNL     1     -12.474  12.599  71.226  1.00  0.00    -0.276 A  
HETATM   26  C   UNL     1     -12.679  11.353  71.808  1.00  0.00    -0.359 A  
HETATM   27  C   UNL     1     -13.049  13.842  71.860  1.00  0.00    -0.388 C  
HETATM   28  F   UNL     1     -12.731  14.992  71.201  1.00  0.00    -0.319 F  
HETATM   29  F   UNL     1     -12.604  14.022  73.136  1.00  0.00    -0.396 F  
HETATM   30  F   UNL     1     -14.407  13.818  71.938  1.00  0.00    -0.483 F  
HETATM   31  C   UNL     1     -12.111  10.225  71.228  1.00  0.00    -0.479 A  
ENDBRANCH  13  14
ENDBRANCH  12  13
ENDBRANCH  11  12
ENDBRANCH   8  11
ENDBRANCH   4   5
ENDBRANCH   2   4
TORSDOF 6
ENDMDL
MODEL       99
REMARK 921   NORMALIZED FREE ENERGY PREDICTED BY IDOCK:   -5.48 KCAL/MOL
REMARK 922        TOTAL FREE ENERGY PREDICTED BY IDOCK:   -7.64 KCAL/MOL
REMARK 923 INTER-LIGAND FREE ENERGY PREDICTED BY IDOCK:   -7.08 KCAL/MOL
REMARK 924 INTRA-LIGAND FREE ENERGY PREDICTED BY IDOCK:   -0.56 KCAL/MOL
REMARK 927      BINDING AFFINITY PREDICTED BY RF-SCORE:    0.00 PKD
ROOT
HETATM    1  O   UNL     1      -6.029   3.825  63.644  1.00  0.00    -0.014 OA 
HETATM    2  C   UNL     1      -5.876   4.982  64.463  1.00  0.00    -0.017 C  
HETATM    3  H   UNL     1      -5.184   3.566  63.295  1.00  0.00     0.000 HD 
ENDROOT
BRANCH   2   4
HETATM    4  C   UNL     1      -7.243   5.401  65.028  1.00  0.00    -0.066 C  
BRANCH   4   5
HETATM    5  N   UNL     1      -7.196   5.892  66.420  1.00  0.00    -0.075 NA 
HETATM    6  C   UNL     1      -6.734   7.289  66.516  1.00  0.00    -0.060 C  
HETATM    7  C   UNL     1      -7.746   8.320  65.982  1.00  0.00    -0.093 C  
HETATM    8  N   UNL     1      -9.081   8.265  66.612  1.00  0.00    -0.156 NA 
HETATM    9  C   UNL     1      -8.532   5.801  67.055  1.00  0.00    -0.107 C  
HETATM   10  C   UNL     1      -9.562   6.865  66.591  1.00  0.00    -0.168 C  
BRANCH   8  11
HETATM   11  C   UNL     1      -9.108   8.826  67.971  1.00  0.00    -0.140 C  
BRANCH  11  12
HETATM   12  C   UNL     1      -9.539  10.298  68.011  1.00  0.00    -0.159 C  
BRANCH  12  13
HETATM   13  C   UNL     1     -11.014  10.484  67.619  1.00  0.00    -0.314 C  
BRANCH  13  14
HETATM   14  N   UNL     1     -11.684  11.446  68.532  1.00  0.00    -0.412 NA 
HETATM   15  C   UNL     1     -12.114  10.946  69.800  1.00  0.00    -0.338 A  
HETATM   16  C   UNL     1     -12.140   9.565  70.108  1.00  0.00     0.121 A  
HETATM   17  C   UNL     1     -12.580   9.066  71.342  1.00  0.00    -0.370 A  
HETATM   18  C   UNL     1     -13.011   9.936  72.324  1.00  0.00    -0.387 A  
HETATM   19  C   UNL     1     -13.000  11.301  72.066  1.00  0.00    -0.379 A  
HETATM   20  C   UNL     1     -12.560  11.808  70.824  1.00  0.00    -0.253 A  
HETATM   21  S   UNL     1     -12.605  13.577  70.686  1.00  0.00    -0.229 SA 
HETATM   22  C   UNL     1     -11.948  13.857  69.064  1.00  0.00    -0.364 A  
HETATM   23  C   UNL     1     -11.597  12.830  68.171  1.00  0.00    -0.336 A  
HETATM   24  C   UNL     1     -11.139  13.256  66.899  1.00  0.00    -0.310 A  
HETATM   25  C   UNL     1     -10.937  14.606  66.549  1.00  0.00    -0.318 A  
HETATM   26  C   UNL     1     -11.271  15.587  67.474  1.00  0.00    -0.272 A  
HETATM   27  C   UNL     1     -10.342  14.984  65.215  1.00  0.00    -0.395 C  
HETATM   28  F   UNL     1     -10.027  13.915  64.431  1.00  0.00    -0.400 F  
HETATM   29  F   UNL     1      -9.181  15.687  65.350  1.00  0.00    -0.281 F  
HETATM   30  F   UNL     1     -11.167  15.766  64.468  1.00  0.00    -0.421 F  
HETATM   31  C   UNL     1     -11.786  15.215  68.711  1.00  0.00    -0.366 A  
ENDBRANCH  13  14
ENDBRANCH  12  13
ENDBRANCH  11  12
ENDBRANCH   8  11
ENDBRANCH   4   5
ENDBRANCH   2   4
TORSDOF 6
ENDMDL
MODEL      100
REMARK 921   NORMALIZED FREE ENERGY PREDICTED BY IDOCK:   -5.48 KCAL/MOL
REMARK 922        TOTAL FREE ENERGY PREDICTED BY IDOCK:   -7.63 KCAL/MOL
REMARK 923 INTER-LIGAND FREE ENERGY PREDICTED BY IDOCK:   -6.92 KCAL/MOL
REMARK 924 INTRA-LIGAND FREE ENERGY PREDICTED BY IDOCK:   -0.71 KCAL/MOL
REMARK 927      BINDING AFFINITY PREDICTED BY RF-SCORE:    0.00 PKD
ROOT
HETATM    1  O   UNL     1      -9.594   3.635  71.050  1.00  0.00    -0.156 OA 
HETATM    2  C   UNL     1      -8.850   4.778  71.469  1.00  0.00    -0.129 C  
HETATM    3  H   UNL     1      -9.006   2.990  70.678  1.00  0.00     0.000 HD 
ENDROOT
BRANCH   2   4
HETATM    4  C   UNL     1      -9.803   5.823  72.073  1.00  0.00    -0.155 C  
BRANCH   4   5
HETATM    5  N   UNL     1     -10.632   6.531  71.075  1.00  0.00    -0.225 NA 
HETATM    6  C   UNL     1     -11.979   6.854  71.580  1.00  0.00    -0.339 C  
HETATM    7  C   UNL     1     -11.995   7.953  72.659  1.00  0.00    -0.245 C  
HETATM    8  N   UNL     1     -11.369   9.230  72.256  1.00  0.00    -0.023 NA 
HETATM    9  C   UNL     1      -9.981   7.793  70.651  1.00  0.00    -0.186 C  
HETATM   10  C   UNL     1     -10.032   8.947  71.686  1.00  0.00    -0.327 C  
BRANCH   8  11
HETATM   11  C   UNL     1     -12.196  10.017  71.330  1.00  0.00    -0.416 C  
BRANCH  11  12
HETATM   12  C   UNL     1     -11.389  10.669  70.199  1.00  0.00    -0.402 C  
BRANCH  12  13
HETATM   13  C   UNL     1     -12.254  10.970  68.965  1.00  0.00    -0.097 C  
BRANCH  13  14
HETATM   14  N   UNL     1     -11.411  11.431  67.831  1.00  0.00    -0.305 NA 
HETATM   15  C   UNL     1     -11.211  12.841  67.702  1.00  0.00    -0.280 A  
HETATM   16  C   UNL     1     -11.956  13.790  68.443  1.00  0.00    -0.395 A  
HETATM   17  C   UNL     1     -11.781  15.173  68.307  1.00  0.00    -0.336 A  
HETATM   18  C   UNL     1     -10.844  15.666  67.419  1.00  0.00    -0.315 A  
HETATM   19  C   UNL     1     -10.089  14.771  66.673  1.00  0.00    -0.269 A  
HETATM   20  C   UNL     1     -10.263  13.376  66.806  1.00  0.00    -0.259 A  
HETATM   21  S   UNL     1      -9.198  12.394  65.781  1.00  0.00     0.188 SA 
HETATM   22  C   UNL     1      -9.638  10.739  66.236  1.00  0.00    -0.195 A  
HETATM   23  C   UNL     1     -10.665  10.421  67.142  1.00  0.00    -0.256 A  
HETATM   24  C   UNL     1     -10.903   9.037  67.336  1.00  0.00    -0.116 A  
HETATM   25  C   UNL     1     -10.118   8.018  66.760  1.00  0.00    -0.357 A  
HETATM   26  C   UNL     1      -9.095   8.380  65.892  1.00  0.00    -0.225 A  
HETATM   27  C   UNL     1     -10.357   6.566  67.096  1.00  0.00    -0.247 C  
HETATM   28  F   UNL     1     -11.366   6.368  67.991  1.00  0.00    -0.382 F  
HETATM   29  F   UNL     1      -9.259   5.980  67.654  1.00  0.00    -0.113 F  
HETATM   30  F   UNL     1     -10.669   5.813  66.007  1.00  0.00    -0.176 F  
HETATM   31  C   UNL     1      -8.869   9.725  65.623  1.00  0.00    -0.182 A  
ENDBRANCH  13  14
ENDBRANCH  12  13
ENDBRANCH  11  12
ENDBRANCH   8  11
ENDBRANCH   4   5
ENDBRANCH   2   4
TORSDOF 6
ENDMDL
MODEL      101
REMARK 921   NORMALIZED FREE ENERGY PREDICTED BY IDOCK:   -5.47 KCAL/MOL
REMARK 922        TOTAL FREE ENERGY PREDICTED BY IDOCK:   -7.62 KCAL/MOL
REMARK 923 INTER-LIGAND FREE ENERGY PREDICTED BY IDOCK:   -7.50 KCAL/MOL
REMARK 924 INTRA-LIGAND FREE ENERGY PREDICTED BY IDOCK:   -0.13 KCAL/MOL
REMARK 927      BINDING AFFINITY PREDICTED BY RF-SCORE:    0.00 PKD
ROOT
HETATM    1  O   UNL     1      -6.000  11.228  62.481  1.00  0.00    -0.351 OA 
HETATM    2  C   UNL     1      -5.800   9.815  62.494  1.00  0.00    -0.092 C  
HETATM    3  H   UNL     1      -5.376  11.634  61.891  1.00  0.00     0.000 HD 
ENDROOT
BRANCH   2   4
HETATM    4  C   UNL     1      -6.809   9.159  63.450  1.00  0.00    -0.090 C  
BRANCH   4   5
HETATM    5  N   UNL     1      -6.840   9.758  64.800  1.00  0.00    -0.115 NA 
HETATM    6  C   UNL     1      -7.974  10.682  64.986  1.00  0.00    -0.013 C  
HETATM    7  C   UNL     1      -9.345   9.984  65.053  1.00  0.00    -0.256 C  
HETATM    8  N   UNL     1      -9.462   8.944  66.096  1.00  0.00    -0.234 NA 
HETATM    9  C   UNL     1      -6.924   8.707  65.840  1.00  0.00    -0.075 C  
HETATM   10  C   UNL     1      -8.309   8.023  65.984  1.00  0.00    -0.126 C  
BRANCH   8  11
HETATM   11  C   UNL     1      -9.588   9.492  67.455  1.00  0.00    -0.141 C  
BRANCH  11  12
HETATM   12  C   UNL     1      -9.925  10.989  67.476  1.00  0.00    -0.199 C  
BRANCH  12  13
HETATM   13  C   UNL     1     -11.438  11.246  67.390  1.00  0.00    -0.221 C  
BRANCH  13  14
HETATM   14  N   UNL     1     -11.877  12.173  68.466  1.00  0.00    -0.327 NA 
HETATM   15  C   UNL     1     -12.280  11.585  69.705  1.00  0.00    -0.229 A  
HETATM   16  C   UNL     1     -12.499  10.194  69.855  1.00  0.00     0.057 A  
HETATM   17  C   UNL     1     -12.915   9.613  71.061  1.00  0.00    -0.325 A  
HETATM   18  C   UNL     1     -13.127  10.406  72.172  1.00  0.00    -0.427 A  
HETATM   19  C   UNL     1     -12.922  11.776  72.070  1.00  0.00    -0.370 A  
HETATM   20  C   UNL     1     -12.505  12.366  70.857  1.00  0.00    -0.274 A  
HETATM   21  S   UNL     1     -12.282  14.125  70.926  1.00  0.00    -0.365 SA 
HETATM   22  C   UNL     1     -11.716  14.510  69.291  1.00  0.00    -0.310 A  
HETATM   23  C   UNL     1     -11.601  13.564  68.257  1.00  0.00    -0.346 A  
HETATM   24  C   UNL     1     -11.181  14.075  67.004  1.00  0.00    -0.325 A  
HETATM   25  C   UNL     1     -10.798  15.414  66.792  1.00  0.00    -0.306 A  
HETATM   26  C   UNL     1     -10.901  16.309  67.850  1.00  0.00    -0.330 A  
HETATM   27  C   UNL     1     -10.256  15.867  65.458  1.00  0.00    -0.365 C  
HETATM   28  F   UNL     1     -10.173  14.871  64.531  1.00  0.00    -0.342 F  
HETATM   29  F   UNL     1      -8.992  16.370  65.561  1.00  0.00    -0.224 F  
HETATM   30  F   UNL     1     -11.003  16.849  64.887  1.00  0.00    -0.408 F  
HETATM   31  C   UNL     1     -11.371  15.863  69.080  1.00  0.00    -0.366 A  
ENDBRANCH  13  14
ENDBRANCH  12  13
ENDBRANCH  11  12
ENDBRANCH   8  11
ENDBRANCH   4   5
ENDBRANCH   2   4
TORSDOF 6
ENDMDL
MODEL      102
REMARK 921   NORMALIZED FREE ENERGY PREDICTED BY IDOCK:   -5.46 KCAL/MOL
REMARK 922        TOTAL FREE ENERGY PREDICTED BY IDOCK:   -7.61 KCAL/MOL
REMARK 923 INTER-LIGAND FREE ENERGY PREDICTED BY IDOCK:   -7.33 KCAL/MOL
REMARK 924 INTRA-LIGAND FREE ENERGY PREDICTED BY IDOCK:   -0.28 KCAL/MOL
REMARK 927      BINDING AFFINITY PREDICTED BY RF-SCORE:    0.00 PKD
ROOT
HETATM    1  O   UNL     1      -9.855  20.730  65.966  1.00  0.00    -0.522 OA 
HETATM    2  C   UNL     1      -9.101  19.585  66.363  1.00  0.00    -0.370 C  
HETATM    3  H   UNL     1      -9.347  21.517  66.122  1.00  0.00     0.000 HD 
ENDROOT
BRANCH   2   4
HETATM    4  C   UNL     1      -9.924  18.311  66.110  1.00  0.00    -0.308 C  
BRANCH   4   5
HETATM    5  N   UNL     1      -9.224  17.061  66.469  1.00  0.00    -0.259 NA 
HETATM    6  C   UNL     1      -9.335  16.737  67.903  1.00  0.00    -0.229 C  
HETATM    7  C   UNL     1     -10.747  16.299  68.337  1.00  0.00    -0.311 C  
HETATM    8  N   UNL     1     -11.297  15.148  67.592  1.00  0.00    -0.325 NA 
HETATM    9  C   UNL     1      -9.759  15.917  65.693  1.00  0.00    -0.271 C  
HETATM   10  C   UNL     1     -11.152  15.404  66.141  1.00  0.00    -0.230 C  
BRANCH   8  11
HETATM   11  C   UNL     1     -10.695  13.863  67.977  1.00  0.00    -0.247 C  
BRANCH  11  12
HETATM   12  C   UNL     1     -10.462  12.921  66.788  1.00  0.00    -0.262 C  
BRANCH  12  13
HETATM   13  C   UNL     1     -11.517  11.807  66.711  1.00  0.00    -0.281 C  
BRANCH  13  14
HETATM   14  N   UNL     1     -10.966  10.523  67.220  1.00  0.00    -0.285 NA 
HETATM   15  C   UNL     1     -10.084   9.807  66.353  1.00  0.00    -0.243 A  
HETATM   16  C   UNL     1      -9.915  10.141  64.988  1.00  0.00    -0.375 A  
HETATM   17  C   UNL     1      -9.068   9.430  64.127  1.00  0.00    -0.132 A  
HETATM   18  C   UNL     1      -8.350   8.350  64.601  1.00  0.00    -0.137 A  
HETATM   19  C   UNL     1      -8.484   7.988  65.936  1.00  0.00    -0.154 A  
HETATM   20  C   UNL     1      -9.337   8.700  66.806  1.00  0.00    -0.179 A  
HETATM   21  S   UNL     1      -9.364   8.098  68.476  1.00  0.00    -0.138 SA 
HETATM   22  C   UNL     1     -10.464   9.231  69.280  1.00  0.00    -0.218 A  
HETATM   23  C   UNL     1     -11.153  10.261  68.616  1.00  0.00    -0.239 A  
HETATM   24  C   UNL     1     -12.029  11.030  69.422  1.00  0.00    -0.408 A  
HETATM   25  C   UNL     1     -12.154  10.870  70.817  1.00  0.00    -0.469 A  
HETATM   26  C   UNL     1     -11.433   9.856  71.436  1.00  0.00    -0.393 A  
HETATM   27  C   UNL     1     -13.025  11.796  71.632  1.00  0.00    -0.362 C  
HETATM   28  F   UNL     1     -13.636  12.766  70.895  1.00  0.00     0.056 F  
HETATM   29  F   UNL     1     -12.314  12.462  72.586  1.00  0.00     0.452 F  
HETATM   30  F   UNL     1     -14.019  11.144  72.293  1.00  0.00    -0.203 F  
HETATM   31  C   UNL     1     -10.610   9.037  70.671  1.00  0.00    -0.290 A  
ENDBRANCH  13  14
ENDBRANCH  12  13
ENDBRANCH  11  12
ENDBRANCH   8  11
ENDBRANCH   4   5
ENDBRANCH   2   4
TORSDOF 6
ENDMDL
MODEL      103
REMARK 921   NORMALIZED FREE ENERGY PREDICTED BY IDOCK:   -5.46 KCAL/MOL
REMARK 922        TOTAL FREE ENERGY PREDICTED BY IDOCK:   -7.61 KCAL/MOL
REMARK 923 INTER-LIGAND FREE ENERGY PREDICTED BY IDOCK:   -6.82 KCAL/MOL
REMARK 924 INTRA-LIGAND FREE ENERGY PREDICTED BY IDOCK:   -0.79 KCAL/MOL
REMARK 927      BINDING AFFINITY PREDICTED BY RF-SCORE:    0.00 PKD
ROOT
HETATM    1  O   UNL     1      -9.561   5.229  72.808  1.00  0.00    -0.148 OA 
HETATM    2  C   UNL     1     -10.936   4.907  72.602  1.00  0.00    -0.186 C  
HETATM    3  H   UNL     1      -9.038   4.438  72.766  1.00  0.00     0.000 HD 
ENDROOT
BRANCH   2   4
HETATM    4  C   UNL     1     -11.783   6.189  72.671  1.00  0.00    -0.151 C  
BRANCH   4   5
HETATM    5  N   UNL     1     -12.191   6.713  71.351  1.00  0.00    -0.350 NA 
HETATM    6  C   UNL     1     -13.500   7.392  71.389  1.00  0.00    -0.330 C  
HETATM    7  C   UNL     1     -13.484   8.739  72.135  1.00  0.00    -0.427 C  
HETATM    8  N   UNL     1     -12.504   9.721  71.625  1.00  0.00    -0.384 NA 
HETATM    9  C   UNL     1     -11.187   7.671  70.832  1.00  0.00    -0.268 C  
HETATM   10  C   UNL     1     -11.182   9.064  71.515  1.00  0.00    -0.348 C  
BRANCH   8  11
HETATM   11  C   UNL     1     -12.909  10.340  70.354  1.00  0.00    -0.139 C  
BRANCH  11  12
HETATM   12  C   UNL     1     -11.829  11.251  69.753  1.00  0.00    -0.437 C  
BRANCH  12  13
HETATM   13  C   UNL     1     -11.262  10.692  68.438  1.00  0.00    -0.288 C  
BRANCH  13  14
HETATM   14  N   UNL     1     -10.206  11.587  67.898  1.00  0.00    -0.180 NA 
HETATM   15  C   UNL     1     -10.638  12.701  67.113  1.00  0.00    -0.236 A  
HETATM   16  C   UNL     1     -11.969  12.839  66.649  1.00  0.00    -0.411 A  
HETATM   17  C   UNL     1     -12.395  13.918  65.862  1.00  0.00    -0.517 A  
HETATM   18  C   UNL     1     -11.500  14.909  65.508  1.00  0.00    -0.307 A  
HETATM   19  C   UNL     1     -10.185  14.815  65.943  1.00  0.00    -0.331 A  
HETATM   20  C   UNL     1      -9.751  13.730  66.735  1.00  0.00    -0.275 A  
HETATM   21  S   UNL     1      -8.041  13.792  67.206  1.00  0.00    -0.092 SA 
HETATM   22  C   UNL     1      -7.862  12.343  68.212  1.00  0.00    -0.150 A  
HETATM   23  C   UNL     1      -8.888  11.407  68.430  1.00  0.00    -0.167 A  
HETATM   24  C   UNL     1      -8.535  10.286  69.222  1.00  0.00    -0.172 A  
HETATM   25  C   UNL     1      -7.283  10.132  69.850  1.00  0.00    -0.155 A  
HETATM   26  C   UNL     1      -6.308  11.097  69.630  1.00  0.00    -0.119 A  
HETATM   27  C   UNL     1      -7.011   8.967  70.770  1.00  0.00    -0.074 C  
HETATM   28  F   UNL     1      -8.074   8.127  70.922  1.00  0.00    -0.085 F  
HETATM   29  F   UNL     1      -6.688   9.372  72.031  1.00  0.00     0.016 F  
HETATM   30  F   UNL     1      -5.977   8.190  70.350  1.00  0.00    -0.029 F  
HETATM   31  C   UNL     1      -6.591  12.181  68.806  1.00  0.00    -0.083 A  
ENDBRANCH  13  14
ENDBRANCH  12  13
ENDBRANCH  11  12
ENDBRANCH   8  11
ENDBRANCH   4   5
ENDBRANCH   2   4
TORSDOF 6
ENDMDL
MODEL      104
REMARK 921   NORMALIZED FREE ENERGY PREDICTED BY IDOCK:   -5.44 KCAL/MOL
REMARK 922        TOTAL FREE ENERGY PREDICTED BY IDOCK:   -7.59 KCAL/MOL
REMARK 923 INTER-LIGAND FREE ENERGY PREDICTED BY IDOCK:   -6.92 KCAL/MOL
REMARK 924 INTRA-LIGAND FREE ENERGY PREDICTED BY IDOCK:   -0.67 KCAL/MOL
REMARK 927      BINDING AFFINITY PREDICTED BY RF-SCORE:    0.00 PKD
ROOT
HETATM    1  O   UNL     1      -6.162  19.168  64.271  1.00  0.00    -0.463 OA 
HETATM    2  C   UNL     1      -6.518  19.932  65.422  1.00  0.00    -0.264 C  
HETATM    3  H   UNL     1      -5.269  19.368  64.018  1.00  0.00     0.000 HD 
ENDROOT
BRANCH   2   4
HETATM    4  C   UNL     1      -7.964  19.607  65.832  1.00  0.00    -0.258 C  
BRANCH   4   5
HETATM    5  N   UNL     1      -8.085  18.956  67.153  1.00  0.00    -0.260 NA 
HETATM    6  C   UNL     1      -9.391  18.299  67.346  1.00  0.00    -0.261 C  
HETATM    7  C   UNL     1      -9.586  17.034  66.489  1.00  0.00    -0.278 C  
HETATM    8  N   UNL     1      -8.551  15.995  66.669  1.00  0.00    -0.252 NA 
HETATM    9  C   UNL     1      -7.023  17.940  67.338  1.00  0.00    -0.186 C  
HETATM   10  C   UNL     1      -7.216  16.624  66.540  1.00  0.00    -0.206 C  
BRANCH   8  11
HETATM   11  C   UNL     1      -8.681  15.254  67.932  1.00  0.00    -0.164 C  
BRANCH  11  12
HETATM   12  C   UNL     1      -7.727  14.057  68.035  1.00  0.00    -0.149 C  
BRANCH  12  13
HETATM   13  C   UNL     1      -8.478  12.723  68.167  1.00  0.00    -0.177 C  
BRANCH  13  14
HETATM   14  N   UNL     1      -8.260  11.873  66.967  1.00  0.00    -0.167 NA 
HETATM   15  C   UNL     1      -7.249  10.867  67.060  1.00  0.00    -0.114 A  
HETATM   16  C   UNL     1      -6.320  10.812  68.127  1.00  0.00    -0.057 A  
HETATM   17  C   UNL     1      -5.314   9.841  68.214  1.00  0.00    -0.039 A  
HETATM   18  C   UNL     1      -5.197   8.877  67.231  1.00  0.00    -0.033 A  
HETATM   19  C   UNL     1      -6.090   8.892  66.167  1.00  0.00    -0.056 A  
HETATM   20  C   UNL     1      -7.104   9.869  66.074  1.00  0.00    -0.105 A  
HETATM   21  S   UNL     1      -8.155   9.716  64.651  1.00  0.00    -0.152 SA 
HETATM   22  C   UNL     1      -9.316  11.035  64.883  1.00  0.00    -0.214 A  
HETATM   23  C   UNL     1      -9.252  11.961  65.938  1.00  0.00    -0.141 A  
HETATM   24  C   UNL     1     -10.242  12.976  65.922  1.00  0.00    -0.298 A  
HETATM   25  C   UNL     1     -11.296  13.029  64.988  1.00  0.00    -0.325 A  
HETATM   26  C   UNL     1     -11.336  12.075  63.978  1.00  0.00    -0.478 A  
HETATM   27  C   UNL     1     -12.379  14.075  65.095  1.00  0.00    -0.453 C  
HETATM   28  F   UNL     1     -12.230  14.914  66.158  1.00  0.00    -0.246 F  
HETATM   29  F   UNL     1     -13.616  13.520  65.244  1.00  0.00    -0.164 F  
HETATM   30  F   UNL     1     -12.457  14.872  63.996  1.00  0.00    -0.518 F  
HETATM   31  C   UNL     1     -10.347  11.100  63.919  1.00  0.00    -0.441 A  
ENDBRANCH  13  14
ENDBRANCH  12  13
ENDBRANCH  11  12
ENDBRANCH   8  11
ENDBRANCH   4   5
ENDBRANCH   2   4
TORSDOF 6
ENDMDL
MODEL      105
REMARK 921   NORMALIZED FREE ENERGY PREDICTED BY IDOCK:   -5.44 KCAL/MOL
REMARK 922        TOTAL FREE ENERGY PREDICTED BY IDOCK:   -7.59 KCAL/MOL
REMARK 923 INTER-LIGAND FREE ENERGY PREDICTED BY IDOCK:   -7.60 KCAL/MOL
REMARK 924 INTRA-LIGAND FREE ENERGY PREDICTED BY IDOCK:    0.02 KCAL/MOL
REMARK 927      BINDING AFFINITY PREDICTED BY RF-SCORE:    0.00 PKD
ROOT
HETATM    1  O   UNL     1      -5.815  11.198  62.449  1.00  0.00    -0.307 OA 
HETATM    2  C   UNL     1      -5.358   9.875  62.722  1.00  0.00    -0.091 C  
HETATM    3  H   UNL     1      -5.198  11.638  61.877  1.00  0.00     0.000 HD 
ENDROOT
BRANCH   2   4
HETATM    4  C   UNL     1      -6.358   9.163  63.648  1.00  0.00    -0.089 C  
BRANCH   4   5
HETATM    5  N   UNL     1      -6.572   9.843  64.941  1.00  0.00    -0.112 NA 
HETATM    6  C   UNL     1      -7.912  10.449  65.050  1.00  0.00    -0.126 C  
HETATM    7  C   UNL     1      -9.053   9.423  65.180  1.00  0.00    -0.225 C  
HETATM    8  N   UNL     1      -8.916   8.479  66.309  1.00  0.00    -0.157 NA 
HETATM    9  C   UNL     1      -6.399   8.897  66.068  1.00  0.00    -0.057 C  
HETATM   10  C   UNL     1      -7.559   7.888  66.273  1.00  0.00    -0.083 C  
BRANCH   8  11
HETATM   11  C   UNL     1      -9.208   9.086  67.615  1.00  0.00    -0.136 C  
BRANCH  11  12
HETATM   12  C   UNL     1      -9.565  10.576  67.525  1.00  0.00    -0.181 C  
BRANCH  12  13
HETATM   13  C   UNL     1     -11.077  10.821  67.651  1.00  0.00    -0.319 C  
BRANCH  13  14
HETATM   14  N   UNL     1     -11.372  11.719  68.798  1.00  0.00    -0.241 NA 
HETATM   15  C   UNL     1     -11.356  13.125  68.543  1.00  0.00    -0.286 A  
HETATM   16  C   UNL     1     -10.851  13.679  67.342  1.00  0.00    -0.282 A  
HETATM   17  C   UNL     1     -10.813  15.057  67.094  1.00  0.00    -0.314 A  
HETATM   18  C   UNL     1     -11.284  15.943  68.043  1.00  0.00    -0.319 A  
HETATM   19  C   UNL     1     -11.791  15.443  69.236  1.00  0.00    -0.365 A  
HETATM   20  C   UNL     1     -11.830  14.056  69.491  1.00  0.00    -0.325 A  
HETATM   21  S   UNL     1     -12.526  13.609  71.062  1.00  0.00    -0.348 SA 
HETATM   22  C   UNL     1     -12.470  11.838  71.022  1.00  0.00    -0.309 A  
HETATM   23  C   UNL     1     -11.904  11.094  69.973  1.00  0.00    -0.361 A  
HETATM   24  C   UNL     1     -11.907   9.687  70.149  1.00  0.00    -0.087 A  
HETATM   25  C   UNL     1     -12.518   9.035  71.238  1.00  0.00    -0.346 A  
HETATM   26  C   UNL     1     -13.092   9.810  72.239  1.00  0.00    -0.445 A  
HETATM   27  C   UNL     1     -12.582   7.528  71.308  1.00  0.00    -0.314 C  
HETATM   28  F   UNL     1     -12.015   6.904  70.237  1.00  0.00    -0.368 F  
HETATM   29  F   UNL     1     -13.865   7.069  71.356  1.00  0.00    -0.425 F  
HETATM   30  F   UNL     1     -11.962   7.022  72.408  1.00  0.00    -0.298 F  
HETATM   31  C   UNL     1     -13.052  11.196  72.138  1.00  0.00    -0.288 A  
ENDBRANCH  13  14
ENDBRANCH  12  13
ENDBRANCH  11  12
ENDBRANCH   8  11
ENDBRANCH   4   5
ENDBRANCH   2   4
TORSDOF 6
ENDMDL
MODEL      106
REMARK 921   NORMALIZED FREE ENERGY PREDICTED BY IDOCK:   -5.43 KCAL/MOL
REMARK 922        TOTAL FREE ENERGY PREDICTED BY IDOCK:   -7.58 KCAL/MOL
REMARK 923 INTER-LIGAND FREE ENERGY PREDICTED BY IDOCK:   -7.47 KCAL/MOL
REMARK 924 INTRA-LIGAND FREE ENERGY PREDICTED BY IDOCK:   -0.11 KCAL/MOL
REMARK 927      BINDING AFFINITY PREDICTED BY RF-SCORE:    0.00 PKD
ROOT
HETATM    1  O   UNL     1     -10.751  19.635  67.738  1.00  0.00    -0.430 OA 
HETATM    2  C   UNL     1      -9.979  18.816  68.615  1.00  0.00    -0.394 C  
HETATM    3  H   UNL     1     -11.469  20.030  68.218  1.00  0.00     0.000 HD 
ENDROOT
BRANCH   2   4
HETATM    4  C   UNL     1      -8.817  18.177  67.837  1.00  0.00    -0.268 C  
BRANCH   4   5
HETATM    5  N   UNL     1      -9.222  17.058  66.961  1.00  0.00    -0.230 NA 
HETATM    6  C   UNL     1      -8.108  16.140  66.659  1.00  0.00    -0.288 C  
HETATM    7  C   UNL     1      -7.656  15.290  67.862  1.00  0.00    -0.139 C  
HETATM    8  N   UNL     1      -8.723  14.481  68.488  1.00  0.00    -0.174 NA 
HETATM    9  C   UNL     1     -10.315  16.273  67.581  1.00  0.00    -0.284 C  
HETATM   10  C   UNL     1      -9.888  15.354  68.756  1.00  0.00    -0.211 C  
BRANCH   8  11
HETATM   11  C   UNL     1      -9.101  13.301  67.696  1.00  0.00    -0.204 C  
BRANCH  11  12
HETATM   12  C   UNL     1      -9.448  12.079  68.557  1.00  0.00    -0.136 C  
BRANCH  12  13
HETATM   13  C   UNL     1     -10.724  11.371  68.075  1.00  0.00    -0.200 C  
BRANCH  13  14
HETATM   14  N   UNL     1     -10.684  11.154  66.605  1.00  0.00    -0.268 NA 
HETATM   15  C   UNL     1     -11.288  12.157  65.785  1.00  0.00    -0.354 A  
HETATM   16  C   UNL     1     -12.104  13.187  66.312  1.00  0.00    -0.460 A  
HETATM   17  C   UNL     1     -12.716  14.161  65.511  1.00  0.00    -0.468 A  
HETATM   18  C   UNL     1     -12.533  14.144  64.142  1.00  0.00    -0.267 A  
HETATM   19  C   UNL     1     -11.738  13.152  63.582  1.00  0.00    -0.505 A  
HETATM   20  C   UNL     1     -11.120  12.168  64.384  1.00  0.00    -0.333 A  
HETATM   21  S   UNL     1     -10.132  10.996  63.491  1.00  0.00    -0.376 SA 
HETATM   22  C   UNL     1      -9.480   9.972  64.783  1.00  0.00    -0.304 A  
HETATM   23  C   UNL     1      -9.818  10.112  66.141  1.00  0.00    -0.237 A  
HETATM   24  C   UNL     1      -9.234   9.163  67.017  1.00  0.00    -0.167 A  
HETATM   25  C   UNL     1      -8.295   8.194  66.611  1.00  0.00    -0.111 A  
HETATM   26  C   UNL     1      -7.969   8.111  65.263  1.00  0.00    -0.126 A  
HETATM   27  C   UNL     1      -7.629   7.286  67.616  1.00  0.00    -0.110 C  
HETATM   28  F   UNL     1      -8.017   7.511  68.903  1.00  0.00    -0.114 F  
HETATM   29  F   UNL     1      -6.273   7.428  67.617  1.00  0.00    -0.039 F  
HETATM   30  F   UNL     1      -7.866   5.968  67.378  1.00  0.00    -0.096 F  
HETATM   31  C   UNL     1      -8.569   8.981  64.359  1.00  0.00    -0.174 A  
ENDBRANCH  13  14
ENDBRANCH  12  13
ENDBRANCH  11  12
ENDBRANCH   8  11
ENDBRANCH   4   5
ENDBRANCH   2   4
TORSDOF 6
ENDMDL
MODEL      107
REMARK 921   NORMALIZED FREE ENERGY PREDICTED BY IDOCK:   -5.43 KCAL/MOL
REMARK 922        TOTAL FREE ENERGY PREDICTED BY IDOCK:   -7.57 KCAL/MOL
REMARK 923 INTER-LIGAND FREE ENERGY PREDICTED BY IDOCK:   -6.68 KCAL/MOL
REMARK 924 INTRA-LIGAND FREE ENERGY PREDICTED BY IDOCK:   -0.90 KCAL/MOL
REMARK 927      BINDING AFFINITY PREDICTED BY RF-SCORE:    0.00 PKD
ROOT
HETATM    1  O   UNL     1      -5.897  16.182  66.701  1.00  0.00    -0.238 OA 
HETATM    2  C   UNL     1      -6.828  16.946  67.466  1.00  0.00    -0.147 C  
HETATM    3  H   UNL     1      -5.021  16.304  67.049  1.00  0.00     0.000 HD 
ENDROOT
BRANCH   2   4
HETATM    4  C   UNL     1      -8.245  16.750  66.902  1.00  0.00    -0.210 C  
BRANCH   4   5
HETATM    5  N   UNL     1      -8.607  15.338  66.660  1.00  0.00    -0.278 NA 
HETATM    6  C   UNL     1      -8.858  14.593  67.907  1.00  0.00    -0.170 C  
HETATM    7  C   UNL     1     -10.154  15.003  68.631  1.00  0.00    -0.233 C  
HETATM    8  N   UNL     1     -11.382  14.901  67.814  1.00  0.00    -0.319 NA 
HETATM    9  C   UNL     1      -9.819  15.245  65.813  1.00  0.00    -0.361 C  
HETATM   10  C   UNL     1     -11.155  15.589  66.523  1.00  0.00    -0.182 C  
BRANCH   8  11
HETATM   11  C   UNL     1     -11.837  13.517  67.618  1.00  0.00    -0.363 C  
BRANCH  11  12
HETATM   12  C   UNL     1     -11.730  12.658  68.885  1.00  0.00    -0.370 C  
BRANCH  12  13
HETATM   13  C   UNL     1     -11.609  11.159  68.565  1.00  0.00    -0.314 C  
BRANCH  13  14
HETATM   14  N   UNL     1     -10.883  10.446  69.647  1.00  0.00    -0.259 NA 
HETATM   15  C   UNL     1     -11.674   9.855  70.681  1.00  0.00    -0.323 A  
HETATM   16  C   UNL     1     -13.056  10.123  70.833  1.00  0.00    -0.412 A  
HETATM   17  C   UNL     1     -13.834   9.564  71.856  1.00  0.00    -0.338 A  
HETATM   18  C   UNL     1     -13.256   8.707  72.773  1.00  0.00    -0.161 A  
HETATM   19  C   UNL     1     -11.903   8.414  72.659  1.00  0.00    -0.360 A  
HETATM   20  C   UNL     1     -11.115   8.976  71.631  1.00  0.00    -0.363 A  
HETATM   21  S   UNL     1      -9.413   8.472  71.641  1.00  0.00    -0.271 SA 
HETATM   22  C   UNL     1      -8.755   9.301  70.219  1.00  0.00    -0.219 A  
HETATM   23  C   UNL     1      -9.493  10.186  69.415  1.00  0.00    -0.224 A  
HETATM   24  C   UNL     1      -8.775  10.792  68.353  1.00  0.00    -0.142 A  
HETATM   25  C   UNL     1      -7.440  10.478  68.030  1.00  0.00    -0.090 A  
HETATM   26  C   UNL     1      -6.757   9.575  68.836  1.00  0.00    -0.051 A  
HETATM   27  C   UNL     1      -6.769  11.078  66.819  1.00  0.00    -0.128 C  
HETATM   28  F   UNL     1      -7.575  11.912  66.102  1.00  0.00     0.051 F  
HETATM   29  F   UNL     1      -6.357  10.126  65.934  1.00  0.00    -0.072 F  
HETATM   30  F   UNL     1      -5.662  11.803  67.130  1.00  0.00    -0.072 F  
HETATM   31  C   UNL     1      -7.405   9.006  69.928  1.00  0.00    -0.060 A  
ENDBRANCH  13  14
ENDBRANCH  12  13
ENDBRANCH  11  12
ENDBRANCH   8  11
ENDBRANCH   4   5
ENDBRANCH   2   4
TORSDOF 6
ENDMDL
MODEL      108
REMARK 921   NORMALIZED FREE ENERGY PREDICTED BY IDOCK:   -5.40 KCAL/MOL
REMARK 922        TOTAL FREE ENERGY PREDICTED BY IDOCK:   -7.53 KCAL/MOL
REMARK 923 INTER-LIGAND FREE ENERGY PREDICTED BY IDOCK:   -8.21 KCAL/MOL
REMARK 924 INTRA-LIGAND FREE ENERGY PREDICTED BY IDOCK:    0.69 KCAL/MOL
REMARK 927      BINDING AFFINITY PREDICTED BY RF-SCORE:    0.00 PKD
ROOT
HETATM    1  O   UNL     1      -5.125  15.298  67.681  1.00  0.00    -0.267 OA 
HETATM    2  C   UNL     1      -5.433  16.022  68.870  1.00  0.00    -0.108 C  
HETATM    3  H   UNL     1      -4.776  14.444  67.908  1.00  0.00     0.000 HD 
ENDROOT
BRANCH   2   4
HETATM    4  C   UNL     1      -5.999  17.404  68.503  1.00  0.00    -0.162 C  
BRANCH   4   5
HETATM    5  N   UNL     1      -7.386  17.628  68.957  1.00  0.00    -0.233 NA 
HETATM    6  C   UNL     1      -8.190  18.385  67.980  1.00  0.00    -0.271 C  
HETATM    7  C   UNL     1      -8.530  17.593  66.703  1.00  0.00    -0.259 C  
HETATM    8  N   UNL     1      -9.229  16.312  66.934  1.00  0.00    -0.209 NA 
HETATM    9  C   UNL     1      -8.069  16.339  69.219  1.00  0.00    -0.157 C  
HETATM   10  C   UNL     1      -8.486  15.540  67.956  1.00  0.00    -0.143 C  
BRANCH   8  11
HETATM   11  C   UNL     1     -10.643  16.477  67.302  1.00  0.00    -0.285 C  
BRANCH  11  12
HETATM   12  C   UNL     1     -11.076  15.578  68.468  1.00  0.00    -0.307 C  
BRANCH  12  13
HETATM   13  C   UNL     1     -11.558  14.199  67.993  1.00  0.00    -0.334 C  
BRANCH  13  14
HETATM   14  N   UNL     1     -11.691  13.263  69.139  1.00  0.00    -0.310 NA 
HETATM   15  C   UNL     1     -12.511  13.686  70.231  1.00  0.00    -0.265 A  
HETATM   16  C   UNL     1     -12.986  15.013  70.361  1.00  0.00    -0.283 A  
HETATM   17  C   UNL     1     -13.773  15.440  71.439  1.00  0.00    -0.591 A  
HETATM   18  C   UNL     1     -14.120  14.549  72.436  1.00  0.00    -0.544 A  
HETATM   19  C   UNL     1     -13.677  13.236  72.347  1.00  0.00    -0.678 A  
HETATM   20  C   UNL     1     -12.883  12.801  71.264  1.00  0.00    -0.262 A  
HETATM   21  S   UNL     1     -12.427  11.087  71.319  1.00  0.00    -0.342 SA 
HETATM   22  C   UNL     1     -11.509  10.881  69.817  1.00  0.00    -0.313 A  
HETATM   23  C   UNL     1     -11.211  11.929  68.929  1.00  0.00    -0.254 A  
HETATM   24  C   UNL     1     -10.419  11.575  67.808  1.00  0.00    -0.216 A  
HETATM   25  C   UNL     1     -10.022  10.255  67.513  1.00  0.00    -0.226 A  
HETATM   26  C   UNL     1     -10.364   9.246  68.405  1.00  0.00    -0.244 A  
HETATM   27  C   UNL     1      -9.272   9.932  66.244  1.00  0.00    -0.168 C  
HETATM   28  F   UNL     1      -9.046  11.016  65.449  1.00  0.00    -0.190 F  
HETATM   29  F   UNL     1      -9.948   9.044  65.460  1.00  0.00    -0.319 F  
HETATM   30  F   UNL     1      -8.053   9.375  66.475  1.00  0.00    -0.107 F  
HETATM   31  C   UNL     1     -11.085   9.560  69.552  1.00  0.00    -0.168 A  
ENDBRANCH  13  14
ENDBRANCH  12  13
ENDBRANCH  11  12
ENDBRANCH   8  11
ENDBRANCH   4   5
ENDBRANCH   2   4
TORSDOF 6
ENDMDL
MODEL      109
REMARK 921   NORMALIZED FREE ENERGY PREDICTED BY IDOCK:   -5.33 KCAL/MOL
REMARK 922        TOTAL FREE ENERGY PREDICTED BY IDOCK:   -7.43 KCAL/MOL
REMARK 923 INTER-LIGAND FREE ENERGY PREDICTED BY IDOCK:   -6.80 KCAL/MOL
REMARK 924 INTRA-LIGAND FREE ENERGY PREDICTED BY IDOCK:   -0.63 KCAL/MOL
REMARK 927      BINDING AFFINITY PREDICTED BY RF-SCORE:    0.00 PKD
ROOT
HETATM    1  O   UNL     1     -13.218   7.248  70.900  1.00  0.00    -0.598 OA 
HETATM    2  C   UNL     1     -12.145   6.756  71.700  1.00  0.00    -0.359 C  
HETATM    3  H   UNL     1     -13.933   7.527  71.459  1.00  0.00     0.000 HD 
ENDROOT
BRANCH   2   4
HETATM    4  C   UNL     1     -10.988   6.303  70.794  1.00  0.00    -0.297 C  
BRANCH   4   5
HETATM    5  N   UNL     1      -9.760   7.112  70.935  1.00  0.00    -0.171 NA 
HETATM    6  C   UNL     1      -8.724   6.750  69.949  1.00  0.00    -0.141 C  
HETATM    7  C   UNL     1      -9.063   7.164  68.505  1.00  0.00    -0.132 C  
HETATM    8  N   UNL     1      -9.348   8.603  68.322  1.00  0.00    -0.137 NA 
HETATM    9  C   UNL     1     -10.059   8.555  70.783  1.00  0.00    -0.198 C  
HETATM   10  C   UNL     1     -10.344   9.025  69.332  1.00  0.00    -0.213 C  
BRANCH   8  11
HETATM   11  C   UNL     1      -8.143   9.445  68.364  1.00  0.00    -0.109 C  
BRANCH  11  12
HETATM   12  C   UNL     1      -8.424  10.884  68.815  1.00  0.00    -0.150 C  
BRANCH  12  13
HETATM   13  C   UNL     1      -8.111  11.911  67.715  1.00  0.00    -0.146 C  
BRANCH  13  14
HETATM   14  N   UNL     1      -9.353  12.322  67.009  1.00  0.00    -0.198 NA 
HETATM   15  C   UNL     1     -10.070  13.434  67.550  1.00  0.00    -0.227 A  
HETATM   16  C   UNL     1      -9.782  13.983  68.823  1.00  0.00    -0.123 A  
HETATM   17  C   UNL     1     -10.494  15.060  69.368  1.00  0.00    -0.254 A  
HETATM   18  C   UNL     1     -11.528  15.636  68.655  1.00  0.00    -0.381 A  
HETATM   19  C   UNL     1     -11.842  15.130  67.401  1.00  0.00    -0.086 A  
HETATM   20  C   UNL     1     -11.130  14.045  66.848  1.00  0.00    -0.304 A  
HETATM   21  S   UNL     1     -11.667  13.550  65.230  1.00  0.00    -0.339 SA 
HETATM   22  C   UNL     1     -10.545  12.237  64.833  1.00  0.00    -0.293 A  
HETATM   23  C   UNL     1      -9.567  11.745  65.715  1.00  0.00    -0.233 A  
HETATM   24  C   UNL     1      -8.801  10.654  65.234  1.00  0.00    -0.204 A  
HETATM   25  C   UNL     1      -8.910  10.135  63.928  1.00  0.00    -0.248 A  
HETATM   26  C   UNL     1      -9.872  10.670  63.080  1.00  0.00    -0.351 A  
HETATM   27  C   UNL     1      -7.987   9.044  63.444  1.00  0.00    -0.149 C  
HETATM   28  F   UNL     1      -7.069   8.649  64.371  1.00  0.00    -0.080 F  
HETATM   29  F   UNL     1      -7.258   9.431  62.358  1.00  0.00    -0.103 F  
HETATM   30  F   UNL     1      -8.648   7.917  63.068  1.00  0.00    -0.079 F  
HETATM   31  C   UNL     1     -10.690  11.698  63.535  1.00  0.00    -0.495 A  
ENDBRANCH  13  14
ENDBRANCH  12  13
ENDBRANCH  11  12
ENDBRANCH   8  11
ENDBRANCH   4   5
ENDBRANCH   2   4
TORSDOF 6
ENDMDL
MODEL      110
REMARK 921   NORMALIZED FREE ENERGY PREDICTED BY IDOCK:   -5.32 KCAL/MOL
REMARK 922        TOTAL FREE ENERGY PREDICTED BY IDOCK:   -7.42 KCAL/MOL
REMARK 923 INTER-LIGAND FREE ENERGY PREDICTED BY IDOCK:   -6.80 KCAL/MOL
REMARK 924 INTRA-LIGAND FREE ENERGY PREDICTED BY IDOCK:   -0.62 KCAL/MOL
REMARK 927      BINDING AFFINITY PREDICTED BY RF-SCORE:    0.00 PKD
ROOT
HETATM    1  O   UNL     1     -10.987  16.703  68.006  1.00  0.00    -0.355 OA 
HETATM    2  C   UNL     1     -11.404  15.438  68.517  1.00  0.00    -0.335 C  
HETATM    3  H   UNL     1     -11.688  17.336  68.108  1.00  0.00     0.000 HD 
ENDROOT
BRANCH   2   4
HETATM    4  C   UNL     1     -10.269  14.413  68.352  1.00  0.00    -0.243 C  
BRANCH   4   5
HETATM    5  N   UNL     1     -10.405  13.549  67.162  1.00  0.00    -0.249 NA 
HETATM    6  C   UNL     1      -9.234  12.678  66.955  1.00  0.00    -0.216 C  
HETATM    7  C   UNL     1      -9.099  11.552  67.997  1.00  0.00    -0.174 C  
HETATM    8  N   UNL     1     -10.278  10.668  68.113  1.00  0.00    -0.162 NA 
HETATM    9  C   UNL     1     -11.608  12.690  67.271  1.00  0.00    -0.364 C  
HETATM   10  C   UNL     1     -11.489  11.504  68.265  1.00  0.00    -0.299 C  
BRANCH   8  11
HETATM   11  C   UNL     1     -10.409   9.722  66.994  1.00  0.00    -0.239 C  
BRANCH  11  12
HETATM   12  C   UNL     1      -9.830   8.335  67.301  1.00  0.00    -0.258 C  
BRANCH  12  13
HETATM   13  C   UNL     1     -10.910   7.340  67.754  1.00  0.00    -0.144 C  
BRANCH  13  14
HETATM   14  N   UNL     1     -10.411   6.490  68.866  1.00  0.00    -0.195 NA 
HETATM   15  C   UNL     1     -10.730   6.907  70.196  1.00  0.00    -0.237 A  
HETATM   16  C   UNL     1     -11.275   8.181  70.488  1.00  0.00    -0.249 A  
HETATM   17  C   UNL     1     -11.570   8.605  71.790  1.00  0.00    -0.403 A  
HETATM   18  C   UNL     1     -11.333   7.764  72.860  1.00  0.00    -0.406 A  
HETATM   19  C   UNL     1     -10.801   6.503  72.620  1.00  0.00    -0.278 A  
HETATM   20  C   UNL     1     -10.500   6.073  71.310  1.00  0.00    -0.230 A  
HETATM   21  S   UNL     1      -9.843   4.428  71.201  1.00  0.00    -0.173 SA 
HETATM   22  C   UNL     1      -9.641   4.204  69.455  1.00  0.00    -0.194 A  
HETATM   23  C   UNL     1      -9.896   5.204  68.500  1.00  0.00    -0.155 A  
HETATM   24  C   UNL     1      -9.624   4.850  67.155  1.00  0.00    -0.175 A  
HETATM   25  C   UNL     1      -9.222   3.562  66.749  1.00  0.00    -0.199 A  
HETATM   26  C   UNL     1      -9.009   2.595  67.725  1.00  0.00    -0.198 A  
HETATM   27  C   UNL     1      -9.056   3.222  65.288  1.00  0.00    -0.147 C  
HETATM   28  F   UNL     1      -9.339   4.256  64.448  1.00  0.00    -0.143 F  
HETATM   29  F   UNL     1      -9.878   2.205  64.900  1.00  0.00    -0.078 F  
HETATM   30  F   UNL     1      -7.794   2.821  64.977  1.00  0.00    -0.076 F  
HETATM   31  C   UNL     1      -9.201   2.920  69.064  1.00  0.00    -0.222 A  
ENDBRANCH  13  14
ENDBRANCH  12  13
ENDBRANCH  11  12
ENDBRANCH   8  11
ENDBRANCH   4   5
ENDBRANCH   2   4
TORSDOF 6
ENDMDL
MODEL      111
REMARK 921   NORMALIZED FREE ENERGY PREDICTED BY IDOCK:   -5.30 KCAL/MOL
REMARK 922        TOTAL FREE ENERGY PREDICTED BY IDOCK:   -7.40 KCAL/MOL
REMARK 923 INTER-LIGAND FREE ENERGY PREDICTED BY IDOCK:   -6.96 KCAL/MOL
REMARK 924 INTRA-LIGAND FREE ENERGY PREDICTED BY IDOCK:   -0.44 KCAL/MOL
REMARK 927      BINDING AFFINITY PREDICTED BY RF-SCORE:    0.00 PKD
ROOT
HETATM    1  O   UNL     1     -13.046  12.203  63.512  1.00  0.00    -0.785 OA 
HETATM    2  C   UNL     1     -11.687  12.262  63.939  1.00  0.00    -0.451 C  
HETATM    3  H   UNL     1     -13.082  12.138  62.565  1.00  0.00     0.000 HD 
ENDROOT
BRANCH   2   4
HETATM    4  C   UNL     1     -11.630  12.366  65.472  1.00  0.00    -0.385 C  
BRANCH   4   5
HETATM    5  N   UNL     1     -10.286  12.145  66.042  1.00  0.00    -0.231 NA 
HETATM    6  C   UNL     1     -10.331  11.636  67.426  1.00  0.00    -0.205 C  
HETATM    7  C   UNL     1     -10.831  10.184  67.542  1.00  0.00    -0.290 C  
HETATM    8  N   UNL     1     -10.070   9.199  66.746  1.00  0.00    -0.254 NA 
HETATM    9  C   UNL     1      -9.518  11.181  65.219  1.00  0.00    -0.226 C  
HETATM   10  C   UNL     1      -9.949   9.698  65.357  1.00  0.00    -0.160 C  
BRANCH   8  11
HETATM   11  C   UNL     1      -8.757   8.874  67.321  1.00  0.00    -0.121 C  
BRANCH  11  12
HETATM   12  C   UNL     1      -8.784   7.645  68.239  1.00  0.00    -0.123 C  
BRANCH  12  13
HETATM   13  C   UNL     1      -9.678   6.524  67.685  1.00  0.00    -0.123 C  
BRANCH  13  14
HETATM   14  N   UNL     1      -9.605   5.317  68.549  1.00  0.00    -0.128 NA 
HETATM   15  C   UNL     1      -8.716   4.276  68.136  1.00  0.00    -0.102 A  
HETATM   16  C   UNL     1      -8.109   4.251  66.857  1.00  0.00    -0.101 A  
HETATM   17  C   UNL     1      -7.253   3.224  66.438  1.00  0.00    -0.067 A  
HETATM   18  C   UNL     1      -6.967   2.174  67.288  1.00  0.00    -0.040 A  
HETATM   19  C   UNL     1      -7.539   2.159  68.554  1.00  0.00    -0.050 A  
HETATM   20  C   UNL     1      -8.403   3.190  68.980  1.00  0.00    -0.060 A  
HETATM   21  S   UNL     1      -9.024   3.004  70.632  1.00  0.00    -0.109 SA 
HETATM   22  C   UNL     1     -10.001   4.466  70.848  1.00  0.00    -0.172 A  
HETATM   23  C   UNL     1     -10.220   5.420  69.839  1.00  0.00    -0.281 A  
HETATM   24  C   UNL     1     -11.075   6.496  70.188  1.00  0.00    -0.410 A  
HETATM   25  C   UNL     1     -11.607   6.687  71.479  1.00  0.00    -0.357 A  
HETATM   26  C   UNL     1     -11.342   5.733  72.453  1.00  0.00    -0.348 A  
HETATM   27  C   UNL     1     -12.422   7.913  71.811  1.00  0.00    -0.323 C  
HETATM   28  F   UNL     1     -12.563   8.779  70.768  1.00  0.00    -0.206 F  
HETATM   29  F   UNL     1     -11.860   8.646  72.815  1.00  0.00    -0.423 F  
HETATM   30  F   UNL     1     -13.682   7.616  72.226  1.00  0.00    -0.255 F  
HETATM   31  C   UNL     1     -10.560   4.628  72.135  1.00  0.00    -0.175 A  
ENDBRANCH  13  14
ENDBRANCH  12  13
ENDBRANCH  11  12
ENDBRANCH   8  11
ENDBRANCH   4   5
ENDBRANCH   2   4
TORSDOF 6
ENDMDL
MODEL      112
REMARK 921   NORMALIZED FREE ENERGY PREDICTED BY IDOCK:   -5.30 KCAL/MOL
REMARK 922        TOTAL FREE ENERGY PREDICTED BY IDOCK:   -7.40 KCAL/MOL
REMARK 923 INTER-LIGAND FREE ENERGY PREDICTED BY IDOCK:   -6.71 KCAL/MOL
REMARK 924 INTRA-LIGAND FREE ENERGY PREDICTED BY IDOCK:   -0.69 KCAL/MOL
REMARK 927      BINDING AFFINITY PREDICTED BY RF-SCORE:    0.00 PKD
ROOT
HETATM    1  O   UNL     1     -13.873  13.733  72.803  1.00  0.00    -0.716 OA 
HETATM    2  C   UNL     1     -13.276  13.007  71.730  1.00  0.00    -0.392 C  
HETATM    3  H   UNL     1     -14.000  14.638  72.545  1.00  0.00     0.000 HD 
ENDROOT
BRANCH   2   4
HETATM    4  C   UNL     1     -13.070  11.542  72.148  1.00  0.00    -0.181 C  
BRANCH   4   5
HETATM    5  N   UNL     1     -13.168  10.577  71.033  1.00  0.00    -0.318 NA 
HETATM    6  C   UNL     1     -11.854  10.238  70.457  1.00  0.00    -0.329 C  
HETATM    7  C   UNL     1     -10.970   9.378  71.380  1.00  0.00    -0.373 C  
HETATM    8  N   UNL     1     -11.585   8.110  71.825  1.00  0.00    -0.275 NA 
HETATM    9  C   UNL     1     -13.816   9.322  71.480  1.00  0.00    -0.265 C  
HETATM   10  C   UNL     1     -12.935   8.396  72.359  1.00  0.00    -0.256 C  
BRANCH   8  11
HETATM   11  C   UNL     1     -11.625   7.081  70.774  1.00  0.00    -0.338 C  
BRANCH  11  12
HETATM   12  C   UNL     1     -10.675   5.905  71.040  1.00  0.00    -0.331 C  
BRANCH  12  13
HETATM   13  C   UNL     1      -9.233   6.210  70.606  1.00  0.00    -0.154 C  
BRANCH  13  14
HETATM   14  N   UNL     1      -8.992   5.745  69.215  1.00  0.00    -0.118 NA 
HETATM   15  C   UNL     1      -9.104   4.341  68.972  1.00  0.00    -0.131 A  
HETATM   16  C   UNL     1      -9.194   3.389  70.016  1.00  0.00    -0.220 A  
HETATM   17  C   UNL     1      -9.283   2.009  69.785  1.00  0.00    -0.178 A  
HETATM   18  C   UNL     1      -9.289   1.524  68.492  1.00  0.00    -0.231 A  
HETATM   19  C   UNL     1      -9.205   2.424  67.436  1.00  0.00    -0.174 A  
HETATM   20  C   UNL     1      -9.113   3.814  67.663  1.00  0.00    -0.158 A  
HETATM   21  S   UNL     1      -9.030   4.803  66.192  1.00  0.00    -0.127 SA 
HETATM   22  C   UNL     1      -8.982   6.453  66.835  1.00  0.00    -0.124 A  
HETATM   23  C   UNL     1      -8.938   6.761  68.206  1.00  0.00    -0.123 A  
HETATM   24  C   UNL     1      -8.850   8.140  68.522  1.00  0.00    -0.134 A  
HETATM   25  C   UNL     1      -8.904   9.169  67.561  1.00  0.00    -0.124 A  
HETATM   26  C   UNL     1      -8.977   8.819  66.218  1.00  0.00    -0.211 A  
HETATM   27  C   UNL     1      -8.916  10.621  67.973  1.00  0.00    -0.140 C  
HETATM   28  F   UNL     1      -8.882  10.809  69.323  1.00  0.00    -0.161 F  
HETATM   29  F   UNL     1     -10.039  11.267  67.547  1.00  0.00    -0.187 F  
HETATM   30  F   UNL     1      -7.866  11.324  67.471  1.00  0.00    -0.109 F  
HETATM   31  C   UNL     1      -8.999   7.476  65.861  1.00  0.00    -0.128 A  
ENDBRANCH  13  14
ENDBRANCH  12  13
ENDBRANCH  11  12
ENDBRANCH   8  11
ENDBRANCH   4   5
ENDBRANCH   2   4
TORSDOF 6
ENDMDL
MODEL      113
REMARK 921   NORMALIZED FREE ENERGY PREDICTED BY IDOCK:   -5.29 KCAL/MOL
REMARK 922        TOTAL FREE ENERGY PREDICTED BY IDOCK:   -7.39 KCAL/MOL
REMARK 923 INTER-LIGAND FREE ENERGY PREDICTED BY IDOCK:   -7.05 KCAL/MOL
REMARK 924 INTRA-LIGAND FREE ENERGY PREDICTED BY IDOCK:   -0.34 KCAL/MOL
REMARK 927      BINDING AFFINITY PREDICTED BY RF-SCORE:    0.00 PKD
ROOT
HETATM    1  O   UNL     1     -10.510   5.476  73.959  1.00  0.00    -0.255 OA 
HETATM    2  C   UNL     1      -9.817   6.711  73.784  1.00  0.00    -0.246 C  
HETATM    3  H   UNL     1     -11.134   5.558  74.670  1.00  0.00     0.000 HD 
ENDROOT
BRANCH   2   4
HETATM    4  C   UNL     1      -8.806   6.578  72.633  1.00  0.00    -0.124 C  
BRANCH   4   5
HETATM    5  N   UNL     1      -9.388   6.791  71.292  1.00  0.00    -0.165 NA 
HETATM    6  C   UNL     1     -10.372   7.889  71.266  1.00  0.00    -0.191 C  
HETATM    7  C   UNL     1      -9.751   9.288  71.431  1.00  0.00    -0.199 C  
HETATM    8  N   UNL     1      -8.705   9.625  70.443  1.00  0.00    -0.213 NA 
HETATM    9  C   UNL     1      -8.329   7.095  70.301  1.00  0.00    -0.136 C  
HETATM   10  C   UNL     1      -7.722   8.519  70.393  1.00  0.00    -0.080 C  
BRANCH   8  11
HETATM   11  C   UNL     1      -9.241   9.935  69.110  1.00  0.00    -0.180 C  
BRANCH  11  12
HETATM   12  C   UNL     1      -9.269  11.438  68.801  1.00  0.00    -0.108 C  
BRANCH  12  13
HETATM   13  C   UNL     1     -10.618  11.888  68.219  1.00  0.00    -0.213 C  
BRANCH  13  14
HETATM   14  N   UNL     1     -11.310  12.817  69.150  1.00  0.00    -0.280 NA 
HETATM   15  C   UNL     1     -12.067  12.228  70.211  1.00  0.00    -0.295 A  
HETATM   16  C   UNL     1     -12.366  10.845  70.260  1.00  0.00    -0.412 A  
HETATM   17  C   UNL     1     -13.124  10.264  71.285  1.00  0.00    -0.492 A  
HETATM   18  C   UNL     1     -13.614  11.049  72.311  1.00  0.00     0.056 A  
HETATM   19  C   UNL     1     -13.342  12.411  72.304  1.00  0.00    -0.427 A  
HETATM   20  C   UNL     1     -12.581  13.001  71.272  1.00  0.00    -0.279 A  
HETATM   21  S   UNL     1     -12.327  14.749  71.444  1.00  0.00    -0.360 SA 
HETATM   22  C   UNL     1     -11.310  15.133  70.044  1.00  0.00    -0.277 A  
HETATM   23  C   UNL     1     -10.940  14.198  69.062  1.00  0.00    -0.261 A  
HETATM   24  C   UNL     1     -10.167  14.710  67.989  1.00  0.00    -0.231 A  
HETATM   25  C   UNL     1      -9.694  16.035  67.926  1.00  0.00    -0.220 A  
HETATM   26  C   UNL     1     -10.061  16.919  68.934  1.00  0.00    -0.297 A  
HETATM   27  C   UNL     1      -8.783  16.485  66.810  1.00  0.00    -0.226 C  
HETATM   28  F   UNL     1      -8.477  15.500  65.920  1.00  0.00    -0.261 F  
HETATM   29  F   UNL     1      -7.583  16.936  67.277  1.00  0.00    -0.161 F  
HETATM   30  F   UNL     1      -9.306  17.504  66.077  1.00  0.00    -0.260 F  
HETATM   31  C   UNL     1     -10.874  16.475  69.972  1.00  0.00    -0.258 A  
ENDBRANCH  13  14
ENDBRANCH  12  13
ENDBRANCH  11  12
ENDBRANCH   8  11
ENDBRANCH   4   5
ENDBRANCH   2   4
TORSDOF 6
ENDMDL
MODEL      114
REMARK 921   NORMALIZED FREE ENERGY PREDICTED BY IDOCK:   -5.29 KCAL/MOL
REMARK 922        TOTAL FREE ENERGY PREDICTED BY IDOCK:   -7.39 KCAL/MOL
REMARK 923 INTER-LIGAND FREE ENERGY PREDICTED BY IDOCK:   -6.73 KCAL/MOL
REMARK 924 INTRA-LIGAND FREE ENERGY PREDICTED BY IDOCK:   -0.65 KCAL/MOL
REMARK 927      BINDING AFFINITY PREDICTED BY RF-SCORE:    0.00 PKD
ROOT
HETATM    1  O   UNL     1     -10.812  17.333  69.489  1.00  0.00    -0.368 OA 
HETATM    2  C   UNL     1     -11.225  15.979  69.316  1.00  0.00    -0.346 C  
HETATM    3  H   UNL     1     -10.728  17.526  70.416  1.00  0.00     0.000 HD 
ENDROOT
BRANCH   2   4
HETATM    4  C   UNL     1     -11.360  15.667  67.816  1.00  0.00    -0.261 C  
BRANCH   4   5
HETATM    5  N   UNL     1     -11.892  14.320  67.526  1.00  0.00    -0.389 NA 
HETATM    6  C   UNL     1     -11.914  14.016  66.083  1.00  0.00    -0.420 C  
HETATM    7  C   UNL     1     -10.518  13.809  65.466  1.00  0.00    -0.318 C  
HETATM    8  N   UNL     1      -9.701  12.762  66.114  1.00  0.00    -0.260 NA 
HETATM    9  C   UNL     1     -11.086  13.279  68.206  1.00  0.00    -0.266 C  
HETATM   10  C   UNL     1      -9.698  12.995  67.576  1.00  0.00    -0.206 C  
BRANCH   8  11
HETATM   11  C   UNL     1     -10.135  11.397  65.783  1.00  0.00    -0.246 C  
BRANCH  11  12
HETATM   12  C   UNL     1      -9.541  10.330  66.713  1.00  0.00    -0.214 C  
BRANCH  12  13
HETATM   13  C   UNL     1     -10.530   9.189  66.998  1.00  0.00    -0.240 C  
BRANCH  13  14
HETATM   14  N   UNL     1      -9.986   8.264  68.025  1.00  0.00    -0.177 NA 
HETATM   15  C   UNL     1     -10.424   8.460  69.372  1.00  0.00    -0.217 A  
HETATM   16  C   UNL     1     -11.140   9.610  69.784  1.00  0.00    -0.247 A  
HETATM   17  C   UNL     1     -11.554   9.818  71.106  1.00  0.00    -0.469 A  
HETATM   18  C   UNL     1     -11.269   8.877  72.076  1.00  0.00    -0.422 A  
HETATM   19  C   UNL     1     -10.570   7.732  71.716  1.00  0.00    -0.260 A  
HETATM   20  C   UNL     1     -10.149   7.518  70.385  1.00  0.00    -0.196 A  
HETATM   21  S   UNL     1      -9.284   5.992  70.117  1.00  0.00    -0.155 SA 
HETATM   22  C   UNL     1      -8.965   6.027  68.374  1.00  0.00    -0.114 A  
HETATM   23  C   UNL     1      -9.294   7.108  67.537  1.00  0.00    -0.124 A  
HETATM   24  C   UNL     1      -8.910   6.971  66.179  1.00  0.00    -0.165 A  
HETATM   25  C   UNL     1      -8.327   5.805  65.644  1.00  0.00    -0.138 A  
HETATM   26  C   UNL     1      -8.045   4.750  66.503  1.00  0.00    -0.107 A  
HETATM   27  C   UNL     1      -8.043   5.685  64.166  1.00  0.00    -0.129 C  
HETATM   28  F   UNL     1      -8.411   6.781  63.445  1.00  0.00    -0.024 F  
HETATM   29  F   UNL     1      -8.709   4.638  63.598  1.00  0.00    -0.118 F  
HETATM   30  F   UNL     1      -6.726   5.481  63.894  1.00  0.00    -0.034 F  
HETATM   31  C   UNL     1      -8.346   4.868  67.855  1.00  0.00    -0.103 A  
ENDBRANCH  13  14
ENDBRANCH  12  13
ENDBRANCH  11  12
ENDBRANCH   8  11
ENDBRANCH   4   5
ENDBRANCH   2   4
TORSDOF 6
ENDMDL
MODEL      115
REMARK 921   NORMALIZED FREE ENERGY PREDICTED BY IDOCK:   -5.28 KCAL/MOL
REMARK 922        TOTAL FREE ENERGY PREDICTED BY IDOCK:   -7.37 KCAL/MOL
REMARK 923 INTER-LIGAND FREE ENERGY PREDICTED BY IDOCK:   -6.56 KCAL/MOL
REMARK 924 INTRA-LIGAND FREE ENERGY PREDICTED BY IDOCK:   -0.81 KCAL/MOL
REMARK 927      BINDING AFFINITY PREDICTED BY RF-SCORE:    0.00 PKD
ROOT
HETATM    1  O   UNL     1      -6.297   3.364  65.012  1.00  0.00    -0.026 OA 
HETATM    2  C   UNL     1      -5.981   4.445  65.887  1.00  0.00    -0.023 C  
HETATM    3  H   UNL     1      -5.568   3.204  64.425  1.00  0.00     0.000 HD 
ENDROOT
BRANCH   2   4
HETATM    4  C   UNL     1      -7.162   4.704  66.837  1.00  0.00    -0.076 C  
BRANCH   4   5
HETATM    5  N   UNL     1      -6.807   5.478  68.044  1.00  0.00    -0.058 NA 
HETATM    6  C   UNL     1      -6.486   6.886  67.743  1.00  0.00    -0.050 C  
HETATM    7  C   UNL     1      -7.705   7.729  67.325  1.00  0.00    -0.113 C  
HETATM    8  N   UNL     1      -8.818   7.740  68.297  1.00  0.00    -0.130 NA 
HETATM    9  C   UNL     1      -7.915   5.456  69.028  1.00  0.00    -0.094 C  
HETATM   10  C   UNL     1      -9.136   6.344  68.674  1.00  0.00    -0.127 C  
BRANCH   8  11
HETATM   11  C   UNL     1      -8.550   8.572  69.480  1.00  0.00    -0.131 C  
BRANCH  11  12
HETATM   12  C   UNL     1      -9.316   9.902  69.472  1.00  0.00    -0.236 C  
BRANCH  12  13
HETATM   13  C   UNL     1     -10.719   9.762  68.862  1.00  0.00    -0.217 C  
BRANCH  13  14
HETATM   14  N   UNL     1     -11.250  11.088  68.451  1.00  0.00    -0.250 NA 
HETATM   15  C   UNL     1     -11.826  11.903  69.474  1.00  0.00    -0.331 A  
HETATM   16  C   UNL     1     -12.116  11.411  70.770  1.00  0.00    -0.433 A  
HETATM   17  C   UNL     1     -12.700  12.198  71.772  1.00  0.00    -0.265 A  
HETATM   18  C   UNL     1     -13.016  13.518  71.517  1.00  0.00    -0.440 A  
HETATM   19  C   UNL     1     -12.745  14.043  70.260  1.00  0.00    -0.270 A  
HETATM   20  C   UNL     1     -12.159  13.254  69.246  1.00  0.00    -0.242 A  
HETATM   21  S   UNL     1     -11.877  14.104  67.714  1.00  0.00    -0.365 SA 
HETATM   22  C   UNL     1     -11.099  12.861  66.718  1.00  0.00    -0.281 A  
HETATM   23  C   UNL     1     -10.896  11.534  67.136  1.00  0.00    -0.268 A  
HETATM   24  C   UNL     1     -10.305  10.674  66.176  1.00  0.00    -0.291 A  
HETATM   25  C   UNL     1      -9.845  11.104  64.915  1.00  0.00    -0.316 A  
HETATM   26  C   UNL     1     -10.042  12.432  64.555  1.00  0.00    -0.276 A  
HETATM   27  C   UNL     1      -9.126  10.159  63.984  1.00  0.00    -0.254 C  
HETATM   28  F   UNL     1      -8.970   8.902  64.490  1.00  0.00    -0.212 F  
HETATM   29  F   UNL     1      -7.865  10.588  63.689  1.00  0.00    -0.156 F  
HETATM   30  F   UNL     1      -9.758  10.006  62.790  1.00  0.00    -0.316 F  
HETATM   31  C   UNL     1     -10.677  13.294  65.442  1.00  0.00    -0.308 A  
ENDBRANCH  13  14
ENDBRANCH  12  13
ENDBRANCH  11  12
ENDBRANCH   8  11
ENDBRANCH   4   5
ENDBRANCH   2   4
TORSDOF 6
ENDMDL
MODEL      116
REMARK 921   NORMALIZED FREE ENERGY PREDICTED BY IDOCK:   -5.28 KCAL/MOL
REMARK 922        TOTAL FREE ENERGY PREDICTED BY IDOCK:   -7.36 KCAL/MOL
REMARK 923 INTER-LIGAND FREE ENERGY PREDICTED BY IDOCK:   -6.85 KCAL/MOL
REMARK 924 INTRA-LIGAND FREE ENERGY PREDICTED BY IDOCK:   -0.52 KCAL/MOL
REMARK 927      BINDING AFFINITY PREDICTED BY RF-SCORE:    0.00 PKD
ROOT
HETATM    1  O   UNL     1     -10.937   4.018  74.056  1.00  0.00    -0.223 OA 
HETATM    2  C   UNL     1      -9.862   4.943  73.897  1.00  0.00    -0.153 C  
HETATM    3  H   UNL     1     -10.591   3.160  74.272  1.00  0.00     0.000 HD 
ENDROOT
BRANCH   2   4
HETATM    4  C   UNL     1     -10.422   6.331  73.546  1.00  0.00    -0.271 C  
BRANCH   4   5
HETATM    5  N   UNL     1      -9.520   7.151  72.712  1.00  0.00    -0.142 NA 
HETATM    6  C   UNL     1      -8.906   6.383  71.613  1.00  0.00    -0.136 C  
HETATM    7  C   UNL     1      -9.893   5.987  70.499  1.00  0.00    -0.180 C  
HETATM    8  N   UNL     1     -10.619   7.117  69.881  1.00  0.00    -0.224 NA 
HETATM    9  C   UNL     1     -10.248   8.300  72.123  1.00  0.00    -0.285 C  
HETATM   10  C   UNL     1     -11.205   7.951  70.954  1.00  0.00    -0.270 C  
BRANCH   8  11
HETATM   11  C   UNL     1      -9.787   7.914  68.968  1.00  0.00    -0.171 C  
BRANCH  11  12
HETATM   12  C   UNL     1     -10.472   9.201  68.490  1.00  0.00    -0.238 C  
BRANCH  12  13
HETATM   13  C   UNL     1      -9.461  10.266  68.037  1.00  0.00    -0.146 C  
BRANCH  13  14
HETATM   14  N   UNL     1     -10.087  11.213  67.077  1.00  0.00    -0.195 NA 
HETATM   15  C   UNL     1     -10.691  12.387  67.624  1.00  0.00    -0.221 A  
HETATM   16  C   UNL     1     -10.917  12.555  69.012  1.00  0.00    -0.237 A  
HETATM   17  C   UNL     1     -11.527  13.695  69.554  1.00  0.00    -0.324 A  
HETATM   18  C   UNL     1     -11.934  14.721  68.723  1.00  0.00    -0.292 A  
HETATM   19  C   UNL     1     -11.729  14.599  67.354  1.00  0.00    -0.413 A  
HETATM   20  C   UNL     1     -11.118  13.452  66.804  1.00  0.00    -0.292 A  
HETATM   21  S   UNL     1     -10.929  13.486  65.039  1.00  0.00    -0.354 SA 
HETATM   22  C   UNL     1     -10.096  11.957  64.708  1.00  0.00    -0.262 A  
HETATM   23  C   UNL     1      -9.795  10.998  65.691  1.00  0.00    -0.239 A  
HETATM   24  C   UNL     1      -9.173   9.814  65.221  1.00  0.00    -0.294 A  
HETATM   25  C   UNL     1      -8.773   9.616  63.885  1.00  0.00    -0.241 A  
HETATM   26  C   UNL     1      -9.066  10.604  62.952  1.00  0.00    -0.295 A  
HETATM   27  C   UNL     1      -8.016   8.377  63.473  1.00  0.00    -0.159 C  
HETATM   28  F   UNL     1      -7.765   7.519  64.503  1.00  0.00    -0.092 F  
HETATM   29  F   UNL     1      -6.794   8.673  62.945  1.00  0.00    -0.090 F  
HETATM   30  F   UNL     1      -8.665   7.648  62.527  1.00  0.00    -0.065 F  
HETATM   31  C   UNL     1      -9.734  11.753  63.358  1.00  0.00    -0.341 A  
ENDBRANCH  13  14
ENDBRANCH  12  13
ENDBRANCH  11  12
ENDBRANCH   8  11
ENDBRANCH   4   5
ENDBRANCH   2   4
TORSDOF 6
ENDMDL
MODEL      117
REMARK 921   NORMALIZED FREE ENERGY PREDICTED BY IDOCK:   -5.27 KCAL/MOL
REMARK 922        TOTAL FREE ENERGY PREDICTED BY IDOCK:   -7.36 KCAL/MOL
REMARK 923 INTER-LIGAND FREE ENERGY PREDICTED BY IDOCK:   -6.76 KCAL/MOL
REMARK 924 INTRA-LIGAND FREE ENERGY PREDICTED BY IDOCK:   -0.60 KCAL/MOL
REMARK 927      BINDING AFFINITY PREDICTED BY RF-SCORE:    0.00 PKD
ROOT
HETATM    1  O   UNL     1     -12.043  12.399  63.090  1.00  0.00    -0.701 OA 
HETATM    2  C   UNL     1     -10.956  12.551  64.001  1.00  0.00    -0.398 C  
HETATM    3  H   UNL     1     -12.510  13.222  63.009  1.00  0.00     0.000 HD 
ENDROOT
BRANCH   2   4
HETATM    4  C   UNL     1     -10.201  11.218  64.133  1.00  0.00    -0.335 C  
BRANCH   4   5
HETATM    5  N   UNL     1      -9.215  11.189  65.232  1.00  0.00    -0.214 NA 
HETATM    6  C   UNL     1      -9.787  10.691  66.497  1.00  0.00    -0.204 C  
HETATM    7  C   UNL     1     -10.109   9.185  66.487  1.00  0.00    -0.287 C  
HETATM    8  N   UNL     1      -8.967   8.307  66.156  1.00  0.00    -0.172 NA 
HETATM    9  C   UNL     1      -8.058  10.334  64.879  1.00  0.00    -0.154 C  
HETATM   10  C   UNL     1      -8.324   8.806  64.920  1.00  0.00    -0.170 C  
BRANCH   8  11
HETATM   11  C   UNL     1      -7.998   8.173  67.254  1.00  0.00    -0.113 C  
BRANCH  11  12
HETATM   12  C   UNL     1      -8.376   7.082  68.266  1.00  0.00    -0.123 C  
BRANCH  12  13
HETATM   13  C   UNL     1      -8.103   7.512  69.716  1.00  0.00    -0.126 C  
BRANCH  13  14
HETATM   14  N   UNL     1      -9.043   6.841  70.650  1.00  0.00    -0.155 NA 
HETATM   15  C   UNL     1      -8.587   5.641  71.279  1.00  0.00    -0.128 A  
HETATM   16  C   UNL     1      -7.411   4.964  70.874  1.00  0.00    -0.065 A  
HETATM   17  C   UNL     1      -6.970   3.776  71.472  1.00  0.00    -0.031 A  
HETATM   18  C   UNL     1      -7.691   3.215  72.508  1.00  0.00    -0.058 A  
HETATM   19  C   UNL     1      -8.850   3.847  72.939  1.00  0.00    -0.106 A  
HETATM   20  C   UNL     1      -9.300   5.043  72.339  1.00  0.00    -0.137 A  
HETATM   21  S   UNL     1     -10.791   5.708  73.036  1.00  0.00    -0.288 SA 
HETATM   22  C   UNL     1     -11.024   7.198  72.105  1.00  0.00    -0.241 A  
HETATM   23  C   UNL     1     -10.199   7.593  71.037  1.00  0.00    -0.194 A  
HETATM   24  C   UNL     1     -10.580   8.791  70.381  1.00  0.00    -0.251 A  
HETATM   25  C   UNL     1     -11.645   9.612  70.803  1.00  0.00    -0.395 A  
HETATM   26  C   UNL     1     -12.416   9.195  71.881  1.00  0.00    -0.459 A  
HETATM   27  C   UNL     1     -11.927  10.931  70.126  1.00  0.00    -0.352 C  
HETATM   28  F   UNL     1     -11.063  11.225  69.114  1.00  0.00    -0.217 F  
HETATM   29  F   UNL     1     -11.841  11.982  70.991  1.00  0.00    -0.330 F  
HETATM   30  F   UNL     1     -13.173  10.993  69.585  1.00  0.00    -0.019 F  
HETATM   31  C   UNL     1     -12.117   7.993  72.513  1.00  0.00    -0.338 A  
ENDBRANCH  13  14
ENDBRANCH  12  13
ENDBRANCH  11  12
ENDBRANCH   8  11
ENDBRANCH   4   5
ENDBRANCH   2   4
TORSDOF 6
ENDMDL
MODEL      118
REMARK 921   NORMALIZED FREE ENERGY PREDICTED BY IDOCK:   -5.26 KCAL/MOL
REMARK 922        TOTAL FREE ENERGY PREDICTED BY IDOCK:   -7.35 KCAL/MOL
REMARK 923 INTER-LIGAND FREE ENERGY PREDICTED BY IDOCK:   -6.87 KCAL/MOL
REMARK 924 INTRA-LIGAND FREE ENERGY PREDICTED BY IDOCK:   -0.48 KCAL/MOL
REMARK 927      BINDING AFFINITY PREDICTED BY RF-SCORE:    0.00 PKD
ROOT
HETATM    1  O   UNL     1      -6.612   3.333  71.868  1.00  0.00    -0.015 OA 
HETATM    2  C   UNL     1      -5.949   3.367  70.605  1.00  0.00    -0.018 C  
HETATM    3  H   UNL     1      -5.971   3.241  72.563  1.00  0.00     0.000 HD 
ENDROOT
BRANCH   2   4
HETATM    4  C   UNL     1      -6.986   3.515  69.480  1.00  0.00    -0.042 C  
BRANCH   4   5
HETATM    5  N   UNL     1      -6.541   4.366  68.358  1.00  0.00    -0.045 NA 
HETATM    6  C   UNL     1      -7.575   4.524  67.318  1.00  0.00    -0.085 C  
HETATM    7  C   UNL     1      -8.772   5.390  67.754  1.00  0.00    -0.106 C  
HETATM    8  N   UNL     1      -8.421   6.747  68.221  1.00  0.00    -0.125 NA 
HETATM    9  C   UNL     1      -6.159   5.714  68.840  1.00  0.00    -0.025 C  
HETATM   10  C   UNL     1      -7.341   6.641  69.228  1.00  0.00    -0.093 C  
BRANCH   8  11
HETATM   11  C   UNL     1      -8.057   7.663  67.130  1.00  0.00    -0.118 C  
BRANCH  11  12
HETATM   12  C   UNL     1      -8.793   9.007  67.195  1.00  0.00    -0.130 C  
BRANCH  12  13
HETATM   13  C   UNL     1     -10.318   8.842  67.101  1.00  0.00    -0.293 C  
BRANCH  13  14
HETATM   14  N   UNL     1     -11.004   9.709  68.093  1.00  0.00    -0.183 NA 
HETATM   15  C   UNL     1     -11.092   9.219  69.433  1.00  0.00    -0.043 A  
HETATM   16  C   UNL     1     -10.776   7.884  69.781  1.00  0.00    -0.233 A  
HETATM   17  C   UNL     1     -10.879   7.390  71.089  1.00  0.00    -0.258 A  
HETATM   18  C   UNL     1     -11.304   8.220  72.108  1.00  0.00    -0.419 A  
HETATM   19  C   UNL     1     -11.623   9.539  71.812  1.00  0.00    -0.382 A  
HETATM   20  C   UNL     1     -11.522  10.040  70.496  1.00  0.00    -0.330 A  
HETATM   21  S   UNL     1     -11.958  11.752  70.318  1.00  0.00    -0.291 SA 
HETATM   22  C   UNL     1     -11.667  12.049  68.595  1.00  0.00    -0.326 A  
HETATM   23  C   UNL     1     -11.272  11.055  67.683  1.00  0.00    -0.305 A  
HETATM   24  C   UNL     1     -11.142  11.478  66.336  1.00  0.00    -0.328 A  
HETATM   25  C   UNL     1     -11.290  12.815  65.916  1.00  0.00    -0.363 A  
HETATM   26  C   UNL     1     -11.655  13.769  66.858  1.00  0.00    -0.394 A  
HETATM   27  C   UNL     1     -11.030  13.215  64.484  1.00  0.00    -0.372 C  
HETATM   28  F   UNL     1     -10.640  12.181  63.686  1.00  0.00    -0.334 F  
HETATM   29  F   UNL     1     -10.035  14.143  64.382  1.00  0.00    -0.359 F  
HETATM   30  F   UNL     1     -12.117  13.765  63.880  1.00  0.00    -0.454 F  
HETATM   31  C   UNL     1     -11.856  13.385  68.179  1.00  0.00    -0.396 A  
ENDBRANCH  13  14
ENDBRANCH  12  13
ENDBRANCH  11  12
ENDBRANCH   8  11
ENDBRANCH   4   5
ENDBRANCH   2   4
TORSDOF 6
ENDMDL
MODEL      119
REMARK 921   NORMALIZED FREE ENERGY PREDICTED BY IDOCK:   -5.26 KCAL/MOL
REMARK 922        TOTAL FREE ENERGY PREDICTED BY IDOCK:   -7.34 KCAL/MOL
REMARK 923 INTER-LIGAND FREE ENERGY PREDICTED BY IDOCK:   -7.00 KCAL/MOL
REMARK 924 INTRA-LIGAND FREE ENERGY PREDICTED BY IDOCK:   -0.35 KCAL/MOL
REMARK 927      BINDING AFFINITY PREDICTED BY RF-SCORE:    0.00 PKD
ROOT
HETATM    1  O   UNL     1     -12.618  14.165  63.303  1.00  0.00    -1.080 OA 
HETATM    2  C   UNL     1     -11.971  14.894  64.344  1.00  0.00    -0.394 C  
HETATM    3  H   UNL     1     -12.529  14.634  62.482  1.00  0.00     0.000 HD 
ENDROOT
BRANCH   2   4
HETATM    4  C   UNL     1     -12.115  14.135  65.674  1.00  0.00    -0.415 C  
BRANCH   4   5
HETATM    5  N   UNL     1     -11.514  12.786  65.666  1.00  0.00    -0.326 NA 
HETATM    6  C   UNL     1     -10.043  12.818  65.578  1.00  0.00    -0.264 C  
HETATM    7  C   UNL     1      -9.352  13.329  66.856  1.00  0.00    -0.244 C  
HETATM    8  N   UNL     1      -9.693  12.587  68.088  1.00  0.00    -0.218 NA 
HETATM    9  C   UNL     1     -11.889  12.036  66.888  1.00  0.00    -0.173 C  
HETATM   10  C   UNL     1     -11.166  12.479  68.187  1.00  0.00    -0.267 C  
BRANCH   8  11
HETATM   11  C   UNL     1      -9.046  11.269  68.172  1.00  0.00    -0.166 C  
BRANCH  11  12
HETATM   12  C   UNL     1      -9.751  10.308  69.137  1.00  0.00    -0.229 C  
BRANCH  12  13
HETATM   13  C   UNL     1     -10.362   9.098  68.413  1.00  0.00    -0.206 C  
BRANCH  13  14
HETATM   14  N   UNL     1      -9.375   7.993  68.308  1.00  0.00    -0.140 NA 
HETATM   15  C   UNL     1      -8.583   7.940  67.119  1.00  0.00    -0.128 A  
HETATM   16  C   UNL     1      -8.863   8.730  65.978  1.00  0.00    -0.210 A  
HETATM   17  C   UNL     1      -8.104   8.669  64.802  1.00  0.00    -0.149 A  
HETATM   18  C   UNL     1      -7.024   7.811  64.721  1.00  0.00    -0.055 A  
HETATM   19  C   UNL     1      -6.711   7.020  65.818  1.00  0.00    -0.052 A  
HETATM   20  C   UNL     1      -7.474   7.076  67.005  1.00  0.00    -0.094 A  
HETATM   21  S   UNL     1      -6.911   6.002  68.301  1.00  0.00    -0.078 SA 
HETATM   22  C   UNL     1      -8.035   6.367  69.622  1.00  0.00    -0.116 A  
HETATM   23  C   UNL     1      -9.122   7.251  69.508  1.00  0.00    -0.143 A  
HETATM   24  C   UNL     1      -9.938   7.370  70.660  1.00  0.00    -0.186 A  
HETATM   25  C   UNL     1      -9.656   6.741  71.889  1.00  0.00    -0.150 A  
HETATM   26  C   UNL     1      -8.555   5.897  71.965  1.00  0.00    -0.137 A  
HETATM   27  C   UNL     1     -10.507   6.999  73.109  1.00  0.00    -0.303 C  
HETATM   28  F   UNL     1     -11.525   7.879  72.893  1.00  0.00    -0.406 F  
HETATM   29  F   UNL     1      -9.785   7.527  74.138  1.00  0.00    -0.305 F  
HETATM   30  F   UNL     1     -11.086   5.870  73.600  1.00  0.00    -0.265 F  
HETATM   31  C   UNL     1      -7.764   5.701  70.838  1.00  0.00    -0.096 A  
ENDBRANCH  13  14
ENDBRANCH  12  13
ENDBRANCH  11  12
ENDBRANCH   8  11
ENDBRANCH   4   5
ENDBRANCH   2   4
TORSDOF 6
ENDMDL
MODEL      120
REMARK 921   NORMALIZED FREE ENERGY PREDICTED BY IDOCK:   -5.25 KCAL/MOL
REMARK 922        TOTAL FREE ENERGY PREDICTED BY IDOCK:   -7.33 KCAL/MOL
REMARK 923 INTER-LIGAND FREE ENERGY PREDICTED BY IDOCK:   -6.66 KCAL/MOL
REMARK 924 INTRA-LIGAND FREE ENERGY PREDICTED BY IDOCK:   -0.67 KCAL/MOL
REMARK 927      BINDING AFFINITY PREDICTED BY RF-SCORE:    0.00 PKD
ROOT
HETATM    1  O   UNL     1     -13.122  16.546  74.295  1.00  0.00    -0.865 OA 
HETATM    2  C   UNL     1     -13.207  15.526  73.301  1.00  0.00    -0.522 C  
HETATM    3  H   UNL     1     -13.611  16.283  75.065  1.00  0.00     0.000 HD 
ENDROOT
BRANCH   2   4
HETATM    4  C   UNL     1     -12.416  15.952  72.053  1.00  0.00    -0.464 C  
BRANCH   4   5
HETATM    5  N   UNL     1     -13.048  15.561  70.776  1.00  0.00    -0.460 NA 
HETATM    6  C   UNL     1     -12.134  15.690  69.626  1.00  0.00    -0.308 C  
HETATM    7  C   UNL     1     -11.000  14.648  69.608  1.00  0.00    -0.226 C  
HETATM    8  N   UNL     1     -11.449  13.241  69.645  1.00  0.00    -0.235 NA 
HETATM    9  C   UNL     1     -13.525  14.159  70.833  1.00  0.00    -0.090 C  
HETATM   10  C   UNL     1     -12.416  13.076  70.753  1.00  0.00    -0.302 C  
BRANCH   8  11
HETATM   11  C   UNL     1     -12.004  12.773  68.366  1.00  0.00    -0.231 C  
BRANCH  11  12
HETATM   12  C   UNL     1     -11.318  11.508  67.833  1.00  0.00    -0.372 C  
BRANCH  12  13
HETATM   13  C   UNL     1     -10.354  10.892  68.859  1.00  0.00    -0.204 C  
BRANCH  13  14
HETATM   14  N   UNL     1      -9.215  10.224  68.177  1.00  0.00    -0.135 NA 
HETATM   15  C   UNL     1      -9.477   8.962  67.559  1.00  0.00    -0.141 A  
HETATM   16  C   UNL     1     -10.676   8.240  67.774  1.00  0.00    -0.165 A  
HETATM   17  C   UNL     1     -10.932   6.993  67.188  1.00  0.00    -0.393 A  
HETATM   18  C   UNL     1      -9.992   6.416  66.356  1.00  0.00    -0.096 A  
HETATM   19  C   UNL     1      -8.802   7.090  66.115  1.00  0.00    -0.165 A  
HETATM   20  C   UNL     1      -8.540   8.346  66.704  1.00  0.00    -0.120 A  
HETATM   21  S   UNL     1      -6.974   9.059  66.266  1.00  0.00    -0.080 SA 
HETATM   22  C   UNL     1      -7.003  10.614  67.116  1.00  0.00    -0.088 A  
HETATM   23  C   UNL     1      -8.043  11.022  67.970  1.00  0.00    -0.121 A  
HETATM   24  C   UNL     1      -7.859  12.279  68.600  1.00  0.00    -0.063 A  
HETATM   25  C   UNL     1      -6.773  13.137  68.337  1.00  0.00    -0.095 A  
HETATM   26  C   UNL     1      -5.782  12.704  67.463  1.00  0.00    -0.131 A  
HETATM   27  C   UNL     1      -6.695  14.509  68.959  1.00  0.00    -0.105 C  
HETATM   28  F   UNL     1      -7.756  14.810  69.760  1.00  0.00    -0.161 F  
HETATM   29  F   UNL     1      -6.658  15.498  68.021  1.00  0.00    -0.105 F  
HETATM   30  F   UNL     1      -5.586  14.681  69.727  1.00  0.00    -0.092 F  
HETATM   31  C   UNL     1      -5.891  11.449  66.873  1.00  0.00    -0.121 A  
ENDBRANCH  13  14
ENDBRANCH  12  13
ENDBRANCH  11  12
ENDBRANCH   8  11
ENDBRANCH   4   5
ENDBRANCH   2   4
TORSDOF 6
ENDMDL
MODEL      121
REMARK 921   NORMALIZED FREE ENERGY PREDICTED BY IDOCK:   -5.23 KCAL/MOL
REMARK 922        TOTAL FREE ENERGY PREDICTED BY IDOCK:   -7.30 KCAL/MOL
REMARK 923 INTER-LIGAND FREE ENERGY PREDICTED BY IDOCK:   -6.96 KCAL/MOL
REMARK 924 INTRA-LIGAND FREE ENERGY PREDICTED BY IDOCK:   -0.34 KCAL/MOL
REMARK 927      BINDING AFFINITY PREDICTED BY RF-SCORE:    0.00 PKD
ROOT
HETATM    1  O   UNL     1     -11.384   5.739  73.202  1.00  0.00    -0.438 OA 
HETATM    2  C   UNL     1     -10.534   6.717  73.797  1.00  0.00    -0.354 C  
HETATM    3  H   UNL     1     -11.712   5.150  73.871  1.00  0.00     0.000 HD 
ENDROOT
BRANCH   2   4
HETATM    4  C   UNL     1     -10.003   7.670  72.713  1.00  0.00    -0.241 C  
BRANCH   4   5
HETATM    5  N   UNL     1     -10.370   7.281  71.336  1.00  0.00    -0.199 NA 
HETATM    6  C   UNL     1     -11.284   8.245  70.697  1.00  0.00    -0.256 C  
HETATM    7  C   UNL     1     -10.626   9.593  70.347  1.00  0.00    -0.295 C  
HETATM    8  N   UNL     1      -9.430   9.496  69.485  1.00  0.00    -0.174 NA 
HETATM    9  C   UNL     1      -9.162   7.153  70.487  1.00  0.00    -0.158 C  
HETATM   10  C   UNL     1      -8.506   8.493  70.059  1.00  0.00    -0.125 C  
BRANCH   8  11
HETATM   11  C   UNL     1      -9.748   9.199  68.080  1.00  0.00    -0.154 C  
BRANCH  11  12
HETATM   12  C   UNL     1     -10.197  10.432  67.285  1.00  0.00    -0.258 C  
BRANCH  12  13
HETATM   13  C   UNL     1      -9.010  11.210  66.696  1.00  0.00    -0.170 C  
BRANCH  13  14
HETATM   14  N   UNL     1      -9.407  12.601  66.357  1.00  0.00    -0.226 NA 
HETATM   15  C   UNL     1     -10.477  12.761  65.422  1.00  0.00    -0.286 A  
HETATM   16  C   UNL     1     -10.988  11.687  64.654  1.00  0.00    -0.363 A  
HETATM   17  C   UNL     1     -12.022  11.839  63.721  1.00  0.00    -0.468 A  
HETATM   18  C   UNL     1     -12.592  13.082  63.519  1.00  0.00    -0.262 A  
HETATM   19  C   UNL     1     -12.122  14.164  64.252  1.00  0.00    -0.471 A  
HETATM   20  C   UNL     1     -11.079  14.015  65.192  1.00  0.00    -0.341 A  
HETATM   21  S   UNL     1     -10.627  15.507  66.041  1.00  0.00    -0.334 SA 
HETATM   22  C   UNL     1      -9.364  14.953  67.154  1.00  0.00    -0.218 A  
HETATM   23  C   UNL     1      -8.871  13.636  67.190  1.00  0.00    -0.230 A  
HETATM   24  C   UNL     1      -7.822  13.400  68.114  1.00  0.00    -0.145 A  
HETATM   25  C   UNL     1      -7.347  14.365  69.024  1.00  0.00    -0.127 A  
HETATM   26  C   UNL     1      -7.883  15.647  68.972  1.00  0.00    -0.204 A  
HETATM   27  C   UNL     1      -6.303  14.015  70.056  1.00  0.00    -0.118 C  
HETATM   28  F   UNL     1      -5.903  12.713  70.013  1.00  0.00    -0.101 F  
HETATM   29  F   UNL     1      -6.752  14.214  71.329  1.00  0.00     0.023 F  
HETATM   30  F   UNL     1      -5.171  14.759  69.939  1.00  0.00    -0.093 F  
HETATM   31  C   UNL     1      -8.869  15.939  68.035  1.00  0.00    -0.178 A  
ENDBRANCH  13  14
ENDBRANCH  12  13
ENDBRANCH  11  12
ENDBRANCH   8  11
ENDBRANCH   4   5
ENDBRANCH   2   4
TORSDOF 6
ENDMDL
MODEL      122
REMARK 921   NORMALIZED FREE ENERGY PREDICTED BY IDOCK:   -5.22 KCAL/MOL
REMARK 922        TOTAL FREE ENERGY PREDICTED BY IDOCK:   -7.29 KCAL/MOL
REMARK 923 INTER-LIGAND FREE ENERGY PREDICTED BY IDOCK:   -6.70 KCAL/MOL
REMARK 924 INTRA-LIGAND FREE ENERGY PREDICTED BY IDOCK:   -0.59 KCAL/MOL
REMARK 927      BINDING AFFINITY PREDICTED BY RF-SCORE:    0.00 PKD
ROOT
HETATM    1  O   UNL     1     -11.456   4.244  64.832  1.00  0.00    -1.029 OA 
HETATM    2  C   UNL     1     -10.894   4.968  65.925  1.00  0.00    -0.063 C  
HETATM    3  H   UNL     1     -12.165   4.746  64.447  1.00  0.00     0.000 HD 
ENDROOT
BRANCH   2   4
HETATM    4  C   UNL     1      -9.748   4.155  66.549  1.00  0.00    -0.209 C  
BRANCH   4   5
HETATM    5  N   UNL     1      -9.314   4.643  67.874  1.00  0.00    -0.127 NA 
HETATM    6  C   UNL     1      -7.848   4.633  68.032  1.00  0.00    -0.081 C  
HETATM    7  C   UNL     1      -7.121   5.696  67.188  1.00  0.00    -0.074 C  
HETATM    8  N   UNL     1      -7.569   7.085  67.417  1.00  0.00    -0.106 NA 
HETATM    9  C   UNL     1      -9.796   6.024  68.110  1.00  0.00    -0.131 C  
HETATM   10  C   UNL     1      -9.046   7.132  67.325  1.00  0.00    -0.123 C  
BRANCH   8  11
HETATM   11  C   UNL     1      -7.087   7.651  68.686  1.00  0.00    -0.080 C  
BRANCH  11  12
HETATM   12  C   UNL     1      -7.845   8.914  69.114  1.00  0.00    -0.093 C  
BRANCH  12  13
HETATM   13  C   UNL     1      -8.164   8.921  70.618  1.00  0.00    -0.162 C  
BRANCH  13  14
HETATM   14  N   UNL     1      -9.470   8.263  70.882  1.00  0.00    -0.158 NA 
HETATM   15  C   UNL     1      -9.437   6.997  71.544  1.00  0.00    -0.154 A  
HETATM   16  C   UNL     1      -8.240   6.264  71.732  1.00  0.00    -0.117 A  
HETATM   17  C   UNL     1      -8.202   5.012  72.362  1.00  0.00    -0.120 A  
HETATM   18  C   UNL     1      -9.368   4.442  72.834  1.00  0.00    -0.146 A  
HETATM   19  C   UNL     1     -10.565   5.127  72.674  1.00  0.00    -0.280 A  
HETATM   20  C   UNL     1     -10.609   6.387  72.039  1.00  0.00    -0.213 A  
HETATM   21  S   UNL     1     -12.225   7.114  71.940  1.00  0.00    -0.309 SA 
HETATM   22  C   UNL     1     -11.904   8.671  71.157  1.00  0.00    -0.287 A  
HETATM   23  C   UNL     1     -10.638   9.072  70.695  1.00  0.00    -0.236 A  
HETATM   24  C   UNL     1     -10.593  10.332  70.048  1.00  0.00    -0.321 A  
HETATM   25  C   UNL     1     -11.699  11.200  69.944  1.00  0.00    -0.433 A  
HETATM   26  C   UNL     1     -12.925  10.774  70.440  1.00  0.00    -0.196 A  
HETATM   27  C   UNL     1     -11.555  12.575  69.338  1.00  0.00    -0.305 C  
HETATM   28  F   UNL     1     -10.287  12.868  68.935  1.00  0.00    -0.225 F  
HETATM   29  F   UNL     1     -11.891  13.561  70.218  1.00  0.00    -0.358 F  
HETATM   30  F   UNL     1     -12.348  12.760  68.249  1.00  0.00    -0.288 F  
HETATM   31  C   UNL     1     -13.028   9.517  71.025  1.00  0.00    -0.277 A  
ENDBRANCH  13  14
ENDBRANCH  12  13
ENDBRANCH  11  12
ENDBRANCH   8  11
ENDBRANCH   4   5
ENDBRANCH   2   4
TORSDOF 6
ENDMDL
MODEL      123
REMARK 921   NORMALIZED FREE ENERGY PREDICTED BY IDOCK:   -5.19 KCAL/MOL
REMARK 922        TOTAL FREE ENERGY PREDICTED BY IDOCK:   -7.25 KCAL/MOL
REMARK 923 INTER-LIGAND FREE ENERGY PREDICTED BY IDOCK:   -6.52 KCAL/MOL
REMARK 924 INTRA-LIGAND FREE ENERGY PREDICTED BY IDOCK:   -0.73 KCAL/MOL
REMARK 927      BINDING AFFINITY PREDICTED BY RF-SCORE:    0.00 PKD
ROOT
HETATM    1  O   UNL     1      -8.587   3.587  65.305  1.00  0.00    -0.107 OA 
HETATM    2  C   UNL     1      -8.924   4.720  66.103  1.00  0.00    -0.122 C  
HETATM    3  H   UNL     1      -8.731   2.791  65.802  1.00  0.00     0.000 HD 
ENDROOT
BRANCH   2   4
HETATM    4  C   UNL     1      -8.691   6.009  65.298  1.00  0.00    -0.047 C  
BRANCH   4   5
HETATM    5  N   UNL     1      -8.167   7.134  66.098  1.00  0.00    -0.121 NA 
HETATM    6  C   UNL     1      -7.866   8.323  65.280  1.00  0.00    -0.120 C  
HETATM    7  C   UNL     1      -9.116   9.040  64.735  1.00  0.00    -0.028 C  
HETATM    8  N   UNL     1     -10.090   9.461  65.764  1.00  0.00    -0.219 NA 
HETATM    9  C   UNL     1      -9.135   7.528  67.149  1.00  0.00    -0.127 C  
HETATM   10  C   UNL     1     -10.378   8.309  66.648  1.00  0.00    -0.223 C  
BRANCH   8  11
HETATM   11  C   UNL     1      -9.654  10.637  66.531  1.00  0.00    -0.180 C  
BRANCH  11  12
HETATM   12  C   UNL     1     -10.664  11.070  67.602  1.00  0.00    -0.281 C  
BRANCH  12  13
HETATM   13  C   UNL     1      -9.982  11.452  68.926  1.00  0.00    -0.131 C  
BRANCH  13  14
HETATM   14  N   UNL     1     -10.992  11.713  69.983  1.00  0.00     0.150 NA 
HETATM   15  C   UNL     1     -11.539  13.032  70.048  1.00  0.00    -0.124 A  
HETATM   16  C   UNL     1     -10.995  14.121  69.324  1.00  0.00    -0.252 A  
HETATM   17  C   UNL     1     -11.513  15.421  69.397  1.00  0.00    -0.335 A  
HETATM   18  C   UNL     1     -12.604  15.685  70.203  1.00  0.00    -0.243 A  
HETATM   19  C   UNL     1     -13.171  14.645  70.929  1.00  0.00    -0.392 A  
HETATM   20  C   UNL     1     -12.652  13.335  70.859  1.00  0.00    -0.306 A  
HETATM   21  S   UNL     1     -13.517  12.140  71.846  1.00  0.00    -0.041 SA 
HETATM   22  C   UNL     1     -12.654  10.636  71.481  1.00  0.00    -0.412 A  
HETATM   23  C   UNL     1     -11.517  10.563  70.658  1.00  0.00    -0.327 A  
HETATM   24  C   UNL     1     -10.935   9.277  70.530  1.00  0.00    -0.318 A  
HETATM   25  C   UNL     1     -11.487   8.107  71.090  1.00  0.00    -0.304 A  
HETATM   26  C   UNL     1     -12.629   8.222  71.874  1.00  0.00    -0.379 A  
HETATM   27  C   UNL     1     -10.877   6.753  70.823  1.00  0.00    -0.249 C  
HETATM   28  F   UNL     1      -9.788   6.792  70.005  1.00  0.00    -0.167 F  
HETATM   29  F   UNL     1     -11.755   5.905  70.215  1.00  0.00    -0.360 F  
HETATM   30  F   UNL     1     -10.471   6.121  71.957  1.00  0.00    -0.217 F  
HETATM   31  C   UNL     1     -13.195   9.476  72.079  1.00  0.00    -0.539 A  
ENDBRANCH  13  14
ENDBRANCH  12  13
ENDBRANCH  11  12
ENDBRANCH   8  11
ENDBRANCH   4   5
ENDBRANCH   2   4
TORSDOF 6
ENDMDL
MODEL      124
REMARK 921   NORMALIZED FREE ENERGY PREDICTED BY IDOCK:   -5.18 KCAL/MOL
REMARK 922        TOTAL FREE ENERGY PREDICTED BY IDOCK:   -7.23 KCAL/MOL
REMARK 923 INTER-LIGAND FREE ENERGY PREDICTED BY IDOCK:   -6.87 KCAL/MOL
REMARK 924 INTRA-LIGAND FREE ENERGY PREDICTED BY IDOCK:   -0.36 KCAL/MOL
REMARK 927      BINDING AFFINITY PREDICTED BY RF-SCORE:    0.00 PKD
ROOT
HETATM    1  O   UNL     1     -10.946  18.530  67.311  1.00  0.00    -0.365 OA 
HETATM    2  C   UNL     1     -10.422  17.529  68.182  1.00  0.00    -0.386 C  
HETATM    3  H   UNL     1     -11.832  18.750  67.574  1.00  0.00     0.000 HD 
ENDROOT
BRANCH   2   4
HETATM    4  C   UNL     1      -8.987  17.173  67.757  1.00  0.00    -0.226 C  
BRANCH   4   5
HETATM    5  N   UNL     1      -8.892  15.973  66.902  1.00  0.00    -0.212 NA 
HETATM    6  C   UNL     1      -7.630  15.235  67.096  1.00  0.00    -0.189 C  
HETATM    7  C   UNL     1      -7.530  14.513  68.453  1.00  0.00    -0.116 C  
HETATM    8  N   UNL     1      -8.630  13.568  68.737  1.00  0.00     0.008 NA 
HETATM    9  C   UNL     1     -10.017  15.046  67.169  1.00  0.00    -0.237 C  
HETATM   10  C   UNL     1      -9.921  14.251  68.498  1.00  0.00    -0.235 C  
BRANCH   8  11
HETATM   11  C   UNL     1      -8.532  12.314  67.975  1.00  0.00    -0.171 C  
BRANCH  11  12
HETATM   12  C   UNL     1      -9.229  11.131  68.660  1.00  0.00    -0.173 C  
BRANCH  12  13
HETATM   13  C   UNL     1      -9.680  10.059  67.656  1.00  0.00    -0.158 C  
BRANCH  13  14
HETATM   14  N   UNL     1      -8.721   9.959  66.525  1.00  0.00    -0.128 NA 
HETATM   15  C   UNL     1      -7.554   9.160  66.732  1.00  0.00    -0.087 A  
HETATM   16  C   UNL     1      -7.174   8.677  68.008  1.00  0.00    -0.087 A  
HETATM   17  C   UNL     1      -6.021   7.911  68.222  1.00  0.00    -0.040 A  
HETATM   18  C   UNL     1      -5.196   7.593  67.160  1.00  0.00    -0.030 A  
HETATM   19  C   UNL     1      -5.532   8.044  65.890  1.00  0.00    -0.029 A  
HETATM   20  C   UNL     1      -6.692   8.818  65.669  1.00  0.00    -0.068 A  
HETATM   21  S   UNL     1      -6.961   9.288  63.979  1.00  0.00    -0.094 SA 
HETATM   22  C   UNL     1      -8.493  10.175  64.062  1.00  0.00    -0.184 A  
HETATM   23  C   UNL     1      -9.181  10.445  65.258  1.00  0.00    -0.199 A  
HETATM   24  C   UNL     1     -10.363  11.215  65.124  1.00  0.00    -0.354 A  
HETATM   25  C   UNL     1     -10.902  11.615  63.885  1.00  0.00    -0.471 A  
HETATM   26  C   UNL     1     -10.203  11.302  62.725  1.00  0.00    -0.075 A  
HETATM   27  C   UNL     1     -12.224  12.340  63.807  1.00  0.00    -0.546 C  
HETATM   28  F   UNL     1     -12.812  12.540  65.020  1.00  0.00    -0.554 F  
HETATM   29  F   UNL     1     -13.143  11.654  63.069  1.00  0.00    -0.631 F  
HETATM   30  F   UNL     1     -12.123  13.568  63.232  1.00  0.00    -0.542 F  
HETATM   31  C   UNL     1      -9.004  10.604  62.817  1.00  0.00    -0.290 A  
ENDBRANCH  13  14
ENDBRANCH  12  13
ENDBRANCH  11  12
ENDBRANCH   8  11
ENDBRANCH   4   5
ENDBRANCH   2   4
TORSDOF 6
ENDMDL
MODEL      125
REMARK 921   NORMALIZED FREE ENERGY PREDICTED BY IDOCK:   -5.14 KCAL/MOL
REMARK 922        TOTAL FREE ENERGY PREDICTED BY IDOCK:   -7.18 KCAL/MOL
REMARK 923 INTER-LIGAND FREE ENERGY PREDICTED BY IDOCK:   -7.16 KCAL/MOL
REMARK 924 INTRA-LIGAND FREE ENERGY PREDICTED BY IDOCK:   -0.03 KCAL/MOL
REMARK 927      BINDING AFFINITY PREDICTED BY RF-SCORE:    0.00 PKD
ROOT
HETATM    1  O   UNL     1      -8.495   5.556  70.818  1.00  0.00    -0.118 OA 
HETATM    2  C   UNL     1      -7.609   6.048  69.814  1.00  0.00    -0.081 C  
HETATM    3  H   UNL     1      -8.033   5.481  71.644  1.00  0.00     0.000 HD 
ENDROOT
BRANCH   2   4
HETATM    4  C   UNL     1      -8.358   6.170  68.477  1.00  0.00    -0.114 C  
BRANCH   4   5
HETATM    5  N   UNL     1      -9.292   7.313  68.411  1.00  0.00    -0.143 NA 
HETATM    6  C   UNL     1      -8.647   8.595  68.748  1.00  0.00    -0.130 C  
HETATM    7  C   UNL     1      -7.655   9.095  67.681  1.00  0.00    -0.085 C  
HETATM    8  N   UNL     1      -8.222   9.242  66.324  1.00  0.00    -0.107 NA 
HETATM    9  C   UNL     1      -9.882   7.432  67.057  1.00  0.00    -0.209 C  
HETATM   10  C   UNL     1      -8.932   7.993  65.966  1.00  0.00    -0.163 C  
BRANCH   8  11
HETATM   11  C   UNL     1      -9.090  10.420  66.180  1.00  0.00    -0.160 C  
BRANCH  11  12
HETATM   12  C   UNL     1      -9.520  11.024  67.524  1.00  0.00    -0.175 C  
BRANCH  12  13
HETATM   13  C   UNL     1     -11.031  10.889  67.768  1.00  0.00    -0.283 C  
BRANCH  13  14
HETATM   14  N   UNL     1     -11.434  11.616  68.999  1.00  0.00    -0.265 NA 
HETATM   15  C   UNL     1     -11.536  13.039  68.908  1.00  0.00    -0.311 A  
HETATM   16  C   UNL     1     -11.052  13.772  67.797  1.00  0.00    -0.288 A  
HETATM   17  C   UNL     1     -11.131  15.168  67.710  1.00  0.00    -0.313 A  
HETATM   18  C   UNL     1     -11.703  15.893  68.738  1.00  0.00    -0.355 A  
HETATM   19  C   UNL     1     -12.193  15.215  69.847  1.00  0.00    -0.353 A  
HETATM   20  C   UNL     1     -12.115  13.808  69.940  1.00  0.00    -0.348 A  
HETATM   21  S   UNL     1     -12.807  13.122  71.423  1.00  0.00    -0.235 SA 
HETATM   22  C   UNL     1     -12.594  11.379  71.182  1.00  0.00    -0.386 A  
HETATM   23  C   UNL     1     -11.937  10.815  70.075  1.00  0.00    -0.347 A  
HETATM   24  C   UNL     1     -11.820   9.402  70.088  1.00  0.00     0.021 A  
HETATM   25  C   UNL     1     -12.398   8.576  71.072  1.00  0.00    -0.149 A  
HETATM   26  C   UNL     1     -13.063   9.177  72.135  1.00  0.00    -0.516 A  
HETATM   27  C   UNL     1     -12.329   7.072  70.967  1.00  0.00    -0.356 C  
HETATM   28  F   UNL     1     -11.682   6.629  69.852  1.00  0.00    -0.400 F  
HETATM   29  F   UNL     1     -13.567   6.503  70.916  1.00  0.00    -0.077 F  
HETATM   30  F   UNL     1     -11.695   6.495  72.022  1.00  0.00    -0.299 F  
HETATM   31  C   UNL     1     -13.145  10.564  72.195  1.00  0.00    -0.413 A  
ENDBRANCH  13  14
ENDBRANCH  12  13
ENDBRANCH  11  12
ENDBRANCH   8  11
ENDBRANCH   4   5
ENDBRANCH   2   4
TORSDOF 6
ENDMDL
MODEL      126
REMARK 921   NORMALIZED FREE ENERGY PREDICTED BY IDOCK:   -5.14 KCAL/MOL
REMARK 922        TOTAL FREE ENERGY PREDICTED BY IDOCK:   -7.18 KCAL/MOL
REMARK 923 INTER-LIGAND FREE ENERGY PREDICTED BY IDOCK:   -6.74 KCAL/MOL
REMARK 924 INTRA-LIGAND FREE ENERGY PREDICTED BY IDOCK:   -0.44 KCAL/MOL
REMARK 927      BINDING AFFINITY PREDICTED BY RF-SCORE:    0.00 PKD
ROOT
HETATM    1  O   UNL     1     -14.024  15.508  70.515  1.00  0.00    -0.775 OA 
HETATM    2  C   UNL     1     -12.644  15.148  70.551  1.00  0.00    -0.380 C  
HETATM    3  H   UNL     1     -14.110  16.452  70.578  1.00  0.00     0.000 HD 
ENDROOT
BRANCH   2   4
HETATM    4  C   UNL     1     -12.506  13.620  70.450  1.00  0.00    -0.294 C  
BRANCH   4   5
HETATM    5  N   UNL     1     -11.226  13.169  69.866  1.00  0.00     0.030 NA 
HETATM    6  C   UNL     1     -11.047  11.707  69.949  1.00  0.00     0.048 C  
HETATM    7  C   UNL     1     -11.977  10.909  69.017  1.00  0.00    -0.251 C  
HETATM    8  N   UNL     1     -11.886  11.273  67.587  1.00  0.00    -0.627 NA 
HETATM    9  C   UNL     1     -11.129  13.567  68.442  1.00  0.00    -0.271 C  
HETATM   10  C   UNL     1     -12.003  12.743  67.460  1.00  0.00    -0.281 C  
BRANCH   8  11
HETATM   11  C   UNL     1     -10.670  10.767  66.934  1.00  0.00    -0.252 C  
BRANCH  11  12
HETATM   12  C   UNL     1     -10.081   9.530  67.624  1.00  0.00    -0.254 C  
BRANCH  12  13
HETATM   13  C   UNL     1     -10.434   8.228  66.886  1.00  0.00    -0.295 C  
BRANCH  13  14
HETATM   14  N   UNL     1      -9.623   7.094  67.400  1.00  0.00    -0.132 NA 
HETATM   15  C   UNL     1      -8.504   6.686  66.609  1.00  0.00    -0.120 A  
HETATM   16  C   UNL     1      -8.293   7.146  65.287  1.00  0.00    -0.101 A  
HETATM   17  C   UNL     1      -7.210   6.735  64.499  1.00  0.00    -0.072 A  
HETATM   18  C   UNL     1      -6.287   5.841  65.007  1.00  0.00    -0.037 A  
HETATM   19  C   UNL     1      -6.453   5.366  66.301  1.00  0.00    -0.044 A  
HETATM   20  C   UNL     1      -7.544   5.776  67.098  1.00  0.00    -0.099 A  
HETATM   21  S   UNL     1      -7.579   5.072  68.727  1.00  0.00    -0.078 SA 
HETATM   22  C   UNL     1      -9.009   5.831  69.448  1.00  0.00    -0.116 A  
HETATM   23  C   UNL     1      -9.872   6.697  68.754  1.00  0.00    -0.138 A  
HETATM   24  C   UNL     1     -10.993   7.161  69.487  1.00  0.00    -0.214 A  
HETATM   25  C   UNL     1     -11.210   6.879  70.851  1.00  0.00    -0.332 A  
HETATM   26  C   UNL     1     -10.315   6.040  71.504  1.00  0.00    -0.261 A  
HETATM   27  C   UNL     1     -12.366   7.495  71.599  1.00  0.00    -0.333 C  
HETATM   28  F   UNL     1     -13.132   8.327  70.839  1.00  0.00    -0.157 F  
HETATM   29  F   UNL     1     -11.950   8.251  72.655  1.00  0.00    -0.416 F  
HETATM   30  F   UNL     1     -13.218   6.569  72.116  1.00  0.00    -0.314 F  
HETATM   31  C   UNL     1      -9.237   5.510  70.804  1.00  0.00    -0.179 A  
ENDBRANCH  13  14
ENDBRANCH  12  13
ENDBRANCH  11  12
ENDBRANCH   8  11
ENDBRANCH   4   5
ENDBRANCH   2   4
TORSDOF 6
ENDMDL
MODEL      127
REMARK 921   NORMALIZED FREE ENERGY PREDICTED BY IDOCK:   -5.13 KCAL/MOL
REMARK 922        TOTAL FREE ENERGY PREDICTED BY IDOCK:   -7.16 KCAL/MOL
REMARK 923 INTER-LIGAND FREE ENERGY PREDICTED BY IDOCK:   -6.87 KCAL/MOL
REMARK 924 INTRA-LIGAND FREE ENERGY PREDICTED BY IDOCK:   -0.29 KCAL/MOL
REMARK 927      BINDING AFFINITY PREDICTED BY RF-SCORE:    0.00 PKD
ROOT
HETATM    1  O   UNL     1      -8.713   5.682  71.842  1.00  0.00    -0.134 OA 
HETATM    2  C   UNL     1      -9.683   5.918  70.823  1.00  0.00    -0.172 C  
HETATM    3  H   UNL     1      -8.600   4.747  71.966  1.00  0.00     0.000 HD 
ENDROOT
BRANCH   2   4
HETATM    4  C   UNL     1      -9.867   7.431  70.624  1.00  0.00    -0.179 C  
BRANCH   4   5
HETATM    5  N   UNL     1      -9.487   7.913  69.280  1.00  0.00    -0.152 NA 
HETATM    6  C   UNL     1     -10.408   8.941  68.762  1.00  0.00    -0.211 C  
HETATM    7  C   UNL     1     -10.304  10.295  69.489  1.00  0.00    -0.242 C  
HETATM    8  N   UNL     1      -8.953  10.894  69.500  1.00  0.00     0.123 NA 
HETATM    9  C   UNL     1      -8.118   8.480  69.293  1.00  0.00    -0.113 C  
HETATM   10  C   UNL     1      -7.983   9.874  69.960  1.00  0.00    -0.180 C  
BRANCH   8  11
HETATM   11  C   UNL     1      -8.561  11.470  68.206  1.00  0.00    -0.161 C  
BRANCH  11  12
HETATM   12  C   UNL     1      -9.103  12.889  67.984  1.00  0.00    -0.211 C  
BRANCH  12  13
HETATM   13  C   UNL     1      -8.389  13.612  66.831  1.00  0.00     0.004 C  
BRANCH  13  14
HETATM   14  N   UNL     1      -9.362  14.362  65.996  1.00  0.00    -0.196 NA 
HETATM   15  C   UNL     1     -10.325  13.592  65.272  1.00  0.00    -0.331 A  
HETATM   16  C   UNL     1     -10.233  12.185  65.137  1.00  0.00    -0.308 A  
HETATM   17  C   UNL     1     -11.162  11.426  64.411  1.00  0.00    -0.277 A  
HETATM   18  C   UNL     1     -12.227  12.048  63.790  1.00  0.00    -0.600 A  
HETATM   19  C   UNL     1     -12.357  13.427  63.898  1.00  0.00    -0.410 A  
HETATM   20  C   UNL     1     -11.424  14.196  64.626  1.00  0.00    -0.387 A  
HETATM   21  S   UNL     1     -11.765  15.937  64.664  1.00  0.00     0.009 SA 
HETATM   22  C   UNL     1     -10.460  16.567  65.685  1.00  0.00    -0.324 A  
HETATM   23  C   UNL     1      -9.418  15.778  66.203  1.00  0.00    -0.340 A  
HETATM   24  C   UNL     1      -8.438  16.475  66.953  1.00  0.00    -0.244 A  
HETATM   25  C   UNL     1      -8.520  17.846  67.268  1.00  0.00    -0.242 A  
HETATM   26  C   UNL     1      -9.583  18.582  66.757  1.00  0.00    -0.329 A  
HETATM   27  C   UNL     1      -7.498  18.502  68.164  1.00  0.00    -0.268 C  
HETATM   28  F   UNL     1      -6.540  17.648  68.622  1.00  0.00    -0.177 F  
HETATM   29  F   UNL     1      -8.065  19.040  69.282  1.00  0.00    -0.302 F  
HETATM   30  F   UNL     1      -6.833  19.520  67.555  1.00  0.00    -0.220 F  
HETATM   31  C   UNL     1     -10.532  17.950  65.962  1.00  0.00    -0.293 A  
ENDBRANCH  13  14
ENDBRANCH  12  13
ENDBRANCH  11  12
ENDBRANCH   8  11
ENDBRANCH   4   5
ENDBRANCH   2   4
TORSDOF 6
ENDMDL
MODEL      128
REMARK 921   NORMALIZED FREE ENERGY PREDICTED BY IDOCK:   -5.12 KCAL/MOL
REMARK 922        TOTAL FREE ENERGY PREDICTED BY IDOCK:   -7.16 KCAL/MOL
REMARK 923 INTER-LIGAND FREE ENERGY PREDICTED BY IDOCK:   -6.46 KCAL/MOL
REMARK 924 INTRA-LIGAND FREE ENERGY PREDICTED BY IDOCK:   -0.70 KCAL/MOL
REMARK 927      BINDING AFFINITY PREDICTED BY RF-SCORE:    0.00 PKD
ROOT
HETATM    1  O   UNL     1     -12.454  14.104  63.278  1.00  0.00    -1.146 OA 
HETATM    2  C   UNL     1     -12.425  12.679  63.205  1.00  0.00    -0.270 C  
HETATM    3  H   UNL     1     -12.729  14.461  62.442  1.00  0.00     0.000 HD 
ENDROOT
BRANCH   2   4
HETATM    4  C   UNL     1     -11.979  12.101  64.558  1.00  0.00    -0.337 C  
BRANCH   4   5
HETATM    5  N   UNL     1     -10.532  12.236  64.825  1.00  0.00    -0.286 NA 
HETATM    6  C   UNL     1     -10.250  12.852  66.135  1.00  0.00    -0.278 C  
HETATM    7  C   UNL     1     -10.583  11.947  67.336  1.00  0.00    -0.225 C  
HETATM    8  N   UNL     1      -9.915  10.629  67.326  1.00  0.00    -0.183 NA 
HETATM    9  C   UNL     1      -9.864  10.914  64.780  1.00  0.00    -0.288 C  
HETATM   10  C   UNL     1     -10.124   9.997  66.004  1.00  0.00    -0.248 C  
BRANCH   8  11
HETATM   11  C   UNL     1      -8.488  10.698  67.675  1.00  0.00    -0.118 C  
BRANCH  11  12
HETATM   12  C   UNL     1      -7.672   9.520  67.127  1.00  0.00    -0.091 C  
BRANCH  12  13
HETATM   13  C   UNL     1      -7.255   8.535  68.231  1.00  0.00    -0.086 C  
BRANCH  13  14
HETATM   14  N   UNL     1      -8.350   7.573  68.520  1.00  0.00    -0.125 NA 
HETATM   15  C   UNL     1      -9.142   7.821  69.684  1.00  0.00    -0.146 A  
HETATM   16  C   UNL     1      -8.782   8.776  70.665  1.00  0.00    -0.208 A  
HETATM   17  C   UNL     1      -9.542   9.010  71.819  1.00  0.00    -0.278 A  
HETATM   18  C   UNL     1     -10.704   8.294  72.037  1.00  0.00    -0.366 A  
HETATM   19  C   UNL     1     -11.097   7.348  71.098  1.00  0.00    -0.271 A  
HETATM   20  C   UNL     1     -10.333   7.108  69.936  1.00  0.00    -0.213 A  
HETATM   21  S   UNL     1     -11.003   5.874  68.849  1.00  0.00    -0.174 SA 
HETATM   22  C   UNL     1      -9.849   5.874  67.504  1.00  0.00    -0.125 A  
HETATM   23  C   UNL     1      -8.678   6.651  67.473  1.00  0.00    -0.118 A  
HETATM   24  C   UNL     1      -7.855   6.473  66.333  1.00  0.00    -0.104 A  
HETATM   25  C   UNL     1      -8.200   5.659  65.236  1.00  0.00    -0.134 A  
HETATM   26  C   UNL     1      -9.382   4.930  65.297  1.00  0.00    -0.129 A  
HETATM   27  C   UNL     1      -7.329   5.600  64.005  1.00  0.00    -0.058 C  
HETATM   28  F   UNL     1      -6.227   6.399  64.073  1.00  0.00    -0.027 F  
HETATM   29  F   UNL     1      -7.995   5.998  62.884  1.00  0.00    -0.082 F  
HETATM   30  F   UNL     1      -6.868   4.348  63.741  1.00  0.00    -0.039 F  
HETATM   31  C   UNL     1     -10.187   5.025  66.427  1.00  0.00    -0.307 A  
ENDBRANCH  13  14
ENDBRANCH  12  13
ENDBRANCH  11  12
ENDBRANCH   8  11
ENDBRANCH   4   5
ENDBRANCH   2   4
TORSDOF 6
ENDMDL
MODEL      129
REMARK 921   NORMALIZED FREE ENERGY PREDICTED BY IDOCK:   -5.12 KCAL/MOL
REMARK 922        TOTAL FREE ENERGY PREDICTED BY IDOCK:   -7.15 KCAL/MOL
REMARK 923 INTER-LIGAND FREE ENERGY PREDICTED BY IDOCK:   -6.67 KCAL/MOL
REMARK 924 INTRA-LIGAND FREE ENERGY PREDICTED BY IDOCK:   -0.48 KCAL/MOL
REMARK 927      BINDING AFFINITY PREDICTED BY RF-SCORE:    0.00 PKD
ROOT
HETATM    1  O   UNL     1     -12.137  15.670  63.740  1.00  0.00    -1.013 OA 
HETATM    2  C   UNL     1     -11.261  15.447  64.844  1.00  0.00    -0.403 C  
HETATM    3  H   UNL     1     -11.928  16.500  63.329  1.00  0.00     0.000 HD 
ENDROOT
BRANCH   2   4
HETATM    4  C   UNL     1     -11.599  14.102  65.509  1.00  0.00    -0.337 C  
BRANCH   4   5
HETATM    5  N   UNL     1     -10.523  13.567  66.368  1.00  0.00    -0.283 NA 
HETATM    6  C   UNL     1     -10.998  13.204  67.716  1.00  0.00    -0.251 C  
HETATM    7  C   UNL     1     -11.905  11.959  67.744  1.00  0.00    -0.219 C  
HETATM    8  N   UNL     1     -11.308  10.742  67.155  1.00  0.00    -0.371 NA 
HETATM    9  C   UNL     1      -9.908  12.367  65.754  1.00  0.00    -0.240 C  
HETATM   10  C   UNL     1     -10.764  11.075  65.820  1.00  0.00    -0.148 C  
BRANCH   8  11
HETATM   11  C   UNL     1     -10.292  10.117  68.015  1.00  0.00    -0.190 C  
BRANCH  11  12
HETATM   12  C   UNL     1     -10.223   8.592  67.863  1.00  0.00    -0.273 C  
BRANCH  12  13
HETATM   13  C   UNL     1      -8.800   8.049  68.067  1.00  0.00    -0.128 C  
BRANCH  13  14
HETATM   14  N   UNL     1      -8.827   6.769  68.822  1.00  0.00    -0.131 NA 
HETATM   15  C   UNL     1      -9.040   6.853  70.234  1.00  0.00    -0.153 A  
HETATM   16  C   UNL     1      -8.985   8.076  70.944  1.00  0.00    -0.150 A  
HETATM   17  C   UNL     1      -9.172   8.163  72.330  1.00  0.00    -0.292 A  
HETATM   18  C   UNL     1      -9.425   7.022  73.066  1.00  0.00    -0.177 A  
HETATM   19  C   UNL     1      -9.490   5.800  72.409  1.00  0.00    -0.155 A  
HETATM   20  C   UNL     1      -9.300   5.707  71.013  1.00  0.00    -0.153 A  
HETATM   21  S   UNL     1      -9.435   4.064  70.353  1.00  0.00    -0.194 SA 
HETATM   22  C   UNL     1      -9.205   4.324  68.615  1.00  0.00    -0.140 A  
HETATM   23  C   UNL     1      -8.907   5.572  68.040  1.00  0.00    -0.105 A  
HETATM   24  C   UNL     1      -8.707   5.567  66.636  1.00  0.00    -0.116 A  
HETATM   25  C   UNL     1      -8.886   4.431  65.823  1.00  0.00    -0.122 A  
HETATM   26  C   UNL     1      -9.208   3.223  66.431  1.00  0.00    -0.161 A  
HETATM   27  C   UNL     1      -8.763   4.521  64.321  1.00  0.00    -0.146 C  
HETATM   28  F   UNL     1      -8.485   5.775  63.867  1.00  0.00    -0.131 F  
HETATM   29  F   UNL     1      -9.915   4.155  63.689  1.00  0.00    -0.159 F  
HETATM   30  F   UNL     1      -7.789   3.716  63.819  1.00  0.00    -0.077 F  
HETATM   31  C   UNL     1      -9.350   3.170  67.814  1.00  0.00    -0.252 A  
ENDBRANCH  13  14
ENDBRANCH  12  13
ENDBRANCH  11  12
ENDBRANCH   8  11
ENDBRANCH   4   5
ENDBRANCH   2   4
TORSDOF 6
ENDMDL
MODEL      130
REMARK 921   NORMALIZED FREE ENERGY PREDICTED BY IDOCK:   -5.09 KCAL/MOL
REMARK 922        TOTAL FREE ENERGY PREDICTED BY IDOCK:   -7.11 KCAL/MOL
REMARK 923 INTER-LIGAND FREE ENERGY PREDICTED BY IDOCK:   -6.69 KCAL/MOL
REMARK 924 INTRA-LIGAND FREE ENERGY PREDICTED BY IDOCK:   -0.42 KCAL/MOL
REMARK 927      BINDING AFFINITY PREDICTED BY RF-SCORE:    0.00 PKD
ROOT
HETATM    1  O   UNL     1     -13.406  15.939  72.501  1.00  0.00    -0.475 OA 
HETATM    2  C   UNL     1     -14.313  14.850  72.339  1.00  0.00    -0.310 C  
HETATM    3  H   UNL     1     -13.675  16.471  73.240  1.00  0.00     0.000 HD 
ENDROOT
BRANCH   2   4
HETATM    4  C   UNL     1     -13.878  13.989  71.141  1.00  0.00    -0.019 C  
BRANCH   4   5
HETATM    5  N   UNL     1     -12.528  13.405  71.277  1.00  0.00    -0.324 NA 
HETATM    6  C   UNL     1     -12.560  11.960  71.572  1.00  0.00    -0.193 C  
HETATM    7  C   UNL     1     -13.028  11.091  70.390  1.00  0.00    -0.053 C  
HETATM    8  N   UNL     1     -12.247  11.259  69.147  1.00  0.00    -0.415 NA 
HETATM    9  C   UNL     1     -11.741  13.607  70.039  1.00  0.00    -0.249 C  
HETATM   10  C   UNL     1     -12.139  12.704  68.843  1.00  0.00    -0.123 C  
BRANCH   8  11
HETATM   11  C   UNL     1     -10.926  10.616  69.198  1.00  0.00    -0.247 C  
BRANCH  11  12
HETATM   12  C   UNL     1     -10.657   9.688  68.006  1.00  0.00    -0.292 C  
BRANCH  12  13
HETATM   13  C   UNL     1      -9.349  10.039  67.278  1.00  0.00    -0.148 C  
BRANCH  13  14
HETATM   14  N   UNL     1      -8.917  11.422  67.607  1.00  0.00    -0.138 NA 
HETATM   15  C   UNL     1      -7.820  11.561  68.512  1.00  0.00    -0.140 A  
HETATM   16  C   UNL     1      -7.307  10.477  69.265  1.00  0.00    -0.113 A  
HETATM   17  C   UNL     1      -6.245  10.611  70.169  1.00  0.00    -0.125 A  
HETATM   18  C   UNL     1      -5.648  11.842  70.356  1.00  0.00    -0.155 A  
HETATM   19  C   UNL     1      -6.118  12.933  69.637  1.00  0.00    -0.124 A  
HETATM   20  C   UNL     1      -7.188  12.804  68.726  1.00  0.00    -0.077 A  
HETATM   21  S   UNL     1      -7.637  14.305  67.890  1.00  0.00    -0.172 SA 
HETATM   22  C   UNL     1      -8.940  13.775  66.812  1.00  0.00    -0.185 A  
HETATM   23  C   UNL     1      -9.457  12.467  66.789  1.00  0.00    -0.231 A  
HETATM   24  C   UNL     1     -10.535  12.251  65.894  1.00  0.00    -0.288 A  
HETATM   25  C   UNL     1     -11.018  13.226  64.998  1.00  0.00    -0.328 A  
HETATM   26  C   UNL     1     -10.458  14.497  65.037  1.00  0.00    -0.454 A  
HETATM   27  C   UNL     1     -12.096  12.896  63.995  1.00  0.00    -0.455 C  
HETATM   28  F   UNL     1     -12.518  11.601  64.048  1.00  0.00    -0.402 F  
HETATM   29  F   UNL     1     -11.679  13.087  62.711  1.00  0.00    -0.378 F  
HETATM   30  F   UNL     1     -13.211  13.660  64.144  1.00  0.00     0.192 F  
HETATM   31  C   UNL     1      -9.441  14.771  65.945  1.00  0.00    -0.266 A  
ENDBRANCH  13  14
ENDBRANCH  12  13
ENDBRANCH  11  12
ENDBRANCH   8  11
ENDBRANCH   4   5
ENDBRANCH   2   4
TORSDOF 6
ENDMDL
MODEL      131
REMARK 921   NORMALIZED FREE ENERGY PREDICTED BY IDOCK:   -5.03 KCAL/MOL
REMARK 922        TOTAL FREE ENERGY PREDICTED BY IDOCK:   -7.03 KCAL/MOL
REMARK 923 INTER-LIGAND FREE ENERGY PREDICTED BY IDOCK:   -6.44 KCAL/MOL
REMARK 924 INTRA-LIGAND FREE ENERGY PREDICTED BY IDOCK:   -0.59 KCAL/MOL
REMARK 927      BINDING AFFINITY PREDICTED BY RF-SCORE:    0.00 PKD
ROOT
HETATM    1  O   UNL     1      -6.369   4.355  70.310  1.00  0.00    -0.025 OA 
HETATM    2  C   UNL     1      -5.518   5.237  71.040  1.00  0.00    -0.005 C  
HETATM    3  H   UNL     1      -6.364   3.496  70.716  1.00  0.00     0.000 HD 
ENDROOT
BRANCH   2   4
HETATM    4  C   UNL     1      -5.526   6.627  70.383  1.00  0.00    -0.019 C  
BRANCH   4   5
HETATM    5  N   UNL     1      -6.803   6.976  69.728  1.00  0.00    -0.049 NA 
HETATM    6  C   UNL     1      -7.467   8.134  70.355  1.00  0.00    -0.067 C  
HETATM    7  C   UNL     1      -6.751   9.474  70.110  1.00  0.00    -0.078 C  
HETATM    8  N   UNL     1      -6.543   9.817  68.687  1.00  0.00    -0.051 NA 
HETATM    9  C   UNL     1      -6.591   7.286  68.294  1.00  0.00    -0.049 C  
HETATM   10  C   UNL     1      -5.929   8.658  68.001  1.00  0.00    -0.047 C  
BRANCH   8  11
HETATM   11  C   UNL     1      -7.770  10.260  68.010  1.00  0.00    -0.089 C  
BRANCH  11  12
HETATM   12  C   UNL     1      -8.784  10.914  68.958  1.00  0.00    -0.108 C  
BRANCH  12  13
HETATM   13  C   UNL     1     -10.200  10.954  68.360  1.00  0.00    -0.178 C  
BRANCH  13  14
HETATM   14  N   UNL     1     -11.185  10.358  69.299  1.00  0.00    -0.241 NA 
HETATM   15  C   UNL     1     -11.161   8.937  69.450  1.00  0.00     0.045 A  
HETATM   16  C   UNL     1     -10.423   8.089  68.589  1.00  0.00    -0.196 A  
HETATM   17  C   UNL     1     -10.410   6.693  68.718  1.00  0.00    -0.214 A  
HETATM   18  C   UNL     1     -11.139   6.087  69.723  1.00  0.00    -0.476 A  
HETATM   19  C   UNL     1     -11.876   6.881  70.592  1.00  0.00    -0.418 A  
HETATM   20  C   UNL     1     -11.893   8.286  70.465  1.00  0.00    -0.001 A  
HETATM   21  S   UNL     1     -12.879   9.130  71.676  1.00  0.00    -0.386 SA 
HETATM   22  C   UNL     1     -12.630  10.835  71.261  1.00  0.00    -0.426 A  
HETATM   23  C   UNL     1     -11.878  11.272  70.157  1.00  0.00    -0.364 A  
HETATM   24  C   UNL     1     -11.839  12.676  69.961  1.00  0.00    -0.358 A  
HETATM   25  C   UNL     1     -12.416  13.608  70.846  1.00  0.00    -0.448 A  
HETATM   26  C   UNL     1     -13.128  13.130  71.940  1.00  0.00    -0.482 A  
HETATM   27  C   UNL     1     -12.244  15.092  70.636  1.00  0.00    -0.351 C  
HETATM   28  F   UNL     1     -11.489  15.409  69.546  1.00  0.00    -0.245 F  
HETATM   29  F   UNL     1     -11.623  15.692  71.691  1.00  0.00    -0.346 F  
HETATM   30  F   UNL     1     -13.425  15.746  70.475  1.00  0.00    -0.429 F  
HETATM   31  C   UNL     1     -13.245  11.758  72.135  1.00  0.00    -0.342 A  
ENDBRANCH  13  14
ENDBRANCH  12  13
ENDBRANCH  11  12
ENDBRANCH   8  11
ENDBRANCH   4   5
ENDBRANCH   2   4
TORSDOF 6
ENDMDL
MODEL      132
REMARK 921   NORMALIZED FREE ENERGY PREDICTED BY IDOCK:   -5.03 KCAL/MOL
REMARK 922        TOTAL FREE ENERGY PREDICTED BY IDOCK:   -7.03 KCAL/MOL
REMARK 923 INTER-LIGAND FREE ENERGY PREDICTED BY IDOCK:   -6.32 KCAL/MOL
REMARK 924 INTRA-LIGAND FREE ENERGY PREDICTED BY IDOCK:   -0.71 KCAL/MOL
REMARK 927      BINDING AFFINITY PREDICTED BY RF-SCORE:    0.00 PKD
ROOT
HETATM    1  O   UNL     1     -10.253  18.895  67.452  1.00  0.00    -0.347 OA 
HETATM    2  C   UNL     1      -9.868  18.247  68.663  1.00  0.00    -0.380 C  
HETATM    3  H   UNL     1     -11.135  19.236  67.538  1.00  0.00     0.000 HD 
ENDROOT
BRANCH   2   4
HETATM    4  C   UNL     1      -8.440  17.695  68.523  1.00  0.00    -0.289 C  
BRANCH   4   5
HETATM    5  N   UNL     1      -8.282  16.696  67.447  1.00  0.00    -0.166 NA 
HETATM    6  C   UNL     1      -6.869  16.372  67.175  1.00  0.00    -0.203 C  
HETATM    7  C   UNL     1      -6.188  15.560  68.292  1.00  0.00    -0.119 C  
HETATM    8  N   UNL     1      -6.862  14.291  68.639  1.00  0.00    -0.092 NA 
HETATM    9  C   UNL     1      -8.989  15.439  67.787  1.00  0.00    -0.173 C  
HETATM   10  C   UNL     1      -8.300  14.561  68.864  1.00  0.00    -0.112 C  
BRANCH   8  11
HETATM   11  C   UNL     1      -6.659  13.232  67.639  1.00  0.00    -0.167 C  
BRANCH  11  12
HETATM   12  C   UNL     1      -6.600  11.825  68.250  1.00  0.00    -0.056 C  
BRANCH  12  13
HETATM   13  C   UNL     1      -7.607  10.864  67.598  1.00  0.00    -0.096 C  
BRANCH  13  14
HETATM   14  N   UNL     1      -8.979  11.111  68.111  1.00  0.00    -0.152 NA 
HETATM   15  C   UNL     1      -9.888  11.785  67.237  1.00  0.00    -0.185 A  
HETATM   16  C   UNL     1      -9.471  12.416  66.040  1.00  0.00    -0.168 A  
HETATM   17  C   UNL     1     -10.353  13.095  65.188  1.00  0.00    -0.326 A  
HETATM   18  C   UNL     1     -11.696  13.170  65.502  1.00  0.00    -0.393 A  
HETATM   19  C   UNL     1     -12.149  12.563  66.667  1.00  0.00    -0.212 A  
HETATM   20  C   UNL     1     -11.265  11.878  67.528  1.00  0.00    -0.296 A  
HETATM   21  S   UNL     1     -12.031  11.156  68.957  1.00  0.00    -0.241 SA 
HETATM   22  C   UNL     1     -10.672  10.351  69.761  1.00  0.00    -0.278 A  
HETATM   23  C   UNL     1      -9.341  10.421  69.314  1.00  0.00    -0.187 A  
HETATM   24  C   UNL     1      -8.387   9.753  70.122  1.00  0.00    -0.201 A  
HETATM   25  C   UNL     1      -8.721   8.975  71.248  1.00  0.00    -0.240 A  
HETATM   26  C   UNL     1     -10.054   8.911  71.638  1.00  0.00    -0.411 A  
HETATM   27  C   UNL     1      -7.667   8.201  72.000  1.00  0.00    -0.108 C  
HETATM   28  F   UNL     1      -6.414   8.327  71.478  1.00  0.00    -0.037 F  
HETATM   29  F   UNL     1      -7.921   6.861  72.008  1.00  0.00    -0.094 F  
HETATM   30  F   UNL     1      -7.567   8.569  73.306  1.00  0.00    -0.178 F  
HETATM   31  C   UNL     1     -11.014   9.605  70.911  1.00  0.00    -0.412 A  
ENDBRANCH  13  14
ENDBRANCH  12  13
ENDBRANCH  11  12
ENDBRANCH   8  11
ENDBRANCH   4   5
ENDBRANCH   2   4
TORSDOF 6
ENDMDL
MODEL      133
REMARK 921   NORMALIZED FREE ENERGY PREDICTED BY IDOCK:   -4.96 KCAL/MOL
REMARK 922        TOTAL FREE ENERGY PREDICTED BY IDOCK:   -6.94 KCAL/MOL
REMARK 923 INTER-LIGAND FREE ENERGY PREDICTED BY IDOCK:   -6.43 KCAL/MOL
REMARK 924 INTRA-LIGAND FREE ENERGY PREDICTED BY IDOCK:   -0.51 KCAL/MOL
REMARK 927      BINDING AFFINITY PREDICTED BY RF-SCORE:    0.00 PKD
ROOT
HETATM    1  O   UNL     1      -5.706   2.537  62.598  1.00  0.00    -0.008 OA 
HETATM    2  C   UNL     1      -5.578   2.172  63.972  1.00  0.00    -0.009 C  
HETATM    3  H   UNL     1      -5.435   1.811  62.048  1.00  0.00     0.000 HD 
ENDROOT
BRANCH   2   4
HETATM    4  C   UNL     1      -6.017   3.346  64.862  1.00  0.00    -0.022 C  
BRANCH   4   5
HETATM    5  N   UNL     1      -7.299   3.127  65.561  1.00  0.00    -0.071 NA 
HETATM    6  C   UNL     1      -7.343   3.774  66.886  1.00  0.00    -0.071 C  
HETATM    7  C   UNL     1      -7.416   5.311  66.827  1.00  0.00    -0.087 C  
HETATM    8  N   UNL     1      -8.549   5.851  66.046  1.00  0.00    -0.136 NA 
HETATM    9  C   UNL     1      -8.432   3.640  64.756  1.00  0.00    -0.100 C  
HETATM   10  C   UNL     1      -8.579   5.184  64.725  1.00  0.00    -0.148 C  
BRANCH   8  11
HETATM   11  C   UNL     1      -9.840   5.739  66.740  1.00  0.00    -0.162 C  
BRANCH  11  12
HETATM   12  C   UNL     1     -10.384   7.086  67.233  1.00  0.00    -0.331 C  
BRANCH  12  13
HETATM   13  C   UNL     1      -9.598   7.625  68.439  1.00  0.00    -0.151 C  
BRANCH  13  14
HETATM   14  N   UNL     1     -10.493   7.806  69.612  1.00  0.00    -0.226 NA 
HETATM   15  C   UNL     1     -10.498   6.765  70.592  1.00  0.00    -0.215 A  
HETATM   16  C   UNL     1      -9.888   5.506  70.373  1.00  0.00    -0.259 A  
HETATM   17  C   UNL     1      -9.907   4.473  71.320  1.00  0.00    -0.260 A  
HETATM   18  C   UNL     1     -10.540   4.662  72.534  1.00  0.00    -0.243 A  
HETATM   19  C   UNL     1     -11.149   5.883  72.792  1.00  0.00    -0.321 A  
HETATM   20  C   UNL     1     -11.134   6.925  71.840  1.00  0.00    -0.246 A  
HETATM   21  S   UNL     1     -11.951   8.414  72.357  1.00  0.00    -0.344 SA 
HETATM   22  C   UNL     1     -11.694   9.497  70.978  1.00  0.00    -0.343 A  
HETATM   23  C   UNL     1     -11.055   9.112  69.786  1.00  0.00    -0.125 A  
HETATM   24  C   UNL     1     -10.993  10.106  68.777  1.00  0.00    -0.264 A  
HETATM   25  C   UNL     1     -11.437  11.432  68.953  1.00  0.00    -0.363 A  
HETATM   26  C   UNL     1     -12.038  11.775  70.158  1.00  0.00    -0.398 A  
HETATM   27  C   UNL     1     -11.241  12.469  67.875  1.00  0.00    -0.264 C  
HETATM   28  F   UNL     1     -10.601  11.997  66.768  1.00  0.00    -0.231 F  
HETATM   29  F   UNL     1     -10.488  13.521  68.305  1.00  0.00    -0.224 F  
HETATM   30  F   UNL     1     -12.411  13.003  67.432  1.00  0.00    -0.350 F  
HETATM   31  C   UNL     1     -12.178  10.812  71.152  1.00  0.00    -0.457 A  
ENDBRANCH  13  14
ENDBRANCH  12  13
ENDBRANCH  11  12
ENDBRANCH   8  11
ENDBRANCH   4   5
ENDBRANCH   2   4
TORSDOF 6
ENDMDL
MODEL      134
REMARK 921   NORMALIZED FREE ENERGY PREDICTED BY IDOCK:   -4.95 KCAL/MOL
REMARK 922        TOTAL FREE ENERGY PREDICTED BY IDOCK:   -6.92 KCAL/MOL
REMARK 923 INTER-LIGAND FREE ENERGY PREDICTED BY IDOCK:   -6.45 KCAL/MOL
REMARK 924 INTRA-LIGAND FREE ENERGY PREDICTED BY IDOCK:   -0.47 KCAL/MOL
REMARK 927      BINDING AFFINITY PREDICTED BY RF-SCORE:    0.00 PKD
ROOT
HETATM    1  O   UNL     1      -9.552   2.712  69.408  1.00  0.00    -0.113 OA 
HETATM    2  C   UNL     1      -9.595   4.047  69.907  1.00  0.00    -0.211 C  
HETATM    3  H   UNL     1      -9.244   2.125  70.088  1.00  0.00     0.000 HD 
ENDROOT
BRANCH   2   4
HETATM    4  C   UNL     1     -10.093   4.996  68.805  1.00  0.00    -0.130 C  
BRANCH   4   5
HETATM    5  N   UNL     1     -10.327   6.381  69.262  1.00  0.00    -0.190 NA 
HETATM    6  C   UNL     1      -9.074   7.108  69.541  1.00  0.00    -0.146 C  
HETATM    7  C   UNL     1      -8.259   7.455  68.281  1.00  0.00    -0.125 C  
HETATM    8  N   UNL     1      -8.992   8.236  67.262  1.00  0.00    -0.136 NA 
HETATM    9  C   UNL     1     -11.091   7.147  68.249  1.00  0.00     0.061 C  
HETATM   10  C   UNL     1     -10.287   7.572  66.992  1.00  0.00    -0.324 C  
BRANCH   8  11
HETATM   11  C   UNL     1      -9.173   9.648  67.629  1.00  0.00    -0.130 C  
BRANCH  11  12
HETATM   12  C   UNL     1      -7.849  10.403  67.806  1.00  0.00    -0.101 C  
BRANCH  12  13
HETATM   13  C   UNL     1      -7.719  11.586  66.833  1.00  0.00    -0.157 C  
BRANCH  13  14
HETATM   14  N   UNL     1      -8.261  12.829  67.440  1.00  0.00    -0.177 NA 
HETATM   15  C   UNL     1      -7.424  13.516  68.373  1.00  0.00    -0.124 A  
HETATM   16  C   UNL     1      -6.240  12.946  68.901  1.00  0.00    -0.085 A  
HETATM   17  C   UNL     1      -5.425  13.605  69.831  1.00  0.00    -0.101 A  
HETATM   18  C   UNL     1      -5.762  14.870  70.271  1.00  0.00    -0.138 A  
HETATM   19  C   UNL     1      -6.914  15.469  69.777  1.00  0.00    -0.132 A  
HETATM   20  C   UNL     1      -7.740  14.808  68.841  1.00  0.00    -0.146 A  
HETATM   21  S   UNL     1      -9.158  15.738  68.316  1.00  0.00    -0.190 SA 
HETATM   22  C   UNL     1      -9.914  14.657  67.132  1.00  0.00    -0.240 A  
HETATM   23  C   UNL     1      -9.447  13.364  66.839  1.00  0.00    -0.253 A  
HETATM   24  C   UNL     1     -10.219  12.632  65.902  1.00  0.00    -0.290 A  
HETATM   25  C   UNL     1     -11.326  13.166  65.211  1.00  0.00    -0.321 A  
HETATM   26  C   UNL     1     -11.735  14.459  65.513  1.00  0.00    -0.352 A  
HETATM   27  C   UNL     1     -12.036  12.368  64.145  1.00  0.00    -0.453 C  
HETATM   28  F   UNL     1     -11.498  11.135  63.930  1.00  0.00    -0.408 F  
HETATM   29  F   UNL     1     -12.006  12.991  62.932  1.00  0.00    -0.567 F  
HETATM   30  F   UNL     1     -13.350  12.160  64.425  1.00  0.00    -0.465 F  
HETATM   31  C   UNL     1     -11.045  15.189  66.474  1.00  0.00    -0.305 A  
ENDBRANCH  13  14
ENDBRANCH  12  13
ENDBRANCH  11  12
ENDBRANCH   8  11
ENDBRANCH   4   5
ENDBRANCH   2   4
TORSDOF 6
ENDMDL
MODEL      135
REMARK 921   NORMALIZED FREE ENERGY PREDICTED BY IDOCK:   -4.94 KCAL/MOL
REMARK 922        TOTAL FREE ENERGY PREDICTED BY IDOCK:   -6.91 KCAL/MOL
REMARK 923 INTER-LIGAND FREE ENERGY PREDICTED BY IDOCK:   -6.00 KCAL/MOL
REMARK 924 INTRA-LIGAND FREE ENERGY PREDICTED BY IDOCK:   -0.90 KCAL/MOL
REMARK 927      BINDING AFFINITY PREDICTED BY RF-SCORE:    0.00 PKD
ROOT
HETATM    1  O   UNL     1      -8.145  11.212  63.003  1.00  0.00    -0.392 OA 
HETATM    2  C   UNL     1      -9.530  11.058  62.700  1.00  0.00    -0.289 C  
HETATM    3  H   UNL     1      -7.647  10.521  62.584  1.00  0.00     0.000 HD 
ENDROOT
BRANCH   2   4
HETATM    4  C   UNL     1     -10.337  12.177  63.379  1.00  0.00    -0.402 C  
BRANCH   4   5
HETATM    5  N   UNL     1     -11.397  11.692  64.285  1.00  0.00    -0.316 NA 
HETATM    6  C   UNL     1     -10.899  10.719  65.275  1.00  0.00     0.006 C  
HETATM    7  C   UNL     1      -9.989  11.335  66.354  1.00  0.00    -0.215 C  
HETATM    8  N   UNL     1     -10.593  12.450  67.114  1.00  0.00    -0.223 NA 
HETATM    9  C   UNL     1     -12.020  12.819  65.018  1.00  0.00    -0.412 C  
HETATM   10  C   UNL     1     -11.160  13.427  66.157  1.00  0.00    -0.288 C  
BRANCH   8  11
HETATM   11  C   UNL     1     -11.594  12.010  68.097  1.00  0.00    -0.340 C  
BRANCH  11  12
HETATM   12  C   UNL     1     -11.383  10.567  68.574  1.00  0.00    -0.320 C  
BRANCH  12  13
HETATM   13  C   UNL     1     -10.669  10.500  69.933  1.00  0.00    -0.247 C  
BRANCH  13  14
HETATM   14  N   UNL     1      -9.576   9.493  69.906  1.00  0.00    -0.208 NA 
HETATM   15  C   UNL     1      -9.953   8.123  70.064  1.00  0.00    -0.192 A  
HETATM   16  C   UNL     1     -11.250   7.728  70.471  1.00  0.00    -0.267 A  
HETATM   17  C   UNL     1     -11.620   6.388  70.647  1.00  0.00    -0.412 A  
HETATM   18  C   UNL     1     -10.700   5.382  70.419  1.00  0.00    -0.276 A  
HETATM   19  C   UNL     1      -9.416   5.725  70.016  1.00  0.00    -0.193 A  
HETATM   20  C   UNL     1      -9.038   7.073  69.839  1.00  0.00    -0.141 A  
HETATM   21  S   UNL     1      -7.362   7.311  69.306  1.00  0.00    -0.088 SA 
HETATM   22  C   UNL     1      -7.254   9.071  69.134  1.00  0.00    -0.067 A  
HETATM   23  C   UNL     1      -8.296   9.957  69.460  1.00  0.00    -0.168 A  
HETATM   24  C   UNL     1      -8.000  11.335  69.305  1.00  0.00     0.078 A  
HETATM   25  C   UNL     1      -6.792  11.821  68.766  1.00  0.00    -0.095 A  
HETATM   26  C   UNL     1      -5.800  10.907  68.431  1.00  0.00    -0.043 A  
HETATM   27  C   UNL     1      -6.584  13.296  68.526  1.00  0.00    -0.089 C  
HETATM   28  F   UNL     1      -7.658  14.064  68.863  1.00  0.00    -0.118 F  
HETATM   29  F   UNL     1      -6.341  13.573  67.213  1.00  0.00    -0.167 F  
HETATM   30  F   UNL     1      -5.528  13.803  69.217  1.00  0.00    -0.077 F  
HETATM   31  C   UNL     1      -6.025   9.549  68.629  1.00  0.00    -0.043 A  
ENDBRANCH  13  14
ENDBRANCH  12  13
ENDBRANCH  11  12
ENDBRANCH   8  11
ENDBRANCH   4   5
ENDBRANCH   2   4
TORSDOF 6
ENDMDL
MODEL      136
REMARK 921   NORMALIZED FREE ENERGY PREDICTED BY IDOCK:   -4.93 KCAL/MOL
REMARK 922        TOTAL FREE ENERGY PREDICTED BY IDOCK:   -6.89 KCAL/MOL
REMARK 923 INTER-LIGAND FREE ENERGY PREDICTED BY IDOCK:   -6.16 KCAL/MOL
REMARK 924 INTRA-LIGAND FREE ENERGY PREDICTED BY IDOCK:   -0.73 KCAL/MOL
REMARK 927      BINDING AFFINITY PREDICTED BY RF-SCORE:    0.00 PKD
ROOT
HETATM    1  O   UNL     1     -12.434  12.949  63.292  1.00  0.00    -0.685 OA 
HETATM    2  C   UNL     1     -11.753  13.696  64.299  1.00  0.00    -0.403 C  
HETATM    3  H   UNL     1     -12.242  13.316  62.437  1.00  0.00     0.000 HD 
ENDROOT
BRANCH   2   4
HETATM    4  C   UNL     1     -12.064  13.102  65.683  1.00  0.00    -0.449 C  
BRANCH   4   5
HETATM    5  N   UNL     1     -10.901  13.051  66.592  1.00  0.00    -0.273 NA 
HETATM    6  C   UNL     1     -11.218  12.421  67.887  1.00  0.00    -0.266 C  
HETATM    7  C   UNL     1     -11.462  10.903  67.801  1.00  0.00    -0.243 C  
HETATM    8  N   UNL     1     -10.354  10.128  67.205  1.00  0.00    -0.222 NA 
HETATM    9  C   UNL     1      -9.782  12.301  65.974  1.00  0.00    -0.242 C  
HETATM   10  C   UNL     1      -9.962  10.761  65.926  1.00  0.00    -0.250 C  
BRANCH   8  11
HETATM   11  C   UNL     1      -9.203   9.970  68.107  1.00  0.00    -0.128 C  
BRANCH  11  12
HETATM   12  C   UNL     1      -9.177   8.615  68.826  1.00  0.00    -0.142 C  
BRANCH  12  13
HETATM   13  C   UNL     1     -10.087   7.578  68.148  1.00  0.00    -0.183 C  
BRANCH  13  14
HETATM   14  N   UNL     1      -9.369   6.291  67.957  1.00  0.00    -0.116 NA 
HETATM   15  C   UNL     1      -8.597   6.150  66.762  1.00  0.00    -0.111 A  
HETATM   16  C   UNL     1      -8.684   7.062  65.683  1.00  0.00    -0.082 A  
HETATM   17  C   UNL     1      -7.946   6.919  64.500  1.00  0.00    -0.106 A  
HETATM   18  C   UNL     1      -7.083   5.850  64.350  1.00  0.00    -0.053 A  
HETATM   19  C   UNL     1      -6.965   4.932  65.385  1.00  0.00    -0.062 A  
HETATM   20  C   UNL     1      -7.707   5.071  66.578  1.00  0.00    -0.092 A  
HETATM   21  S   UNL     1      -7.411   3.808  67.789  1.00  0.00    -0.063 SA 
HETATM   22  C   UNL     1      -8.437   4.317  69.141  1.00  0.00    -0.081 A  
HETATM   23  C   UNL     1      -9.299   5.427  69.098  1.00  0.00    -0.120 A  
HETATM   24  C   UNL     1     -10.080   5.642  70.261  1.00  0.00    -0.287 A  
HETATM   25  C   UNL     1      -9.957   4.879  71.440  1.00  0.00    -0.266 A  
HETATM   26  C   UNL     1      -9.071   3.807  71.447  1.00  0.00    -0.177 A  
HETATM   27  C   UNL     1     -10.740   5.230  72.681  1.00  0.00    -0.239 C  
HETATM   28  F   UNL     1     -11.535   6.328  72.536  1.00  0.00    -0.283 F  
HETATM   29  F   UNL     1      -9.928   5.509  73.740  1.00  0.00    -0.154 F  
HETATM   30  F   UNL     1     -11.561   4.226  73.092  1.00  0.00    -0.304 F  
HETATM   31  C   UNL     1      -8.333   3.522  70.303  1.00  0.00    -0.084 A  
ENDBRANCH  13  14
ENDBRANCH  12  13
ENDBRANCH  11  12
ENDBRANCH   8  11
ENDBRANCH   4   5
ENDBRANCH   2   4
TORSDOF 6
ENDMDL
MODEL      137
REMARK 921   NORMALIZED FREE ENERGY PREDICTED BY IDOCK:   -4.90 KCAL/MOL
REMARK 922        TOTAL FREE ENERGY PREDICTED BY IDOCK:   -6.85 KCAL/MOL
REMARK 923 INTER-LIGAND FREE ENERGY PREDICTED BY IDOCK:   -6.55 KCAL/MOL
REMARK 924 INTRA-LIGAND FREE ENERGY PREDICTED BY IDOCK:   -0.30 KCAL/MOL
REMARK 927      BINDING AFFINITY PREDICTED BY RF-SCORE:    0.00 PKD
ROOT
HETATM    1  O   UNL     1      -8.996   7.615  74.400  1.00  0.00    -0.413 OA 
HETATM    2  C   UNL     1      -8.666   6.601  73.452  1.00  0.00    -0.123 C  
HETATM    3  H   UNL     1      -8.201   8.022  74.723  1.00  0.00     0.000 HD 
ENDROOT
BRANCH   2   4
HETATM    4  C   UNL     1      -9.953   5.943  72.930  1.00  0.00    -0.173 C  
BRANCH   4   5
HETATM    5  N   UNL     1     -10.058   5.908  71.457  1.00  0.00    -0.187 NA 
HETATM    6  C   UNL     1     -11.409   6.249  70.974  1.00  0.00    -0.316 C  
HETATM    7  C   UNL     1     -11.783   7.732  71.159  1.00  0.00    -0.284 C  
HETATM    8  N   UNL     1     -10.848   8.692  70.536  1.00  0.00    -0.224 NA 
HETATM    9  C   UNL     1      -9.094   6.848  70.839  1.00  0.00    -0.153 C  
HETATM   10  C   UNL     1      -9.467   8.350  70.948  1.00  0.00    -0.169 C  
BRANCH   8  11
HETATM   11  C   UNL     1     -10.975   8.762  69.073  1.00  0.00     0.074 C  
BRANCH  11  12
HETATM   12  C   UNL     1     -10.967  10.197  68.531  1.00  0.00    -0.278 C  
BRANCH  12  13
HETATM   13  C   UNL     1      -9.763  10.468  67.614  1.00  0.00    -0.165 C  
BRANCH  13  14
HETATM   14  N   UNL     1      -9.153  11.788  67.921  1.00  0.00    -0.174 NA 
HETATM   15  C   UNL     1      -7.944  11.782  68.684  1.00  0.00    -0.116 A  
HETATM   16  C   UNL     1      -7.458  10.625  69.339  1.00  0.00    -0.135 A  
HETATM   17  C   UNL     1      -6.285  10.617  70.105  1.00  0.00    -0.125 A  
HETATM   18  C   UNL     1      -5.545  11.775  70.246  1.00  0.00    -0.143 A  
HETATM   19  C   UNL     1      -5.984  12.934  69.619  1.00  0.00    -0.120 A  
HETATM   20  C   UNL     1      -7.166  12.947  68.847  1.00  0.00    -0.042 A  
HETATM   21  S   UNL     1      -7.555  14.515  68.112  1.00  0.00    -0.140 SA 
HETATM   22  C   UNL     1      -9.028  14.159  67.194  1.00  0.00    -0.225 A  
HETATM   23  C   UNL     1      -9.677  12.912  67.204  1.00  0.00    -0.221 A  
HETATM   24  C   UNL     1     -10.874  12.838  66.446  1.00  0.00    -0.294 A  
HETATM   25  C   UNL     1     -11.359  13.889  65.643  1.00  0.00    -0.310 A  
HETATM   26  C   UNL     1     -10.669  15.096  65.642  1.00  0.00    -0.374 A  
HETATM   27  C   UNL     1     -12.580  13.707  64.776  1.00  0.00    -0.295 C  
HETATM   28  F   UNL     1     -13.125  12.460  64.849  1.00  0.00    -0.535 F  
HETATM   29  F   UNL     1     -12.306  13.904  63.454  1.00  0.00    -0.532 F  
HETATM   30  F   UNL     1     -13.583  14.572  65.082  1.00  0.00    -0.036 F  
HETATM   31  C   UNL     1      -9.526  15.232  66.422  1.00  0.00    -0.326 A  
ENDBRANCH  13  14
ENDBRANCH  12  13
ENDBRANCH  11  12
ENDBRANCH   8  11
ENDBRANCH   4   5
ENDBRANCH   2   4
TORSDOF 6
ENDMDL
MODEL      138
REMARK 921   NORMALIZED FREE ENERGY PREDICTED BY IDOCK:   -4.88 KCAL/MOL
REMARK 922        TOTAL FREE ENERGY PREDICTED BY IDOCK:   -6.83 KCAL/MOL
REMARK 923 INTER-LIGAND FREE ENERGY PREDICTED BY IDOCK:   -6.26 KCAL/MOL
REMARK 924 INTRA-LIGAND FREE ENERGY PREDICTED BY IDOCK:   -0.57 KCAL/MOL
REMARK 927      BINDING AFFINITY PREDICTED BY RF-SCORE:    0.00 PKD
ROOT
HETATM    1  O   UNL     1     -14.310  13.599  72.483  1.00  0.00    -0.707 OA 
HETATM    2  C   UNL     1     -13.338  12.930  71.681  1.00  0.00    -0.269 C  
HETATM    3  H   UNL     1     -14.347  14.517  72.240  1.00  0.00     0.000 HD 
ENDROOT
BRANCH   2   4
HETATM    4  C   UNL     1     -13.279  11.444  72.074  1.00  0.00    -0.327 C  
BRANCH   4   5
HETATM    5  N   UNL     1     -13.382  10.514  70.932  1.00  0.00    -0.202 NA 
HETATM    6  C   UNL     1     -12.228  10.603  70.018  1.00  0.00    -0.298 C  
HETATM    7  C   UNL     1     -10.920  10.041  70.606  1.00  0.00    -0.322 C  
HETATM    8  N   UNL     1     -10.997   8.639  71.067  1.00  0.00    -0.248 NA 
HETATM    9  C   UNL     1     -13.493   9.113  71.403  1.00  0.00    -0.298 C  
HETATM   10  C   UNL     1     -12.180   8.488  71.944  1.00  0.00    -0.352 C  
BRANCH   8  11
HETATM   11  C   UNL     1     -11.012   7.665  69.966  1.00  0.00    -0.228 C  
BRANCH  11  12
HETATM   12  C   UNL     1      -9.711   6.859  69.851  1.00  0.00    -0.165 C  
BRANCH  12  13
HETATM   13  C   UNL     1      -8.526   7.726  69.399  1.00  0.00    -0.134 C  
BRANCH  13  14
HETATM   14  N   UNL     1      -8.172   7.438  67.984  1.00  0.00    -0.123 NA 
HETATM   15  C   UNL     1      -7.726   6.113  67.684  1.00  0.00    -0.098 A  
HETATM   16  C   UNL     1      -7.391   5.173  68.688  1.00  0.00    -0.066 A  
HETATM   17  C   UNL     1      -6.933   3.880  68.402  1.00  0.00    -0.051 A  
HETATM   18  C   UNL     1      -6.793   3.472  67.089  1.00  0.00    -0.050 A  
HETATM   19  C   UNL     1      -7.113   4.362  66.071  1.00  0.00    -0.071 A  
HETATM   20  C   UNL     1      -7.572   5.666  66.355  1.00  0.00    -0.091 A  
HETATM   21  S   UNL     1      -7.943   6.650  64.926  1.00  0.00    -0.111 SA 
HETATM   22  C   UNL     1      -8.532   8.163  65.637  1.00  0.00    -0.156 A  
HETATM   23  C   UNL     1      -8.562   8.421  67.019  1.00  0.00    -0.122 A  
HETATM   24  C   UNL     1      -9.018   9.711  67.391  1.00  0.00    -0.141 A  
HETATM   25  C   UNL     1      -9.512  10.662  66.475  1.00  0.00    -0.199 A  
HETATM   26  C   UNL     1      -9.489  10.353  65.121  1.00  0.00    -0.303 A  
HETATM   27  C   UNL     1     -10.084  11.975  66.950  1.00  0.00    -0.205 C  
HETATM   28  F   UNL     1     -10.078  12.120  68.305  1.00  0.00    -0.186 F  
HETATM   29  F   UNL     1     -11.386  12.134  66.576  1.00  0.00    -0.316 F  
HETATM   30  F   UNL     1      -9.419  13.054  66.455  1.00  0.00    -0.243 F  
HETATM   31  C   UNL     1      -8.989   9.123  64.708  1.00  0.00    -0.177 A  
ENDBRANCH  13  14
ENDBRANCH  12  13
ENDBRANCH  11  12
ENDBRANCH   8  11
ENDBRANCH   4   5
ENDBRANCH   2   4
TORSDOF 6
ENDMDL
MODEL      139
REMARK 921   NORMALIZED FREE ENERGY PREDICTED BY IDOCK:   -4.88 KCAL/MOL
REMARK 922        TOTAL FREE ENERGY PREDICTED BY IDOCK:   -6.82 KCAL/MOL
REMARK 923 INTER-LIGAND FREE ENERGY PREDICTED BY IDOCK:   -5.94 KCAL/MOL
REMARK 924 INTRA-LIGAND FREE ENERGY PREDICTED BY IDOCK:   -0.89 KCAL/MOL
REMARK 927      BINDING AFFINITY PREDICTED BY RF-SCORE:    0.00 PKD
ROOT
HETATM    1  O   UNL     1     -11.528   4.688  65.303  1.00  0.00    -1.070 OA 
HETATM    2  C   UNL     1     -11.024   5.480  66.377  1.00  0.00    -0.011 C  
HETATM    3  H   UNL     1     -12.476   4.742  65.284  1.00  0.00     0.000 HD 
ENDROOT
BRANCH   2   4
HETATM    4  C   UNL     1      -9.489   5.392  66.409  1.00  0.00    -0.154 C  
BRANCH   4   5
HETATM    5  N   UNL     1      -8.840   6.464  67.190  1.00  0.00    -0.112 NA 
HETATM    6  C   UNL     1      -7.373   6.471  67.038  1.00  0.00    -0.079 C  
HETATM    7  C   UNL     1      -6.891   6.926  65.648  1.00  0.00    -0.052 C  
HETATM    8  N   UNL     1      -7.373   8.259  65.228  1.00  0.00    -0.078 NA 
HETATM    9  C   UNL     1      -9.353   7.794  66.786  1.00  0.00    -0.180 C  
HETATM   10  C   UNL     1      -8.840   8.318  65.420  1.00  0.00    -0.073 C  
BRANCH   8  11
HETATM   11  C   UNL     1      -6.692   9.367  65.913  1.00  0.00    -0.081 C  
BRANCH  11  12
HETATM   12  C   UNL     1      -7.511  10.664  65.932  1.00  0.00    -0.131 C  
BRANCH  12  13
HETATM   13  C   UNL     1      -7.438  11.381  67.289  1.00  0.00    -0.134 C  
BRANCH  13  14
HETATM   14  N   UNL     1      -8.791  11.508  67.892  1.00  0.00    -0.146 NA 
HETATM   15  C   UNL     1      -9.742  12.309  67.187  1.00  0.00    -0.201 A  
HETATM   16  C   UNL     1      -9.383  13.149  66.105  1.00  0.00    -0.086 A  
HETATM   17  C   UNL     1     -10.306  13.953  65.423  1.00  0.00    -0.364 A  
HETATM   18  C   UNL     1     -11.636  13.946  65.797  1.00  0.00    -0.343 A  
HETATM   19  C   UNL     1     -12.033  13.135  66.852  1.00  0.00    -0.421 A  
HETATM   20  C   UNL     1     -11.107  12.325  67.544  1.00  0.00    -0.275 A  
HETATM   21  S   UNL     1     -11.804  11.349  68.851  1.00  0.00    -0.318 SA 
HETATM   22  C   UNL     1     -10.405  10.438  69.446  1.00  0.00    -0.237 A  
HETATM   23  C   UNL     1      -9.095  10.611  68.966  1.00  0.00    -0.166 A  
HETATM   24  C   UNL     1      -8.101   9.828  69.606  1.00  0.00    -0.158 A  
HETATM   25  C   UNL     1      -8.379   8.857  70.589  1.00  0.00    -0.190 A  
HETATM   26  C   UNL     1      -9.693   8.701  71.013  1.00  0.00    -0.266 A  
HETATM   27  C   UNL     1      -7.286   7.981  71.150  1.00  0.00    -0.065 C  
HETATM   28  F   UNL     1      -6.058   8.220  70.609  1.00  0.00    -0.032 F  
HETATM   29  F   UNL     1      -7.525   6.656  70.930  1.00  0.00    -0.077 F  
HETATM   30  F   UNL     1      -7.136   8.115  72.495  1.00  0.00    -0.077 F  
HETATM   31  C   UNL     1     -10.691   9.495  70.458  1.00  0.00    -0.359 A  
ENDBRANCH  13  14
ENDBRANCH  12  13
ENDBRANCH  11  12
ENDBRANCH   8  11
ENDBRANCH   4   5
ENDBRANCH   2   4
TORSDOF 6
ENDMDL
MODEL      140
REMARK 921   NORMALIZED FREE ENERGY PREDICTED BY IDOCK:   -4.87 KCAL/MOL
REMARK 922        TOTAL FREE ENERGY PREDICTED BY IDOCK:   -6.81 KCAL/MOL
REMARK 923 INTER-LIGAND FREE ENERGY PREDICTED BY IDOCK:   -6.08 KCAL/MOL
REMARK 924 INTRA-LIGAND FREE ENERGY PREDICTED BY IDOCK:   -0.73 KCAL/MOL
REMARK 927      BINDING AFFINITY PREDICTED BY RF-SCORE:    0.00 PKD
ROOT
HETATM    1  O   UNL     1      -6.348   2.267  62.477  1.00  0.00    -0.009 OA 
HETATM    2  C   UNL     1      -6.604   1.478  63.638  1.00  0.00    -0.014 C  
HETATM    3  H   UNL     1      -6.150   1.700  61.742  1.00  0.00     0.000 HD 
ENDROOT
BRANCH   2   4
HETATM    4  C   UNL     1      -6.924   2.397  64.828  1.00  0.00    -0.048 C  
BRANCH   4   5
HETATM    5  N   UNL     1      -8.348   2.402  65.221  1.00  0.00    -0.092 NA 
HETATM    6  C   UNL     1      -8.539   2.610  66.668  1.00  0.00    -0.111 C  
HETATM    7  C   UNL     1      -8.203   4.036  67.144  1.00  0.00    -0.099 C  
HETATM    8  N   UNL     1      -8.942   5.113  66.453  1.00  0.00    -0.122 NA 
HETATM    9  C   UNL     1      -9.089   3.462  64.498  1.00  0.00    -0.130 C  
HETATM   10  C   UNL     1      -8.826   4.910  64.991  1.00  0.00    -0.154 C  
BRANCH   8  11
HETATM   11  C   UNL     1     -10.347   5.218  66.876  1.00  0.00    -0.255 C  
BRANCH  11  12
HETATM   12  C   UNL     1     -10.684   6.567  67.526  1.00  0.00    -0.395 C  
BRANCH  12  13
HETATM   13  C   UNL     1      -9.600   7.027  68.512  1.00  0.00    -0.137 C  
BRANCH  13  14
HETATM   14  N   UNL     1     -10.208   7.486  69.788  1.00  0.00    -0.206 NA 
HETATM   15  C   UNL     1     -10.795   8.790  69.794  1.00  0.00    -0.193 A  
HETATM   16  C   UNL     1     -10.611   9.717  68.740  1.00  0.00    -0.242 A  
HETATM   17  C   UNL     1     -11.167  11.003  68.749  1.00  0.00    -0.327 A  
HETATM   18  C   UNL     1     -11.937  11.415  69.819  1.00  0.00    -0.422 A  
HETATM   19  C   UNL     1     -12.146  10.537  70.874  1.00  0.00    -0.487 A  
HETATM   20  C   UNL     1     -11.587   9.241  70.871  1.00  0.00    -0.301 A  
HETATM   21  S   UNL     1     -11.976   8.260  72.298  1.00  0.00    -0.387 SA 
HETATM   22  C   UNL     1     -11.180   6.718  71.940  1.00  0.00    -0.260 A  
HETATM   23  C   UNL     1     -10.387   6.490  70.802  1.00  0.00    -0.204 A  
HETATM   24  C   UNL     1      -9.790   5.207  70.718  1.00  0.00    -0.270 A  
HETATM   25  C   UNL     1     -10.032   4.168  71.639  1.00  0.00    -0.240 A  
HETATM   26  C   UNL     1     -10.846   4.430  72.735  1.00  0.00    -0.214 A  
HETATM   27  C   UNL     1      -9.451   2.791  71.431  1.00  0.00    -0.146 C  
HETATM   28  F   UNL     1      -8.710   2.674  70.294  1.00  0.00    -0.086 F  
HETATM   29  F   UNL     1     -10.419   1.835  71.332  1.00  0.00    -0.147 F  
HETATM   30  F   UNL     1      -8.640   2.398  72.449  1.00  0.00    -0.063 F  
HETATM   31  C   UNL     1     -11.399   5.696  72.890  1.00  0.00    -0.325 A  
ENDBRANCH  13  14
ENDBRANCH  12  13
ENDBRANCH  11  12
ENDBRANCH   8  11
ENDBRANCH   4   5
ENDBRANCH   2   4
TORSDOF 6
ENDMDL
MODEL      141
REMARK 921   NORMALIZED FREE ENERGY PREDICTED BY IDOCK:   -4.86 KCAL/MOL
REMARK 922        TOTAL FREE ENERGY PREDICTED BY IDOCK:   -6.81 KCAL/MOL
REMARK 923 INTER-LIGAND FREE ENERGY PREDICTED BY IDOCK:   -5.93 KCAL/MOL
REMARK 924 INTRA-LIGAND FREE ENERGY PREDICTED BY IDOCK:   -0.88 KCAL/MOL
REMARK 927      BINDING AFFINITY PREDICTED BY RF-SCORE:    0.00 PKD
ROOT
HETATM    1  O   UNL     1     -14.395   9.311  70.613  1.00  0.00    -0.398 OA 
HETATM    2  C   UNL     1     -14.345   8.174  71.473  1.00  0.00    -0.430 C  
HETATM    3  H   UNL     1     -15.218   9.316  70.139  1.00  0.00     0.000 HD 
ENDROOT
BRANCH   2   4
HETATM    4  C   UNL     1     -13.013   8.164  72.241  1.00  0.00    -0.204 C  
BRANCH   4   5
HETATM    5  N   UNL     1     -11.931   7.422  71.563  1.00  0.00    -0.292 NA 
HETATM    6  C   UNL     1     -11.167   8.263  70.623  1.00  0.00    -0.256 C  
HETATM    7  C   UNL     1     -10.277   9.317  71.308  1.00  0.00    -0.313 C  
HETATM    8  N   UNL     1      -9.310   8.774  72.285  1.00  0.00    -0.360 NA 
HETATM    9  C   UNL     1     -10.984   6.853  72.550  1.00  0.00    -0.260 C  
HETATM   10  C   UNL     1     -10.026   7.874  73.217  1.00  0.00    -0.263 C  
BRANCH   8  11
HETATM   11  C   UNL     1      -8.163   8.102  71.656  1.00  0.00    -0.126 C  
BRANCH  11  12
HETATM   12  C   UNL     1      -7.379   9.008  70.698  1.00  0.00    -0.099 C  
BRANCH  12  13
HETATM   13  C   UNL     1      -6.781   8.228  69.516  1.00  0.00    -0.038 C  
BRANCH  13  14
HETATM   14  N   UNL     1      -7.845   7.814  68.565  1.00  0.00    -0.118 NA 
HETATM   15  C   UNL     1      -8.154   6.419  68.504  1.00  0.00    -0.110 A  
HETATM   16  C   UNL     1      -7.347   5.430  69.116  1.00  0.00    -0.066 A  
HETATM   17  C   UNL     1      -7.632   4.060  69.043  1.00  0.00    -0.054 A  
HETATM   18  C   UNL     1      -8.745   3.622  68.352  1.00  0.00    -0.135 A  
HETATM   19  C   UNL     1      -9.566   4.559  67.738  1.00  0.00    -0.208 A  
HETATM   20  C   UNL     1      -9.282   5.940  67.807  1.00  0.00    -0.108 A  
HETATM   21  S   UNL     1     -10.453   6.982  66.974  1.00  0.00    -0.320 SA 
HETATM   22  C   UNL     1      -9.833   8.608  67.307  1.00  0.00    -0.197 A  
HETATM   23  C   UNL     1      -8.638   8.866  68.003  1.00  0.00    -0.130 A  
HETATM   24  C   UNL     1      -8.282  10.232  68.122  1.00  0.00    -0.114 A  
HETATM   25  C   UNL     1      -9.093  11.296  67.677  1.00  0.00    -0.149 A  
HETATM   26  C   UNL     1     -10.279  10.995  67.019  1.00  0.00    -0.250 A  
HETATM   27  C   UNL     1      -8.705  12.731  67.934  1.00  0.00    -0.185 C  
HETATM   28  F   UNL     1      -7.538  12.870  68.626  1.00  0.00    -0.119 F  
HETATM   29  F   UNL     1      -9.642  13.393  68.671  1.00  0.00    -0.212 F  
HETATM   30  F   UNL     1      -8.551  13.452  66.791  1.00  0.00    -0.209 F  
HETATM   31  C   UNL     1     -10.635   9.665  66.823  1.00  0.00    -0.209 A  
ENDBRANCH  13  14
ENDBRANCH  12  13
ENDBRANCH  11  12
ENDBRANCH   8  11
ENDBRANCH   4   5
ENDBRANCH   2   4
TORSDOF 6
ENDMDL
MODEL      142
REMARK 921   NORMALIZED FREE ENERGY PREDICTED BY IDOCK:   -4.86 KCAL/MOL
REMARK 922        TOTAL FREE ENERGY PREDICTED BY IDOCK:   -6.80 KCAL/MOL
REMARK 923 INTER-LIGAND FREE ENERGY PREDICTED BY IDOCK:   -6.71 KCAL/MOL
REMARK 924 INTRA-LIGAND FREE ENERGY PREDICTED BY IDOCK:   -0.08 KCAL/MOL
REMARK 927      BINDING AFFINITY PREDICTED BY RF-SCORE:    0.00 PKD
ROOT
HETATM    1  O   UNL     1     -12.111  16.799  72.531  1.00  0.00    -0.469 OA 
HETATM    2  C   UNL     1     -11.492  15.640  71.977  1.00  0.00    -0.404 C  
HETATM    3  H   UNL     1     -11.998  16.802  73.474  1.00  0.00     0.000 HD 
ENDROOT
BRANCH   2   4
HETATM    4  C   UNL     1     -11.675  15.636  70.450  1.00  0.00    -0.357 C  
BRANCH   4   5
HETATM    5  N   UNL     1     -12.745  14.736  69.973  1.00  0.00    -0.221 NA 
HETATM    6  C   UNL     1     -12.253  13.718  69.027  1.00  0.00    -0.224 C  
HETATM    7  C   UNL     1     -11.367  12.638  69.675  1.00  0.00    -0.104 C  
HETATM    8  N   UNL     1     -11.994  11.912  70.800  1.00  0.00    -0.223 NA 
HETATM    9  C   UNL     1     -13.391  14.039  71.110  1.00  0.00    -0.223 C  
HETATM   10  C   UNL     1     -12.556  12.899  71.750  1.00  0.00    -0.037 C  
BRANCH   8  11
HETATM   11  C   UNL     1     -13.006  10.936  70.371  1.00  0.00    -0.103 C  
BRANCH  11  12
HETATM   12  C   UNL     1     -12.589   9.481  70.621  1.00  0.00    -0.064 C  
BRANCH  12  13
HETATM   13  C   UNL     1     -11.110   9.358  71.018  1.00  0.00    -0.344 C  
BRANCH  13  14
HETATM   14  N   UNL     1     -10.514   8.117  70.459  1.00  0.00    -0.210 NA 
HETATM   15  C   UNL     1     -10.621   6.932  71.252  1.00  0.00    -0.220 A  
HETATM   16  C   UNL     1     -11.042   6.951  72.604  1.00  0.00    -0.306 A  
HETATM   17  C   UNL     1     -11.128   5.797  73.393  1.00  0.00    -0.195 A  
HETATM   18  C   UNL     1     -10.797   4.567  72.857  1.00  0.00    -0.276 A  
HETATM   19  C   UNL     1     -10.381   4.501  71.533  1.00  0.00    -0.138 A  
HETATM   20  C   UNL     1     -10.291   5.662  70.734  1.00  0.00    -0.243 A  
HETATM   21  S   UNL     1      -9.755   5.376  69.067  1.00  0.00    -0.165 SA 
HETATM   22  C   UNL     1      -9.810   6.999  68.357  1.00  0.00    -0.146 A  
HETATM   23  C   UNL     1     -10.134   8.161  69.079  1.00  0.00    -0.205 A  
HETATM   24  C   UNL     1     -10.072   9.374  68.347  1.00  0.00    -0.208 A  
HETATM   25  C   UNL     1      -9.808   9.442  66.964  1.00  0.00    -0.258 A  
HETATM   26  C   UNL     1      -9.522   8.264  66.285  1.00  0.00    -0.271 A  
HETATM   27  C   UNL     1      -9.866  10.756  66.225  1.00  0.00    -0.215 C  
HETATM   28  F   UNL     1     -10.200  11.817  67.013  1.00  0.00    -0.217 F  
HETATM   29  F   UNL     1     -10.794  10.744  65.225  1.00  0.00    -0.305 F  
HETATM   30  F   UNL     1      -8.686  11.085  65.634  1.00  0.00    -0.178 F  
HETATM   31  C   UNL     1      -9.508   7.059  66.979  1.00  0.00    -0.184 A  
ENDBRANCH  13  14
ENDBRANCH  12  13
ENDBRANCH  11  12
ENDBRANCH   8  11
ENDBRANCH   4   5
ENDBRANCH   2   4
TORSDOF 6
ENDMDL
MODEL      143
REMARK 921   NORMALIZED FREE ENERGY PREDICTED BY IDOCK:   -4.85 KCAL/MOL
REMARK 922        TOTAL FREE ENERGY PREDICTED BY IDOCK:   -6.79 KCAL/MOL
REMARK 923 INTER-LIGAND FREE ENERGY PREDICTED BY IDOCK:   -6.27 KCAL/MOL
REMARK 924 INTRA-LIGAND FREE ENERGY PREDICTED BY IDOCK:   -0.52 KCAL/MOL
REMARK 927      BINDING AFFINITY PREDICTED BY RF-SCORE:    0.00 PKD
ROOT
HETATM    1  O   UNL     1      -8.994   1.614  64.166  1.00  0.00    -0.094 OA 
HETATM    2  C   UNL     1      -7.805   2.367  64.396  1.00  0.00    -0.077 C  
HETATM    3  H   UNL     1      -9.192   1.606  63.237  1.00  0.00     0.000 HD 
ENDROOT
BRANCH   2   4
HETATM    4  C   UNL     1      -7.485   2.381  65.900  1.00  0.00    -0.067 C  
BRANCH   4   5
HETATM    5  N   UNL     1      -6.711   3.559  66.341  1.00  0.00    -0.051 NA 
HETATM    6  C   UNL     1      -7.029   4.772  65.566  1.00  0.00    -0.062 C  
HETATM    7  C   UNL     1      -8.430   5.345  65.849  1.00  0.00    -0.127 C  
HETATM    8  N   UNL     1      -8.699   5.659  67.268  1.00  0.00    -0.109 NA 
HETATM    9  C   UNL     1      -6.960   3.846  67.773  1.00  0.00    -0.055 C  
HETATM   10  C   UNL     1      -8.337   4.485  68.093  1.00  0.00    -0.094 C  
BRANCH   8  11
HETATM   11  C   UNL     1      -8.022   6.878  67.733  1.00  0.00    -0.114 C  
BRANCH  11  12
HETATM   12  C   UNL     1      -8.824   8.158  67.464  1.00  0.00    -0.137 C  
BRANCH  12  13
HETATM   13  C   UNL     1     -10.340   7.911  67.484  1.00  0.00    -0.259 C  
BRANCH  13  14
HETATM   14  N   UNL     1     -10.987   8.687  68.574  1.00  0.00     0.075 NA 
HETATM   15  C   UNL     1     -11.103   8.045  69.846  1.00  0.00    -0.108 A  
HETATM   16  C   UNL     1     -10.853   6.664  70.032  1.00  0.00    -0.331 A  
HETATM   17  C   UNL     1     -10.984   6.025  71.272  1.00  0.00    -0.340 A  
HETATM   18  C   UNL     1     -11.372   6.747  72.384  1.00  0.00    -0.306 A  
HETATM   19  C   UNL     1     -11.625   8.106  72.248  1.00  0.00    -0.436 A  
HETATM   20  C   UNL     1     -11.496   8.755  71.000  1.00  0.00    -0.285 A  
HETATM   21  S   UNL     1     -11.847  10.494  71.028  1.00  0.00    -0.298 SA 
HETATM   22  C   UNL     1     -11.537  10.980  69.352  1.00  0.00    -0.312 A  
HETATM   23  C   UNL     1     -11.187  10.084  68.327  1.00  0.00    -0.132 A  
HETATM   24  C   UNL     1     -11.032  10.657  67.039  1.00  0.00    -0.274 A  
HETATM   25  C   UNL     1     -11.114  12.040  66.781  1.00  0.00    -0.353 A  
HETATM   26  C   UNL     1     -11.434  12.892  67.831  1.00  0.00    -0.362 A  
HETATM   27  C   UNL     1     -10.829  12.594  65.407  1.00  0.00    -0.287 C  
HETATM   28  F   UNL     1     -10.488  11.644  64.491  1.00  0.00    -0.282 F  
HETATM   29  F   UNL     1      -9.791  13.478  65.414  1.00  0.00    -0.287 F  
HETATM   30  F   UNL     1     -11.887  13.264  64.876  1.00  0.00    -0.337 F  
HETATM   31  C   UNL     1     -11.659  12.364  69.098  1.00  0.00    -0.369 A  
ENDBRANCH  13  14
ENDBRANCH  12  13
ENDBRANCH  11  12
ENDBRANCH   8  11
ENDBRANCH   4   5
ENDBRANCH   2   4
TORSDOF 6
ENDMDL
MODEL      144
REMARK 921   NORMALIZED FREE ENERGY PREDICTED BY IDOCK:   -4.84 KCAL/MOL
REMARK 922        TOTAL FREE ENERGY PREDICTED BY IDOCK:   -6.77 KCAL/MOL
REMARK 923 INTER-LIGAND FREE ENERGY PREDICTED BY IDOCK:   -6.06 KCAL/MOL
REMARK 924 INTRA-LIGAND FREE ENERGY PREDICTED BY IDOCK:   -0.71 KCAL/MOL
REMARK 927      BINDING AFFINITY PREDICTED BY RF-SCORE:    0.00 PKD
ROOT
HETATM    1  O   UNL     1      -6.175  12.265  66.433  1.00  0.00    -0.417 OA 
HETATM    2  C   UNL     1      -5.233  11.217  66.660  1.00  0.00    -0.114 C  
HETATM    3  H   UNL     1      -5.780  13.102  66.647  1.00  0.00     0.000 HD 
ENDROOT
BRANCH   2   4
HETATM    4  C   UNL     1      -5.873   9.863  66.313  1.00  0.00    -0.059 C  
BRANCH   4   5
HETATM    5  N   UNL     1      -7.071   9.539  67.115  1.00  0.00    -0.085 NA 
HETATM    6  C   UNL     1      -7.575   8.176  66.860  1.00  0.00    -0.095 C  
HETATM    7  C   UNL     1      -6.667   7.061  67.410  1.00  0.00    -0.067 C  
HETATM    8  N   UNL     1      -6.380   7.149  68.857  1.00  0.00    -0.031 NA 
HETATM    9  C   UNL     1      -6.784   9.662  68.563  1.00  0.00    -0.052 C  
HETATM   10  C   UNL     1      -5.924   8.523  69.170  1.00  0.00    -0.042 C  
BRANCH   8  11
HETATM   11  C   UNL     1      -7.515   6.749  69.701  1.00  0.00    -0.096 C  
BRANCH  11  12
HETATM   12  C   UNL     1      -8.229   5.487  69.198  1.00  0.00    -0.095 C  
BRANCH  12  13
HETATM   13  C   UNL     1      -9.712   5.744  68.884  1.00  0.00    -0.136 C  
BRANCH  13  14
HETATM   14  N   UNL     1     -10.409   6.318  70.064  1.00  0.00    -0.187 NA 
HETATM   15  C   UNL     1     -10.455   5.515  71.245  1.00  0.00    -0.239 A  
HETATM   16  C   UNL     1     -10.086   4.148  71.256  1.00  0.00    -0.155 A  
HETATM   17  C   UNL     1     -10.148   3.350  72.406  1.00  0.00    -0.229 A  
HETATM   18  C   UNL     1     -10.582   3.891  73.600  1.00  0.00    -0.289 A  
HETATM   19  C   UNL     1     -10.952   5.230  73.636  1.00  0.00    -0.314 A  
HETATM   20  C   UNL     1     -10.893   6.038  72.480  1.00  0.00    -0.247 A  
HETATM   21  S   UNL     1     -11.391   7.723  72.726  1.00  0.00    -0.341 SA 
HETATM   22  C   UNL     1     -11.143   8.440  71.124  1.00  0.00    -0.256 A  
HETATM   23  C   UNL     1     -10.731   7.713  69.994  1.00  0.00    -0.241 A  
HETATM   24  C   UNL     1     -10.640   8.454  68.789  1.00  0.00    -0.154 A  
HETATM   25  C   UNL     1     -10.843   9.846  68.707  1.00  0.00    -0.240 A  
HETATM   26  C   UNL     1     -11.222  10.529  69.857  1.00  0.00    -0.374 A  
HETATM   27  C   UNL     1     -10.623  10.590  67.413  1.00  0.00    -0.263 C  
HETATM   28  F   UNL     1     -10.213   9.795  66.385  1.00  0.00    -0.279 F  
HETATM   29  F   UNL     1      -9.664  11.553  67.530  1.00  0.00    -0.173 F  
HETATM   30  F   UNL     1     -11.740  11.228  66.972  1.00  0.00    -0.334 F  
HETATM   31  C   UNL     1     -11.386   9.829  71.047  1.00  0.00    -0.460 A  
ENDBRANCH  13  14
ENDBRANCH  12  13
ENDBRANCH  11  12
ENDBRANCH   8  11
ENDBRANCH   4   5
ENDBRANCH   2   4
TORSDOF 6
ENDMDL
MODEL      145
REMARK 921   NORMALIZED FREE ENERGY PREDICTED BY IDOCK:   -4.83 KCAL/MOL
REMARK 922        TOTAL FREE ENERGY PREDICTED BY IDOCK:   -6.76 KCAL/MOL
REMARK 923 INTER-LIGAND FREE ENERGY PREDICTED BY IDOCK:   -6.82 KCAL/MOL
REMARK 924 INTRA-LIGAND FREE ENERGY PREDICTED BY IDOCK:    0.06 KCAL/MOL
REMARK 927      BINDING AFFINITY PREDICTED BY RF-SCORE:    0.00 PKD
ROOT
HETATM    1  O   UNL     1      -8.453   5.895  73.597  1.00  0.00    -0.119 OA 
HETATM    2  C   UNL     1      -9.343   5.287  72.664  1.00  0.00    -0.137 C  
HETATM    3  H   UNL     1      -7.613   5.452  73.574  1.00  0.00     0.000 HD 
ENDROOT
BRANCH   2   4
HETATM    4  C   UNL     1     -10.702   6.004  72.702  1.00  0.00    -0.232 C  
BRANCH   4   5
HETATM    5  N   UNL     1     -11.175   6.472  71.382  1.00  0.00    -0.270 NA 
HETATM    6  C   UNL     1     -12.438   7.228  71.465  1.00  0.00    -0.373 C  
HETATM    7  C   UNL     1     -12.295   8.614  72.122  1.00  0.00    -0.386 C  
HETATM    8  N   UNL     1     -11.302   9.504  71.485  1.00  0.00    -0.390 NA 
HETATM    9  C   UNL     1     -10.159   7.336  70.736  1.00  0.00    -0.190 C  
HETATM   10  C   UNL     1     -10.030   8.765  71.328  1.00  0.00    -0.263 C  
BRANCH   8  11
HETATM   11  C   UNL     1     -11.762  10.070  70.208  1.00  0.00    -0.251 C  
BRANCH  11  12
HETATM   12  C   UNL     1     -10.838   9.735  69.029  1.00  0.00    -0.223 C  
BRANCH  12  13
HETATM   13  C   UNL     1     -10.442  10.984  68.226  1.00  0.00    -0.186 C  
BRANCH  13  14
HETATM   14  N   UNL     1     -10.200  10.640  66.801  1.00  0.00    -0.224 NA 
HETATM   15  C   UNL     1     -10.899  11.409  65.820  1.00  0.00    -0.230 A  
HETATM   16  C   UNL     1     -11.956  12.291  66.151  1.00  0.00    -0.323 A  
HETATM   17  C   UNL     1     -12.660  13.033  65.192  1.00  0.00    -0.530 A  
HETATM   18  C   UNL     1     -12.330  12.923  63.855  1.00  0.00    -0.476 A  
HETATM   19  C   UNL     1     -11.297  12.070  63.486  1.00  0.00    -0.528 A  
HETATM   20  C   UNL     1     -10.587  11.320  64.447  1.00  0.00    -0.345 A  
HETATM   21  S   UNL     1      -9.294  10.300  63.786  1.00  0.00    -0.305 SA 
HETATM   22  C   UNL     1      -8.595   9.565  65.240  1.00  0.00    -0.157 A  
HETATM   23  C   UNL     1      -9.099   9.762  66.538  1.00  0.00    -0.153 A  
HETATM   24  C   UNL     1      -8.436   9.046  67.566  1.00  0.00    -0.116 A  
HETATM   25  C   UNL     1      -7.284   8.261  67.358  1.00  0.00    -0.084 A  
HETATM   26  C   UNL     1      -6.805   8.118  66.061  1.00  0.00    -0.057 A  
HETATM   27  C   UNL     1      -6.563   7.613  68.515  1.00  0.00    -0.053 C  
HETATM   28  F   UNL     1      -7.125   7.876  69.729  1.00  0.00    -0.055 F  
HETATM   29  F   UNL     1      -5.271   8.036  68.617  1.00  0.00    -0.024 F  
HETATM   30  F   UNL     1      -6.507   6.259  68.414  1.00  0.00    -0.040 F  
HETATM   31  C   UNL     1      -7.464   8.751  65.014  1.00  0.00    -0.097 A  
ENDBRANCH  13  14
ENDBRANCH  12  13
ENDBRANCH  11  12
ENDBRANCH   8  11
ENDBRANCH   4   5
ENDBRANCH   2   4
TORSDOF 6
ENDMDL
MODEL      146
REMARK 921   NORMALIZED FREE ENERGY PREDICTED BY IDOCK:   -4.79 KCAL/MOL
REMARK 922        TOTAL FREE ENERGY PREDICTED BY IDOCK:   -6.71 KCAL/MOL
REMARK 923 INTER-LIGAND FREE ENERGY PREDICTED BY IDOCK:   -6.54 KCAL/MOL
REMARK 924 INTRA-LIGAND FREE ENERGY PREDICTED BY IDOCK:   -0.17 KCAL/MOL
REMARK 927      BINDING AFFINITY PREDICTED BY RF-SCORE:    0.00 PKD
ROOT
HETATM    1  O   UNL     1     -10.442  18.523  65.400  1.00  0.00    -0.538 OA 
HETATM    2  C   UNL     1      -9.884  17.714  66.433  1.00  0.00    -0.309 C  
HETATM    3  H   UNL     1     -10.493  19.425  65.693  1.00  0.00     0.000 HD 
ENDROOT
BRANCH   2   4
HETATM    4  C   UNL     1      -9.803  16.253  65.959  1.00  0.00    -0.343 C  
BRANCH   4   5
HETATM    5  N   UNL     1      -9.615  15.275  67.050  1.00  0.00    -0.219 NA 
HETATM    6  C   UNL     1     -10.749  15.247  67.992  1.00  0.00    -0.268 C  
HETATM    7  C   UNL     1     -12.035  14.636  67.405  1.00  0.00    -0.279 C  
HETATM    8  N   UNL     1     -11.885  13.266  66.872  1.00  0.00    -0.385 NA 
HETATM    9  C   UNL     1      -9.432  13.909  66.505  1.00  0.00    -0.274 C  
HETATM   10  C   UNL     1     -10.717  13.233  65.962  1.00  0.00    -0.277 C  
BRANCH   8  11
HETATM   11  C   UNL     1     -11.784  12.241  67.921  1.00  0.00    -0.347 C  
BRANCH  11  12
HETATM   12  C   UNL     1     -10.546  11.346  67.777  1.00  0.00    -0.231 C  
BRANCH  12  13
HETATM   13  C   UNL     1     -10.901   9.851  67.800  1.00  0.00    -0.264 C  
BRANCH  13  14
HETATM   14  N   UNL     1      -9.789   9.054  68.380  1.00  0.00    -0.161 NA 
HETATM   15  C   UNL     1      -9.988   8.518  69.690  1.00  0.00    -0.192 A  
HETATM   16  C   UNL     1     -11.067   8.908  70.519  1.00  0.00    -0.288 A  
HETATM   17  C   UNL     1     -11.258   8.403  71.813  1.00  0.00    -0.360 A  
HETATM   18  C   UNL     1     -10.370   7.479  72.330  1.00  0.00    -0.277 A  
HETATM   19  C   UNL     1      -9.298   7.066  71.550  1.00  0.00    -0.154 A  
HETATM   20  C   UNL     1      -9.101   7.574  70.247  1.00  0.00    -0.154 A  
HETATM   21  S   UNL     1      -7.686   6.917  69.401  1.00  0.00    -0.106 SA 
HETATM   22  C   UNL     1      -7.778   7.709  67.818  1.00  0.00    -0.122 A  
HETATM   23  C   UNL     1      -8.743   8.674  67.477  1.00  0.00    -0.135 A  
HETATM   24  C   UNL     1      -8.619   9.232  66.180  1.00  0.00    -0.146 A  
HETATM   25  C   UNL     1      -7.671   8.803  65.229  1.00  0.00    -0.098 A  
HETATM   26  C   UNL     1      -6.755   7.827  65.601  1.00  0.00    -0.045 A  
HETATM   27  C   UNL     1      -7.666   9.363  63.828  1.00  0.00    -0.120 C  
HETATM   28  F   UNL     1      -8.648  10.280  63.599  1.00  0.00    -0.156 F  
HETATM   29  F   UNL     1      -7.850   8.394  62.886  1.00  0.00    -0.118 F  
HETATM   30  F   UNL     1      -6.496   9.979  63.507  1.00  0.00    -0.107 F  
HETATM   31  C   UNL     1      -6.799   7.299  66.886  1.00  0.00    -0.069 A  
ENDBRANCH  13  14
ENDBRANCH  12  13
ENDBRANCH  11  12
ENDBRANCH   8  11
ENDBRANCH   4   5
ENDBRANCH   2   4
TORSDOF 6
ENDMDL
MODEL      147
REMARK 921   NORMALIZED FREE ENERGY PREDICTED BY IDOCK:   -4.76 KCAL/MOL
REMARK 922        TOTAL FREE ENERGY PREDICTED BY IDOCK:   -6.67 KCAL/MOL
REMARK 923 INTER-LIGAND FREE ENERGY PREDICTED BY IDOCK:   -5.96 KCAL/MOL
REMARK 924 INTRA-LIGAND FREE ENERGY PREDICTED BY IDOCK:   -0.71 KCAL/MOL
REMARK 927      BINDING AFFINITY PREDICTED BY RF-SCORE:    0.00 PKD
ROOT
HETATM    1  O   UNL     1     -12.993  13.539  64.474  1.00  0.00    -0.643 OA 
HETATM    2  C   UNL     1     -11.954  13.060  63.622  1.00  0.00    -0.539 C  
HETATM    3  H   UNL     1     -13.347  14.347  64.124  1.00  0.00     0.000 HD 
ENDROOT
BRANCH   2   4
HETATM    4  C   UNL     1     -11.381  11.751  64.189  1.00  0.00    -0.352 C  
BRANCH   4   5
HETATM    5  N   UNL     1     -10.008  11.873  64.719  1.00  0.00    -0.252 NA 
HETATM    6  C   UNL     1      -9.882  11.362  66.097  1.00  0.00    -0.222 C  
HETATM    7  C   UNL     1      -9.995   9.830  66.207  1.00  0.00    -0.262 C  
HETATM    8  N   UNL     1      -9.034   9.073  65.377  1.00  0.00    -0.204 NA 
HETATM    9  C   UNL     1      -9.046  11.140  63.863  1.00  0.00    -0.059 C  
HETATM   10  C   UNL     1      -9.085   9.595  63.993  1.00  0.00    -0.200 C  
BRANCH   8  11
HETATM   11  C   UNL     1      -7.665   9.089  65.912  1.00  0.00    -0.094 C  
BRANCH  11  12
HETATM   12  C   UNL     1      -7.081   7.685  66.124  1.00  0.00    -0.070 C  
BRANCH  12  13
HETATM   13  C   UNL     1      -6.983   7.313  67.612  1.00  0.00    -0.076 C  
BRANCH  13  14
HETATM   14  N   UNL     1      -7.878   6.171  67.930  1.00  0.00    -0.105 NA 
HETATM   15  C   UNL     1      -7.395   4.862  67.618  1.00  0.00    -0.078 A  
HETATM   16  C   UNL     1      -6.243   4.640  66.826  1.00  0.00    -0.032 A  
HETATM   17  C   UNL     1      -5.776   3.360  66.499  1.00  0.00    -0.022 A  
HETATM   18  C   UNL     1      -6.447   2.243  66.956  1.00  0.00    -0.031 A  
HETATM   19  C   UNL     1      -7.582   2.414  67.739  1.00  0.00    -0.056 A  
HETATM   20  C   UNL     1      -8.057   3.701  68.069  1.00  0.00    -0.083 A  
HETATM   21  S   UNL     1      -9.510   3.717  69.089  1.00  0.00    -0.117 SA 
HETATM   22  C   UNL     1      -9.784   5.448  69.348  1.00  0.00    -0.165 A  
HETATM   23  C   UNL     1      -9.012   6.463  68.756  1.00  0.00    -0.126 A  
HETATM   24  C   UNL     1      -9.420   7.790  69.042  1.00  0.00    -0.150 A  
HETATM   25  C   UNL     1     -10.461   8.114  69.936  1.00  0.00    -0.226 A  
HETATM   26  C   UNL     1     -11.180   7.078  70.520  1.00  0.00    -0.335 A  
HETATM   27  C   UNL     1     -10.773   9.550  70.280  1.00  0.00    -0.265 C  
HETATM   28  F   UNL     1      -9.958  10.452  69.663  1.00  0.00    -0.232 F  
HETATM   29  F   UNL     1     -10.641   9.799  71.614  1.00  0.00    -0.354 F  
HETATM   30  F   UNL     1     -12.044   9.909  69.956  1.00  0.00    -0.238 F  
HETATM   31  C   UNL     1     -10.854   5.761  70.215  1.00  0.00    -0.373 A  
ENDBRANCH  13  14
ENDBRANCH  12  13
ENDBRANCH  11  12
ENDBRANCH   8  11
ENDBRANCH   4   5
ENDBRANCH   2   4
TORSDOF 6
ENDMDL
MODEL      148
REMARK 921   NORMALIZED FREE ENERGY PREDICTED BY IDOCK:   -4.76 KCAL/MOL
REMARK 922        TOTAL FREE ENERGY PREDICTED BY IDOCK:   -6.67 KCAL/MOL
REMARK 923 INTER-LIGAND FREE ENERGY PREDICTED BY IDOCK:   -6.26 KCAL/MOL
REMARK 924 INTRA-LIGAND FREE ENERGY PREDICTED BY IDOCK:   -0.41 KCAL/MOL
REMARK 927      BINDING AFFINITY PREDICTED BY RF-SCORE:    0.00 PKD
ROOT
HETATM    1  O   UNL     1      -7.758   8.759  74.554  1.00  0.00    -0.401 OA 
HETATM    2  C   UNL     1      -6.457   8.399  74.092  1.00  0.00    -0.132 C  
HETATM    3  H   UNL     1      -7.698   9.526  75.111  1.00  0.00     0.000 HD 
ENDROOT
BRANCH   2   4
HETATM    4  C   UNL     1      -6.554   7.157  73.190  1.00  0.00    -0.065 C  
BRANCH   4   5
HETATM    5  N   UNL     1      -6.105   7.384  71.801  1.00  0.00    -0.036 NA 
HETATM    6  C   UNL     1      -6.580   6.342  70.872  1.00  0.00    -0.053 C  
HETATM    7  C   UNL     1      -8.095   6.393  70.597  1.00  0.00    -0.113 C  
HETATM    8  N   UNL     1      -8.590   7.687  70.082  1.00  0.00    -0.139 NA 
HETATM    9  C   UNL     1      -6.578   8.698  71.304  1.00  0.00    -0.069 C  
HETATM   10  C   UNL     1      -8.087   8.772  70.954  1.00  0.00    -0.150 C  
BRANCH   8  11
HETATM   11  C   UNL     1      -8.247   7.922  68.671  1.00  0.00    -0.127 C  
BRANCH  11  12
HETATM   12  C   UNL     1      -9.172   8.934  67.983  1.00  0.00    -0.147 C  
BRANCH  12  13
HETATM   13  C   UNL     1      -9.852   8.347  66.736  1.00  0.00    -0.259 C  
BRANCH  13  14
HETATM   14  N   UNL     1      -9.140   8.767  65.500  1.00  0.00    -0.192 NA 
HETATM   15  C   UNL     1      -8.298   7.795  64.875  1.00  0.00    -0.063 A  
HETATM   16  C   UNL     1      -7.943   6.576  65.500  1.00  0.00    -0.117 A  
HETATM   17  C   UNL     1      -7.101   5.628  64.902  1.00  0.00    -0.060 A  
HETATM   18  C   UNL     1      -6.580   5.864  63.644  1.00  0.00    -0.036 A  
HETATM   19  C   UNL     1      -6.905   7.047  62.993  1.00  0.00    -0.056 A  
HETATM   20  C   UNL     1      -7.751   8.005  63.592  1.00  0.00    -0.136 A  
HETATM   21  S   UNL     1      -8.061   9.445  62.601  1.00  0.00    -0.150 SA 
HETATM   22  C   UNL     1      -9.176  10.380  63.613  1.00  0.00    -0.279 A  
HETATM   23  C   UNL     1      -9.569   9.999  64.908  1.00  0.00    -0.310 A  
HETATM   24  C   UNL     1     -10.426  10.907  65.580  1.00  0.00    -0.286 A  
HETATM   25  C   UNL     1     -10.953  12.072  64.988  1.00  0.00    -0.355 A  
HETATM   26  C   UNL     1     -10.559  12.395  63.695  1.00  0.00    -0.481 A  
HETATM   27  C   UNL     1     -11.947  12.937  65.722  1.00  0.00    -0.443 C  
HETATM   28  F   UNL     1     -12.269  12.473  66.963  1.00  0.00    -0.409 F  
HETATM   29  F   UNL     1     -13.133  13.037  65.056  1.00  0.00    -0.499 F  
HETATM   30  F   UNL     1     -11.511  14.212  65.901  1.00  0.00    -0.315 F  
HETATM   31  C   UNL     1      -9.668  11.565  63.023  1.00  0.00    -0.382 A  
ENDBRANCH  13  14
ENDBRANCH  12  13
ENDBRANCH  11  12
ENDBRANCH   8  11
ENDBRANCH   4   5
ENDBRANCH   2   4
TORSDOF 6
ENDMDL
MODEL      149
REMARK 921   NORMALIZED FREE ENERGY PREDICTED BY IDOCK:   -4.76 KCAL/MOL
REMARK 922        TOTAL FREE ENERGY PREDICTED BY IDOCK:   -6.66 KCAL/MOL
REMARK 923 INTER-LIGAND FREE ENERGY PREDICTED BY IDOCK:   -6.03 KCAL/MOL
REMARK 924 INTRA-LIGAND FREE ENERGY PREDICTED BY IDOCK:   -0.63 KCAL/MOL
REMARK 927      BINDING AFFINITY PREDICTED BY RF-SCORE:    0.00 PKD
ROOT
HETATM    1  O   UNL     1      -8.640  15.753  66.403  1.00  0.00    -0.284 OA 
HETATM    2  C   UNL     1      -9.924  15.588  65.804  1.00  0.00    -0.359 C  
HETATM    3  H   UNL     1      -8.332  16.640  66.259  1.00  0.00     0.000 HD 
ENDROOT
BRANCH   2   4
HETATM    4  C   UNL     1     -10.422  14.152  66.036  1.00  0.00    -0.304 C  
BRANCH   4   5
HETATM    5  N   UNL     1      -9.771  13.463  67.169  1.00  0.00    -0.231 NA 
HETATM    6  C   UNL     1     -10.700  13.194  68.282  1.00  0.00    -0.245 C  
HETATM    7  C   UNL     1     -11.747  12.108  67.973  1.00  0.00    -0.344 C  
HETATM    8  N   UNL     1     -11.188  10.806  67.554  1.00  0.00    -0.384 NA 
HETATM    9  C   UNL     1      -9.183  12.175  66.733  1.00  0.00    -0.207 C  
HETATM   10  C   UNL     1     -10.203  11.034  66.473  1.00  0.00    -0.234 C  
BRANCH   8  11
HETATM   11  C   UNL     1     -10.606  10.038  68.665  1.00  0.00    -0.212 C  
BRANCH  11  12
HETATM   12  C   UNL     1      -9.709   8.883  68.199  1.00  0.00    -0.180 C  
BRANCH  12  13
HETATM   13  C   UNL     1     -10.425   7.525  68.266  1.00  0.00    -0.180 C  
BRANCH  13  14
HETATM   14  N   UNL     1      -9.450   6.425  68.485  1.00  0.00    -0.121 NA 
HETATM   15  C   UNL     1      -8.762   5.929  67.335  1.00  0.00    -0.108 A  
HETATM   16  C   UNL     1      -9.137   6.269  66.013  1.00  0.00    -0.126 A  
HETATM   17  C   UNL     1      -8.480   5.771  64.880  1.00  0.00    -0.103 A  
HETATM   18  C   UNL     1      -7.411   4.908  65.026  1.00  0.00    -0.076 A  
HETATM   19  C   UNL     1      -7.007   4.549  66.306  1.00  0.00    -0.063 A  
HETATM   20  C   UNL     1      -7.667   5.047  67.450  1.00  0.00    -0.092 A  
HETATM   21  S   UNL     1      -6.997   4.488  68.995  1.00  0.00    -0.052 SA 
HETATM   22  C   UNL     1      -8.005   5.333  70.184  1.00  0.00    -0.080 A  
HETATM   23  C   UNL     1      -9.097   6.152  69.846  1.00  0.00    -0.143 A  
HETATM   24  C   UNL     1      -9.813   6.698  70.941  1.00  0.00    -0.197 A  
HETATM   25  C   UNL     1      -9.429   6.539  72.287  1.00  0.00    -0.144 A  
HETATM   26  C   UNL     1      -8.326   5.744  72.573  1.00  0.00    -0.117 A  
HETATM   27  C   UNL     1     -10.174   7.240  73.398  1.00  0.00    -0.347 C  
HETATM   28  F   UNL     1     -11.205   8.017  72.963  1.00  0.00    -0.431 F  
HETATM   29  F   UNL     1      -9.366   8.077  74.110  1.00  0.00    -0.281 F  
HETATM   30  F   UNL     1     -10.709   6.378  74.303  1.00  0.00    -0.288 F  
HETATM   31  C   UNL     1      -7.633   5.136  71.532  1.00  0.00    -0.101 A  
ENDBRANCH  13  14
ENDBRANCH  12  13
ENDBRANCH  11  12
ENDBRANCH   8  11
ENDBRANCH   4   5
ENDBRANCH   2   4
TORSDOF 6
ENDMDL
MODEL      150
REMARK 921   NORMALIZED FREE ENERGY PREDICTED BY IDOCK:   -4.74 KCAL/MOL
REMARK 922        TOTAL FREE ENERGY PREDICTED BY IDOCK:   -6.64 KCAL/MOL
REMARK 923 INTER-LIGAND FREE ENERGY PREDICTED BY IDOCK:   -5.91 KCAL/MOL
REMARK 924 INTRA-LIGAND FREE ENERGY PREDICTED BY IDOCK:   -0.74 KCAL/MOL
REMARK 927      BINDING AFFINITY PREDICTED BY RF-SCORE:    0.00 PKD
ROOT
HETATM    1  O   UNL     1      -7.599   6.043  74.460  1.00  0.00    -0.094 OA 
HETATM    2  C   UNL     1      -6.750   5.113  73.791  1.00  0.00    -0.074 C  
HETATM    3  H   UNL     1      -7.078   6.754  74.815  1.00  0.00     0.000 HD 
ENDROOT
BRANCH   2   4
HETATM    4  C   UNL     1      -7.593   3.963  73.217  1.00  0.00    -0.074 C  
BRANCH   4   5
HETATM    5  N   UNL     1      -7.422   3.756  71.764  1.00  0.00    -0.054 NA 
HETATM    6  C   UNL     1      -8.584   3.095  71.143  1.00  0.00    -0.068 C  
HETATM    7  C   UNL     1      -9.841   3.982  71.065  1.00  0.00    -0.160 C  
HETATM    8  N   UNL     1      -9.652   5.269  70.363  1.00  0.00    -0.168 NA 
HETATM    9  C   UNL     1      -7.199   5.048  71.072  1.00  0.00    -0.060 C  
HETATM   10  C   UNL     1      -8.456   5.944  70.917  1.00  0.00    -0.127 C  
BRANCH   8  11
HETATM   11  C   UNL     1      -9.566   5.128  68.902  1.00  0.00    -0.144 C  
BRANCH  11  12
HETATM   12  C   UNL     1      -9.085   6.402  68.196  1.00  0.00    -0.113 C  
BRANCH  12  13
HETATM   13  C   UNL     1     -10.214   7.103  67.424  1.00  0.00    -0.226 C  
BRANCH  13  14
HETATM   14  N   UNL     1     -10.124   8.578  67.583  1.00  0.00    -0.198 NA 
HETATM   15  C   UNL     1      -9.695   9.328  66.444  1.00  0.00    -0.258 A  
HETATM   16  C   UNL     1      -9.142   8.720  65.292  1.00  0.00    -0.156 A  
HETATM   17  C   UNL     1      -8.700   9.450  64.180  1.00  0.00    -0.224 A  
HETATM   18  C   UNL     1      -8.797  10.828  64.176  1.00  0.00    -0.120 A  
HETATM   19  C   UNL     1      -9.336  11.467  65.286  1.00  0.00    -0.192 A  
HETATM   20  C   UNL     1      -9.781  10.736  66.409  1.00  0.00    -0.199 A  
HETATM   21  S   UNL     1     -10.452  11.725  67.721  1.00  0.00    -0.201 SA 
HETATM   22  C   UNL     1     -10.950  10.508  68.909  1.00  0.00    -0.246 A  
HETATM   23  C   UNL     1     -10.727   9.128  68.761  1.00  0.00    -0.131 A  
HETATM   24  C   UNL     1     -11.150   8.319  69.845  1.00  0.00    -0.100 A  
HETATM   25  C   UNL     1     -11.843   8.813  70.968  1.00  0.00    -0.315 A  
HETATM   26  C   UNL     1     -12.067  10.182  71.060  1.00  0.00    -0.476 A  
HETATM   27  C   UNL     1     -12.363   7.881  72.035  1.00  0.00    -0.308 C  
HETATM   28  F   UNL     1     -12.105   6.566  71.789  1.00  0.00    -0.343 F  
HETATM   29  F   UNL     1     -13.717   7.963  72.175  1.00  0.00    -0.321 F  
HETATM   30  F   UNL     1     -11.844   8.141  73.265  1.00  0.00    -0.328 F  
HETATM   31  C   UNL     1     -11.610  11.020  70.048  1.00  0.00    -0.427 A  
ENDBRANCH  13  14
ENDBRANCH  12  13
ENDBRANCH  11  12
ENDBRANCH   8  11
ENDBRANCH   4   5
ENDBRANCH   2   4
TORSDOF 6
ENDMDL
MODEL      151
REMARK 921   NORMALIZED FREE ENERGY PREDICTED BY IDOCK:   -4.74 KCAL/MOL
REMARK 922        TOTAL FREE ENERGY PREDICTED BY IDOCK:   -6.64 KCAL/MOL
REMARK 923 INTER-LIGAND FREE ENERGY PREDICTED BY IDOCK:   -5.85 KCAL/MOL
REMARK 924 INTRA-LIGAND FREE ENERGY PREDICTED BY IDOCK:   -0.79 KCAL/MOL
REMARK 927      BINDING AFFINITY PREDICTED BY RF-SCORE:    0.00 PKD
ROOT
HETATM    1  O   UNL     1      -9.539   4.288  72.455  1.00  0.00    -0.129 OA 
HETATM    2  C   UNL     1     -10.880   4.499  72.016  1.00  0.00     0.145 C  
HETATM    3  H   UNL     1      -9.237   3.436  72.161  1.00  0.00     0.000 HD 
ENDROOT
BRANCH   2   4
HETATM    4  C   UNL     1     -11.369   5.877  72.492  1.00  0.00    -0.304 C  
BRANCH   4   5
HETATM    5  N   UNL     1     -11.952   6.712  71.422  1.00  0.00    -0.342 NA 
HETATM    6  C   UNL     1     -12.208   8.098  71.858  1.00  0.00    -0.331 C  
HETATM    7  C   UNL     1     -10.930   8.930  72.077  1.00  0.00    -0.342 C  
HETATM    8  N   UNL     1     -10.028   9.005  70.909  1.00  0.00    -0.236 NA 
HETATM    9  C   UNL     1     -11.057   6.755  70.242  1.00  0.00    -0.310 C  
HETATM   10  C   UNL     1      -9.790   7.635  70.401  1.00  0.00    -0.183 C  
BRANCH   8  11
HETATM   11  C   UNL     1     -10.521   9.898  69.850  1.00  0.00    -0.269 C  
BRANCH  11  12
HETATM   12  C   UNL     1      -9.785   9.720  68.515  1.00  0.00    -0.164 C  
BRANCH  12  13
HETATM   13  C   UNL     1     -10.700   9.158  67.416  1.00  0.00    -0.177 C  
BRANCH  13  14
HETATM   14  N   UNL     1      -9.996   9.130  66.107  1.00  0.00    -0.294 NA 
HETATM   15  C   UNL     1     -10.153  10.271  65.261  1.00  0.00    -0.289 A  
HETATM   16  C   UNL     1     -11.113  11.282  65.511  1.00  0.00    -0.138 A  
HETATM   17  C   UNL     1     -11.287  12.393  64.675  1.00  0.00    -0.364 A  
HETATM   18  C   UNL     1     -10.500  12.540  63.549  1.00  0.00    -0.360 A  
HETATM   19  C   UNL     1      -9.544  11.573  63.267  1.00  0.00    -0.366 A  
HETATM   20  C   UNL     1      -9.366  10.451  64.105  1.00  0.00    -0.277 A  
HETATM   21  S   UNL     1      -8.087   9.334  63.589  1.00  0.00    -0.166 SA 
HETATM   22  C   UNL     1      -8.103   8.107  64.868  1.00  0.00    -0.153 A  
HETATM   23  C   UNL     1      -9.021   8.095  65.933  1.00  0.00    -0.151 A  
HETATM   24  C   UNL     1      -8.906   7.001  66.827  1.00  0.00    -0.130 A  
HETATM   25  C   UNL     1      -7.892   6.026  66.748  1.00  0.00    -0.101 A  
HETATM   26  C   UNL     1      -6.988   6.094  65.694  1.00  0.00    -0.057 A  
HETATM   27  C   UNL     1      -7.762   4.949  67.797  1.00  0.00    -0.083 C  
HETATM   28  F   UNL     1      -8.692   5.035  68.790  1.00  0.00    -0.092 F  
HETATM   29  F   UNL     1      -6.555   4.990  68.429  1.00  0.00    -0.039 F  
HETATM   30  F   UNL     1      -7.874   3.694  67.286  1.00  0.00    -0.077 F  
HETATM   31  C   UNL     1      -7.104   7.115  64.757  1.00  0.00    -0.068 A  
ENDBRANCH  13  14
ENDBRANCH  12  13
ENDBRANCH  11  12
ENDBRANCH   8  11
ENDBRANCH   4   5
ENDBRANCH   2   4
TORSDOF 6
ENDMDL
MODEL      152
REMARK 921   NORMALIZED FREE ENERGY PREDICTED BY IDOCK:   -4.71 KCAL/MOL
REMARK 922        TOTAL FREE ENERGY PREDICTED BY IDOCK:   -6.59 KCAL/MOL
REMARK 923 INTER-LIGAND FREE ENERGY PREDICTED BY IDOCK:   -6.20 KCAL/MOL
REMARK 924 INTRA-LIGAND FREE ENERGY PREDICTED BY IDOCK:   -0.40 KCAL/MOL
REMARK 927      BINDING AFFINITY PREDICTED BY RF-SCORE:    0.00 PKD
ROOT
HETATM    1  O   UNL     1     -11.244   4.754  73.228  1.00  0.00    -0.302 OA 
HETATM    2  C   UNL     1     -10.646   5.915  73.801  1.00  0.00    -0.254 C  
HETATM    3  H   UNL     1     -11.910   4.415  73.814  1.00  0.00     0.000 HD 
ENDROOT
BRANCH   2   4
HETATM    4  C   UNL     1      -9.567   6.464  72.853  1.00  0.00    -0.153 C  
BRANCH   4   5
HETATM    5  N   UNL     1      -9.951   6.445  71.427  1.00  0.00    -0.184 NA 
HETATM    6  C   UNL     1     -10.468   7.744  70.959  1.00  0.00    -0.203 C  
HETATM    7  C   UNL     1      -9.394   8.843  70.855  1.00  0.00    -0.238 C  
HETATM    8  N   UNL     1      -8.240   8.505  69.996  1.00  0.00    -0.117 NA 
HETATM    9  C   UNL     1      -8.797   6.072  70.576  1.00  0.00    -0.145 C  
HETATM   10  C   UNL     1      -7.723   7.176  70.393  1.00  0.00    -0.095 C  
BRANCH   8  11
HETATM   11  C   UNL     1      -8.547   8.560  68.559  1.00  0.00    -0.138 C  
BRANCH  11  12
HETATM   12  C   UNL     1      -8.955   9.960  68.079  1.00  0.00    -0.121 C  
BRANCH  12  13
HETATM   13  C   UNL     1      -7.858  10.629  67.236  1.00  0.00    -0.112 C  
BRANCH  13  14
HETATM   14  N   UNL     1      -8.093  10.398  65.787  1.00  0.00    -0.150 NA 
HETATM   15  C   UNL     1      -7.500   9.232  65.211  1.00  0.00    -0.098 A  
HETATM   16  C   UNL     1      -6.535   8.450  65.891  1.00  0.00    -0.053 A  
HETATM   17  C   UNL     1      -5.934   7.318  65.325  1.00  0.00    -0.037 A  
HETATM   18  C   UNL     1      -6.279   6.918  64.048  1.00  0.00    -0.036 A  
HETATM   19  C   UNL     1      -7.224   7.655  63.346  1.00  0.00    -0.083 A  
HETATM   20  C   UNL     1      -7.831   8.798  63.911  1.00  0.00    -0.141 A  
HETATM   21  S   UNL     1      -9.023   9.598  62.868  1.00  0.00    -0.208 SA 
HETATM   22  C   UNL     1      -9.609  10.921  63.891  1.00  0.00    -0.284 A  
HETATM   23  C   UNL     1      -9.101  11.208  65.170  1.00  0.00    -0.144 A  
HETATM   24  C   UNL     1      -9.662  12.341  65.811  1.00  0.00    -0.228 A  
HETATM   25  C   UNL     1     -10.729  13.094  65.281  1.00  0.00    -0.318 A  
HETATM   26  C   UNL     1     -11.219  12.756  64.025  1.00  0.00    -0.463 A  
HETATM   27  C   UNL     1     -11.353  14.221  66.067  1.00  0.00    -0.335 C  
HETATM   28  F   UNL     1     -10.796  14.408  67.297  1.00  0.00    -0.274 F  
HETATM   29  F   UNL     1     -12.681  14.013  66.300  1.00  0.00    -0.479 F  
HETATM   30  F   UNL     1     -11.269  15.421  65.431  1.00  0.00    -0.331 F  
HETATM   31  C   UNL     1     -10.653  11.692  63.333  1.00  0.00    -0.472 A  
ENDBRANCH  13  14
ENDBRANCH  12  13
ENDBRANCH  11  12
ENDBRANCH   8  11
ENDBRANCH   4   5
ENDBRANCH   2   4
TORSDOF 6
ENDMDL
MODEL      153
REMARK 921   NORMALIZED FREE ENERGY PREDICTED BY IDOCK:   -4.70 KCAL/MOL
REMARK 922        TOTAL FREE ENERGY PREDICTED BY IDOCK:   -6.59 KCAL/MOL
REMARK 923 INTER-LIGAND FREE ENERGY PREDICTED BY IDOCK:   -6.20 KCAL/MOL
REMARK 924 INTRA-LIGAND FREE ENERGY PREDICTED BY IDOCK:   -0.38 KCAL/MOL
REMARK 927      BINDING AFFINITY PREDICTED BY RF-SCORE:    0.00 PKD
ROOT
HETATM    1  O   UNL     1     -14.136  15.628  70.687  1.00  0.00    -0.804 OA 
HETATM    2  C   UNL     1     -12.732  15.392  70.601  1.00  0.00    -0.437 C  
HETATM    3  H   UNL     1     -14.295  16.543  70.884  1.00  0.00     0.000 HD 
ENDROOT
BRANCH   2   4
HETATM    4  C   UNL     1     -12.475  13.909  70.283  1.00  0.00    -0.314 C  
BRANCH   4   5
HETATM    5  N   UNL     1     -11.232  13.662  69.525  1.00  0.00    -0.194 NA 
HETATM    6  C   UNL     1     -10.930  12.226  69.380  1.00  0.00    -0.030 C  
HETATM    7  C   UNL     1     -11.886  11.478  68.432  1.00  0.00    -0.283 C  
HETATM    8  N   UNL     1     -11.974  12.039  67.067  1.00  0.00    -0.606 NA 
HETATM    9  C   UNL     1     -11.315  14.257  68.170  1.00  0.00    -0.288 C  
HETATM   10  C   UNL     1     -12.219  13.496  67.165  1.00  0.00    -0.281 C  
BRANCH   8  11
HETATM   11  C   UNL     1     -10.795  11.743  66.239  1.00  0.00    -0.281 C  
BRANCH  11  12
HETATM   12  C   UNL     1      -9.916  10.625  66.814  1.00  0.00    -0.254 C  
BRANCH  12  13
HETATM   13  C   UNL     1     -10.003   9.331  65.989  1.00  0.00    -0.255 C  
BRANCH  13  14
HETATM   14  N   UNL     1      -8.669   8.685  65.878  1.00  0.00    -0.162 NA 
HETATM   15  C   UNL     1      -7.853   9.067  64.768  1.00  0.00    -0.122 A  
HETATM   16  C   UNL     1      -8.348   9.827  63.681  1.00  0.00    -0.169 A  
HETATM   17  C   UNL     1      -7.560  10.187  62.580  1.00  0.00    -0.144 A  
HETATM   18  C   UNL     1      -6.235   9.801  62.523  1.00  0.00    -0.101 A  
HETATM   19  C   UNL     1      -5.707   9.056  63.570  1.00  0.00    -0.075 A  
HETATM   20  C   UNL     1      -6.497   8.689  64.681  1.00  0.00    -0.066 A  
HETATM   21  S   UNL     1      -5.643   7.752  65.923  1.00  0.00    -0.033 SA 
HETATM   22  C   UNL     1      -6.890   7.522  67.161  1.00  0.00    -0.071 A  
HETATM   23  C   UNL     1      -8.221   7.953  67.025  1.00  0.00    -0.117 A  
HETATM   24  C   UNL     1      -9.083   7.628  68.103  1.00  0.00    -0.132 A  
HETATM   25  C   UNL     1      -8.652   7.007  69.292  1.00  0.00    -0.136 A  
HETATM   26  C   UNL     1      -7.320   6.623  69.394  1.00  0.00    -0.092 A  
HETATM   27  C   UNL     1      -9.600   6.789  70.445  1.00  0.00    -0.169 C  
HETATM   28  F   UNL     1     -10.861   7.254  70.216  1.00  0.00    -0.226 F  
HETATM   29  F   UNL     1      -9.184   7.421  71.580  1.00  0.00    -0.139 F  
HETATM   30  F   UNL     1      -9.740   5.478  70.778  1.00  0.00    -0.183 F  
HETATM   31  C   UNL     1      -6.455   6.864  68.333  1.00  0.00    -0.039 A  
ENDBRANCH  13  14
ENDBRANCH  12  13
ENDBRANCH  11  12
ENDBRANCH   8  11
ENDBRANCH   4   5
ENDBRANCH   2   4
TORSDOF 6
ENDMDL
MODEL      154
REMARK 921   NORMALIZED FREE ENERGY PREDICTED BY IDOCK:   -4.70 KCAL/MOL
REMARK 922        TOTAL FREE ENERGY PREDICTED BY IDOCK:   -6.58 KCAL/MOL
REMARK 923 INTER-LIGAND FREE ENERGY PREDICTED BY IDOCK:   -5.78 KCAL/MOL
REMARK 924 INTRA-LIGAND FREE ENERGY PREDICTED BY IDOCK:   -0.81 KCAL/MOL
REMARK 927      BINDING AFFINITY PREDICTED BY RF-SCORE:    0.00 PKD
ROOT
HETATM    1  O   UNL     1     -14.157   9.310  70.849  1.00  0.00    -0.504 OA 
HETATM    2  C   UNL     1     -14.335   7.919  71.111  1.00  0.00    -0.170 C  
HETATM    3  H   UNL     1     -14.953   9.669  70.476  1.00  0.00     0.000 HD 
ENDROOT
BRANCH   2   4
HETATM    4  C   UNL     1     -13.046   7.337  71.715  1.00  0.00    -0.317 C  
BRANCH   4   5
HETATM    5  N   UNL     1     -11.924   7.238  70.759  1.00  0.00    -0.301 NA 
HETATM    6  C   UNL     1     -11.094   8.457  70.728  1.00  0.00    -0.258 C  
HETATM    7  C   UNL     1     -10.249   8.670  71.997  1.00  0.00    -0.337 C  
HETATM    8  N   UNL     1      -9.352   7.548  72.343  1.00  0.00    -0.143 NA 
HETATM    9  C   UNL     1     -11.048   6.090  71.094  1.00  0.00    -0.271 C  
HETATM   10  C   UNL     1     -10.133   6.291  72.330  1.00  0.00    -0.177 C  
BRANCH   8  11
HETATM   11  C   UNL     1      -8.168   7.460  71.476  1.00  0.00    -0.104 C  
BRANCH  11  12
HETATM   12  C   UNL     1      -7.367   8.767  71.408  1.00  0.00    -0.117 C  
BRANCH  12  13
HETATM   13  C   UNL     1      -6.729   8.989  70.027  1.00  0.00    -0.044 C  
BRANCH  13  14
HETATM   14  N   UNL     1      -7.362  10.141  69.334  1.00  0.00    -0.092 NA 
HETATM   15  C   UNL     1      -6.771  11.427  69.540  1.00  0.00    -0.119 A  
HETATM   16  C   UNL     1      -5.792  11.668  70.534  1.00  0.00    -0.128 A  
HETATM   17  C   UNL     1      -5.224  12.929  70.756  1.00  0.00    -0.147 A  
HETATM   18  C   UNL     1      -5.613  14.007  69.984  1.00  0.00    -0.112 A  
HETATM   19  C   UNL     1      -6.570  13.815  68.996  1.00  0.00    -0.108 A  
HETATM   20  C   UNL     1      -7.146  12.547  68.770  1.00  0.00    -0.092 A  
HETATM   21  S   UNL     1      -8.338  12.496  67.455  1.00  0.00    -0.191 SA 
HETATM   22  C   UNL     1      -8.800  10.786  67.415  1.00  0.00    -0.129 A  
HETATM   23  C   UNL     1      -8.325   9.823  68.322  1.00  0.00    -0.106 A  
HETATM   24  C   UNL     1      -8.852   8.517  68.161  1.00  0.00    -0.142 A  
HETATM   25  C   UNL     1      -9.716   8.144  67.111  1.00  0.00    -0.259 A  
HETATM   26  C   UNL     1     -10.137   9.124  66.220  1.00  0.00    -0.319 A  
HETATM   27  C   UNL     1     -10.153   6.711  66.934  1.00  0.00    -0.195 C  
HETATM   28  F   UNL     1      -9.628   5.858  67.858  1.00  0.00    -0.114 F  
HETATM   29  F   UNL     1      -9.780   6.206  65.723  1.00  0.00    -0.087 F  
HETATM   30  F   UNL     1     -11.502   6.555  67.004  1.00  0.00    -0.446 F  
HETATM   31  C   UNL     1      -9.695  10.432  66.381  1.00  0.00    -0.250 A  
ENDBRANCH  13  14
ENDBRANCH  12  13
ENDBRANCH  11  12
ENDBRANCH   8  11
ENDBRANCH   4   5
ENDBRANCH   2   4
TORSDOF 6
ENDMDL
MODEL      155
REMARK 921   NORMALIZED FREE ENERGY PREDICTED BY IDOCK:   -4.68 KCAL/MOL
REMARK 922        TOTAL FREE ENERGY PREDICTED BY IDOCK:   -6.56 KCAL/MOL
REMARK 923 INTER-LIGAND FREE ENERGY PREDICTED BY IDOCK:   -5.68 KCAL/MOL
REMARK 924 INTRA-LIGAND FREE ENERGY PREDICTED BY IDOCK:   -0.88 KCAL/MOL
REMARK 927      BINDING AFFINITY PREDICTED BY RF-SCORE:    0.00 PKD
ROOT
HETATM    1  O   UNL     1     -13.908   9.411  70.712  1.00  0.00    -0.570 OA 
HETATM    2  C   UNL     1     -14.050   8.604  71.879  1.00  0.00    -0.443 C  
HETATM    3  H   UNL     1     -14.750   9.501  70.281  1.00  0.00     0.000 HD 
ENDROOT
BRANCH   2   4
HETATM    4  C   UNL     1     -12.687   8.459  72.577  1.00  0.00    -0.232 C  
BRANCH   4   5
HETATM    5  N   UNL     1     -11.748   7.555  71.883  1.00  0.00    -0.275 NA 
HETATM    6  C   UNL     1     -10.886   8.263  70.917  1.00  0.00    -0.230 C  
HETATM    7  C   UNL     1      -9.830   9.173  71.572  1.00  0.00    -0.265 C  
HETATM    8  N   UNL     1      -8.934   8.495  72.533  1.00  0.00    -0.333 NA 
HETATM    9  C   UNL     1     -10.876   6.855  72.855  1.00  0.00    -0.285 C  
HETATM   10  C   UNL     1      -9.758   7.722  73.490  1.00  0.00    -0.256 C  
BRANCH   8  11
HETATM   11  C   UNL     1      -7.919   7.651  71.886  1.00  0.00    -0.096 C  
BRANCH  11  12
HETATM   12  C   UNL     1      -6.866   8.455  71.111  1.00  0.00    -0.058 C  
BRANCH  12  13
HETATM   13  C   UNL     1      -6.692   7.948  69.670  1.00  0.00    -0.042 C  
BRANCH  13  14
HETATM   14  N   UNL     1      -7.886   8.274  68.848  1.00  0.00    -0.109 NA 
HETATM   15  C   UNL     1      -8.050   9.637  68.452  1.00  0.00    -0.104 A  
HETATM   16  C   UNL     1      -7.275  10.690  68.997  1.00  0.00    -0.095 A  
HETATM   17  C   UNL     1      -7.444  12.032  68.629  1.00  0.00    -0.113 A  
HETATM   18  C   UNL     1      -8.400  12.376  67.693  1.00  0.00    -0.169 A  
HETATM   19  C   UNL     1      -9.181  11.374  67.130  1.00  0.00    -0.170 A  
HETATM   20  C   UNL     1      -9.016  10.022  67.499  1.00  0.00    -0.134 A  
HETATM   21  S   UNL     1     -10.095   8.887  66.663  1.00  0.00    -0.273 SA 
HETATM   22  C   UNL     1      -9.586   7.318  67.311  1.00  0.00    -0.152 A  
HETATM   23  C   UNL     1      -8.609   7.160  68.309  1.00  0.00    -0.122 A  
HETATM   24  C   UNL     1      -8.377   5.827  68.734  1.00  0.00    -0.104 A  
HETATM   25  C   UNL     1      -8.990   4.701  68.150  1.00  0.00    -0.134 A  
HETATM   26  C   UNL     1      -9.929   4.903  67.146  1.00  0.00    -0.229 A  
HETATM   27  C   UNL     1      -8.616   3.302  68.577  1.00  0.00    -0.089 C  
HETATM   28  F   UNL     1      -7.653   3.261  69.540  1.00  0.00    -0.047 F  
HETATM   29  F   UNL     1      -8.124   2.563  67.542  1.00  0.00    -0.066 F  
HETATM   30  F   UNL     1      -9.670   2.599  69.070  1.00  0.00    -0.218 F  
HETATM   31  C   UNL     1     -10.234   6.198  66.744  1.00  0.00    -0.264 A  
ENDBRANCH  13  14
ENDBRANCH  12  13
ENDBRANCH  11  12
ENDBRANCH   8  11
ENDBRANCH   4   5
ENDBRANCH   2   4
TORSDOF 6
ENDMDL
MODEL      156
REMARK 921   NORMALIZED FREE ENERGY PREDICTED BY IDOCK:   -4.68 KCAL/MOL
REMARK 922        TOTAL FREE ENERGY PREDICTED BY IDOCK:   -6.55 KCAL/MOL
REMARK 923 INTER-LIGAND FREE ENERGY PREDICTED BY IDOCK:   -5.86 KCAL/MOL
REMARK 924 INTRA-LIGAND FREE ENERGY PREDICTED BY IDOCK:   -0.69 KCAL/MOL
REMARK 927      BINDING AFFINITY PREDICTED BY RF-SCORE:    0.00 PKD
ROOT
HETATM    1  O   UNL     1     -14.060  15.564  70.644  1.00  0.00    -0.849 OA 
HETATM    2  C   UNL     1     -12.669  15.305  70.459  1.00  0.00    -0.390 C  
HETATM    3  H   UNL     1     -14.184  16.467  70.914  1.00  0.00     0.000 HD 
ENDROOT
BRANCH   2   4
HETATM    4  C   UNL     1     -12.469  13.844  70.023  1.00  0.00    -0.266 C  
BRANCH   4   5
HETATM    5  N   UNL     1     -11.244  13.614  69.230  1.00  0.00    -0.252 NA 
HETATM    6  C   UNL     1     -10.988  12.184  68.981  1.00  0.00    -0.205 C  
HETATM    7  C   UNL     1     -11.979  11.534  67.997  1.00  0.00    -0.104 C  
HETATM    8  N   UNL     1     -12.067  12.192  66.677  1.00  0.00    -0.578 NA 
HETATM    9  C   UNL     1     -11.327  14.305  67.922  1.00  0.00    -0.297 C  
HETATM   10  C   UNL     1     -12.267  13.645  66.880  1.00  0.00    -0.352 C  
BRANCH   8  11
HETATM   11  C   UNL     1     -10.910  11.920  65.812  1.00  0.00    -0.295 C  
BRANCH  11  12
HETATM   12  C   UNL     1     -10.052  10.744  66.299  1.00  0.00    -0.285 C  
BRANCH  12  13
HETATM   13  C   UNL     1      -8.568  10.916  65.936  1.00  0.00    -0.176 C  
BRANCH  13  14
HETATM   14  N   UNL     1      -7.712  10.790  67.144  1.00  0.00    -0.115 NA 
HETATM   15  C   UNL     1      -7.417  11.992  67.859  1.00  0.00    -0.114 A  
HETATM   16  C   UNL     1      -7.699  13.279  67.340  1.00  0.00    -0.148 A  
HETATM   17  C   UNL     1      -7.394  14.462  68.026  1.00  0.00    -0.148 A  
HETATM   18  C   UNL     1      -6.792  14.404  69.268  1.00  0.00    -0.129 A  
HETATM   19  C   UNL     1      -6.499  13.162  69.816  1.00  0.00    -0.009 A  
HETATM   20  C   UNL     1      -6.803  11.967  69.128  1.00  0.00    -0.090 A  
HETATM   21  S   UNL     1      -6.368  10.481  69.994  1.00  0.00    -0.132 SA 
HETATM   22  C   UNL     1      -6.930   9.211  68.893  1.00  0.00    -0.064 A  
HETATM   23  C   UNL     1      -7.489   9.460  67.628  1.00  0.00    -0.087 A  
HETATM   24  C   UNL     1      -7.828   8.310  66.871  1.00  0.00    -0.096 A  
HETATM   25  C   UNL     1      -7.724   6.992  67.359  1.00  0.00    -0.110 A  
HETATM   26  C   UNL     1      -7.191   6.794  68.627  1.00  0.00    -0.085 A  
HETATM   27  C   UNL     1      -8.206   5.818  66.542  1.00  0.00    -0.106 C  
HETATM   28  F   UNL     1      -8.741   6.170  65.338  1.00  0.00    -0.150 F  
HETATM   29  F   UNL     1      -9.185   5.115  67.180  1.00  0.00    -0.115 F  
HETATM   30  F   UNL     1      -7.221   4.922  66.266  1.00  0.00    -0.070 F  
HETATM   31  C   UNL     1      -6.785   7.892  69.378  1.00  0.00    -0.039 A  
ENDBRANCH  13  14
ENDBRANCH  12  13
ENDBRANCH  11  12
ENDBRANCH   8  11
ENDBRANCH   4   5
ENDBRANCH   2   4
TORSDOF 6
ENDMDL
MODEL      157
REMARK 921   NORMALIZED FREE ENERGY PREDICTED BY IDOCK:   -4.66 KCAL/MOL
REMARK 922        TOTAL FREE ENERGY PREDICTED BY IDOCK:   -6.53 KCAL/MOL
REMARK 923 INTER-LIGAND FREE ENERGY PREDICTED BY IDOCK:   -5.66 KCAL/MOL
REMARK 924 INTRA-LIGAND FREE ENERGY PREDICTED BY IDOCK:   -0.87 KCAL/MOL
REMARK 927      BINDING AFFINITY PREDICTED BY RF-SCORE:    0.00 PKD
ROOT
HETATM    1  O   UNL     1     -14.410   8.793  70.980  1.00  0.00    -0.598 OA 
HETATM    2  C   UNL     1     -14.057   7.435  71.239  1.00  0.00    -0.267 C  
HETATM    3  H   UNL     1     -15.278   8.830  70.598  1.00  0.00     0.000 HD 
ENDROOT
BRANCH   2   4
HETATM    4  C   UNL     1     -12.651   7.375  71.859  1.00  0.00    -0.291 C  
BRANCH   4   5
HETATM    5  N   UNL     1     -11.559   7.284  70.868  1.00  0.00    -0.291 NA 
HETATM    6  C   UNL     1     -11.229   8.589  70.265  1.00  0.00    -0.179 C  
HETATM    7  C   UNL     1     -10.533   9.566  71.231  1.00  0.00    -0.250 C  
HETATM    8  N   UNL     1      -9.293   9.052  71.850  1.00  0.00    -0.363 NA 
HETATM    9  C   UNL     1     -10.330   6.737  71.489  1.00  0.00    -0.208 C  
HETATM   10  C   UNL     1      -9.564   7.713  72.420  1.00  0.00    -0.168 C  
BRANCH   8  11
HETATM   11  C   UNL     1      -8.149   9.027  70.927  1.00  0.00    -0.169 C  
BRANCH  11  12
HETATM   12  C   UNL     1      -7.216   7.829  71.150  1.00  0.00    -0.061 C  
BRANCH  12  13
HETATM   13  C   UNL     1      -6.629   7.294  69.834  1.00  0.00    -0.040 C  
BRANCH  13  14
HETATM   14  N   UNL     1      -7.431   6.152  69.325  1.00  0.00    -0.087 NA 
HETATM   15  C   UNL     1      -7.222   4.883  69.949  1.00  0.00    -0.055 A  
HETATM   16  C   UNL     1      -6.147   4.634  70.836  1.00  0.00    -0.018 A  
HETATM   17  C   UNL     1      -5.924   3.388  71.436  1.00  0.00    -0.014 A  
HETATM   18  C   UNL     1      -6.776   2.333  71.172  1.00  0.00    -0.031 A  
HETATM   19  C   UNL     1      -7.846   2.532  70.309  1.00  0.00    -0.048 A  
HETATM   20  C   UNL     1      -8.074   3.786  69.701  1.00  0.00    -0.053 A  
HETATM   21  S   UNL     1      -9.497   3.851  68.643  1.00  0.00    -0.122 SA 
HETATM   22  C   UNL     1      -9.510   5.541  68.112  1.00  0.00    -0.114 A  
HETATM   23  C   UNL     1      -8.519   6.478  68.451  1.00  0.00    -0.120 A  
HETATM   24  C   UNL     1      -8.676   7.768  67.884  1.00  0.00    -0.124 A  
HETATM   25  C   UNL     1      -9.789   8.155  67.111  1.00  0.00    -0.281 A  
HETATM   26  C   UNL     1     -10.759   7.202  66.824  1.00  0.00    -0.259 A  
HETATM   27  C   UNL     1      -9.947   9.576  66.630  1.00  0.00    -0.247 C  
HETATM   28  F   UNL     1      -8.940  10.405  67.024  1.00  0.00    -0.137 F  
HETATM   29  F   UNL     1     -11.092  10.152  67.097  1.00  0.00    -0.330 F  
HETATM   30  F   UNL     1     -10.005   9.674  65.275  1.00  0.00    -0.368 F  
HETATM   31  C   UNL     1     -10.611   5.906  67.306  1.00  0.00    -0.365 A  
ENDBRANCH  13  14
ENDBRANCH  12  13
ENDBRANCH  11  12
ENDBRANCH   8  11
ENDBRANCH   4   5
ENDBRANCH   2   4
TORSDOF 6
ENDMDL
MODEL      158
REMARK 921   NORMALIZED FREE ENERGY PREDICTED BY IDOCK:   -4.64 KCAL/MOL
REMARK 922        TOTAL FREE ENERGY PREDICTED BY IDOCK:   -6.50 KCAL/MOL
REMARK 923 INTER-LIGAND FREE ENERGY PREDICTED BY IDOCK:   -6.04 KCAL/MOL
REMARK 924 INTRA-LIGAND FREE ENERGY PREDICTED BY IDOCK:   -0.47 KCAL/MOL
REMARK 927      BINDING AFFINITY PREDICTED BY RF-SCORE:    0.00 PKD
ROOT
HETATM    1  O   UNL     1     -12.360  14.762  67.135  1.00  0.00    -0.468 OA 
HETATM    2  C   UNL     1     -11.119  14.446  67.762  1.00  0.00    -0.287 C  
HETATM    3  H   UNL     1     -12.258  15.538  66.597  1.00  0.00     0.000 HD 
ENDROOT
BRANCH   2   4
HETATM    4  C   UNL     1     -11.284  13.189  68.633  1.00  0.00    -0.276 C  
BRANCH   4   5
HETATM    5  N   UNL     1     -11.943  12.061  67.944  1.00  0.00    -0.547 NA 
HETATM    6  C   UNL     1     -11.391  11.814  66.599  1.00  0.00    -0.316 C  
HETATM    7  C   UNL     1      -9.966  11.230  66.606  1.00  0.00    -0.209 C  
HETATM    8  N   UNL     1      -9.811   9.976  67.372  1.00  0.00    -0.177 NA 
HETATM    9  C   UNL     1     -11.812  10.814  68.735  1.00  0.00    -0.179 C  
HETATM   10  C   UNL     1     -10.406  10.159  68.715  1.00  0.00    -0.194 C  
BRANCH   8  11
HETATM   11  C   UNL     1     -10.372   8.802  66.686  1.00  0.00    -0.228 C  
BRANCH  11  12
HETATM   12  C   UNL     1      -9.576   7.515  66.938  1.00  0.00    -0.242 C  
BRANCH  12  13
HETATM   13  C   UNL     1     -10.488   6.317  67.247  1.00  0.00    -0.254 C  
BRANCH  13  14
HETATM   14  N   UNL     1      -9.707   5.196  67.832  1.00  0.00    -0.139 NA 
HETATM   15  C   UNL     1      -8.988   4.361  66.920  1.00  0.00    -0.118 A  
HETATM   16  C   UNL     1      -9.182   4.415  65.519  1.00  0.00    -0.150 A  
HETATM   17  C   UNL     1      -8.496   3.585  64.621  1.00  0.00    -0.096 A  
HETATM   18  C   UNL     1      -7.581   2.664  65.093  1.00  0.00    -0.076 A  
HETATM   19  C   UNL     1      -7.357   2.580  66.462  1.00  0.00    -0.066 A  
HETATM   20  C   UNL     1      -8.047   3.412  67.370  1.00  0.00    -0.082 A  
HETATM   21  S   UNL     1      -7.617   3.167  69.075  1.00  0.00    -0.047 SA 
HETATM   22  C   UNL     1      -8.603   4.384  69.903  1.00  0.00    -0.068 A  
HETATM   23  C   UNL     1      -9.529   5.219  69.253  1.00  0.00    -0.134 A  
HETATM   24  C   UNL     1     -10.263   6.092  70.096  1.00  0.00    -0.254 A  
HETATM   25  C   UNL     1     -10.037   6.219  71.481  1.00  0.00    -0.218 A  
HETATM   26  C   UNL     1      -9.091   5.392  72.076  1.00  0.00    -0.149 A  
HETATM   27  C   UNL     1     -10.778   7.247  72.300  1.00  0.00    -0.231 C  
HETATM   28  F   UNL     1     -11.641   8.011  71.573  1.00  0.00    -0.261 F  
HETATM   29  F   UNL     1      -9.931   8.131  72.902  1.00  0.00    -0.292 F  
HETATM   30  F   UNL     1     -11.516   6.697  73.301  1.00  0.00    -0.170 F  
HETATM   31  C   UNL     1      -8.395   4.475  71.297  1.00  0.00    -0.107 A  
ENDBRANCH  13  14
ENDBRANCH  12  13
ENDBRANCH  11  12
ENDBRANCH   8  11
ENDBRANCH   4   5
ENDBRANCH   2   4
TORSDOF 6
ENDMDL
MODEL      159
REMARK 921   NORMALIZED FREE ENERGY PREDICTED BY IDOCK:   -4.64 KCAL/MOL
REMARK 922        TOTAL FREE ENERGY PREDICTED BY IDOCK:   -6.50 KCAL/MOL
REMARK 923 INTER-LIGAND FREE ENERGY PREDICTED BY IDOCK:   -5.95 KCAL/MOL
REMARK 924 INTRA-LIGAND FREE ENERGY PREDICTED BY IDOCK:   -0.55 KCAL/MOL
REMARK 927      BINDING AFFINITY PREDICTED BY RF-SCORE:    0.00 PKD
ROOT
HETATM    1  O   UNL     1      -6.412  17.842  67.449  1.00  0.00    -0.160 OA 
HETATM    2  C   UNL     1      -7.234  17.627  68.594  1.00  0.00    -0.255 C  
HETATM    3  H   UNL     1      -5.533  18.071  67.725  1.00  0.00     0.000 HD 
ENDROOT
BRANCH   2   4
HETATM    4  C   UNL     1      -8.658  17.256  68.147  1.00  0.00    -0.242 C  
BRANCH   4   5
HETATM    5  N   UNL     1      -9.431  16.506  69.157  1.00  0.00    -0.244 NA 
HETATM    6  C   UNL     1     -10.834  16.292  68.757  1.00  0.00    -0.317 C  
HETATM    7  C   UNL     1     -11.008  15.292  67.598  1.00  0.00    -0.311 C  
HETATM    8  N   UNL     1     -10.420  13.957  67.836  1.00  0.00    -0.239 NA 
HETATM    9  C   UNL     1      -8.816  15.182  69.414  1.00  0.00    -0.172 C  
HETATM   10  C   UNL     1      -9.023  14.125  68.298  1.00  0.00    -0.188 C  
BRANCH   8  11
HETATM   11  C   UNL     1     -11.203  13.133  68.768  1.00  0.00    -0.281 C  
BRANCH  11  12
HETATM   12  C   UNL     1     -10.884  11.635  68.669  1.00  0.00    -0.253 C  
BRANCH  12  13
HETATM   13  C   UNL     1     -11.785  10.913  67.654  1.00  0.00     0.081 C  
BRANCH  13  14
HETATM   14  N   UNL     1     -10.988   9.991  66.804  1.00  0.00    -0.036 NA 
HETATM   15  C   UNL     1     -10.619  10.462  65.505  1.00  0.00    -0.018 A  
HETATM   16  C   UNL     1     -11.171  11.633  64.931  1.00  0.00    -0.287 A  
HETATM   17  C   UNL     1     -10.830  12.089  63.650  1.00  0.00    -0.510 A  
HETATM   18  C   UNL     1      -9.915  11.387  62.889  1.00  0.00    -0.278 A  
HETATM   19  C   UNL     1      -9.347  10.234  63.414  1.00  0.00    -0.340 A  
HETATM   20  C   UNL     1      -9.688   9.770  64.703  1.00  0.00    -0.096 A  
HETATM   21  S   UNL     1      -8.848   8.289  65.206  1.00  0.00     0.049 SA 
HETATM   22  C   UNL     1      -9.459   8.035  66.850  1.00  0.00    -0.191 A  
HETATM   23  C   UNL     1     -10.439   8.840  67.456  1.00  0.00    -0.271 A  
HETATM   24  C   UNL     1     -10.837   8.444  68.758  1.00  0.00     0.013 A  
HETATM   25  C   UNL     1     -10.241   7.384  69.471  1.00  0.00    -0.204 A  
HETATM   26  C   UNL     1      -9.256   6.633  68.842  1.00  0.00    -0.130 A  
HETATM   27  C   UNL     1     -10.637   7.086  70.897  1.00  0.00    -0.217 C  
HETATM   28  F   UNL     1     -11.584   7.931  71.393  1.00  0.00    -0.255 F  
HETATM   29  F   UNL     1      -9.581   7.184  71.754  1.00  0.00    -0.153 F  
HETATM   30  F   UNL     1     -11.134   5.830  71.058  1.00  0.00    -0.327 F  
HETATM   31  C   UNL     1      -8.882   6.947  67.540  1.00  0.00    -0.118 A  
ENDBRANCH  13  14
ENDBRANCH  12  13
ENDBRANCH  11  12
ENDBRANCH   8  11
ENDBRANCH   4   5
ENDBRANCH   2   4
TORSDOF 6
ENDMDL
MODEL      160
REMARK 921   NORMALIZED FREE ENERGY PREDICTED BY IDOCK:   -4.62 KCAL/MOL
REMARK 922        TOTAL FREE ENERGY PREDICTED BY IDOCK:   -6.48 KCAL/MOL
REMARK 923 INTER-LIGAND FREE ENERGY PREDICTED BY IDOCK:   -6.76 KCAL/MOL
REMARK 924 INTRA-LIGAND FREE ENERGY PREDICTED BY IDOCK:    0.27 KCAL/MOL
REMARK 927      BINDING AFFINITY PREDICTED BY RF-SCORE:    0.00 PKD
ROOT
HETATM    1  O   UNL     1      -6.994  15.611  66.921  1.00  0.00    -0.224 OA 
HETATM    2  C   UNL     1      -7.864  16.561  67.534  1.00  0.00    -0.155 C  
HETATM    3  H   UNL     1      -6.132  15.665  67.317  1.00  0.00     0.000 HD 
ENDROOT
BRANCH   2   4
HETATM    4  C   UNL     1      -9.259  16.473  66.893  1.00  0.00    -0.226 C  
BRANCH   4   5
HETATM    5  N   UNL     1      -9.652  15.108  66.488  1.00  0.00    -0.254 NA 
HETATM    6  C   UNL     1      -9.209  14.080  67.449  1.00  0.00    -0.216 C  
HETATM    7  C   UNL     1      -9.966  14.109  68.789  1.00  0.00    -0.183 C  
HETATM    8  N   UNL     1     -11.435  13.989  68.677  1.00  0.00    -0.281 NA 
HETATM    9  C   UNL     1     -11.123  15.005  66.345  1.00  0.00    -0.329 C  
HETATM   10  C   UNL     1     -11.919  14.966  67.676  1.00  0.00    -0.145 C  
BRANCH   8  11
HETATM   11  C   UNL     1     -11.885  12.625  68.364  1.00  0.00    -0.301 C  
BRANCH  11  12
HETATM   12  C   UNL     1     -11.113  11.541  69.128  1.00  0.00    -0.316 C  
BRANCH  12  13
HETATM   13  C   UNL     1     -11.623  10.127  68.809  1.00  0.00     0.031 C  
BRANCH  13  14
HETATM   14  N   UNL     1     -10.508   9.252  68.364  1.00  0.00    -0.210 NA 
HETATM   15  C   UNL     1     -10.147   8.170  69.227  1.00  0.00    -0.202 A  
HETATM   16  C   UNL     1     -10.635   8.054  70.551  1.00  0.00    -0.222 A  
HETATM   17  C   UNL     1     -10.270   7.008  71.409  1.00  0.00    -0.208 A  
HETATM   18  C   UNL     1      -9.398   6.029  70.973  1.00  0.00    -0.175 A  
HETATM   19  C   UNL     1      -8.897   6.103  69.679  1.00  0.00    -0.134 A  
HETATM   20  C   UNL     1      -9.261   7.155  68.812  1.00  0.00    -0.136 A  
HETATM   21  S   UNL     1      -8.531   7.071  67.196  1.00  0.00    -0.122 SA 
HETATM   22  C   UNL     1      -9.233   8.478  66.378  1.00  0.00    -0.199 A  
HETATM   23  C   UNL     1     -10.082   9.407  67.004  1.00  0.00    -0.240 A  
HETATM   24  C   UNL     1     -10.499  10.496  66.198  1.00  0.00    -0.237 A  
HETATM   25  C   UNL     1     -10.189  10.621  64.829  1.00  0.00    -0.401 A  
HETATM   26  C   UNL     1      -9.369   9.664  64.244  1.00  0.00    -0.178 A  
HETATM   27  C   UNL     1     -10.757  11.749  64.002  1.00  0.00    -0.378 C  
HETATM   28  F   UNL     1     -11.576  12.585  64.701  1.00  0.00    -0.337 F  
HETATM   29  F   UNL     1     -11.510  11.294  62.960  1.00  0.00    -0.303 F  
HETATM   30  F   UNL     1      -9.796  12.539  63.452  1.00  0.00    -0.359 F  
HETATM   31  C   UNL     1      -8.885   8.614  65.016  1.00  0.00    -0.114 A  
ENDBRANCH  13  14
ENDBRANCH  12  13
ENDBRANCH  11  12
ENDBRANCH   8  11
ENDBRANCH   4   5
ENDBRANCH   2   4
TORSDOF 6
ENDMDL
MODEL      161
REMARK 921   NORMALIZED FREE ENERGY PREDICTED BY IDOCK:   -4.61 KCAL/MOL
REMARK 922        TOTAL FREE ENERGY PREDICTED BY IDOCK:   -6.46 KCAL/MOL
REMARK 923 INTER-LIGAND FREE ENERGY PREDICTED BY IDOCK:   -6.26 KCAL/MOL
REMARK 924 INTRA-LIGAND FREE ENERGY PREDICTED BY IDOCK:   -0.20 KCAL/MOL
REMARK 927      BINDING AFFINITY PREDICTED BY RF-SCORE:    0.00 PKD
ROOT
HETATM    1  O   UNL     1      -8.654   3.400  69.790  1.00  0.00    -0.058 OA 
HETATM    2  C   UNL     1      -7.329   3.772  70.167  1.00  0.00    -0.042 C  
HETATM    3  H   UNL     1      -9.096   2.998  70.529  1.00  0.00     0.000 HD 
ENDROOT
BRANCH   2   4
HETATM    4  C   UNL     1      -6.614   4.423  68.972  1.00  0.00    -0.045 C  
BRANCH   4   5
HETATM    5  N   UNL     1      -7.486   5.277  68.139  1.00  0.00    -0.075 NA 
HETATM    6  C   UNL     1      -8.307   6.203  68.940  1.00  0.00    -0.115 C  
HETATM    7  C   UNL     1      -7.503   7.337  69.605  1.00  0.00    -0.094 C  
HETATM    8  N   UNL     1      -6.707   8.163  68.673  1.00  0.00    -0.057 NA 
HETATM    9  C   UNL     1      -6.682   6.077  67.186  1.00  0.00    -0.061 C  
HETATM   10  C   UNL     1      -5.907   7.269  67.806  1.00  0.00    -0.030 C  
BRANCH   8  11
HETATM   11  C   UNL     1      -7.521   9.098  67.883  1.00  0.00    -0.084 C  
BRANCH  11  12
HETATM   12  C   UNL     1      -8.593   9.819  68.711  1.00  0.00    -0.127 C  
BRANCH  12  13
HETATM   13  C   UNL     1     -10.008   9.597  68.153  1.00  0.00    -0.159 C  
BRANCH  13  14
HETATM   14  N   UNL     1     -11.036  10.007  69.145  1.00  0.00    -0.228 NA 
HETATM   15  C   UNL     1     -11.462   9.017  70.085  1.00  0.00    -0.062 A  
HETATM   16  C   UNL     1     -11.130   7.647  69.955  1.00  0.00    -0.201 A  
HETATM   17  C   UNL     1     -11.561   6.668  70.861  1.00  0.00    -0.416 A  
HETATM   18  C   UNL     1     -12.344   7.024  71.942  1.00  0.00    -0.358 A  
HETATM   19  C   UNL     1     -12.692   8.358  72.109  1.00  0.00    -0.399 A  
HETATM   20  C   UNL     1     -12.262   9.348  71.199  1.00  0.00    -0.323 A  
HETATM   21  S   UNL     1     -12.793  10.996  71.587  1.00  0.00    -0.382 SA 
HETATM   22  C   UNL     1     -12.044  11.959  70.302  1.00  0.00    -0.325 A  
HETATM   23  C   UNL     1     -11.304  11.411  69.240  1.00  0.00    -0.289 A  
HETATM   24  C   UNL     1     -10.829  12.341  68.281  1.00  0.00    -0.254 A  
HETATM   25  C   UNL     1     -10.980  13.737  68.400  1.00  0.00    -0.275 A  
HETATM   26  C   UNL     1     -11.695  14.236  69.482  1.00  0.00    -0.366 A  
HETATM   27  C   UNL     1     -10.354  14.676  67.399  1.00  0.00    -0.241 C  
HETATM   28  F   UNL     1      -9.649  14.044  66.418  1.00  0.00    -0.260 F  
HETATM   29  F   UNL     1      -9.470  15.535  67.982  1.00  0.00    -0.190 F  
HETATM   30  F   UNL     1     -11.267  15.456  66.760  1.00  0.00    -0.327 F  
HETATM   31  C   UNL     1     -12.234  13.354  70.412  1.00  0.00    -0.415 A  
ENDBRANCH  13  14
ENDBRANCH  12  13
ENDBRANCH  11  12
ENDBRANCH   8  11
ENDBRANCH   4   5
ENDBRANCH   2   4
TORSDOF 6
ENDMDL
MODEL      162
REMARK 921   NORMALIZED FREE ENERGY PREDICTED BY IDOCK:   -4.59 KCAL/MOL
REMARK 922        TOTAL FREE ENERGY PREDICTED BY IDOCK:   -6.43 KCAL/MOL
REMARK 923 INTER-LIGAND FREE ENERGY PREDICTED BY IDOCK:   -5.81 KCAL/MOL
REMARK 924 INTRA-LIGAND FREE ENERGY PREDICTED BY IDOCK:   -0.63 KCAL/MOL
REMARK 927      BINDING AFFINITY PREDICTED BY RF-SCORE:    0.00 PKD
ROOT
HETATM    1  O   UNL     1      -9.327  12.973  66.733  1.00  0.00    -0.234 OA 
HETATM    2  C   UNL     1      -8.077  12.318  66.942  1.00  0.00    -0.090 C  
HETATM    3  H   UNL     1      -9.251  13.890  66.971  1.00  0.00     0.000 HD 
ENDROOT
BRANCH   2   4
HETATM    4  C   UNL     1      -8.200  10.834  66.556  1.00  0.00    -0.148 C  
BRANCH   4   5
HETATM    5  N   UNL     1      -8.938  10.015  67.539  1.00  0.00    -0.134 NA 
HETATM    6  C   UNL     1      -9.179   8.639  67.067  1.00  0.00    -0.151 C  
HETATM    7  C   UNL     1      -7.910   7.769  67.005  1.00  0.00    -0.112 C  
HETATM    8  N   UNL     1      -7.166   7.663  68.277  1.00  0.00    -0.090 NA 
HETATM    9  C   UNL     1      -8.201   9.942  68.823  1.00  0.00    -0.114 C  
HETATM   10  C   UNL     1      -6.951   9.024  68.819  1.00  0.00    -0.062 C  
BRANCH   8  11
HETATM   11  C   UNL     1      -7.815   6.784  69.260  1.00  0.00    -0.110 C  
BRANCH  11  12
HETATM   12  C   UNL     1      -8.435   5.527  68.634  1.00  0.00    -0.104 C  
BRANCH  12  13
HETATM   13  C   UNL     1      -9.967   5.510  68.758  1.00  0.00    -0.172 C  
BRANCH  13  14
HETATM   14  N   UNL     1     -10.379   5.311  70.172  1.00  0.00    -0.281 NA 
HETATM   15  C   UNL     1      -9.993   4.084  70.794  1.00  0.00    -0.088 A  
HETATM   16  C   UNL     1      -9.462   2.992  70.067  1.00  0.00    -0.195 A  
HETATM   17  C   UNL     1      -9.099   1.778  70.667  1.00  0.00    -0.148 A  
HETATM   18  C   UNL     1      -9.253   1.609  72.029  1.00  0.00    -0.130 A  
HETATM   19  C   UNL     1      -9.768   2.656  72.783  1.00  0.00    -0.181 A  
HETATM   20  C   UNL     1     -10.136   3.879  72.182  1.00  0.00    -0.155 A  
HETATM   21  S   UNL     1     -10.760   5.101  73.309  1.00  0.00    -0.292 SA 
HETATM   22  C   UNL     1     -11.060   6.490  72.249  1.00  0.00    -0.263 A  
HETATM   23  C   UNL     1     -10.885   6.465  70.854  1.00  0.00    -0.263 A  
HETATM   24  C   UNL     1     -11.228   7.660  70.173  1.00  0.00    -0.193 A  
HETATM   25  C   UNL     1     -11.623   8.847  70.822  1.00  0.00    -0.301 A  
HETATM   26  C   UNL     1     -11.755   8.833  72.206  1.00  0.00    -0.398 A  
HETATM   27  C   UNL     1     -11.867  10.116  70.044  1.00  0.00    -0.179 C  
HETATM   28  F   UNL     1     -11.658   9.988  68.703  1.00  0.00    -0.215 F  
HETATM   29  F   UNL     1     -11.046  11.130  70.442  1.00  0.00    -0.304 F  
HETATM   30  F   UNL     1     -13.136  10.588  70.182  1.00  0.00    -0.357 F  
HETATM   31  C   UNL     1     -11.491   7.662  72.907  1.00  0.00    -0.342 A  
ENDBRANCH  13  14
ENDBRANCH  12  13
ENDBRANCH  11  12
ENDBRANCH   8  11
ENDBRANCH   4   5
ENDBRANCH   2   4
TORSDOF 6
ENDMDL
MODEL      163
REMARK 921   NORMALIZED FREE ENERGY PREDICTED BY IDOCK:   -4.59 KCAL/MOL
REMARK 922        TOTAL FREE ENERGY PREDICTED BY IDOCK:   -6.43 KCAL/MOL
REMARK 923 INTER-LIGAND FREE ENERGY PREDICTED BY IDOCK:   -6.12 KCAL/MOL
REMARK 924 INTRA-LIGAND FREE ENERGY PREDICTED BY IDOCK:   -0.31 KCAL/MOL
REMARK 927      BINDING AFFINITY PREDICTED BY RF-SCORE:    0.00 PKD
ROOT
HETATM    1  O   UNL     1     -11.951   1.692  62.572  1.00  0.00    -0.352 OA 
HETATM    2  C   UNL     1     -10.919   2.653  62.790  1.00  0.00    -0.181 C  
HETATM    3  H   UNL     1     -12.573   2.029  61.939  1.00  0.00     0.000 HD 
ENDROOT
BRANCH   2   4
HETATM    4  C   UNL     1      -9.911   2.107  63.815  1.00  0.00    -0.135 C  
BRANCH   4   5
HETATM    5  N   UNL     1      -8.813   3.041  64.138  1.00  0.00    -0.097 NA 
HETATM    6  C   UNL     1      -9.281   4.428  64.318  1.00  0.00    -0.145 C  
HETATM    7  C   UNL     1     -10.105   4.648  65.600  1.00  0.00    -0.218 C  
HETATM    8  N   UNL     1      -9.424   4.258  66.852  1.00  0.00    -0.173 NA 
HETATM    9  C   UNL     1      -8.115   2.623  65.376  1.00  0.00    -0.087 C  
HETATM   10  C   UNL     1      -8.886   2.888  66.696  1.00  0.00    -0.147 C  
BRANCH   8  11
HETATM   11  C   UNL     1      -8.380   5.206  67.267  1.00  0.00    -0.106 C  
BRANCH  11  12
HETATM   12  C   UNL     1      -8.813   6.118  68.422  1.00  0.00    -0.113 C  
BRANCH  12  13
HETATM   13  C   UNL     1      -8.058   7.457  68.423  1.00  0.00    -0.125 C  
BRANCH  13  14
HETATM   14  N   UNL     1      -9.000   8.593  68.602  1.00  0.00    -0.142 NA 
HETATM   15  C   UNL     1      -9.311   9.367  67.441  1.00  0.00    -0.126 A  
HETATM   16  C   UNL     1      -8.596   9.244  66.225  1.00  0.00    -0.139 A  
HETATM   17  C   UNL     1      -8.882  10.014  65.089  1.00  0.00    -0.207 A  
HETATM   18  C   UNL     1      -9.904  10.942  65.124  1.00  0.00    -0.329 A  
HETATM   19  C   UNL     1     -10.635  11.094  66.296  1.00  0.00    -0.309 A  
HETATM   20  C   UNL     1     -10.349  10.322  67.443  1.00  0.00    -0.233 A  
HETATM   21  S   UNL     1     -11.398  10.647  68.837  1.00  0.00    -0.268 SA 
HETATM   22  C   UNL     1     -10.809   9.492  70.045  1.00  0.00    -0.252 A  
HETATM   23  C   UNL     1      -9.708   8.641  69.846  1.00  0.00    -0.173 A  
HETATM   24  C   UNL     1      -9.357   7.825  70.951  1.00  0.00    -0.157 A  
HETATM   25  C   UNL     1     -10.096   7.768  72.149  1.00  0.00    -0.265 A  
HETATM   26  C   UNL     1     -11.194   8.607  72.292  1.00  0.00    -0.399 A  
HETATM   27  C   UNL     1      -9.730   6.796  73.245  1.00  0.00    -0.176 C  
HETATM   28  F   UNL     1      -8.657   6.010  72.946  1.00  0.00    -0.123 F  
HETATM   29  F   UNL     1     -10.745   5.930  73.524  1.00  0.00    -0.231 F  
HETATM   30  F   UNL     1      -9.429   7.410  74.420  1.00  0.00    -0.267 F  
HETATM   31  C   UNL     1     -11.535   9.470  71.256  1.00  0.00    -0.447 A  
ENDBRANCH  13  14
ENDBRANCH  12  13
ENDBRANCH  11  12
ENDBRANCH   8  11
ENDBRANCH   4   5
ENDBRANCH   2   4
TORSDOF 6
ENDMDL
MODEL      164
REMARK 921   NORMALIZED FREE ENERGY PREDICTED BY IDOCK:   -4.53 KCAL/MOL
REMARK 922        TOTAL FREE ENERGY PREDICTED BY IDOCK:   -6.35 KCAL/MOL
REMARK 923 INTER-LIGAND FREE ENERGY PREDICTED BY IDOCK:   -5.45 KCAL/MOL
REMARK 924 INTRA-LIGAND FREE ENERGY PREDICTED BY IDOCK:   -0.90 KCAL/MOL
REMARK 927      BINDING AFFINITY PREDICTED BY RF-SCORE:    0.00 PKD
ROOT
HETATM    1  O   UNL     1     -13.404  11.261  72.310  1.00  0.00    -0.625 OA 
HETATM    2  C   UNL     1     -13.129   9.903  71.970  1.00  0.00    -0.448 C  
HETATM    3  H   UNL     1     -14.135  11.298  72.915  1.00  0.00     0.000 HD 
ENDROOT
BRANCH   2   4
HETATM    4  C   UNL     1     -11.946   9.844  70.990  1.00  0.00    -0.365 C  
BRANCH   4   5
HETATM    5  N   UNL     1     -11.119   8.627  71.116  1.00  0.00    -0.252 NA 
HETATM    6  C   UNL     1     -11.064   7.845  69.866  1.00  0.00    -0.120 C  
HETATM    7  C   UNL     1     -10.249   8.517  68.745  1.00  0.00    -0.200 C  
HETATM    8  N   UNL     1      -8.856   8.854  69.104  1.00  0.00    -0.135 NA 
HETATM    9  C   UNL     1      -9.733   8.971  71.509  1.00  0.00    -0.295 C  
HETATM   10  C   UNL     1      -8.859   9.591  70.388  1.00  0.00    -0.234 C  
BRANCH   8  11
HETATM   11  C   UNL     1      -7.968   7.683  69.155  1.00  0.00    -0.120 C  
BRANCH  11  12
HETATM   12  C   UNL     1      -7.631   7.117  67.768  1.00  0.00    -0.111 C  
BRANCH  12  13
HETATM   13  C   UNL     1      -6.642   8.008  67.000  1.00  0.00    -0.057 C  
BRANCH  13  14
HETATM   14  N   UNL     1      -7.012   8.089  65.563  1.00  0.00    -0.059 NA 
HETATM   15  C   UNL     1      -6.624   6.993  64.730  1.00  0.00    -0.043 A  
HETATM   16  C   UNL     1      -5.724   5.988  65.159  1.00  0.00    -0.024 A  
HETATM   17  C   UNL     1      -5.323   4.923  64.341  1.00  0.00    -0.013 A  
HETATM   18  C   UNL     1      -5.812   4.819  63.054  1.00  0.00    -0.017 A  
HETATM   19  C   UNL     1      -6.700   5.783  62.592  1.00  0.00    -0.039 A  
HETATM   20  C   UNL     1      -7.106   6.858  63.411  1.00  0.00    -0.060 A  
HETATM   21  S   UNL     1      -8.255   7.978  62.652  1.00  0.00    -0.082 SA 
HETATM   22  C   UNL     1      -8.581   9.139  63.950  1.00  0.00    -0.170 A  
HETATM   23  C   UNL     1      -7.946   9.114  65.205  1.00  0.00    -0.117 A  
HETATM   24  C   UNL     1      -8.302  10.161  66.092  1.00  0.00    -0.131 A  
HETATM   25  C   UNL     1      -9.296  11.121  65.814  1.00  0.00    -0.238 A  
HETATM   26  C   UNL     1      -9.918  11.090  64.572  1.00  0.00    -0.366 A  
HETATM   27  C   UNL     1      -9.704  12.142  66.848  1.00  0.00    -0.206 C  
HETATM   28  F   UNL     1      -9.037  12.022  68.031  1.00  0.00    -0.160 F  
HETATM   29  F   UNL     1     -11.026  12.049  67.168  1.00  0.00    -0.249 F  
HETATM   30  F   UNL     1      -9.508  13.422  66.435  1.00  0.00    -0.249 F  
HETATM   31  C   UNL     1      -9.551  10.119  63.646  1.00  0.00    -0.268 A  
ENDBRANCH  13  14
ENDBRANCH  12  13
ENDBRANCH  11  12
ENDBRANCH   8  11
ENDBRANCH   4   5
ENDBRANCH   2   4
TORSDOF 6
ENDMDL
MODEL      165
REMARK 921   NORMALIZED FREE ENERGY PREDICTED BY IDOCK:   -4.52 KCAL/MOL
REMARK 922        TOTAL FREE ENERGY PREDICTED BY IDOCK:   -6.34 KCAL/MOL
REMARK 923 INTER-LIGAND FREE ENERGY PREDICTED BY IDOCK:   -6.04 KCAL/MOL
REMARK 924 INTRA-LIGAND FREE ENERGY PREDICTED BY IDOCK:   -0.30 KCAL/MOL
REMARK 927      BINDING AFFINITY PREDICTED BY RF-SCORE:    0.00 PKD
ROOT
HETATM    1  O   UNL     1      -5.938  15.716  70.184  1.00  0.00    -0.160 OA 
HETATM    2  C   UNL     1      -6.385  14.403  69.850  1.00  0.00    -0.155 C  
HETATM    3  H   UNL     1      -5.336  15.672  70.917  1.00  0.00     0.000 HD 
ENDROOT
BRANCH   2   4
HETATM    4  C   UNL     1      -7.360  14.475  68.663  1.00  0.00    -0.128 C  
BRANCH   4   5
HETATM    5  N   UNL     1      -7.206  13.376  67.688  1.00  0.00    -0.150 NA 
HETATM    6  C   UNL     1      -6.438  12.239  68.229  1.00  0.00    -0.056 C  
HETATM    7  C   UNL     1      -7.187  11.436  69.309  1.00  0.00    -0.075 C  
HETATM    8  N   UNL     1      -8.502  10.907  68.890  1.00  0.00    -0.156 NA 
HETATM    9  C   UNL     1      -8.529  12.874  67.248  1.00  0.00    -0.197 C  
HETATM   10  C   UNL     1      -9.288  12.005  68.285  1.00  0.00    -0.197 C  
BRANCH   8  11
HETATM   11  C   UNL     1      -8.403   9.750  67.987  1.00  0.00    -0.110 C  
BRANCH  11  12
HETATM   12  C   UNL     1      -9.556   8.751  68.153  1.00  0.00    -0.162 C  
BRANCH  12  13
HETATM   13  C   UNL     1     -10.226   8.406  66.814  1.00  0.00    -0.306 C  
BRANCH  13  14
HETATM   14  N   UNL     1      -9.219   8.335  65.724  1.00  0.00    -0.131 NA 
HETATM   15  C   UNL     1      -8.492   7.111  65.591  1.00  0.00    -0.134 A  
HETATM   16  C   UNL     1      -8.523   6.092  66.574  1.00  0.00    -0.119 A  
HETATM   17  C   UNL     1      -7.797   4.899  66.460  1.00  0.00    -0.099 A  
HETATM   18  C   UNL     1      -7.006   4.675  65.350  1.00  0.00    -0.062 A  
HETATM   19  C   UNL     1      -6.947   5.648  64.360  1.00  0.00    -0.051 A  
HETATM   20  C   UNL     1      -7.676   6.852  64.470  1.00  0.00    -0.116 A  
HETATM   21  S   UNL     1      -7.485   7.964  63.100  1.00  0.00    -0.126 SA 
HETATM   22  C   UNL     1      -8.555   9.307  63.537  1.00  0.00    -0.191 A  
HETATM   23  C   UNL     1      -9.260   9.386  64.751  1.00  0.00    -0.156 A  
HETATM   24  C   UNL     1     -10.024  10.565  64.940  1.00  0.00    -0.401 A  
HETATM   25  C   UNL     1     -10.174  11.567  63.960  1.00  0.00    -0.394 A  
HETATM   26  C   UNL     1      -9.480  11.434  62.763  1.00  0.00    -0.314 A  
HETATM   27  C   UNL     1     -11.090  12.745  64.185  1.00  0.00    -0.389 C  
HETATM   28  F   UNL     1     -11.734  12.719  65.386  1.00  0.00    -0.349 F  
HETATM   29  F   UNL     1     -12.078  12.814  63.247  1.00  0.00    -0.534 F  
HETATM   30  F   UNL     1     -10.442  13.939  64.133  1.00  0.00    -0.383 F  
HETATM   31  C   UNL     1      -8.668  10.323  62.563  1.00  0.00    -0.237 A  
ENDBRANCH  13  14
ENDBRANCH  12  13
ENDBRANCH  11  12
ENDBRANCH   8  11
ENDBRANCH   4   5
ENDBRANCH   2   4
TORSDOF 6
ENDMDL
MODEL      166
REMARK 921   NORMALIZED FREE ENERGY PREDICTED BY IDOCK:   -4.49 KCAL/MOL
REMARK 922        TOTAL FREE ENERGY PREDICTED BY IDOCK:   -6.31 KCAL/MOL
REMARK 923 INTER-LIGAND FREE ENERGY PREDICTED BY IDOCK:   -5.90 KCAL/MOL
REMARK 924 INTRA-LIGAND FREE ENERGY PREDICTED BY IDOCK:   -0.41 KCAL/MOL
REMARK 927      BINDING AFFINITY PREDICTED BY RF-SCORE:    0.00 PKD
ROOT
HETATM    1  O   UNL     1     -10.936  16.064  65.150  1.00  0.00    -0.389 OA 
HETATM    2  C   UNL     1     -11.025  15.694  66.525  1.00  0.00    -0.206 C  
HETATM    3  H   UNL     1     -10.487  16.897  65.071  1.00  0.00     0.000 HD 
ENDROOT
BRANCH   2   4
HETATM    4  C   UNL     1     -11.752  14.345  66.651  1.00  0.00    -0.394 C  
BRANCH   4   5
HETATM    5  N   UNL     1     -10.946  13.183  66.225  1.00  0.00    -0.278 NA 
HETATM    6  C   UNL     1      -9.571  13.218  66.756  1.00  0.00    -0.258 C  
HETATM    7  C   UNL     1      -9.480  12.968  68.273  1.00  0.00    -0.208 C  
HETATM    8  N   UNL     1     -10.087  11.701  68.732  1.00  0.00    -0.191 NA 
HETATM    9  C   UNL     1     -11.579  11.916  66.660  1.00  0.00    -0.264 C  
HETATM   10  C   UNL     1     -11.454  11.596  68.172  1.00  0.00    -0.313 C  
BRANCH   8  11
HETATM   11  C   UNL     1      -9.277  10.518  68.411  1.00  0.00    -0.154 C  
BRANCH  11  12
HETATM   12  C   UNL     1      -8.881   9.699  69.647  1.00  0.00    -0.212 C  
BRANCH  12  13
HETATM   13  C   UNL     1      -7.850   8.608  69.318  1.00  0.00    -0.101 C  
BRANCH  13  14
HETATM   14  N   UNL     1      -8.526   7.360  68.878  1.00  0.00    -0.129 NA 
HETATM   15  C   UNL     1      -8.394   7.001  67.500  1.00  0.00    -0.119 A  
HETATM   16  C   UNL     1      -7.867   7.885  66.527  1.00  0.00    -0.098 A  
HETATM   17  C   UNL     1      -7.754   7.548  65.172  1.00  0.00    -0.111 A  
HETATM   18  C   UNL     1      -8.165   6.304  64.733  1.00  0.00    -0.100 A  
HETATM   19  C   UNL     1      -8.686   5.405  65.654  1.00  0.00    -0.152 A  
HETATM   20  C   UNL     1      -8.803   5.740  67.020  1.00  0.00    -0.112 A  
HETATM   21  S   UNL     1      -9.478   4.457  68.044  1.00  0.00    -0.150 SA 
HETATM   22  C   UNL     1      -9.429   5.183  69.660  1.00  0.00    -0.143 A  
HETATM   23  C   UNL     1      -9.013   6.501  69.916  1.00  0.00    -0.143 A  
HETATM   24  C   UNL     1      -9.095   6.917  71.269  1.00  0.00    -0.149 A  
HETATM   25  C   UNL     1      -9.465   6.067  72.330  1.00  0.00    -0.159 A  
HETATM   26  C   UNL     1      -9.841   4.762  72.033  1.00  0.00    -0.234 A  
HETATM   27  C   UNL     1      -9.425   6.544  73.761  1.00  0.00    -0.161 C  
HETATM   28  F   UNL     1      -8.997   7.830  73.900  1.00  0.00    -0.252 F  
HETATM   29  F   UNL     1      -8.580   5.798  74.528  1.00  0.00    -0.115 F  
HETATM   30  F   UNL     1     -10.638   6.484  74.374  1.00  0.00    -0.334 F  
HETATM   31  C   UNL     1      -9.838   4.332  70.711  1.00  0.00    -0.265 A  
ENDBRANCH  13  14
ENDBRANCH  12  13
ENDBRANCH  11  12
ENDBRANCH   8  11
ENDBRANCH   4   5
ENDBRANCH   2   4
TORSDOF 6
ENDMDL
MODEL      167
REMARK 921   NORMALIZED FREE ENERGY PREDICTED BY IDOCK:   -4.42 KCAL/MOL
REMARK 922        TOTAL FREE ENERGY PREDICTED BY IDOCK:   -6.21 KCAL/MOL
REMARK 923 INTER-LIGAND FREE ENERGY PREDICTED BY IDOCK:   -5.77 KCAL/MOL
REMARK 924 INTRA-LIGAND FREE ENERGY PREDICTED BY IDOCK:   -0.43 KCAL/MOL
REMARK 927      BINDING AFFINITY PREDICTED BY RF-SCORE:    0.00 PKD
ROOT
HETATM    1  O   UNL     1      -6.691   2.219  73.579  1.00  0.00    -0.020 OA 
HETATM    2  C   UNL     1      -8.076   2.560  73.577  1.00  0.00    -0.059 C  
HETATM    3  H   UNL     1      -6.495   1.679  74.336  1.00  0.00     0.000 HD 
ENDROOT
BRANCH   2   4
HETATM    4  C   UNL     1      -8.392   3.434  72.353  1.00  0.00    -0.083 C  
BRANCH   4   5
HETATM    5  N   UNL     1      -8.818   4.809  72.687  1.00  0.00    -0.114 NA 
HETATM    6  C   UNL     1      -7.814   5.822  72.316  1.00  0.00    -0.103 C  
HETATM    7  C   UNL     1      -7.667   6.030  70.797  1.00  0.00    -0.098 C  
HETATM    8  N   UNL     1      -8.917   6.385  70.094  1.00  0.00    -0.153 NA 
HETATM    9  C   UNL     1     -10.090   5.145  72.005  1.00  0.00    -0.197 C  
HETATM   10  C   UNL     1      -9.974   5.425  70.483  1.00  0.00    -0.221 C  
BRANCH   8  11
HETATM   11  C   UNL     1      -9.338   7.776  70.321  1.00  0.00    -0.156 C  
BRANCH  11  12
HETATM   12  C   UNL     1      -9.220   8.658  69.072  1.00  0.00    -0.145 C  
BRANCH  12  13
HETATM   13  C   UNL     1     -10.039   8.111  67.892  1.00  0.00    -0.196 C  
BRANCH  13  14
HETATM   14  N   UNL     1      -9.274   8.220  66.623  1.00  0.00    -0.167 NA 
HETATM   15  C   UNL     1      -8.503   7.082  66.231  1.00  0.00    -0.134 A  
HETATM   16  C   UNL     1      -8.258   5.989  67.096  1.00  0.00    -0.105 A  
HETATM   17  C   UNL     1      -7.486   4.880  66.726  1.00  0.00    -0.087 A  
HETATM   18  C   UNL     1      -6.925   4.819  65.465  1.00  0.00    -0.062 A  
HETATM   19  C   UNL     1      -7.141   5.870  64.582  1.00  0.00    -0.060 A  
HETATM   20  C   UNL     1      -7.917   6.990  64.951  1.00  0.00    -0.127 A  
HETATM   21  S   UNL     1      -8.092   8.221  63.685  1.00  0.00    -0.085 SA 
HETATM   22  C   UNL     1      -9.145   9.422  64.454  1.00  0.00    -0.127 A  
HETATM   23  C   UNL     1      -9.591   9.338  65.785  1.00  0.00    -0.271 A  
HETATM   24  C   UNL     1     -10.383  10.424  66.234  1.00  0.00    -0.270 A  
HETATM   25  C   UNL     1     -10.804  11.484  65.406  1.00  0.00    -0.318 A  
HETATM   26  C   UNL     1     -10.362  11.511  64.089  1.00  0.00    -0.386 A  
HETATM   27  C   UNL     1     -11.738  12.551  65.921  1.00  0.00    -0.426 C  
HETATM   28  F   UNL     1     -12.118  12.370  67.217  1.00  0.00    -0.417 F  
HETATM   29  F   UNL     1     -12.899  12.605  65.208  1.00  0.00    -0.541 F  
HETATM   30  F   UNL     1     -11.202  13.800  65.859  1.00  0.00    -0.298 F  
HETATM   31  C   UNL     1      -9.529  10.499  63.625  1.00  0.00    -0.347 A  
ENDBRANCH  13  14
ENDBRANCH  12  13
ENDBRANCH  11  12
ENDBRANCH   8  11
ENDBRANCH   4   5
ENDBRANCH   2   4
TORSDOF 6
ENDMDL
MODEL      168
REMARK 921   NORMALIZED FREE ENERGY PREDICTED BY IDOCK:   -4.39 KCAL/MOL
REMARK 922        TOTAL FREE ENERGY PREDICTED BY IDOCK:   -6.17 KCAL/MOL
REMARK 923 INTER-LIGAND FREE ENERGY PREDICTED BY IDOCK:   -5.50 KCAL/MOL
REMARK 924 INTRA-LIGAND FREE ENERGY PREDICTED BY IDOCK:   -0.67 KCAL/MOL
REMARK 927      BINDING AFFINITY PREDICTED BY RF-SCORE:    0.00 PKD
ROOT
HETATM    1  O   UNL     1     -12.170  16.231  71.381  1.00  0.00    -0.601 OA 
HETATM    2  C   UNL     1     -13.303  15.406  71.645  1.00  0.00    -0.490 C  
HETATM    3  H   UNL     1     -12.182  16.985  71.958  1.00  0.00     0.000 HD 
ENDROOT
BRANCH   2   4
HETATM    4  C   UNL     1     -13.284  14.185  70.710  1.00  0.00    -0.152 C  
BRANCH   4   5
HETATM    5  N   UNL     1     -12.049  13.378  70.798  1.00  0.00    -0.316 NA 
HETATM    6  C   UNL     1     -12.314  11.970  71.146  1.00  0.00    -0.177 C  
HETATM    7  C   UNL     1     -12.992  11.165  70.021  1.00  0.00     0.189 C  
HETATM    8  N   UNL     1     -12.265  11.161  68.734  1.00  0.00    -0.535 NA 
HETATM    9  C   UNL     1     -11.310  13.407  69.514  1.00  0.00    -0.183 C  
HETATM   10  C   UNL     1     -11.926  12.556  68.373  1.00  0.00    -0.221 C  
BRANCH   8  11
HETATM   11  C   UNL     1     -11.074  10.298  68.740  1.00  0.00    -0.228 C  
BRANCH  11  12
HETATM   12  C   UNL     1     -10.714   9.751  67.353  1.00  0.00    -0.314 C  
BRANCH  12  13
HETATM   13  C   UNL     1      -9.268  10.083  66.952  1.00  0.00    -0.147 C  
BRANCH  13  14
HETATM   14  N   UNL     1      -8.375  10.063  68.139  1.00  0.00    -0.113 NA 
HETATM   15  C   UNL     1      -7.963   8.781  68.619  1.00  0.00    -0.107 A  
HETATM   16  C   UNL     1      -8.548   7.572  68.170  1.00  0.00    -0.123 A  
HETATM   17  C   UNL     1      -8.163   6.313  68.652  1.00  0.00    -0.112 A  
HETATM   18  C   UNL     1      -7.170   6.213  69.606  1.00  0.00    -0.074 A  
HETATM   19  C   UNL     1      -6.567   7.373  70.073  1.00  0.00    -0.046 A  
HETATM   20  C   UNL     1      -6.952   8.644  69.593  1.00  0.00    -0.050 A  
HETATM   21  S   UNL     1      -6.057  10.006  70.297  1.00  0.00    -0.094 SA 
HETATM   22  C   UNL     1      -6.742  11.402  69.446  1.00  0.00    -0.122 A  
HETATM   23  C   UNL     1      -7.798  11.317  68.522  1.00  0.00    -0.138 A  
HETATM   24  C   UNL     1      -8.243  12.552  67.987  1.00  0.00    -0.166 A  
HETATM   25  C   UNL     1      -7.629  13.791  68.257  1.00  0.00    -0.129 A  
HETATM   26  C   UNL     1      -6.569  13.823  69.156  1.00  0.00    -0.112 A  
HETATM   27  C   UNL     1      -8.084  15.053  67.567  1.00  0.00    -0.181 C  
HETATM   28  F   UNL     1      -9.104  14.860  66.684  1.00  0.00    -0.234 F  
HETATM   29  F   UNL     1      -7.084  15.633  66.843  1.00  0.00    -0.229 F  
HETATM   30  F   UNL     1      -8.517  16.006  68.436  1.00  0.00    -0.161 F  
HETATM   31  C   UNL     1      -6.143  12.643  69.755  1.00  0.00    -0.134 A  
ENDBRANCH  13  14
ENDBRANCH  12  13
ENDBRANCH  11  12
ENDBRANCH   8  11
ENDBRANCH   4   5
ENDBRANCH   2   4
TORSDOF 6
ENDMDL
MODEL      169
REMARK 921   NORMALIZED FREE ENERGY PREDICTED BY IDOCK:   -4.37 KCAL/MOL
REMARK 922        TOTAL FREE ENERGY PREDICTED BY IDOCK:   -6.14 KCAL/MOL
REMARK 923 INTER-LIGAND FREE ENERGY PREDICTED BY IDOCK:   -6.18 KCAL/MOL
REMARK 924 INTRA-LIGAND FREE ENERGY PREDICTED BY IDOCK:    0.04 KCAL/MOL
REMARK 927      BINDING AFFINITY PREDICTED BY RF-SCORE:    0.00 PKD
ROOT
HETATM    1  O   UNL     1     -11.395   2.111  63.206  1.00  0.00    -0.432 OA 
HETATM    2  C   UNL     1     -10.289   2.990  63.401  1.00  0.00    -0.197 C  
HETATM    3  H   UNL     1     -12.096   2.572  62.762  1.00  0.00     0.000 HD 
ENDROOT
BRANCH   2   4
HETATM    4  C   UNL     1      -9.154   2.242  64.120  1.00  0.00    -0.112 C  
BRANCH   4   5
HETATM    5  N   UNL     1      -8.204   3.124  64.828  1.00  0.00    -0.090 NA 
HETATM    6  C   UNL     1      -8.869   4.260  65.492  1.00  0.00    -0.124 C  
HETATM    7  C   UNL     1      -9.711   3.861  66.718  1.00  0.00    -0.162 C  
HETATM    8  N   UNL     1      -8.975   3.121  67.765  1.00  0.00    -0.136 NA 
HETATM    9  C   UNL     1      -7.446   2.368  65.852  1.00  0.00    -0.067 C  
HETATM   10  C   UNL     1      -8.242   2.002  67.132  1.00  0.00    -0.075 C  
BRANCH   8  11
HETATM   11  C   UNL     1      -8.080   3.974  68.560  1.00  0.00    -0.075 C  
BRANCH  11  12
HETATM   12  C   UNL     1      -8.723   5.303  68.979  1.00  0.00    -0.104 C  
BRANCH  12  13
HETATM   13  C   UNL     1     -10.206   5.143  69.349  1.00  0.00    -0.223 C  
BRANCH  13  14
HETATM   14  N   UNL     1     -10.546   5.969  70.536  1.00  0.00    -0.246 NA 
HETATM   15  C   UNL     1     -10.485   5.327  71.812  1.00  0.00    -0.214 A  
HETATM   16  C   UNL     1     -10.355   3.925  71.957  1.00  0.00    -0.101 A  
HETATM   17  C   UNL     1     -10.316   3.287  73.205  1.00  0.00    -0.242 A  
HETATM   18  C   UNL     1     -10.404   4.032  74.364  1.00  0.00    -0.272 A  
HETATM   19  C   UNL     1     -10.531   5.412  74.269  1.00  0.00    -0.294 A  
HETATM   20  C   UNL     1     -10.573   6.059  73.015  1.00  0.00    -0.240 A  
HETATM   21  S   UNL     1     -10.723   7.826  73.096  1.00  0.00    -0.261 SA 
HETATM   22  C   UNL     1     -10.687   8.297  71.388  1.00  0.00    -0.227 A  
HETATM   23  C   UNL     1     -10.638   7.382  70.321  1.00  0.00    -0.231 A  
HETATM   24  C   UNL     1     -10.670   7.952  69.024  1.00  0.00    -0.113 A  
HETATM   25  C   UNL     1     -10.650   9.339  68.776  1.00  0.00    -0.220 A  
HETATM   26  C   UNL     1     -10.671  10.207  69.861  1.00  0.00    -0.340 A  
HETATM   27  C   UNL     1     -10.575   9.878  67.368  1.00  0.00    -0.277 C  
HETATM   28  F   UNL     1     -10.518   8.909  66.411  1.00  0.00    -0.348 F  
HETATM   29  F   UNL     1      -9.465  10.646  67.170  1.00  0.00    -0.159 F  
HETATM   30  F   UNL     1     -11.636  10.664  67.043  1.00  0.00    -0.233 F  
HETATM   31  C   UNL     1     -10.706   9.689  71.151  1.00  0.00    -0.365 A  
ENDBRANCH  13  14
ENDBRANCH  12  13
ENDBRANCH  11  12
ENDBRANCH   8  11
ENDBRANCH   4   5
ENDBRANCH   2   4
TORSDOF 6
ENDMDL
MODEL      170
REMARK 921   NORMALIZED FREE ENERGY PREDICTED BY IDOCK:   -4.36 KCAL/MOL
REMARK 922        TOTAL FREE ENERGY PREDICTED BY IDOCK:   -6.13 KCAL/MOL
REMARK 923 INTER-LIGAND FREE ENERGY PREDICTED BY IDOCK:   -5.56 KCAL/MOL
REMARK 924 INTRA-LIGAND FREE ENERGY PREDICTED BY IDOCK:   -0.57 KCAL/MOL
REMARK 927      BINDING AFFINITY PREDICTED BY RF-SCORE:    0.00 PKD
ROOT
HETATM    1  O   UNL     1      -6.070  11.241  62.346  1.00  0.00    -0.353 OA 
HETATM    2  C   UNL     1      -5.306  10.046  62.501  1.00  0.00    -0.092 C  
HETATM    3  H   UNL     1      -5.615  11.838  61.764  1.00  0.00     0.000 HD 
ENDROOT
BRANCH   2   4
HETATM    4  C   UNL     1      -6.043   9.080  63.443  1.00  0.00    -0.088 C  
BRANCH   4   5
HETATM    5  N   UNL     1      -7.104   9.716  64.250  1.00  0.00    -0.113 NA 
HETATM    6  C   UNL     1      -8.370   8.959  64.223  1.00  0.00    -0.169 C  
HETATM    7  C   UNL     1      -8.317   7.625  64.992  1.00  0.00    -0.071 C  
HETATM    8  N   UNL     1      -7.913   7.740  66.409  1.00  0.00    -0.097 NA 
HETATM    9  C   UNL     1      -6.679   9.857  65.662  1.00  0.00    -0.098 C  
HETATM   10  C   UNL     1      -6.673   8.545  66.489  1.00  0.00    -0.067 C  
BRANCH   8  11
HETATM   11  C   UNL     1      -8.970   8.285  67.273  1.00  0.00    -0.137 C  
BRANCH  11  12
HETATM   12  C   UNL     1      -9.228   7.437  68.526  1.00  0.00    -0.142 C  
BRANCH  12  13
HETATM   13  C   UNL     1      -8.859   8.180  69.819  1.00  0.00    -0.143 C  
BRANCH  13  14
HETATM   14  N   UNL     1      -9.990   8.156  70.782  1.00  0.00    -0.187 NA 
HETATM   15  C   UNL     1     -10.915   9.245  70.724  1.00  0.00    -0.284 A  
HETATM   16  C   UNL     1     -10.667  10.420  69.975  1.00  0.00    -0.321 A  
HETATM   17  C   UNL     1     -11.559  11.500  69.930  1.00  0.00    -0.387 A  
HETATM   18  C   UNL     1     -12.746  11.445  70.635  1.00  0.00    -0.282 A  
HETATM   19  C   UNL     1     -13.032  10.308  71.381  1.00  0.00    -0.540 A  
HETATM   20  C   UNL     1     -12.135   9.219  71.431  1.00  0.00    -0.348 A  
HETATM   21  S   UNL     1     -12.681   7.853  72.424  1.00  0.00     0.002 SA 
HETATM   22  C   UNL     1     -11.373   6.675  72.218  1.00  0.00    -0.275 A  
HETATM   23  C   UNL     1     -10.199   6.926  71.486  1.00  0.00    -0.196 A  
HETATM   24  C   UNL     1      -9.245   5.878  71.481  1.00  0.00    -0.157 A  
HETATM   25  C   UNL     1      -9.463   4.616  72.071  1.00  0.00    -0.191 A  
HETATM   26  C   UNL     1     -10.651   4.403  72.760  1.00  0.00    -0.254 A  
HETATM   27  C   UNL     1      -8.449   3.507  71.934  1.00  0.00    -0.081 C  
HETATM   28  F   UNL     1      -7.355   3.850  71.197  1.00  0.00    -0.037 F  
HETATM   29  F   UNL     1      -8.970   2.408  71.317  1.00  0.00    -0.099 F  
HETATM   30  F   UNL     1      -7.973   3.072  73.132  1.00  0.00    -0.059 F  
HETATM   31  C   UNL     1     -11.587   5.428  72.845  1.00  0.00    -0.296 A  
ENDBRANCH  13  14
ENDBRANCH  12  13
ENDBRANCH  11  12
ENDBRANCH   8  11
ENDBRANCH   4   5
ENDBRANCH   2   4
TORSDOF 6
ENDMDL
MODEL      171
REMARK 921   NORMALIZED FREE ENERGY PREDICTED BY IDOCK:   -4.32 KCAL/MOL
REMARK 922        TOTAL FREE ENERGY PREDICTED BY IDOCK:   -6.07 KCAL/MOL
REMARK 923 INTER-LIGAND FREE ENERGY PREDICTED BY IDOCK:   -5.79 KCAL/MOL
REMARK 924 INTRA-LIGAND FREE ENERGY PREDICTED BY IDOCK:   -0.28 KCAL/MOL
REMARK 927      BINDING AFFINITY PREDICTED BY RF-SCORE:    0.00 PKD
ROOT
HETATM    1  O   UNL     1      -7.354   2.544  64.253  1.00  0.00    -0.056 OA 
HETATM    2  C   UNL     1      -7.198   1.880  65.506  1.00  0.00    -0.053 C  
HETATM    3  H   UNL     1      -7.316   1.908  63.548  1.00  0.00     0.000 HD 
ENDROOT
BRANCH   2   4
HETATM    4  C   UNL     1      -7.258   2.909  66.647  1.00  0.00    -0.062 C  
BRANCH   4   5
HETATM    5  N   UNL     1      -8.625   3.198  67.127  1.00  0.00    -0.105 NA 
HETATM    6  C   UNL     1      -8.639   4.069  68.316  1.00  0.00    -0.095 C  
HETATM    7  C   UNL     1      -8.224   5.524  68.029  1.00  0.00    -0.100 C  
HETATM    8  N   UNL     1      -9.021   6.205  66.988  1.00  0.00    -0.113 NA 
HETATM    9  C   UNL     1      -9.428   3.849  66.065  1.00  0.00    -0.180 C  
HETATM   10  C   UNL     1      -9.084   5.337  65.791  1.00  0.00    -0.157 C  
BRANCH   8  11
HETATM   11  C   UNL     1     -10.363   6.596  67.445  1.00  0.00    -0.220 C  
BRANCH  11  12
HETATM   12  C   UNL     1     -10.780   7.995  66.973  1.00  0.00    -0.263 C  
BRANCH  12  13
HETATM   13  C   UNL     1      -9.792   9.082  67.424  1.00  0.00    -0.190 C  
BRANCH  13  14
HETATM   14  N   UNL     1      -9.979  10.326  66.635  1.00  0.00    -0.207 NA 
HETATM   15  C   UNL     1      -9.668  10.264  65.241  1.00  0.00    -0.291 A  
HETATM   16  C   UNL     1      -8.983   9.170  64.659  1.00  0.00    -0.159 A  
HETATM   17  C   UNL     1      -8.656   9.112  63.297  1.00  0.00    -0.182 A  
HETATM   18  C   UNL     1      -9.005  10.152  62.458  1.00  0.00    -0.284 A  
HETATM   19  C   UNL     1      -9.680  11.245  62.987  1.00  0.00    -0.389 A  
HETATM   20  C   UNL     1     -10.010  11.309  64.358  1.00  0.00    -0.288 A  
HETATM   21  S   UNL     1     -10.885  12.775  64.843  1.00  0.00    -0.314 SA 
HETATM   22  C   UNL     1     -11.180  12.499  66.569  1.00  0.00    -0.307 A  
HETATM   23  C   UNL     1     -10.702  11.383  67.278  1.00  0.00    -0.241 A  
HETATM   24  C   UNL     1     -10.997  11.368  68.664  1.00  0.00    -0.267 A  
HETATM   25  C   UNL     1     -11.797  12.333  69.307  1.00  0.00    -0.363 A  
HETATM   26  C   UNL     1     -12.271  13.405  68.560  1.00  0.00    -0.132 A  
HETATM   27  C   UNL     1     -12.162  12.197  70.765  1.00  0.00    -0.271 C  
HETATM   28  F   UNL     1     -11.660  11.075  71.355  1.00  0.00    -0.197 F  
HETATM   29  F   UNL     1     -13.511  12.130  70.953  1.00  0.00    -0.008 F  
HETATM   30  F   UNL     1     -11.731  13.242  71.520  1.00  0.00     0.115 F  
HETATM   31  C   UNL     1     -11.951  13.493  67.210  1.00  0.00    -0.408 A  
ENDBRANCH  13  14
ENDBRANCH  12  13
ENDBRANCH  11  12
ENDBRANCH   8  11
ENDBRANCH   4   5
ENDBRANCH   2   4
TORSDOF 6
ENDMDL
MODEL      172
REMARK 921   NORMALIZED FREE ENERGY PREDICTED BY IDOCK:   -4.32 KCAL/MOL
REMARK 922        TOTAL FREE ENERGY PREDICTED BY IDOCK:   -6.07 KCAL/MOL
REMARK 923 INTER-LIGAND FREE ENERGY PREDICTED BY IDOCK:   -6.13 KCAL/MOL
REMARK 924 INTRA-LIGAND FREE ENERGY PREDICTED BY IDOCK:    0.06 KCAL/MOL
REMARK 927      BINDING AFFINITY PREDICTED BY RF-SCORE:    0.00 PKD
ROOT
HETATM    1  O   UNL     1     -13.809  12.281  72.880  1.00  0.00    -0.466 OA 
HETATM    2  C   UNL     1     -13.218  11.598  71.776  1.00  0.00    -0.333 C  
HETATM    3  H   UNL     1     -14.503  11.749  73.251  1.00  0.00     0.000 HD 
ENDROOT
BRANCH   2   4
HETATM    4  C   UNL     1     -12.095  12.460  71.175  1.00  0.00     0.225 C  
BRANCH   4   5
HETATM    5  N   UNL     1     -12.413  13.025  69.848  1.00  0.00    -0.080 NA 
HETATM    6  C   UNL     1     -13.260  14.230  69.930  1.00  0.00     0.736 C  
HETATM    7  C   UNL     1     -12.536  15.465  70.497  1.00  0.00    -0.423 C  
HETATM    8  N   UNL     1     -11.307  15.852  69.775  1.00  0.00    -0.323 NA 
HETATM    9  C   UNL     1     -11.174  13.379  69.117  1.00  0.00    -0.248 C  
HETATM   10  C   UNL     1     -10.449  14.656  69.617  1.00  0.00    -0.055 C  
BRANCH   8  11
HETATM   11  C   UNL     1     -11.571  16.503  68.483  1.00  0.00    -0.010 C  
BRANCH  11  12
HETATM   12  C   UNL     1     -10.774  17.799  68.283  1.00  0.00    -0.255 C  
BRANCH  12  13
HETATM   13  C   UNL     1      -9.843  17.728  67.062  1.00  0.00    -0.309 C  
BRANCH  13  14
HETATM   14  N   UNL     1      -8.650  16.891  67.357  1.00  0.00    -0.200 NA 
HETATM   15  C   UNL     1      -7.628  17.480  68.164  1.00  0.00    -0.221 A  
HETATM   16  C   UNL     1      -7.602  18.860  68.479  1.00  0.00    -0.357 A  
HETATM   17  C   UNL     1      -6.592  19.448  69.252  1.00  0.00    -0.361 A  
HETATM   18  C   UNL     1      -5.562  18.672  69.748  1.00  0.00    -0.234 A  
HETATM   19  C   UNL     1      -5.549  17.312  69.466  1.00  0.00    -0.201 A  
HETATM   20  C   UNL     1      -6.563  16.716  68.685  1.00  0.00    -0.159 A  
HETATM   21  S   UNL     1      -6.384  14.966  68.446  1.00  0.00    -0.115 SA 
HETATM   22  C   UNL     1      -7.823  14.554  67.497  1.00  0.00    -0.193 A  
HETATM   23  C   UNL     1      -8.756  15.499  67.035  1.00  0.00    -0.231 A  
HETATM   24  C   UNL     1      -9.813  14.981  66.245  1.00  0.00    -0.307 A  
HETATM   25  C   UNL     1     -10.008  13.607  66.002  1.00  0.00    -0.313 A  
HETATM   26  C   UNL     1      -9.075  12.705  66.501  1.00  0.00    -0.163 A  
HETATM   27  C   UNL     1     -11.216  13.114  65.244  1.00  0.00    -0.291 C  
HETATM   28  F   UNL     1     -12.063  14.108  64.853  1.00  0.00    -0.355 F  
HETATM   29  F   UNL     1     -11.979  12.263  65.989  1.00  0.00    -0.443 F  
HETATM   30  F   UNL     1     -10.892  12.432  64.113  1.00  0.00    -0.303 F  
HETATM   31  C   UNL     1      -7.987  13.178  67.226  1.00  0.00    -0.140 A  
ENDBRANCH  13  14
ENDBRANCH  12  13
ENDBRANCH  11  12
ENDBRANCH   8  11
ENDBRANCH   4   5
ENDBRANCH   2   4
TORSDOF 6
ENDMDL
MODEL      173
REMARK 921   NORMALIZED FREE ENERGY PREDICTED BY IDOCK:   -4.30 KCAL/MOL
REMARK 922        TOTAL FREE ENERGY PREDICTED BY IDOCK:   -6.04 KCAL/MOL
REMARK 923 INTER-LIGAND FREE ENERGY PREDICTED BY IDOCK:   -5.97 KCAL/MOL
REMARK 924 INTRA-LIGAND FREE ENERGY PREDICTED BY IDOCK:   -0.07 KCAL/MOL
REMARK 927      BINDING AFFINITY PREDICTED BY RF-SCORE:    0.00 PKD
ROOT
HETATM    1  O   UNL     1      -8.599   8.898  69.328  1.00  0.00    -0.128 OA 
HETATM    2  C   UNL     1      -8.068   8.426  68.091  1.00  0.00    -0.120 C  
HETATM    3  H   UNL     1      -7.936   8.837  70.005  1.00  0.00     0.000 HD 
ENDROOT
BRANCH   2   4
HETATM    4  C   UNL     1      -9.142   8.525  66.996  1.00  0.00    -0.143 C  
BRANCH   4   5
HETATM    5  N   UNL     1      -8.774   9.405  65.868  1.00  0.00    -0.146 NA 
HETATM    6  C   UNL     1      -9.945   9.870  65.102  1.00  0.00    -0.208 C  
HETATM    7  C   UNL     1     -10.824  10.883  65.858  1.00  0.00    -0.062 C  
HETATM    8  N   UNL     1     -10.115  12.090  66.334  1.00  0.00    -0.214 NA 
HETATM    9  C   UNL     1      -8.034  10.595  66.350  1.00  0.00    -0.142 C  
HETATM   10  C   UNL     1      -8.896  11.671  67.061  1.00  0.00    -0.177 C  
BRANCH   8  11
HETATM   11  C   UNL     1      -9.804  13.044  65.259  1.00  0.00    -0.085 C  
BRANCH  11  12
HETATM   12  C   UNL     1     -10.016  14.508  65.667  1.00  0.00    -0.376 C  
BRANCH  12  13
HETATM   13  C   UNL     1      -9.000  14.971  66.724  1.00  0.00    -0.265 C  
BRANCH  13  14
HETATM   14  N   UNL     1      -9.617  15.955  67.652  1.00  0.00    -0.220 NA 
HETATM   15  C   UNL     1     -10.481  15.437  68.666  1.00  0.00    -0.237 A  
HETATM   16  C   UNL     1     -10.944  14.099  68.667  1.00  0.00    -0.275 A  
HETATM   17  C   UNL     1     -11.807  13.591  69.647  1.00  0.00    -0.398 A  
HETATM   18  C   UNL     1     -12.244  14.407  70.673  1.00  0.00    -0.414 A  
HETATM   19  C   UNL     1     -11.813  15.726  70.712  1.00  0.00    -0.438 A  
HETATM   20  C   UNL     1     -10.944  16.243  69.727  1.00  0.00    -0.354 A  
HETATM   21  S   UNL     1     -10.493  17.945  69.954  1.00  0.00     1.203 SA 
HETATM   22  C   UNL     1      -9.380  18.235  68.605  1.00  0.00    -0.303 A  
HETATM   23  C   UNL     1      -9.083  17.284  67.614  1.00  0.00    -0.228 A  
HETATM   24  C   UNL     1      -8.210  17.722  66.586  1.00  0.00    -0.287 A  
HETATM   25  C   UNL     1      -7.582  18.983  66.577  1.00  0.00    -0.264 A  
HETATM   26  C   UNL     1      -7.884  19.883  67.592  1.00  0.00    -0.325 A  
HETATM   27  C   UNL     1      -6.578  19.345  65.510  1.00  0.00    -0.267 C  
HETATM   28  F   UNL     1      -6.353  18.350  64.606  1.00  0.00    -0.232 F  
HETATM   29  F   UNL     1      -5.354  19.640  66.034  1.00  0.00    -0.156 F  
HETATM   30  F   UNL     1      -6.945  20.435  64.783  1.00  0.00    -0.329 F  
HETATM   31  C   UNL     1      -8.786  19.516  68.585  1.00  0.00    -0.377 A  
ENDBRANCH  13  14
ENDBRANCH  12  13
ENDBRANCH  11  12
ENDBRANCH   8  11
ENDBRANCH   4   5
ENDBRANCH   2   4
TORSDOF 6
ENDMDL
MODEL      174
REMARK 921   NORMALIZED FREE ENERGY PREDICTED BY IDOCK:   -4.28 KCAL/MOL
REMARK 922        TOTAL FREE ENERGY PREDICTED BY IDOCK:   -6.02 KCAL/MOL
REMARK 923 INTER-LIGAND FREE ENERGY PREDICTED BY IDOCK:   -5.71 KCAL/MOL
REMARK 924 INTRA-LIGAND FREE ENERGY PREDICTED BY IDOCK:   -0.31 KCAL/MOL
REMARK 927      BINDING AFFINITY PREDICTED BY RF-SCORE:    0.00 PKD
ROOT
HETATM    1  O   UNL     1      -7.462   9.087  74.535  1.00  0.00    -0.418 OA 
HETATM    2  C   UNL     1      -7.776   7.804  73.998  1.00  0.00    -0.166 C  
HETATM    3  H   UNL     1      -6.523   9.162  74.658  1.00  0.00     0.000 HD 
ENDROOT
BRANCH   2   4
HETATM    4  C   UNL     1      -9.296   7.684  73.799  1.00  0.00    -0.267 C  
BRANCH   4   5
HETATM    5  N   UNL     1      -9.786   8.270  72.535  1.00  0.00    -0.284 NA 
HETATM    6  C   UNL     1      -9.168   7.657  71.345  1.00  0.00    -0.136 C  
HETATM    7  C   UNL     1      -9.625   6.210  71.078  1.00  0.00    -0.175 C  
HETATM    8  N   UNL     1     -11.086   6.035  70.942  1.00  0.00    -0.296 NA 
HETATM    9  C   UNL     1     -11.256   8.120  72.422  1.00  0.00    -0.386 C  
HETATM   10  C   UNL     1     -11.755   6.689  72.089  1.00  0.00    -0.304 C  
BRANCH   8  11
HETATM   11  C   UNL     1     -11.614   6.522  69.658  1.00  0.00    -0.283 C  
BRANCH  11  12
HETATM   12  C   UNL     1     -10.805   6.038  68.447  1.00  0.00    -0.361 C  
BRANCH  12  13
HETATM   13  C   UNL     1     -11.083   6.875  67.188  1.00  0.00    -0.292 C  
BRANCH  13  14
HETATM   14  N   UNL     1      -9.826   7.461  66.657  1.00  0.00    -0.209 NA 
HETATM   15  C   UNL     1      -9.721   8.887  66.663  1.00  0.00    -0.237 A  
HETATM   16  C   UNL     1     -10.826   9.733  66.922  1.00  0.00    -0.120 A  
HETATM   17  C   UNL     1     -10.736  11.132  66.909  1.00  0.00    -0.322 A  
HETATM   18  C   UNL     1      -9.527  11.743  66.637  1.00  0.00    -0.215 A  
HETATM   19  C   UNL     1      -8.416  10.951  66.379  1.00  0.00    -0.163 A  
HETATM   20  C   UNL     1      -8.502   9.542  66.389  1.00  0.00    -0.126 A  
HETATM   21  S   UNL     1      -6.976   8.702  66.052  1.00  0.00    -0.080 SA 
HETATM   22  C   UNL     1      -7.430   6.995  66.199  1.00  0.00    -0.080 A  
HETATM   23  C   UNL     1      -8.741   6.550  66.441  1.00  0.00    -0.140 A  
HETATM   24  C   UNL     1      -8.914   5.143  66.472  1.00  0.00    -0.118 A  
HETATM   25  C   UNL     1      -7.853   4.221  66.373  1.00  0.00    -0.094 A  
HETATM   26  C   UNL     1      -6.569   4.707  66.162  1.00  0.00    -0.045 A  
HETATM   27  C   UNL     1      -8.094   2.739  66.524  1.00  0.00    -0.082 C  
HETATM   28  F   UNL     1      -9.395   2.415  66.768  1.00  0.00    -0.154 F  
HETATM   29  F   UNL     1      -7.389   2.207  67.563  1.00  0.00    -0.052 F  
HETATM   30  F   UNL     1      -7.731   2.027  65.423  1.00  0.00    -0.066 F  
HETATM   31  C   UNL     1      -6.364   6.079  66.060  1.00  0.00    -0.042 A  
ENDBRANCH  13  14
ENDBRANCH  12  13
ENDBRANCH  11  12
ENDBRANCH   8  11
ENDBRANCH   4   5
ENDBRANCH   2   4
TORSDOF 6
ENDMDL
MODEL      175
REMARK 921   NORMALIZED FREE ENERGY PREDICTED BY IDOCK:   -4.27 KCAL/MOL
REMARK 922        TOTAL FREE ENERGY PREDICTED BY IDOCK:   -6.00 KCAL/MOL
REMARK 923 INTER-LIGAND FREE ENERGY PREDICTED BY IDOCK:   -5.30 KCAL/MOL
REMARK 924 INTRA-LIGAND FREE ENERGY PREDICTED BY IDOCK:   -0.70 KCAL/MOL
REMARK 927      BINDING AFFINITY PREDICTED BY RF-SCORE:    0.00 PKD
ROOT
HETATM    1  O   UNL     1      -8.122   2.106  64.558  1.00  0.00    -0.073 OA 
HETATM    2  C   UNL     1      -8.177   1.925  65.972  1.00  0.00    -0.085 C  
HETATM    3  H   UNL     1      -8.107   1.260  64.127  1.00  0.00     0.000 HD 
ENDROOT
BRANCH   2   4
HETATM    4  C   UNL     1      -8.201   3.295  66.669  1.00  0.00    -0.096 C  
BRANCH   4   5
HETATM    5  N   UNL     1      -9.549   3.886  66.792  1.00  0.00    -0.207 NA 
HETATM    6  C   UNL     1      -9.801   4.455  68.128  1.00  0.00    -0.066 C  
HETATM    7  C   UNL     1      -9.002   5.738  68.422  1.00  0.00    -0.111 C  
HETATM    8  N   UNL     1      -9.196   6.830  67.445  1.00  0.00    -0.126 NA 
HETATM    9  C   UNL     1      -9.748   4.956  65.787  1.00  0.00    -0.169 C  
HETATM   10  C   UNL     1      -9.009   6.288  66.080  1.00  0.00    -0.153 C  
BRANCH   8  11
HETATM   11  C   UNL     1     -10.491   7.512  67.585  1.00  0.00    -0.250 C  
BRANCH  11  12
HETATM   12  C   UNL     1     -10.574   8.824  66.794  1.00  0.00    -0.220 C  
BRANCH  12  13
HETATM   13  C   UNL     1     -10.899  10.028  67.693  1.00  0.00    -0.278 C  
BRANCH  13  14
HETATM   14  N   UNL     1      -9.950  11.144  67.442  1.00  0.00    -0.177 NA 
HETATM   15  C   UNL     1     -10.414  12.218  66.622  1.00  0.00    -0.222 A  
HETATM   16  C   UNL     1     -11.612  12.145  65.871  1.00  0.00    -0.425 A  
HETATM   17  C   UNL     1     -12.063  13.186  65.048  1.00  0.00    -0.458 A  
HETATM   18  C   UNL     1     -11.329  14.352  64.945  1.00  0.00    -0.380 A  
HETATM   19  C   UNL     1     -10.148  14.468  65.667  1.00  0.00    -0.384 A  
HETATM   20  C   UNL     1      -9.689  13.421  66.495  1.00  0.00    -0.282 A  
HETATM   21  S   UNL     1      -8.170  13.761  67.348  1.00  0.00    -0.169 SA 
HETATM   22  C   UNL     1      -7.929  12.294  68.313  1.00  0.00    -0.163 A  
HETATM   23  C   UNL     1      -8.771  11.169  68.255  1.00  0.00    -0.151 A  
HETATM   24  C   UNL     1      -8.382  10.072  69.064  1.00  0.00    -0.134 A  
HETATM   25  C   UNL     1      -7.292  10.103  69.957  1.00  0.00    -0.172 A  
HETATM   26  C   UNL     1      -6.504  11.247  70.001  1.00  0.00    -0.114 A  
HETATM   27  C   UNL     1      -7.000   8.937  70.870  1.00  0.00    -0.080 C  
HETATM   28  F   UNL     1      -7.881   7.906  70.743  1.00  0.00    -0.083 F  
HETATM   29  F   UNL     1      -7.045   9.291  72.186  1.00  0.00     0.030 F  
HETATM   30  F   UNL     1      -5.766   8.403  70.669  1.00  0.00    -0.028 F  
HETATM   31  C   UNL     1      -6.811  12.323  69.176  1.00  0.00    -0.073 A  
ENDBRANCH  13  14
ENDBRANCH  12  13
ENDBRANCH  11  12
ENDBRANCH   8  11
ENDBRANCH   4   5
ENDBRANCH   2   4
TORSDOF 6
ENDMDL
MODEL      176
REMARK 921   NORMALIZED FREE ENERGY PREDICTED BY IDOCK:   -4.21 KCAL/MOL
REMARK 922        TOTAL FREE ENERGY PREDICTED BY IDOCK:   -5.93 KCAL/MOL
REMARK 923 INTER-LIGAND FREE ENERGY PREDICTED BY IDOCK:   -5.68 KCAL/MOL
REMARK 924 INTRA-LIGAND FREE ENERGY PREDICTED BY IDOCK:   -0.25 KCAL/MOL
REMARK 927      BINDING AFFINITY PREDICTED BY RF-SCORE:    0.00 PKD
ROOT
HETATM    1  O   UNL     1      -7.741  10.183  63.380  1.00  0.00    -0.152 OA 
HETATM    2  C   UNL     1      -8.949  10.064  62.631  1.00  0.00    -0.269 C  
HETATM    3  H   UNL     1      -7.277   9.354  63.373  1.00  0.00     0.000 HD 
ENDROOT
BRANCH   2   4
HETATM    4  C   UNL     1      -9.700  11.406  62.644  1.00  0.00    -0.084 C  
BRANCH   4   5
HETATM    5  N   UNL     1     -10.984  11.371  63.374  1.00  0.00    -0.338 NA 
HETATM    6  C   UNL     1     -10.844  10.848  64.746  1.00  0.00    -0.083 C  
HETATM    7  C   UNL     1     -10.102  11.798  65.705  1.00  0.00    -0.243 C  
HETATM    8  N   UNL     1     -10.688  13.150  65.817  1.00  0.00    -0.276 NA 
HETATM    9  C   UNL     1     -11.580  12.725  63.453  1.00  0.00    -0.443 C  
HETATM   10  C   UNL     1     -10.900  13.693  64.457  1.00  0.00    -0.406 C  
BRANCH   8  11
HETATM   11  C   UNL     1     -11.923  13.185  66.614  1.00  0.00    -0.389 C  
BRANCH  11  12
HETATM   12  C   UNL     1     -12.007  12.060  67.653  1.00  0.00    -0.149 C  
BRANCH  12  13
HETATM   13  C   UNL     1     -11.326  12.438  68.978  1.00  0.00    -0.283 C  
BRANCH  13  14
HETATM   14  N   UNL     1     -10.016  11.749  69.112  1.00  0.00     0.074 NA 
HETATM   15  C   UNL     1     -10.044  10.358  69.440  1.00  0.00    -0.229 A  
HETATM   16  C   UNL     1     -11.222   9.696  69.863  1.00  0.00    -0.244 A  
HETATM   17  C   UNL     1     -11.253   8.337  70.206  1.00  0.00    -0.176 A  
HETATM   18  C   UNL     1     -10.099   7.581  70.137  1.00  0.00    -0.195 A  
HETATM   19  C   UNL     1      -8.921   8.190  69.724  1.00  0.00    -0.144 A  
HETATM   20  C   UNL     1      -8.884   9.558  69.380  1.00  0.00    -0.170 A  
HETATM   21  S   UNL     1      -7.293  10.152  68.863  1.00  0.00    -0.089 SA 
HETATM   22  C   UNL     1      -7.621  11.847  68.463  1.00  0.00    -0.127 A  
HETATM   23  C   UNL     1      -8.869  12.468  68.642  1.00  0.00     0.047 A  
HETATM   24  C   UNL     1      -8.920  13.846  68.313  1.00  0.00    -0.187 A  
HETATM   25  C   UNL     1      -7.843  14.557  67.746  1.00  0.00    -0.171 A  
HETATM   26  C   UNL     1      -6.636  13.894  67.560  1.00  0.00    -0.104 A  
HETATM   27  C   UNL     1      -7.999  15.995  67.317  1.00  0.00    -0.178 C  
HETATM   28  F   UNL     1      -9.249  16.498  67.523  1.00  0.00    -0.199 F  
HETATM   29  F   UNL     1      -7.757  16.164  65.986  1.00  0.00    -0.225 F  
HETATM   30  F   UNL     1      -7.147  16.836  67.962  1.00  0.00    -0.140 F  
HETATM   31  C   UNL     1      -6.524  12.558  67.930  1.00  0.00    -0.105 A  
ENDBRANCH  13  14
ENDBRANCH  12  13
ENDBRANCH  11  12
ENDBRANCH   8  11
ENDBRANCH   4   5
ENDBRANCH   2   4
TORSDOF 6
ENDMDL
MODEL      177
REMARK 921   NORMALIZED FREE ENERGY PREDICTED BY IDOCK:   -4.18 KCAL/MOL
REMARK 922        TOTAL FREE ENERGY PREDICTED BY IDOCK:   -5.89 KCAL/MOL
REMARK 923 INTER-LIGAND FREE ENERGY PREDICTED BY IDOCK:   -5.32 KCAL/MOL
REMARK 924 INTRA-LIGAND FREE ENERGY PREDICTED BY IDOCK:   -0.57 KCAL/MOL
REMARK 927      BINDING AFFINITY PREDICTED BY RF-SCORE:    0.00 PKD
ROOT
HETATM    1  O   UNL     1     -12.501  14.028  63.375  1.00  0.00    -1.108 OA 
HETATM    2  C   UNL     1     -12.161  12.726  62.902  1.00  0.00     0.303 C  
HETATM    3  H   UNL     1     -12.708  14.592  62.639  1.00  0.00     0.000 HD 
ENDROOT
BRANCH   2   4
HETATM    4  C   UNL     1     -11.826  11.814  64.093  1.00  0.00    -0.256 C  
BRANCH   4   5
HETATM    5  N   UNL     1     -10.787  12.355  64.993  1.00  0.00    -0.285 NA 
HETATM    6  C   UNL     1     -11.297  12.632  66.349  1.00  0.00    -0.331 C  
HETATM    7  C   UNL     1     -11.620  11.367  67.166  1.00  0.00    -0.098 C  
HETATM    8  N   UNL     1     -10.497  10.419  67.314  1.00  0.00    -0.236 NA 
HETATM    9  C   UNL     1      -9.649  11.413  65.110  1.00  0.00    -0.229 C  
HETATM   10  C   UNL     1      -9.914  10.156  65.979  1.00  0.00    -0.256 C  
BRANCH   8  11
HETATM   11  C   UNL     1      -9.476  10.870  68.271  1.00  0.00    -0.168 C  
BRANCH  11  12
HETATM   12  C   UNL     1      -8.382   9.826  68.529  1.00  0.00    -0.110 C  
BRANCH  12  13
HETATM   13  C   UNL     1      -8.384   9.326  69.983  1.00  0.00    -0.168 C  
BRANCH  13  14
HETATM   14  N   UNL     1      -9.305   8.171  70.142  1.00  0.00    -0.158 NA 
HETATM   15  C   UNL     1     -10.578   8.433  70.737  1.00  0.00    -0.207 A  
HETATM   16  C   UNL     1     -10.886   9.658  71.377  1.00  0.00    -0.294 A  
HETATM   17  C   UNL     1     -12.124   9.914  71.981  1.00  0.00    -0.103 A  
HETATM   18  C   UNL     1     -13.112   8.948  71.967  1.00  0.00    -0.454 A  
HETATM   19  C   UNL     1     -12.854   7.732  71.348  1.00  0.00    -0.328 A  
HETATM   20  C   UNL     1     -11.608   7.468  70.740  1.00  0.00    -0.277 A  
HETATM   21  S   UNL     1     -11.472   5.866  69.988  1.00  0.00     0.292 SA 
HETATM   22  C   UNL     1      -9.843   5.901  69.291  1.00  0.00    -0.160 A  
HETATM   23  C   UNL     1      -8.945   6.971  69.447  1.00  0.00    -0.139 A  
HETATM   24  C   UNL     1      -7.667   6.789  68.859  1.00  0.00    -0.110 A  
HETATM   25  C   UNL     1      -7.317   5.671  68.077  1.00  0.00    -0.073 A  
HETATM   26  C   UNL     1      -8.246   4.649  67.926  1.00  0.00    -0.099 A  
HETATM   27  C   UNL     1      -5.976   5.591  67.388  1.00  0.00    -0.022 C  
HETATM   28  F   UNL     1      -5.187   6.684  67.593  1.00  0.00    -0.006 F  
HETATM   29  F   UNL     1      -6.099   5.484  66.034  1.00  0.00    -0.028 F  
HETATM   30  F   UNL     1      -5.240   4.518  67.783  1.00  0.00    -0.008 F  
HETATM   31  C   UNL     1      -9.489   4.758  68.541  1.00  0.00    -0.200 A  
ENDBRANCH  13  14
ENDBRANCH  12  13
ENDBRANCH  11  12
ENDBRANCH   8  11
ENDBRANCH   4   5
ENDBRANCH   2   4
TORSDOF 6
ENDMDL
MODEL      178
REMARK 921   NORMALIZED FREE ENERGY PREDICTED BY IDOCK:   -4.17 KCAL/MOL
REMARK 922        TOTAL FREE ENERGY PREDICTED BY IDOCK:   -5.87 KCAL/MOL
REMARK 923 INTER-LIGAND FREE ENERGY PREDICTED BY IDOCK:   -5.37 KCAL/MOL
REMARK 924 INTRA-LIGAND FREE ENERGY PREDICTED BY IDOCK:   -0.50 KCAL/MOL
REMARK 927      BINDING AFFINITY PREDICTED BY RF-SCORE:    0.00 PKD
ROOT
HETATM    1  O   UNL     1      -9.667  14.836  65.314  1.00  0.00    -0.467 OA 
HETATM    2  C   UNL     1      -9.388  14.650  66.700  1.00  0.00    -0.271 C  
HETATM    3  H   UNL     1      -9.263  15.641  65.011  1.00  0.00     0.000 HD 
ENDROOT
BRANCH   2   4
HETATM    4  C   UNL     1     -10.043  13.347  67.189  1.00  0.00    -0.240 C  
BRANCH   4   5
HETATM    5  N   UNL     1      -9.364  12.120  66.726  1.00  0.00    -0.206 NA 
HETATM    6  C   UNL     1      -7.919  12.122  67.022  1.00  0.00    -0.138 C  
HETATM    7  C   UNL     1      -7.588  11.973  68.518  1.00  0.00    -0.126 C  
HETATM    8  N   UNL     1      -8.157  10.773  69.165  1.00  0.00    -0.150 NA 
HETATM    9  C   UNL     1      -9.963  10.919  67.353  1.00  0.00    -0.186 C  
HETATM   10  C   UNL     1      -9.601  10.697  68.845  1.00  0.00    -0.196 C  
BRANCH   8  11
HETATM   11  C   UNL     1      -7.457   9.530  68.806  1.00  0.00    -0.075 C  
BRANCH  11  12
HETATM   12  C   UNL     1      -6.831   8.817  70.012  1.00  0.00    -0.042 C  
BRANCH  12  13
HETATM   13  C   UNL     1      -6.879   7.287  69.873  1.00  0.00    -0.056 C  
BRANCH  13  14
HETATM   14  N   UNL     1      -8.280   6.796  69.938  1.00  0.00    -0.125 NA 
HETATM   15  C   UNL     1      -8.972   6.970  71.177  1.00  0.00    -0.146 A  
HETATM   16  C   UNL     1      -8.318   7.360  72.370  1.00  0.00    -0.123 A  
HETATM   17  C   UNL     1      -8.986   7.513  73.593  1.00  0.00    -0.287 A  
HETATM   18  C   UNL     1     -10.346   7.283  73.669  1.00  0.00    -0.399 A  
HETATM   19  C   UNL     1     -11.029   6.902  72.521  1.00  0.00    -0.294 A  
HETATM   20  C   UNL     1     -10.360   6.745  71.288  1.00  0.00    -0.204 A  
HETATM   21  S   UNL     1     -11.403   6.268  69.933  1.00  0.00    -0.374 SA 
HETATM   22  C   UNL     1     -10.271   6.221  68.570  1.00  0.00    -0.176 A  
HETATM   23  C   UNL     1      -8.888   6.443  68.690  1.00  0.00    -0.120 A  
HETATM   24  C   UNL     1      -8.141   6.309  67.492  1.00  0.00    -0.113 A  
HETATM   25  C   UNL     1      -8.719   6.071  66.230  1.00  0.00    -0.138 A  
HETATM   26  C   UNL     1     -10.094   5.886  66.154  1.00  0.00    -0.016 A  
HETATM   27  C   UNL     1      -7.876   6.049  64.978  1.00  0.00    -0.108 C  
HETATM   28  F   UNL     1      -6.553   6.288  65.203  1.00  0.00    -0.036 F  
HETATM   29  F   UNL     1      -8.265   6.998  64.079  1.00  0.00    -0.121 F  
HETATM   30  F   UNL     1      -7.935   4.862  64.319  1.00  0.00    -0.088 F  
HETATM   31  C   UNL     1     -10.857   5.944  67.315  1.00  0.00    -0.351 A  
ENDBRANCH  13  14
ENDBRANCH  12  13
ENDBRANCH  11  12
ENDBRANCH   8  11
ENDBRANCH   4   5
ENDBRANCH   2   4
TORSDOF 6
ENDMDL
MODEL      179
REMARK 921   NORMALIZED FREE ENERGY PREDICTED BY IDOCK:   -4.16 KCAL/MOL
REMARK 922        TOTAL FREE ENERGY PREDICTED BY IDOCK:   -5.85 KCAL/MOL
REMARK 923 INTER-LIGAND FREE ENERGY PREDICTED BY IDOCK:   -4.99 KCAL/MOL
REMARK 924 INTRA-LIGAND FREE ENERGY PREDICTED BY IDOCK:   -0.86 KCAL/MOL
REMARK 927      BINDING AFFINITY PREDICTED BY RF-SCORE:    0.00 PKD
ROOT
HETATM    1  O   UNL     1     -13.781  10.407  72.565  1.00  0.00    -0.544 OA 
HETATM    2  C   UNL     1     -13.765   8.989  72.418  1.00  0.00    -0.479 C  
HETATM    3  H   UNL     1     -14.458  10.657  73.182  1.00  0.00     0.000 HD 
ENDROOT
BRANCH   2   4
HETATM    4  C   UNL     1     -12.669   8.584  71.419  1.00  0.00    -0.271 C  
BRANCH   4   5
HETATM    5  N   UNL     1     -11.969   7.331  71.767  1.00  0.00    -0.294 NA 
HETATM    6  C   UNL     1     -11.551   6.563  70.579  1.00  0.00    -0.393 C  
HETATM    7  C   UNL     1     -10.401   7.213  69.788  1.00  0.00    -0.214 C  
HETATM    8  N   UNL     1      -9.181   7.486  70.574  1.00  0.00    -0.156 NA 
HETATM    9  C   UNL     1     -10.765   7.610  72.585  1.00  0.00    -0.321 C  
HETATM   10  C   UNL     1      -9.560   8.207  71.810  1.00  0.00    -0.188 C  
BRANCH   8  11
HETATM   11  C   UNL     1      -8.397   6.277  70.871  1.00  0.00    -0.127 C  
BRANCH  11  12
HETATM   12  C   UNL     1      -7.905   5.549  69.613  1.00  0.00    -0.090 C  
BRANCH  12  13
HETATM   13  C   UNL     1      -6.758   6.298  68.917  1.00  0.00    -0.060 C  
BRANCH  13  14
HETATM   14  N   UNL     1      -6.993   6.379  67.452  1.00  0.00    -0.072 NA 
HETATM   15  C   UNL     1      -6.802   5.179  66.697  1.00  0.00    -0.063 A  
HETATM   16  C   UNL     1      -6.187   4.025  67.239  1.00  0.00    -0.036 A  
HETATM   17  C   UNL     1      -5.978   2.853  66.499  1.00  0.00    -0.024 A  
HETATM   18  C   UNL     1      -6.382   2.788  65.180  1.00  0.00    -0.024 A  
HETATM   19  C   UNL     1      -6.992   3.898  64.608  1.00  0.00    -0.050 A  
HETATM   20  C   UNL     1      -7.203   5.081  65.349  1.00  0.00    -0.068 A  
HETATM   21  S   UNL     1      -8.010   6.384  64.453  1.00  0.00    -0.080 SA 
HETATM   22  C   UNL     1      -8.160   7.660  65.674  1.00  0.00    -0.127 A  
HETATM   23  C   UNL     1      -7.642   7.564  66.977  1.00  0.00    -0.103 A  
HETATM   24  C   UNL     1      -7.816   8.712  67.791  1.00  0.00    -0.103 A  
HETATM   25  C   UNL     1      -8.544   9.852  67.393  1.00  0.00    -0.125 A  
HETATM   26  C   UNL     1      -9.063   9.891  66.104  1.00  0.00    -0.193 A  
HETATM   27  C   UNL     1      -8.785  10.994  68.349  1.00  0.00    -0.150 C  
HETATM   28  F   UNL     1      -8.252  10.796  69.588  1.00  0.00    -0.137 F  
HETATM   29  F   UNL     1     -10.114  11.216  68.559  1.00  0.00    -0.171 F  
HETATM   30  F   UNL     1      -8.275  12.174  67.905  1.00  0.00    -0.123 F  
HETATM   31  C   UNL     1      -8.858   8.812  65.251  1.00  0.00    -0.205 A  
ENDBRANCH  13  14
ENDBRANCH  12  13
ENDBRANCH  11  12
ENDBRANCH   8  11
ENDBRANCH   4   5
ENDBRANCH   2   4
TORSDOF 6
ENDMDL
MODEL      180
REMARK 921   NORMALIZED FREE ENERGY PREDICTED BY IDOCK:   -4.11 KCAL/MOL
REMARK 922        TOTAL FREE ENERGY PREDICTED BY IDOCK:   -5.79 KCAL/MOL
REMARK 923 INTER-LIGAND FREE ENERGY PREDICTED BY IDOCK:   -5.10 KCAL/MOL
REMARK 924 INTRA-LIGAND FREE ENERGY PREDICTED BY IDOCK:   -0.69 KCAL/MOL
REMARK 927      BINDING AFFINITY PREDICTED BY RF-SCORE:    0.00 PKD
ROOT
HETATM    1  O   UNL     1     -12.923  15.482  70.964  1.00  0.00    -0.457 OA 
HETATM    2  C   UNL     1     -11.661  15.201  70.360  1.00  0.00    -0.292 C  
HETATM    3  H   UNL     1     -12.824  16.178  71.602  1.00  0.00     0.000 HD 
ENDROOT
BRANCH   2   4
HETATM    4  C   UNL     1     -11.821  14.075  69.326  1.00  0.00    -0.344 C  
BRANCH   4   5
HETATM    5  N   UNL     1     -10.568  13.709  68.633  1.00  0.00    -0.248 NA 
HETATM    6  C   UNL     1     -10.306  12.258  68.660  1.00  0.00    -0.188 C  
HETATM    7  C   UNL     1     -11.262  11.434  67.778  1.00  0.00    -0.283 C  
HETATM    8  N   UNL     1     -11.301  11.837  66.357  1.00  0.00    -0.362 NA 
HETATM    9  C   UNL     1     -10.603  14.148  67.218  1.00  0.00    -0.277 C  
HETATM   10  C   UNL     1     -11.505  13.302  66.282  1.00  0.00    -0.325 C  
BRANCH   8  11
HETATM   11  C   UNL     1     -10.113  11.417  65.599  1.00  0.00    -0.248 C  
BRANCH  11  12
HETATM   12  C   UNL     1      -9.678   9.977  65.904  1.00  0.00    -0.309 C  
BRANCH  12  13
HETATM   13  C   UNL     1      -8.215   9.715  65.511  1.00  0.00    -0.126 C  
BRANCH  13  14
HETATM   14  N   UNL     1      -7.429   9.255  66.685  1.00  0.00    -0.093 NA 
HETATM   15  C   UNL     1      -6.988  10.256  67.605  1.00  0.00    -0.084 A  
HETATM   16  C   UNL     1      -7.063  11.641  67.321  1.00  0.00    -0.134 A  
HETATM   17  C   UNL     1      -6.614  12.628  68.209  1.00  0.00    -0.079 A  
HETATM   18  C   UNL     1      -6.070  12.266  69.426  1.00  0.00    -0.107 A  
HETATM   19  C   UNL     1      -5.979  10.917  69.747  1.00  0.00    -0.076 A  
HETATM   20  C   UNL     1      -6.428   9.920  68.855  1.00  0.00    -0.045 A  
HETATM   21  S   UNL     1      -6.243   8.257  69.447  1.00  0.00    -0.038 SA 
HETATM   22  C   UNL     1      -6.944   7.296  68.133  1.00  0.00    -0.076 A  
HETATM   23  C   UNL     1      -7.417   7.842  66.927  1.00  0.00    -0.091 A  
HETATM   24  C   UNL     1      -7.892   6.905  65.975  1.00  0.00    -0.104 A  
HETATM   25  C   UNL     1      -7.996   5.522  66.221  1.00  0.00    -0.105 A  
HETATM   26  C   UNL     1      -7.542   5.029  67.439  1.00  0.00    -0.091 A  
HETATM   27  C   UNL     1      -8.614   4.594  65.204  1.00  0.00    -0.135 C  
HETATM   28  F   UNL     1      -9.051   5.225  64.078  1.00  0.00    -0.075 F  
HETATM   29  F   UNL     1      -9.706   3.943  65.699  1.00  0.00    -0.159 F  
HETATM   30  F   UNL     1      -7.760   3.624  64.783  1.00  0.00    -0.076 F  
HETATM   31  C   UNL     1      -7.008   5.906  68.376  1.00  0.00    -0.072 A  
ENDBRANCH  13  14
ENDBRANCH  12  13
ENDBRANCH  11  12
ENDBRANCH   8  11
ENDBRANCH   4   5
ENDBRANCH   2   4
TORSDOF 6
ENDMDL
MODEL      181
REMARK 921   NORMALIZED FREE ENERGY PREDICTED BY IDOCK:   -4.08 KCAL/MOL
REMARK 922        TOTAL FREE ENERGY PREDICTED BY IDOCK:   -5.75 KCAL/MOL
REMARK 923 INTER-LIGAND FREE ENERGY PREDICTED BY IDOCK:   -5.07 KCAL/MOL
REMARK 924 INTRA-LIGAND FREE ENERGY PREDICTED BY IDOCK:   -0.68 KCAL/MOL
REMARK 927      BINDING AFFINITY PREDICTED BY RF-SCORE:    0.00 PKD
ROOT
HETATM    1  O   UNL     1     -14.030  13.767  72.635  1.00  0.00    -0.710 OA 
HETATM    2  C   UNL     1     -13.276  13.120  71.611  1.00  0.00    -0.346 C  
HETATM    3  H   UNL     1     -14.254  14.648  72.358  1.00  0.00     0.000 HD 
ENDROOT
BRANCH   2   4
HETATM    4  C   UNL     1     -12.914  11.694  72.058  1.00  0.00    -0.260 C  
BRANCH   4   5
HETATM    5  N   UNL     1     -13.181  10.657  71.042  1.00  0.00    -0.272 NA 
HETATM    6  C   UNL     1     -11.970  10.263  70.298  1.00  0.00    -0.264 C  
HETATM    7  C   UNL     1     -10.957   9.458  71.133  1.00  0.00    -0.360 C  
HETATM    8  N   UNL     1     -11.498   8.231  71.754  1.00  0.00    -0.275 NA 
HETATM    9  C   UNL     1     -13.755   9.442  71.668  1.00  0.00    -0.321 C  
HETATM   10  C   UNL     1     -12.751   8.569  72.466  1.00  0.00    -0.270 C  
BRANCH   8  11
HETATM   11  C   UNL     1     -11.698   7.134  70.796  1.00  0.00    -0.323 C  
BRANCH  11  12
HETATM   12  C   UNL     1     -10.735   5.959  71.009  1.00  0.00    -0.331 C  
BRANCH  12  13
HETATM   13  C   UNL     1      -9.538   6.340  71.895  1.00  0.00    -0.152 C  
BRANCH  13  14
HETATM   14  N   UNL     1      -8.330   5.565  71.511  1.00  0.00    -0.122 NA 
HETATM   15  C   UNL     1      -8.223   4.234  72.022  1.00  0.00    -0.095 A  
HETATM   16  C   UNL     1      -9.075   3.733  73.036  1.00  0.00    -0.113 A  
HETATM   17  C   UNL     1      -8.964   2.437  73.556  1.00  0.00    -0.080 A  
HETATM   18  C   UNL     1      -7.990   1.582  73.076  1.00  0.00    -0.044 A  
HETATM   19  C   UNL     1      -7.134   2.031  72.079  1.00  0.00    -0.030 A  
HETATM   20  C   UNL     1      -7.241   3.337  71.553  1.00  0.00    -0.036 A  
HETATM   21  S   UNL     1      -6.070   3.722  70.276  1.00  0.00    -0.019 SA 
HETATM   22  C   UNL     1      -6.520   5.375  69.821  1.00  0.00    -0.035 A  
HETATM   23  C   UNL     1      -7.527   6.118  70.461  1.00  0.00    -0.090 A  
HETATM   24  C   UNL     1      -7.704   7.443  69.988  1.00  0.00    -0.095 A  
HETATM   25  C   UNL     1      -7.009   7.982  68.887  1.00  0.00    -0.062 A  
HETATM   26  C   UNL     1      -6.041   7.200  68.267  1.00  0.00    -0.034 A  
HETATM   27  C   UNL     1      -7.324   9.363  68.367  1.00  0.00    -0.077 C  
HETATM   28  F   UNL     1      -8.323   9.992  69.048  1.00  0.00    -0.102 F  
HETATM   29  F   UNL     1      -7.734   9.341  67.066  1.00  0.00    -0.092 F  
HETATM   30  F   UNL     1      -6.255  10.202  68.408  1.00  0.00    -0.048 F  
HETATM   31  C   UNL     1      -5.790   5.917  68.741  1.00  0.00    -0.016 A  
ENDBRANCH  13  14
ENDBRANCH  12  13
ENDBRANCH  11  12
ENDBRANCH   8  11
ENDBRANCH   4   5
ENDBRANCH   2   4
TORSDOF 6
ENDMDL
MODEL      182
REMARK 921   NORMALIZED FREE ENERGY PREDICTED BY IDOCK:   -4.06 KCAL/MOL
REMARK 922        TOTAL FREE ENERGY PREDICTED BY IDOCK:   -5.72 KCAL/MOL
REMARK 923 INTER-LIGAND FREE ENERGY PREDICTED BY IDOCK:   -6.16 KCAL/MOL
REMARK 924 INTRA-LIGAND FREE ENERGY PREDICTED BY IDOCK:    0.44 KCAL/MOL
REMARK 927      BINDING AFFINITY PREDICTED BY RF-SCORE:    0.00 PKD
ROOT
HETATM    1  O   UNL     1     -11.965   1.735  62.543  1.00  0.00    -0.341 OA 
HETATM    2  C   UNL     1     -10.953   2.708  62.798  1.00  0.00    -0.181 C  
HETATM    3  H   UNL     1     -12.608   2.092  61.943  1.00  0.00     0.000 HD 
ENDROOT
BRANCH   2   4
HETATM    4  C   UNL     1      -9.912   2.130  63.771  1.00  0.00    -0.135 C  
BRANCH   4   5
HETATM    5  N   UNL     1      -8.886   3.100  64.202  1.00  0.00    -0.096 NA 
HETATM    6  C   UNL     1      -9.455   4.418  64.540  1.00  0.00    -0.129 C  
HETATM    7  C   UNL     1     -10.285   4.426  65.837  1.00  0.00    -0.227 C  
HETATM    8  N   UNL     1      -9.569   3.946  67.038  1.00  0.00    -0.208 NA 
HETATM    9  C   UNL     1      -8.150   2.596  65.385  1.00  0.00    -0.087 C  
HETATM   10  C   UNL     1      -8.930   2.647  66.725  1.00  0.00    -0.144 C  
BRANCH   8  11
HETATM   11  C   UNL     1      -8.596   4.916  67.562  1.00  0.00    -0.104 C  
BRANCH  11  12
HETATM   12  C   UNL     1      -8.948   6.371  67.225  1.00  0.00    -0.107 C  
BRANCH  12  13
HETATM   13  C   UNL     1     -10.441   6.672  67.429  1.00  0.00    -0.260 C  
BRANCH  13  14
HETATM   14  N   UNL     1     -10.624   7.864  68.297  1.00  0.00    -0.156 NA 
HETATM   15  C   UNL     1     -10.804   7.627  69.695  1.00  0.00    -0.191 A  
HETATM   16  C   UNL     1     -11.047   6.338  70.227  1.00  0.00    -0.430 A  
HETATM   17  C   UNL     1     -11.244   6.101  71.595  1.00  0.00    -0.342 A  
HETATM   18  C   UNL     1     -11.205   7.152  72.490  1.00  0.00    -0.327 A  
HETATM   19  C   UNL     1     -10.967   8.434  72.012  1.00  0.00    -0.394 A  
HETATM   20  C   UNL     1     -10.769   8.678  70.636  1.00  0.00    -0.222 A  
HETATM   21  S   UNL     1     -10.465  10.376  70.219  1.00  0.00     0.093 SA 
HETATM   22  C   UNL     1     -10.211  10.307  68.466  1.00  0.00    -0.172 A  
HETATM   23  C   UNL     1     -10.337   9.135  67.700  1.00  0.00    -0.255 A  
HETATM   24  C   UNL     1     -10.148   9.292  66.304  1.00  0.00    -0.322 A  
HETATM   25  C   UNL     1      -9.758  10.502  65.697  1.00  0.00    -0.289 A  
HETATM   26  C   UNL     1      -9.617  11.630  66.498  1.00  0.00    -0.226 A  
HETATM   27  C   UNL     1      -9.466  10.574  64.219  1.00  0.00    -0.285 C  
HETATM   28  F   UNL     1      -9.606   9.382  63.573  1.00  0.00    -0.116 F  
HETATM   29  F   UNL     1      -8.187  10.973  63.966  1.00  0.00    -0.028 F  
HETATM   30  F   UNL     1     -10.269  11.453  63.561  1.00  0.00    -0.294 F  
HETATM   31  C   UNL     1      -9.857  11.534  67.864  1.00  0.00    -0.192 A  
ENDBRANCH  13  14
ENDBRANCH  12  13
ENDBRANCH  11  12
ENDBRANCH   8  11
ENDBRANCH   4   5
ENDBRANCH   2   4
TORSDOF 6
ENDMDL
MODEL      183
REMARK 921   NORMALIZED FREE ENERGY PREDICTED BY IDOCK:   -4.06 KCAL/MOL
REMARK 922        TOTAL FREE ENERGY PREDICTED BY IDOCK:   -5.72 KCAL/MOL
REMARK 923 INTER-LIGAND FREE ENERGY PREDICTED BY IDOCK:   -5.39 KCAL/MOL
REMARK 924 INTRA-LIGAND FREE ENERGY PREDICTED BY IDOCK:   -0.33 KCAL/MOL
REMARK 927      BINDING AFFINITY PREDICTED BY RF-SCORE:    0.00 PKD
ROOT
HETATM    1  O   UNL     1      -5.317  12.698  66.719  1.00  0.00    -0.382 OA 
HETATM    2  C   UNL     1      -5.715  12.786  68.086  1.00  0.00    -0.083 C  
HETATM    3  H   UNL     1      -4.386  12.512  66.668  1.00  0.00     0.000 HD 
ENDROOT
BRANCH   2   4
HETATM    4  C   UNL     1      -7.220  13.086  68.168  1.00  0.00    -0.116 C  
BRANCH   4   5
HETATM    5  N   UNL     1      -8.026  12.423  67.122  1.00  0.00    -0.172 NA 
HETATM    6  C   UNL     1      -7.912  10.953  67.163  1.00  0.00    -0.127 C  
HETATM    7  C   UNL     1      -8.604  10.307  68.378  1.00  0.00    -0.125 C  
HETATM    8  N   UNL     1     -10.038  10.632  68.523  1.00  0.00    -0.165 NA 
HETATM    9  C   UNL     1      -9.457  12.781  67.254  1.00  0.00    -0.204 C  
HETATM   10  C   UNL     1     -10.207  12.100  68.429  1.00  0.00    -0.210 C  
BRANCH   8  11
HETATM   11  C   UNL     1     -10.896   9.926  67.560  1.00  0.00    -0.243 C  
BRANCH  11  12
HETATM   12  C   UNL     1     -10.121   8.965  66.648  1.00  0.00    -0.357 C  
BRANCH  12  13
HETATM   13  C   UNL     1     -10.454   7.492  66.935  1.00  0.00    -0.315 C  
BRANCH  13  14
HETATM   14  N   UNL     1      -9.275   6.786  67.499  1.00  0.00    -0.122 NA 
HETATM   15  C   UNL     1      -8.150   6.607  66.634  1.00  0.00    -0.110 A  
HETATM   16  C   UNL     1      -8.210   6.855  65.242  1.00  0.00    -0.129 A  
HETATM   17  C   UNL     1      -7.117   6.663  64.385  1.00  0.00    -0.057 A  
HETATM   18  C   UNL     1      -5.913   6.214  64.891  1.00  0.00    -0.026 A  
HETATM   19  C   UNL     1      -5.810   5.960  66.253  1.00  0.00    -0.017 A  
HETATM   20  C   UNL     1      -6.907   6.151  67.120  1.00  0.00    -0.063 A  
HETATM   21  S   UNL     1      -6.578   5.788  68.826  1.00  0.00    -0.053 SA 
HETATM   22  C   UNL     1      -8.117   6.183  69.611  1.00  0.00    -0.112 A  
HETATM   23  C   UNL     1      -9.270   6.591  68.918  1.00  0.00    -0.129 A  
HETATM   24  C   UNL     1     -10.420   6.809  69.718  1.00  0.00    -0.240 A  
HETATM   25  C   UNL     1     -10.422   6.733  71.125  1.00  0.00    -0.239 A  
HETATM   26  C   UNL     1      -9.251   6.353  71.771  1.00  0.00    -0.143 A  
HETATM   27  C   UNL     1     -11.654   7.085  71.923  1.00  0.00    -0.284 C  
HETATM   28  F   UNL     1     -12.710   7.479  71.157  1.00  0.00    -0.341 F  
HETATM   29  F   UNL     1     -11.430   8.117  72.786  1.00  0.00    -0.419 F  
HETATM   30  F   UNL     1     -12.107   6.053  72.683  1.00  0.00    -0.285 F  
HETATM   31  C   UNL     1      -8.117   6.066  71.019  1.00  0.00    -0.121 A  
ENDBRANCH  13  14
ENDBRANCH  12  13
ENDBRANCH  11  12
ENDBRANCH   8  11
ENDBRANCH   4   5
ENDBRANCH   2   4
TORSDOF 6
ENDMDL
MODEL      184
REMARK 921   NORMALIZED FREE ENERGY PREDICTED BY IDOCK:   -4.03 KCAL/MOL
REMARK 922        TOTAL FREE ENERGY PREDICTED BY IDOCK:   -5.67 KCAL/MOL
REMARK 923 INTER-LIGAND FREE ENERGY PREDICTED BY IDOCK:   -5.66 KCAL/MOL
REMARK 924 INTRA-LIGAND FREE ENERGY PREDICTED BY IDOCK:   -0.01 KCAL/MOL
REMARK 927      BINDING AFFINITY PREDICTED BY RF-SCORE:    0.00 PKD
ROOT
HETATM    1  O   UNL     1     -14.041   9.137  70.983  1.00  0.00    -0.533 OA 
HETATM    2  C   UNL     1     -13.422   8.940  72.253  1.00  0.00    -0.455 C  
HETATM    3  H   UNL     1     -14.941   9.417  71.106  1.00  0.00     0.000 HD 
ENDROOT
BRANCH   2   4
HETATM    4  C   UNL     1     -11.967   8.487  72.054  1.00  0.00    -0.361 C  
BRANCH   4   5
HETATM    5  N   UNL     1     -11.607   8.213  70.648  1.00  0.00    -0.242 NA 
HETATM    6  C   UNL     1     -10.856   9.321  70.027  1.00  0.00    -0.238 C  
HETATM    7  C   UNL     1      -9.422   9.483  70.565  1.00  0.00    -0.246 C  
HETATM    8  N   UNL     1      -8.577   8.275  70.456  1.00  0.00    -0.127 NA 
HETATM    9  C   UNL     1     -10.788   6.983  70.544  1.00  0.00    -0.251 C  
HETATM   10  C   UNL     1      -9.317   7.122  71.016  1.00  0.00    -0.158 C  
BRANCH   8  11
HETATM   11  C   UNL     1      -8.116   8.009  69.085  1.00  0.00    -0.119 C  
BRANCH  11  12
HETATM   12  C   UNL     1      -8.770   8.920  68.038  1.00  0.00    -0.133 C  
BRANCH  12  13
HETATM   13  C   UNL     1      -9.660   8.137  67.059  1.00  0.00    -0.196 C  
BRANCH  13  14
HETATM   14  N   UNL     1      -9.124   8.223  65.676  1.00  0.00    -0.119 NA 
HETATM   15  C   UNL     1      -9.348   9.445  64.968  1.00  0.00    -0.191 A  
HETATM   16  C   UNL     1     -10.237  10.445  65.431  1.00  0.00    -0.329 A  
HETATM   17  C   UNL     1     -10.477  11.636  64.732  1.00  0.00    -0.346 A  
HETATM   18  C   UNL     1      -9.831  11.876  63.534  1.00  0.00    -0.359 A  
HETATM   19  C   UNL     1      -8.949  10.922  63.044  1.00  0.00    -0.261 A  
HETATM   20  C   UNL     1      -8.705   9.721  63.743  1.00  0.00    -0.224 A  
HETATM   21  S   UNL     1      -7.536   8.634  62.967  1.00  0.00    -0.110 SA 
HETATM   22  C   UNL     1      -7.432   7.289  64.116  1.00  0.00    -0.099 A  
HETATM   23  C   UNL     1      -8.211   7.191  65.283  1.00  0.00    -0.128 A  
HETATM   24  C   UNL     1      -8.023   6.013  66.048  1.00  0.00    -0.109 A  
HETATM   25  C   UNL     1      -7.057   5.031  65.750  1.00  0.00    -0.068 A  
HETATM   26  C   UNL     1      -6.289   5.183  64.602  1.00  0.00    -0.034 A  
HETATM   27  C   UNL     1      -6.834   3.854  66.668  1.00  0.00    -0.058 C  
HETATM   28  F   UNL     1      -7.631   3.861  67.774  1.00  0.00    -0.065 F  
HETATM   29  F   UNL     1      -5.556   3.809  67.144  1.00  0.00    -0.018 F  
HETATM   30  F   UNL     1      -7.048   2.657  66.060  1.00  0.00    -0.057 F  
HETATM   31  C   UNL     1      -6.488   6.292  63.787  1.00  0.00    -0.029 A  
ENDBRANCH  13  14
ENDBRANCH  12  13
ENDBRANCH  11  12
ENDBRANCH   8  11
ENDBRANCH   4   5
ENDBRANCH   2   4
TORSDOF 6
ENDMDL
MODEL      185
REMARK 921   NORMALIZED FREE ENERGY PREDICTED BY IDOCK:   -4.02 KCAL/MOL
REMARK 922        TOTAL FREE ENERGY PREDICTED BY IDOCK:   -5.67 KCAL/MOL
REMARK 923 INTER-LIGAND FREE ENERGY PREDICTED BY IDOCK:   -5.08 KCAL/MOL
REMARK 924 INTRA-LIGAND FREE ENERGY PREDICTED BY IDOCK:   -0.59 KCAL/MOL
REMARK 927      BINDING AFFINITY PREDICTED BY RF-SCORE:    0.00 PKD
ROOT
HETATM    1  O   UNL     1     -12.995  16.170  71.379  1.00  0.00    -0.509 OA 
HETATM    2  C   UNL     1     -13.960  15.124  71.465  1.00  0.00    -0.522 C  
HETATM    3  H   UNL     1     -13.258  16.895  71.933  1.00  0.00     0.000 HD 
ENDROOT
BRANCH   2   4
HETATM    4  C   UNL     1     -13.533  13.951  70.567  1.00  0.00     0.406 C  
BRANCH   4   5
HETATM    5  N   UNL     1     -12.308  13.260  71.019  1.00  0.00    -0.347 NA 
HETATM    6  C   UNL     1     -12.548  12.372  72.172  1.00  0.00     0.309 C  
HETATM    7  C   UNL     1     -13.365  11.112  71.832  1.00  0.00    -0.304 C  
HETATM    8  N   UNL     1     -12.798  10.275  70.754  1.00  0.00    -0.358 NA 
HETATM    9  C   UNL     1     -11.727  12.449  69.923  1.00  0.00    -0.266 C  
HETATM   10  C   UNL     1     -12.486  11.138  69.593  1.00  0.00    -0.128 C  
BRANCH   8  11
HETATM   11  C   UNL     1     -11.626   9.494  71.180  1.00  0.00    -0.367 C  
BRANCH  11  12
HETATM   12  C   UNL     1     -11.041   8.622  70.062  1.00  0.00    -0.161 C  
BRANCH  12  13
HETATM   13  C   UNL     1      -9.546   8.331  70.271  1.00  0.00    -0.168 C  
BRANCH  13  14
HETATM   14  N   UNL     1      -9.232   6.918  69.938  1.00  0.00    -0.148 NA 
HETATM   15  C   UNL     1      -9.624   5.924  70.888  1.00  0.00    -0.170 A  
HETATM   16  C   UNL     1     -10.066   6.247  72.194  1.00  0.00    -0.203 A  
HETATM   17  C   UNL     1     -10.433   5.278  73.137  1.00  0.00    -0.251 A  
HETATM   18  C   UNL     1     -10.374   3.938  72.809  1.00  0.00    -0.237 A  
HETATM   19  C   UNL     1      -9.948   3.575  71.537  1.00  0.00    -0.172 A  
HETATM   20  C   UNL     1      -9.576   4.548  70.584  1.00  0.00    -0.190 A  
HETATM   21  S   UNL     1      -9.074   3.893  69.013  1.00  0.00    -0.151 SA 
HETATM   22  C   UNL     1      -8.742   5.357  68.070  1.00  0.00    -0.106 A  
HETATM   23  C   UNL     1      -8.814   6.660  68.592  1.00  0.00    -0.122 A  
HETATM   24  C   UNL     1      -8.460   7.699  67.695  1.00  0.00    -0.117 A  
HETATM   25  C   UNL     1      -8.151   7.491  66.336  1.00  0.00    -0.114 A  
HETATM   26  C   UNL     1      -8.119   6.187  65.856  1.00  0.00    -0.121 A  
HETATM   27  C   UNL     1      -7.890   8.653  65.409  1.00  0.00    -0.101 C  
HETATM   28  F   UNL     1      -7.997   9.871  66.012  1.00  0.00    -0.106 F  
HETATM   29  F   UNL     1      -8.770   8.687  64.368  1.00  0.00    -0.180 F  
HETATM   30  F   UNL     1      -6.651   8.618  64.851  1.00  0.00    -0.065 F  
HETATM   31  C   UNL     1      -8.397   5.132  66.719  1.00  0.00    -0.107 A  
ENDBRANCH  13  14
ENDBRANCH  12  13
ENDBRANCH  11  12
ENDBRANCH   8  11
ENDBRANCH   4   5
ENDBRANCH   2   4
TORSDOF 6
ENDMDL
MODEL      186
REMARK 921   NORMALIZED FREE ENERGY PREDICTED BY IDOCK:   -4.01 KCAL/MOL
REMARK 922        TOTAL FREE ENERGY PREDICTED BY IDOCK:   -5.65 KCAL/MOL
REMARK 923 INTER-LIGAND FREE ENERGY PREDICTED BY IDOCK:   -4.78 KCAL/MOL
REMARK 924 INTRA-LIGAND FREE ENERGY PREDICTED BY IDOCK:   -0.87 KCAL/MOL
REMARK 927      BINDING AFFINITY PREDICTED BY RF-SCORE:    0.00 PKD
ROOT
HETATM    1  O   UNL     1     -11.659   1.825  63.428  1.00  0.00    -0.553 OA 
HETATM    2  C   UNL     1     -10.627   2.805  63.519  1.00  0.00    -0.213 C  
HETATM    3  H   UNL     1     -12.389   2.174  62.931  1.00  0.00     0.000 HD 
ENDROOT
BRANCH   2   4
HETATM    4  C   UNL     1      -9.445   2.239  64.324  1.00  0.00    -0.138 C  
BRANCH   4   5
HETATM    5  N   UNL     1      -8.399   3.233  64.640  1.00  0.00    -0.090 NA 
HETATM    6  C   UNL     1      -8.840   4.227  65.636  1.00  0.00    -0.123 C  
HETATM    7  C   UNL     1      -9.000   3.657  67.058  1.00  0.00    -0.144 C  
HETATM    8  N   UNL     1      -7.793   3.005  67.606  1.00  0.00    -0.071 NA 
HETATM    9  C   UNL     1      -7.181   2.568  65.157  1.00  0.00    -0.058 C  
HETATM   10  C   UNL     1      -7.280   2.037  66.611  1.00  0.00    -0.056 C  
BRANCH   8  11
HETATM   11  C   UNL     1      -6.754   3.958  68.021  1.00  0.00    -0.046 C  
BRANCH  11  12
HETATM   12  C   UNL     1      -6.996   4.552  69.415  1.00  0.00    -0.050 C  
BRANCH  12  13
HETATM   13  C   UNL     1      -6.749   6.068  69.454  1.00  0.00    -0.060 C  
BRANCH  13  14
HETATM   14  N   UNL     1      -7.909   6.806  68.889  1.00  0.00    -0.110 NA 
HETATM   15  C   UNL     1      -7.770   7.314  67.560  1.00  0.00    -0.111 A  
HETATM   16  C   UNL     1      -6.529   7.349  66.881  1.00  0.00    -0.056 A  
HETATM   17  C   UNL     1      -6.381   7.865  65.586  1.00  0.00    -0.042 A  
HETATM   18  C   UNL     1      -7.479   8.368  64.914  1.00  0.00    -0.091 A  
HETATM   19  C   UNL     1      -8.717   8.351  65.543  1.00  0.00    -0.196 A  
HETATM   20  C   UNL     1      -8.870   7.834  66.847  1.00  0.00    -0.131 A  
HETATM   21  S   UNL     1     -10.530   7.885  67.476  1.00  0.00    -0.248 SA 
HETATM   22  C   UNL     1     -10.365   7.124  69.068  1.00  0.00    -0.199 A  
HETATM   23  C   UNL     1      -9.140   6.706  69.616  1.00  0.00    -0.142 A  
HETATM   24  C   UNL     1      -9.207   6.168  70.926  1.00  0.00    -0.163 A  
HETATM   25  C   UNL     1     -10.411   5.955  71.626  1.00  0.00    -0.285 A  
HETATM   26  C   UNL     1     -11.602   6.358  71.033  1.00  0.00    -0.386 A  
HETATM   27  C   UNL     1     -10.420   5.276  72.973  1.00  0.00    -0.210 C  
HETATM   28  F   UNL     1      -9.183   4.901  73.407  1.00  0.00    -0.122 F  
HETATM   29  F   UNL     1     -11.163   4.133  72.969  1.00  0.00    -0.267 F  
HETATM   30  F   UNL     1     -10.941   6.057  73.957  1.00  0.00    -0.215 F  
HETATM   31  C   UNL     1     -11.575   6.950  69.776  1.00  0.00    -0.205 A  
ENDBRANCH  13  14
ENDBRANCH  12  13
ENDBRANCH  11  12
ENDBRANCH   8  11
ENDBRANCH   4   5
ENDBRANCH   2   4
TORSDOF 6
ENDMDL
MODEL      187
REMARK 921   NORMALIZED FREE ENERGY PREDICTED BY IDOCK:   -3.98 KCAL/MOL
REMARK 922        TOTAL FREE ENERGY PREDICTED BY IDOCK:   -5.62 KCAL/MOL
REMARK 923 INTER-LIGAND FREE ENERGY PREDICTED BY IDOCK:   -5.44 KCAL/MOL
REMARK 924 INTRA-LIGAND FREE ENERGY PREDICTED BY IDOCK:   -0.18 KCAL/MOL
REMARK 927      BINDING AFFINITY PREDICTED BY RF-SCORE:    0.00 PKD
ROOT
HETATM    1  O   UNL     1      -8.995   7.616  74.401  1.00  0.00    -0.413 OA 
HETATM    2  C   UNL     1      -8.666   6.596  73.460  1.00  0.00    -0.123 C  
HETATM    3  H   UNL     1      -8.200   8.022  74.724  1.00  0.00     0.000 HD 
ENDROOT
BRANCH   2   4
HETATM    4  C   UNL     1      -9.954   5.939  72.937  1.00  0.00    -0.173 C  
BRANCH   4   5
HETATM    5  N   UNL     1     -10.048   5.886  71.463  1.00  0.00    -0.187 NA 
HETATM    6  C   UNL     1     -11.390   6.243  70.966  1.00  0.00    -0.316 C  
HETATM    7  C   UNL     1     -11.741   7.734  71.128  1.00  0.00    -0.284 C  
HETATM    8  N   UNL     1     -10.785   8.669  70.499  1.00  0.00    -0.216 NA 
HETATM    9  C   UNL     1      -9.064   6.802  70.840  1.00  0.00    -0.153 C  
HETATM   10  C   UNL     1      -9.414   8.310  70.925  1.00  0.00    -0.162 C  
BRANCH   8  11
HETATM   11  C   UNL     1     -10.901   8.721  69.034  1.00  0.00    -0.027 C  
BRANCH  11  12
HETATM   12  C   UNL     1     -10.881  10.150  68.474  1.00  0.00    -0.278 C  
BRANCH  12  13
HETATM   13  C   UNL     1      -9.697  10.387  67.523  1.00  0.00    -0.169 C  
BRANCH  13  14
HETATM   14  N   UNL     1      -8.602  11.112  68.217  1.00  0.00    -0.140 NA 
HETATM   15  C   UNL     1      -7.444  10.353  68.573  1.00  0.00    -0.089 A  
HETATM   16  C   UNL     1      -7.407   8.939  68.507  1.00  0.00    -0.081 A  
HETATM   17  C   UNL     1      -6.283   8.186  68.873  1.00  0.00    -0.040 A  
HETATM   18  C   UNL     1      -5.142   8.823  69.321  1.00  0.00    -0.035 A  
HETATM   19  C   UNL     1      -5.133  10.210  69.399  1.00  0.00    -0.039 A  
HETATM   20  C   UNL     1      -6.263  10.972  69.033  1.00  0.00    -0.045 A  
HETATM   21  S   UNL     1      -6.056  12.728  69.186  1.00  0.00    -0.099 SA 
HETATM   22  C   UNL     1      -7.608  13.355  68.603  1.00  0.00    -0.101 A  
HETATM   23  C   UNL     1      -8.691  12.542  68.224  1.00  0.00    -0.171 A  
HETATM   24  C   UNL     1      -9.867  13.231  67.835  1.00  0.00    -0.234 A  
HETATM   25  C   UNL     1      -9.954  14.634  67.726  1.00  0.00    -0.224 A  
HETATM   26  C   UNL     1      -8.850  15.397  68.085  1.00  0.00    -0.170 A  
HETATM   27  C   UNL     1     -11.203  15.298  67.201  1.00  0.00    -0.291 C  
HETATM   28  F   UNL     1     -12.186  14.421  66.850  1.00  0.00    -0.427 F  
HETATM   29  F   UNL     1     -10.961  16.035  66.079  1.00  0.00    -0.308 F  
HETATM   30  F   UNL     1     -11.766  16.153  68.096  1.00  0.00    -0.324 F  
HETATM   31  C   UNL     1      -7.696  14.763  68.534  1.00  0.00    -0.120 A  
ENDBRANCH  13  14
ENDBRANCH  12  13
ENDBRANCH  11  12
ENDBRANCH   8  11
ENDBRANCH   4   5
ENDBRANCH   2   4
TORSDOF 6
ENDMDL
MODEL      188
REMARK 921   NORMALIZED FREE ENERGY PREDICTED BY IDOCK:   -3.97 KCAL/MOL
REMARK 922        TOTAL FREE ENERGY PREDICTED BY IDOCK:   -5.60 KCAL/MOL
REMARK 923 INTER-LIGAND FREE ENERGY PREDICTED BY IDOCK:   -5.11 KCAL/MOL
REMARK 924 INTRA-LIGAND FREE ENERGY PREDICTED BY IDOCK:   -0.49 KCAL/MOL
REMARK 927      BINDING AFFINITY PREDICTED BY RF-SCORE:    0.00 PKD
ROOT
HETATM    1  O   UNL     1      -6.581  16.519  68.976  1.00  0.00    -0.168 OA 
HETATM    2  C   UNL     1      -5.401  15.817  69.363  1.00  0.00    -0.108 C  
HETATM    3  H   UNL     1      -6.405  17.451  68.950  1.00  0.00     0.000 HD 
ENDROOT
BRANCH   2   4
HETATM    4  C   UNL     1      -5.688  14.307  69.406  1.00  0.00    -0.092 C  
BRANCH   4   5
HETATM    5  N   UNL     1      -5.927  13.700  68.080  1.00  0.00    -0.105 NA 
HETATM    6  C   UNL     1      -5.767  12.234  68.088  1.00  0.00    -0.056 C  
HETATM    7  C   UNL     1      -6.881  11.488  68.845  1.00  0.00    -0.095 C  
HETATM    8  N   UNL     1      -8.252  11.768  68.370  1.00  0.00    -0.152 NA 
HETATM    9  C   UNL     1      -7.292  14.015  67.596  1.00  0.00    -0.175 C  
HETATM   10  C   UNL     1      -8.439  13.235  68.291  1.00  0.00    -0.160 C  
BRANCH   8  11
HETATM   11  C   UNL     1      -8.572  11.112  67.094  1.00  0.00    -0.139 C  
BRANCH  11  12
HETATM   12  C   UNL     1      -8.832   9.606  67.235  1.00  0.00    -0.139 C  
BRANCH  12  13
HETATM   13  C   UNL     1     -10.321   9.255  67.086  1.00  0.00    -0.260 C  
BRANCH  13  14
HETATM   14  N   UNL     1     -10.793   8.458  68.247  1.00  0.00    -0.005 NA 
HETATM   15  C   UNL     1     -10.434   7.074  68.274  1.00  0.00    -0.202 A  
HETATM   16  C   UNL     1      -9.873   6.408  67.158  1.00  0.00    -0.182 A  
HETATM   17  C   UNL     1      -9.537   5.048  67.170  1.00  0.00    -0.165 A  
HETATM   18  C   UNL     1      -9.749   4.295  68.309  1.00  0.00    -0.162 A  
HETATM   19  C   UNL     1     -10.296   4.909  69.428  1.00  0.00    -0.138 A  
HETATM   20  C   UNL     1     -10.637   6.278  69.420  1.00  0.00    -0.271 A  
HETATM   21  S   UNL     1     -11.309   6.885  70.947  1.00  0.00    -0.324 SA 
HETATM   22  C   UNL     1     -11.562   8.606  70.604  1.00  0.00    -0.200 A  
HETATM   23  C   UNL     1     -11.327   9.199  69.351  1.00  0.00     0.202 A  
HETATM   24  C   UNL     1     -11.640  10.579  69.259  1.00  0.00    -0.308 A  
HETATM   25  C   UNL     1     -12.062  11.361  70.352  1.00  0.00    -0.473 A  
HETATM   26  C   UNL     1     -12.254  10.738  71.579  1.00  0.00    -0.302 A  
HETATM   27  C   UNL     1     -12.273  12.849  70.209  1.00  0.00    -0.289 C  
HETATM   28  F   UNL     1     -12.006  13.324  68.960  1.00  0.00    -0.311 F  
HETATM   29  F   UNL     1     -11.468  13.565  71.047  1.00  0.00    -0.069 F  
HETATM   30  F   UNL     1     -13.545  13.234  70.493  1.00  0.00     0.201 F  
HETATM   31  C   UNL     1     -12.021   9.372  71.697  1.00  0.00    -0.465 A  
ENDBRANCH  13  14
ENDBRANCH  12  13
ENDBRANCH  11  12
ENDBRANCH   8  11
ENDBRANCH   4   5
ENDBRANCH   2   4
TORSDOF 6
ENDMDL
MODEL      189
REMARK 921   NORMALIZED FREE ENERGY PREDICTED BY IDOCK:   -3.95 KCAL/MOL
REMARK 922        TOTAL FREE ENERGY PREDICTED BY IDOCK:   -5.57 KCAL/MOL
REMARK 923 INTER-LIGAND FREE ENERGY PREDICTED BY IDOCK:   -5.02 KCAL/MOL
REMARK 924 INTRA-LIGAND FREE ENERGY PREDICTED BY IDOCK:   -0.56 KCAL/MOL
REMARK 927      BINDING AFFINITY PREDICTED BY RF-SCORE:    0.00 PKD
ROOT
HETATM    1  O   UNL     1      -8.445  11.609  62.555  1.00  0.00    -0.639 OA 
HETATM    2  C   UNL     1      -9.726  11.267  63.081  1.00  0.00    -0.386 C  
HETATM    3  H   UNL     1      -8.539  11.922  61.663  1.00  0.00     0.000 HD 
ENDROOT
BRANCH   2   4
HETATM    4  C   UNL     1      -9.574  10.760  64.525  1.00  0.00    -0.270 C  
BRANCH   4   5
HETATM    5  N   UNL     1      -8.174  10.664  64.986  1.00  0.00    -0.122 NA 
HETATM    6  C   UNL     1      -7.953  11.337  66.279  1.00  0.00    -0.086 C  
HETATM    7  C   UNL     1      -8.600  10.617  67.477  1.00  0.00    -0.122 C  
HETATM    8  N   UNL     1      -8.191   9.207  67.650  1.00  0.00    -0.108 NA 
HETATM    9  C   UNL     1      -7.762   9.247  65.125  1.00  0.00    -0.108 C  
HETATM   10  C   UNL     1      -8.342   8.504  66.356  1.00  0.00    -0.114 C  
BRANCH   8  11
HETATM   11  C   UNL     1      -6.834   9.057  68.194  1.00  0.00    -0.069 C  
BRANCH  11  12
HETATM   12  C   UNL     1      -6.267   7.641  68.028  1.00  0.00    -0.045 C  
BRANCH  12  13
HETATM   13  C   UNL     1      -6.543   6.755  69.253  1.00  0.00    -0.048 C  
BRANCH  13  14
HETATM   14  N   UNL     1      -7.988   6.421  69.347  1.00  0.00    -0.108 NA 
HETATM   15  C   UNL     1      -8.737   7.063  70.382  1.00  0.00    -0.147 A  
HETATM   16  C   UNL     1      -8.124   7.791  71.430  1.00  0.00    -0.103 A  
HETATM   17  C   UNL     1      -8.850   8.405  72.459  1.00  0.00    -0.296 A  
HETATM   18  C   UNL     1     -10.229   8.317  72.479  1.00  0.00    -0.386 A  
HETATM   19  C   UNL     1     -10.872   7.614  71.468  1.00  0.00    -0.256 A  
HETATM   20  C   UNL     1     -10.145   6.992  70.431  1.00  0.00    -0.187 A  
HETATM   21  S   UNL     1     -11.141   6.155  69.224  1.00  0.00    -0.350 SA 
HETATM   22  C   UNL     1      -9.935   5.557  68.071  1.00  0.00    -0.149 A  
HETATM   23  C   UNL     1      -8.547   5.705  68.239  1.00  0.00    -0.107 A  
HETATM   24  C   UNL     1      -7.742   5.112  67.235  1.00  0.00    -0.092 A  
HETATM   25  C   UNL     1      -8.260   4.496  66.077  1.00  0.00    -0.110 A  
HETATM   26  C   UNL     1      -9.639   4.397  65.939  1.00  0.00    -0.188 A  
HETATM   27  C   UNL     1      -7.344   3.982  64.993  1.00  0.00    -0.072 C  
HETATM   28  F   UNL     1      -6.021   4.185  65.249  1.00  0.00    -0.020 F  
HETATM   29  F   UNL     1      -7.577   4.587  63.794  1.00  0.00    -0.061 F  
HETATM   30  F   UNL     1      -7.482   2.647  64.771  1.00  0.00    -0.064 F  
HETATM   31  C   UNL     1     -10.465   4.909  66.934  1.00  0.00    -0.202 A  
ENDBRANCH  13  14
ENDBRANCH  12  13
ENDBRANCH  11  12
ENDBRANCH   8  11
ENDBRANCH   4   5
ENDBRANCH   2   4
TORSDOF 6
ENDMDL
MODEL      190
REMARK 921   NORMALIZED FREE ENERGY PREDICTED BY IDOCK:   -3.94 KCAL/MOL
REMARK 922        TOTAL FREE ENERGY PREDICTED BY IDOCK:   -5.56 KCAL/MOL
REMARK 923 INTER-LIGAND FREE ENERGY PREDICTED BY IDOCK:   -4.65 KCAL/MOL
REMARK 924 INTRA-LIGAND FREE ENERGY PREDICTED BY IDOCK:   -0.91 KCAL/MOL
REMARK 927      BINDING AFFINITY PREDICTED BY RF-SCORE:    0.00 PKD
ROOT
HETATM    1  O   UNL     1      -9.239   1.898  72.566  1.00  0.00    -0.072 OA 
HETATM    2  C   UNL     1     -10.357   2.783  72.526  1.00  0.00    -0.121 C  
HETATM    3  H   UNL     1      -9.510   1.028  72.298  1.00  0.00     0.000 HD 
ENDROOT
BRANCH   2   4
HETATM    4  C   UNL     1      -9.917   4.191  72.959  1.00  0.00    -0.141 C  
BRANCH   4   5
HETATM    5  N   UNL     1     -10.838   5.267  72.537  1.00  0.00    -0.238 NA 
HETATM    6  C   UNL     1     -10.499   6.573  73.132  1.00  0.00    -0.249 C  
HETATM    7  C   UNL     1      -9.206   7.196  72.574  1.00  0.00    -0.138 C  
HETATM    8  N   UNL     1      -9.183   7.373  71.107  1.00  0.00    -0.154 NA 
HETATM    9  C   UNL     1     -10.834   5.414  71.062  1.00  0.00    -0.119 C  
HETATM   10  C   UNL     1      -9.575   6.097  70.467  1.00  0.00    -0.168 C  
BRANCH   8  11
HETATM   11  C   UNL     1     -10.015   8.492  70.642  1.00  0.00    -0.189 C  
BRANCH  11  12
HETATM   12  C   UNL     1      -9.198   9.714  70.201  1.00  0.00    -0.287 C  
BRANCH  12  13
HETATM   13  C   UNL     1      -9.675  10.279  68.854  1.00  0.00    -0.189 C  
BRANCH  13  14
HETATM   14  N   UNL     1      -8.604  10.171  67.829  1.00  0.00    -0.118 NA 
HETATM   15  C   UNL     1      -7.610  11.198  67.818  1.00  0.00    -0.100 A  
HETATM   16  C   UNL     1      -7.740  12.395  68.562  1.00  0.00    -0.120 A  
HETATM   17  C   UNL     1      -6.779  13.415  68.540  1.00  0.00    -0.096 A  
HETATM   18  C   UNL     1      -5.641  13.275  67.769  1.00  0.00    -0.109 A  
HETATM   19  C   UNL     1      -5.471  12.115  67.025  1.00  0.00    -0.066 A  
HETATM   20  C   UNL     1      -6.437  11.085  67.043  1.00  0.00    -0.092 A  
HETATM   21  S   UNL     1      -6.038   9.676  66.041  1.00  0.00    -0.066 SA 
HETATM   22  C   UNL     1      -7.405   8.587  66.339  1.00  0.00    -0.080 A  
HETATM   23  C   UNL     1      -8.516   8.922  67.132  1.00  0.00    -0.106 A  
HETATM   24  C   UNL     1      -9.533   7.937  67.207  1.00  0.00    -0.188 A  
HETATM   25  C   UNL     1      -9.430   6.658  66.625  1.00  0.00    -0.201 A  
HETATM   26  C   UNL     1      -8.300   6.361  65.873  1.00  0.00    -0.143 A  
HETATM   27  C   UNL     1     -10.503   5.618  66.836  1.00  0.00    -0.288 C  
HETATM   28  F   UNL     1     -11.529   6.039  67.629  1.00  0.00    -0.305 F  
HETATM   29  F   UNL     1     -10.019   4.494  67.439  1.00  0.00    -0.199 F  
HETATM   30  F   UNL     1     -11.075   5.202  65.674  1.00  0.00    -0.232 F  
HETATM   31  C   UNL     1      -7.308   7.322  65.719  1.00  0.00    -0.075 A  
ENDBRANCH  13  14
ENDBRANCH  12  13
ENDBRANCH  11  12
ENDBRANCH   8  11
ENDBRANCH   4   5
ENDBRANCH   2   4
TORSDOF 6
ENDMDL
MODEL      191
REMARK 921   NORMALIZED FREE ENERGY PREDICTED BY IDOCK:   -3.94 KCAL/MOL
REMARK 922        TOTAL FREE ENERGY PREDICTED BY IDOCK:   -5.56 KCAL/MOL
REMARK 923 INTER-LIGAND FREE ENERGY PREDICTED BY IDOCK:   -5.01 KCAL/MOL
REMARK 924 INTRA-LIGAND FREE ENERGY PREDICTED BY IDOCK:   -0.55 KCAL/MOL
REMARK 927      BINDING AFFINITY PREDICTED BY RF-SCORE:    0.00 PKD
ROOT
HETATM    1  O   UNL     1     -11.964   1.737  62.546  1.00  0.00    -0.341 OA 
HETATM    2  C   UNL     1     -10.963   2.718  62.812  1.00  0.00    -0.166 C  
HETATM    3  H   UNL     1     -12.603   2.089  61.937  1.00  0.00     0.000 HD 
ENDROOT
BRANCH   2   4
HETATM    4  C   UNL     1      -9.930   2.147  63.798  1.00  0.00    -0.135 C  
BRANCH   4   5
HETATM    5  N   UNL     1      -8.913   3.124  64.237  1.00  0.00    -0.105 NA 
HETATM    6  C   UNL     1      -9.491   4.441  64.564  1.00  0.00    -0.129 C  
HETATM    7  C   UNL     1     -10.336   4.450  65.852  1.00  0.00    -0.204 C  
HETATM    8  N   UNL     1      -9.631   3.977  67.062  1.00  0.00    -0.200 NA 
HETATM    9  C   UNL     1      -8.188   2.628  65.431  1.00  0.00    -0.089 C  
HETATM   10  C   UNL     1      -8.984   2.681  66.761  1.00  0.00    -0.144 C  
BRANCH   8  11
HETATM   11  C   UNL     1      -8.669   4.954  67.593  1.00  0.00    -0.103 C  
BRANCH  11  12
HETATM   12  C   UNL     1      -9.113   5.582  68.921  1.00  0.00    -0.133 C  
BRANCH  12  13
HETATM   13  C   UNL     1      -9.689   4.542  69.894  1.00  0.00    -0.218 C  
BRANCH  13  14
HETATM   14  N   UNL     1      -9.012   4.623  71.215  1.00  0.00    -0.124 NA 
HETATM   15  C   UNL     1      -7.903   3.747  71.430  1.00  0.00    -0.060 A  
HETATM   16  C   UNL     1      -7.593   2.677  70.556  1.00  0.00    -0.043 A  
HETATM   17  C   UNL     1      -6.520   1.802  70.772  1.00  0.00    -0.024 A  
HETATM   18  C   UNL     1      -5.708   1.964  71.879  1.00  0.00    -0.008 A  
HETATM   19  C   UNL     1      -5.975   3.002  72.762  1.00  0.00    -0.008 A  
HETATM   20  C   UNL     1      -7.056   3.886  72.549  1.00  0.00    -0.055 A  
HETATM   21  S   UNL     1      -7.228   5.157  73.776  1.00  0.00    -0.084 SA 
HETATM   22  C   UNL     1      -8.610   6.090  73.177  1.00  0.00    -0.118 A  
HETATM   23  C   UNL     1      -9.356   5.745  72.037  1.00  0.00    -0.150 A  
HETATM   24  C   UNL     1     -10.460   6.587  71.749  1.00  0.00    -0.239 A  
HETATM   25  C   UNL     1     -10.761   7.759  72.471  1.00  0.00    -0.372 A  
HETATM   26  C   UNL     1      -9.979   8.077  73.575  1.00  0.00    -0.017 A  
HETATM   27  C   UNL     1     -11.886   8.670  72.043  1.00  0.00    -0.372 C  
HETATM   28  F   UNL     1     -12.536   8.251  70.921  1.00  0.00    -0.270 F  
HETATM   29  F   UNL     1     -11.447   9.929  71.757  1.00  0.00    -0.428 F  
HETATM   30  F   UNL     1     -12.843   8.816  72.998  1.00  0.00    -0.413 F  
HETATM   31  C   UNL     1      -8.926   7.242  73.932  1.00  0.00    -0.261 A  
ENDBRANCH  13  14
ENDBRANCH  12  13
ENDBRANCH  11  12
ENDBRANCH   8  11
ENDBRANCH   4   5
ENDBRANCH   2   4
TORSDOF 6
ENDMDL
MODEL      192
REMARK 921   NORMALIZED FREE ENERGY PREDICTED BY IDOCK:   -3.93 KCAL/MOL
REMARK 922        TOTAL FREE ENERGY PREDICTED BY IDOCK:   -5.54 KCAL/MOL
REMARK 923 INTER-LIGAND FREE ENERGY PREDICTED BY IDOCK:   -5.14 KCAL/MOL
REMARK 924 INTRA-LIGAND FREE ENERGY PREDICTED BY IDOCK:   -0.40 KCAL/MOL
REMARK 927      BINDING AFFINITY PREDICTED BY RF-SCORE:    0.00 PKD
ROOT
HETATM    1  O   UNL     1      -8.635  14.992  66.448  1.00  0.00    -0.438 OA 
HETATM    2  C   UNL     1      -8.649  13.798  67.228  1.00  0.00    -0.212 C  
HETATM    3  H   UNL     1      -8.297  15.711  66.969  1.00  0.00     0.000 HD 
ENDROOT
BRANCH   2   4
HETATM    4  C   UNL     1      -9.197  12.635  66.385  1.00  0.00    -0.160 C  
BRANCH   4   5
HETATM    5  N   UNL     1      -9.734  11.513  67.181  1.00  0.00    -0.183 NA 
HETATM    6  C   UNL     1     -10.193  10.389  66.344  1.00  0.00    -0.230 C  
HETATM    7  C   UNL     1      -9.052   9.612  65.661  1.00  0.00    -0.189 C  
HETATM    8  N   UNL     1      -8.029   9.073  66.580  1.00  0.00    -0.100 NA 
HETATM    9  C   UNL     1      -8.712  11.001  68.124  1.00  0.00    -0.141 C  
HETATM   10  C   UNL     1      -7.579  10.157  67.483  1.00  0.00    -0.091 C  
BRANCH   8  11
HETATM   11  C   UNL     1      -8.485   7.896  67.334  1.00  0.00    -0.122 C  
BRANCH  11  12
HETATM   12  C   UNL     1      -9.207   6.860  66.461  1.00  0.00    -0.195 C  
BRANCH  12  13
HETATM   13  C   UNL     1     -10.390   6.205  67.192  1.00  0.00    -0.230 C  
BRANCH  13  14
HETATM   14  N   UNL     1      -9.922   5.103  68.072  1.00  0.00    -0.154 NA 
HETATM   15  C   UNL     1     -10.171   5.239  69.473  1.00  0.00    -0.268 A  
HETATM   16  C   UNL     1     -10.614   6.451  70.056  1.00  0.00    -0.291 A  
HETATM   17  C   UNL     1     -10.841   6.598  71.431  1.00  0.00    -0.282 A  
HETATM   18  C   UNL     1     -10.634   5.530  72.283  1.00  0.00    -0.276 A  
HETATM   19  C   UNL     1     -10.202   4.321  71.753  1.00  0.00    -0.182 A  
HETATM   20  C   UNL     1      -9.970   4.169  70.369  1.00  0.00    -0.093 A  
HETATM   21  S   UNL     1      -9.436   2.548  69.880  1.00  0.00    -0.001 SA 
HETATM   22  C   UNL     1      -9.302   2.699  68.119  1.00  0.00    -0.203 A  
HETATM   23  C   UNL     1      -9.511   3.897  67.415  1.00  0.00    -0.195 A  
HETATM   24  C   UNL     1      -9.304   3.829  66.014  1.00  0.00    -0.173 A  
HETATM   25  C   UNL     1      -9.008   2.637  65.323  1.00  0.00    -0.137 A  
HETATM   26  C   UNL     1      -8.837   1.470  66.057  1.00  0.00    -0.118 A  
HETATM   27  C   UNL     1      -8.908   2.614  63.817  1.00  0.00    -0.086 C  
HETATM   28  F   UNL     1      -9.140   3.824  63.233  1.00  0.00    -0.094 F  
HETATM   29  F   UNL     1      -9.812   1.762  63.255  1.00  0.00    -0.096 F  
HETATM   30  F   UNL     1      -7.688   2.211  63.372  1.00  0.00    -0.051 F  
HETATM   31  C   UNL     1      -8.967   1.506  67.441  1.00  0.00    -0.152 A  
ENDBRANCH  13  14
ENDBRANCH  12  13
ENDBRANCH  11  12
ENDBRANCH   8  11
ENDBRANCH   4   5
ENDBRANCH   2   4
TORSDOF 6
ENDMDL
MODEL      193
REMARK 921   NORMALIZED FREE ENERGY PREDICTED BY IDOCK:   -3.89 KCAL/MOL
REMARK 922        TOTAL FREE ENERGY PREDICTED BY IDOCK:   -5.49 KCAL/MOL
REMARK 923 INTER-LIGAND FREE ENERGY PREDICTED BY IDOCK:   -5.01 KCAL/MOL
REMARK 924 INTRA-LIGAND FREE ENERGY PREDICTED BY IDOCK:   -0.48 KCAL/MOL
REMARK 927      BINDING AFFINITY PREDICTED BY RF-SCORE:    0.00 PKD
ROOT
HETATM    1  O   UNL     1      -9.483   3.929  72.645  1.00  0.00    -0.115 OA 
HETATM    2  C   UNL     1      -8.148   4.321  72.963  1.00  0.00    -0.091 C  
HETATM    3  H   UNL     1      -9.490   3.026  72.353  1.00  0.00     0.000 HD 
ENDROOT
BRANCH   2   4
HETATM    4  C   UNL     1      -8.137   5.784  73.435  1.00  0.00    -0.113 C  
BRANCH   4   5
HETATM    5  N   UNL     1      -7.098   6.616  72.794  1.00  0.00    -0.079 NA 
HETATM    6  C   UNL     1      -7.051   6.441  71.331  1.00  0.00    -0.077 C  
HETATM    7  C   UNL     1      -8.262   7.040  70.591  1.00  0.00    -0.119 C  
HETATM    8  N   UNL     1      -8.498   8.476  70.845  1.00  0.00    -0.138 NA 
HETATM    9  C   UNL     1      -7.323   8.052  73.082  1.00  0.00    -0.119 C  
HETATM   10  C   UNL     1      -8.495   8.709  72.307  1.00  0.00    -0.078 C  
BRANCH   8  11
HETATM   11  C   UNL     1      -7.543   9.355  70.154  1.00  0.00    -0.130 C  
BRANCH  11  12
HETATM   12  C   UNL     1      -8.172  10.664  69.659  1.00  0.00     0.046 C  
BRANCH  12  13
HETATM   13  C   UNL     1      -7.400  11.270  68.476  1.00  0.00    -0.106 C  
BRANCH  13  14
HETATM   14  N   UNL     1      -8.144  11.075  67.205  1.00  0.00    -0.129 NA 
HETATM   15  C   UNL     1      -7.713  10.007  66.358  1.00  0.00    -0.103 A  
HETATM   16  C   UNL     1      -6.498   9.310  66.565  1.00  0.00    -0.067 A  
HETATM   17  C   UNL     1      -6.059   8.276  65.727  1.00  0.00    -0.045 A  
HETATM   18  C   UNL     1      -6.825   7.894  64.642  1.00  0.00    -0.062 A  
HETATM   19  C   UNL     1      -8.026   8.549  64.404  1.00  0.00    -0.147 A  
HETATM   20  C   UNL     1      -8.472   9.592  65.244  1.00  0.00    -0.146 A  
HETATM   21  S   UNL     1     -10.035  10.297  64.787  1.00  0.00    -0.251 SA 
HETATM   22  C   UNL     1     -10.304  11.503  66.057  1.00  0.00    -0.246 A  
HETATM   23  C   UNL     1      -9.377  11.792  67.074  1.00  0.00    -0.184 A  
HETATM   24  C   UNL     1      -9.752  12.828  67.967  1.00  0.00    -0.220 A  
HETATM   25  C   UNL     1     -11.001  13.478  67.934  1.00  0.00    -0.275 A  
HETATM   26  C   UNL     1     -11.898  13.140  66.928  1.00  0.00    -0.444 A  
HETATM   27  C   UNL     1     -11.378  14.495  68.983  1.00  0.00    -0.272 C  
HETATM   28  F   UNL     1     -10.416  14.692  69.928  1.00  0.00    -0.198 F  
HETATM   29  F   UNL     1     -12.495  14.131  69.676  1.00  0.00    -0.356 F  
HETATM   30  F   UNL     1     -11.646  15.722  68.461  1.00  0.00    -0.328 F  
HETATM   31  C   UNL     1     -11.545  12.175  65.991  1.00  0.00    -0.420 A  
ENDBRANCH  13  14
ENDBRANCH  12  13
ENDBRANCH  11  12
ENDBRANCH   8  11
ENDBRANCH   4   5
ENDBRANCH   2   4
TORSDOF 6
ENDMDL
MODEL      194
REMARK 921   NORMALIZED FREE ENERGY PREDICTED BY IDOCK:   -3.89 KCAL/MOL
REMARK 922        TOTAL FREE ENERGY PREDICTED BY IDOCK:   -5.49 KCAL/MOL
REMARK 923 INTER-LIGAND FREE ENERGY PREDICTED BY IDOCK:   -4.93 KCAL/MOL
REMARK 924 INTRA-LIGAND FREE ENERGY PREDICTED BY IDOCK:   -0.56 KCAL/MOL
REMARK 927      BINDING AFFINITY PREDICTED BY RF-SCORE:    0.00 PKD
ROOT
HETATM    1  O   UNL     1      -7.606  15.030  69.827  1.00  0.00    -0.303 OA 
HETATM    2  C   UNL     1      -6.472  14.435  69.199  1.00  0.00    -0.107 C  
HETATM    3  H   UNL     1      -7.529  15.976  69.794  1.00  0.00     0.000 HD 
ENDROOT
BRANCH   2   4
HETATM    4  C   UNL     1      -6.596  12.903  69.252  1.00  0.00    -0.085 C  
BRANCH   4   5
HETATM    5  N   UNL     1      -7.251  12.310  68.068  1.00  0.00    -0.092 NA 
HETATM    6  C   UNL     1      -6.739  10.964  67.749  1.00  0.00    -0.064 C  
HETATM    7  C   UNL     1      -7.155   9.881  68.763  1.00  0.00    -0.067 C  
HETATM    8  N   UNL     1      -8.613   9.750  68.970  1.00  0.00    -0.137 NA 
HETATM    9  C   UNL     1      -8.715  12.213  68.271  1.00  0.00    -0.178 C  
HETATM   10  C   UNL     1      -9.180  11.091  69.236  1.00  0.00     0.085 C  
BRANCH   8  11
HETATM   11  C   UNL     1      -9.301   9.082  67.856  1.00  0.00    -0.141 C  
BRANCH  11  12
HETATM   12  C   UNL     1      -8.971   7.587  67.747  1.00  0.00    -0.131 C  
BRANCH  12  13
HETATM   13  C   UNL     1     -10.234   6.715  67.668  1.00  0.00    -0.177 C  
BRANCH  13  14
HETATM   14  N   UNL     1      -9.991   5.379  68.271  1.00  0.00    -0.150 NA 
HETATM   15  C   UNL     1      -9.696   4.306  67.374  1.00  0.00    -0.163 A  
HETATM   16  C   UNL     1      -9.860   4.414  65.972  1.00  0.00    -0.241 A  
HETATM   17  C   UNL     1      -9.592   3.360  65.088  1.00  0.00    -0.131 A  
HETATM   18  C   UNL     1      -9.145   2.147  65.576  1.00  0.00    -0.091 A  
HETATM   19  C   UNL     1      -8.968   1.998  66.945  1.00  0.00    -0.133 A  
HETATM   20  C   UNL     1      -9.237   3.056  67.840  1.00  0.00    -0.199 A  
HETATM   21  S   UNL     1      -8.937   2.680  69.548  1.00  0.00    -0.119 SA 
HETATM   22  C   UNL     1      -9.315   4.211  70.356  1.00  0.00    -0.155 A  
HETATM   23  C   UNL     1      -9.810   5.348  69.692  1.00  0.00    -0.193 A  
HETATM   24  C   UNL     1     -10.103   6.461  70.520  1.00  0.00    -0.221 A  
HETATM   25  C   UNL     1      -9.835   6.502  71.903  1.00  0.00    -0.168 A  
HETATM   26  C   UNL     1      -9.319   5.364  72.512  1.00  0.00    -0.155 A  
HETATM   27  C   UNL     1     -10.069   7.758  72.705  1.00  0.00    -0.260 C  
HETATM   28  F   UNL     1     -10.537   8.803  71.965  1.00  0.00    -0.340 F  
HETATM   29  F   UNL     1      -8.925   8.215  73.291  1.00  0.00    -0.254 F  
HETATM   30  F   UNL     1     -10.963   7.584  73.715  1.00  0.00    -0.390 F  
HETATM   31  C   UNL     1      -9.078   4.227  71.748  1.00  0.00    -0.166 A  
ENDBRANCH  13  14
ENDBRANCH  12  13
ENDBRANCH  11  12
ENDBRANCH   8  11
ENDBRANCH   4   5
ENDBRANCH   2   4
TORSDOF 6
ENDMDL
MODEL      195
REMARK 921   NORMALIZED FREE ENERGY PREDICTED BY IDOCK:   -3.88 KCAL/MOL
REMARK 922        TOTAL FREE ENERGY PREDICTED BY IDOCK:   -5.48 KCAL/MOL
REMARK 923 INTER-LIGAND FREE ENERGY PREDICTED BY IDOCK:   -4.95 KCAL/MOL
REMARK 924 INTRA-LIGAND FREE ENERGY PREDICTED BY IDOCK:   -0.53 KCAL/MOL
REMARK 927      BINDING AFFINITY PREDICTED BY RF-SCORE:    0.00 PKD
ROOT
HETATM    1  O   UNL     1     -13.191  16.327  71.331  1.00  0.00    -0.260 OA 
HETATM    2  C   UNL     1     -14.124  15.250  71.393  1.00  0.00    -0.495 C  
HETATM    3  H   UNL     1     -13.482  17.035  71.893  1.00  0.00     0.000 HD 
ENDROOT
BRANCH   2   4
HETATM    4  C   UNL     1     -13.653  14.104  70.482  1.00  0.00     0.444 C  
BRANCH   4   5
HETATM    5  N   UNL     1     -12.418  13.437  70.943  1.00  0.00    -0.371 NA 
HETATM    6  C   UNL     1     -12.638  12.588  72.129  1.00  0.00     0.272 C  
HETATM    7  C   UNL     1     -13.451  11.312  71.842  1.00  0.00    -0.174 C  
HETATM    8  N   UNL     1     -12.891  10.441  70.788  1.00  0.00    -0.373 NA 
HETATM    9  C   UNL     1     -11.845  12.592  69.869  1.00  0.00    -0.294 C  
HETATM   10  C   UNL     1     -12.599  11.265  69.593  1.00  0.00     0.022 C  
BRANCH   8  11
HETATM   11  C   UNL     1     -11.709   9.683  71.226  1.00  0.00    -0.382 C  
BRANCH  11  12
HETATM   12  C   UNL     1     -11.272   8.609  70.221  1.00  0.00    -0.196 C  
BRANCH  12  13
HETATM   13  C   UNL     1      -9.814   8.170  70.435  1.00  0.00    -0.186 C  
BRANCH  13  14
HETATM   14  N   UNL     1      -9.446   7.087  69.487  1.00  0.00    -0.147 NA 
HETATM   15  C   UNL     1      -8.861   7.484  68.244  1.00  0.00    -0.125 A  
HETATM   16  C   UNL     1      -8.845   8.828  67.801  1.00  0.00    -0.137 A  
HETATM   17  C   UNL     1      -8.293   9.222  66.574  1.00  0.00    -0.126 A  
HETATM   18  C   UNL     1      -7.728   8.279  65.737  1.00  0.00    -0.091 A  
HETATM   19  C   UNL     1      -7.720   6.947  66.134  1.00  0.00    -0.091 A  
HETATM   20  C   UNL     1      -8.277   6.546  67.367  1.00  0.00    -0.121 A  
HETATM   21  S   UNL     1      -8.158   4.808  67.705  1.00  0.00    -0.097 SA 
HETATM   22  C   UNL     1      -8.885   4.674  69.316  1.00  0.00    -0.089 A  
HETATM   23  C   UNL     1      -9.460   5.753  70.010  1.00  0.00    -0.158 A  
HETATM   24  C   UNL     1     -10.038   5.436  71.264  1.00  0.00    -0.270 A  
HETATM   25  C   UNL     1      -9.974   4.159  71.857  1.00  0.00    -0.253 A  
HETATM   26  C   UNL     1      -9.371   3.128  71.146  1.00  0.00    -0.211 A  
HETATM   27  C   UNL     1     -10.515   3.916  73.244  1.00  0.00    -0.177 C  
HETATM   28  F   UNL     1     -11.038   5.029  73.833  1.00  0.00    -0.329 F  
HETATM   29  F   UNL     1      -9.551   3.474  74.102  1.00  0.00    -0.103 F  
HETATM   30  F   UNL     1     -11.500   2.979  73.273  1.00  0.00    -0.276 F  
HETATM   31  C   UNL     1      -8.848   3.381  69.883  1.00  0.00    -0.152 A  
ENDBRANCH  13  14
ENDBRANCH  12  13
ENDBRANCH  11  12
ENDBRANCH   8  11
ENDBRANCH   4   5
ENDBRANCH   2   4
TORSDOF 6
ENDMDL
MODEL      196
REMARK 921   NORMALIZED FREE ENERGY PREDICTED BY IDOCK:   -3.87 KCAL/MOL
REMARK 922        TOTAL FREE ENERGY PREDICTED BY IDOCK:   -5.46 KCAL/MOL
REMARK 923 INTER-LIGAND FREE ENERGY PREDICTED BY IDOCK:   -4.94 KCAL/MOL
REMARK 924 INTRA-LIGAND FREE ENERGY PREDICTED BY IDOCK:   -0.53 KCAL/MOL
REMARK 927      BINDING AFFINITY PREDICTED BY RF-SCORE:    0.00 PKD
ROOT
HETATM    1  O   UNL     1      -8.459  18.968  66.259  1.00  0.00    -0.308 OA 
HETATM    2  C   UNL     1      -8.266  18.432  67.567  1.00  0.00    -0.248 C  
HETATM    3  H   UNL     1      -7.754  19.570  66.053  1.00  0.00     0.000 HD 
ENDROOT
BRANCH   2   4
HETATM    4  C   UNL     1      -9.408  17.457  67.900  1.00  0.00    -0.267 C  
BRANCH   4   5
HETATM    5  N   UNL     1      -9.001  16.320  68.750  1.00  0.00    -0.231 NA 
HETATM    6  C   UNL     1      -9.985  15.222  68.741  1.00  0.00    -0.215 C  
HETATM    7  C   UNL     1     -10.051  14.453  67.408  1.00  0.00    -0.243 C  
HETATM    8  N   UNL     1      -8.766  13.882  66.955  1.00  0.00    -0.220 NA 
HETATM    9  C   UNL     1      -7.695  15.775  68.310  1.00  0.00    -0.132 C  
HETATM   10  C   UNL     1      -7.730  14.939  67.004  1.00  0.00    -0.043 C  
BRANCH   8  11
HETATM   11  C   UNL     1      -8.359  12.689  67.713  1.00  0.00    -0.172 C  
BRANCH  11  12
HETATM   12  C   UNL     1      -7.560  11.681  66.875  1.00  0.00    -0.138 C  
BRANCH  12  13
HETATM   13  C   UNL     1      -8.464  10.835  65.965  1.00  0.00    -0.169 C  
BRANCH  13  14
HETATM   14  N   UNL     1      -8.324   9.389  66.280  1.00  0.00    -0.114 NA 
HETATM   15  C   UNL     1      -7.311   8.667  65.576  1.00  0.00    -0.084 A  
HETATM   16  C   UNL     1      -6.626   9.202  64.459  1.00  0.00    -0.079 A  
HETATM   17  C   UNL     1      -5.647   8.492  63.751  1.00  0.00    -0.066 A  
HETATM   18  C   UNL     1      -5.310   7.210  64.137  1.00  0.00    -0.029 A  
HETATM   19  C   UNL     1      -5.955   6.646  65.230  1.00  0.00    -0.034 A  
HETATM   20  C   UNL     1      -6.943   7.356  65.945  1.00  0.00    -0.061 A  
HETATM   21  S   UNL     1      -7.643   6.476  67.319  1.00  0.00    -0.098 SA 
HETATM   22  C   UNL     1      -8.773   7.657  68.002  1.00  0.00    -0.125 A  
HETATM   23  C   UNL     1      -9.024   8.921  67.439  1.00  0.00    -0.132 A  
HETATM   24  C   UNL     1     -10.003   9.703  68.102  1.00  0.00    -0.185 A  
HETATM   25  C   UNL     1     -10.631   9.320  69.304  1.00  0.00    -0.234 A  
HETATM   26  C   UNL     1     -10.332   8.073  69.840  1.00  0.00    -0.221 A  
HETATM   27  C   UNL     1     -11.584  10.249  70.016  1.00  0.00    -0.276 C  
HETATM   28  F   UNL     1     -11.747  11.451  69.394  1.00  0.00    -0.276 F  
HETATM   29  F   UNL     1     -11.162  10.550  71.277  1.00  0.00    -0.319 F  
HETATM   30  F   UNL     1     -12.831   9.726  70.154  1.00  0.00    -0.069 F  
HETATM   31  C   UNL     1      -9.425   7.247  69.186  1.00  0.00    -0.148 A  
ENDBRANCH  13  14
ENDBRANCH  12  13
ENDBRANCH  11  12
ENDBRANCH   8  11
ENDBRANCH   4   5
ENDBRANCH   2   4
TORSDOF 6
ENDMDL
MODEL      197
REMARK 921   NORMALIZED FREE ENERGY PREDICTED BY IDOCK:   -3.78 KCAL/MOL
REMARK 922        TOTAL FREE ENERGY PREDICTED BY IDOCK:   -5.34 KCAL/MOL
REMARK 923 INTER-LIGAND FREE ENERGY PREDICTED BY IDOCK:   -6.40 KCAL/MOL
REMARK 924 INTRA-LIGAND FREE ENERGY PREDICTED BY IDOCK:    1.06 KCAL/MOL
REMARK 927      BINDING AFFINITY PREDICTED BY RF-SCORE:    0.00 PKD
ROOT
HETATM    1  O   UNL     1      -6.033   9.395  71.352  1.00  0.00    -0.071 OA 
HETATM    2  C   UNL     1      -5.174   8.336  70.933  1.00  0.00    -0.025 C  
HETATM    3  H   UNL     1      -5.956   9.517  72.291  1.00  0.00     0.000 HD 
ENDROOT
BRANCH   2   4
HETATM    4  C   UNL     1      -5.301   8.139  69.413  1.00  0.00    -0.030 C  
BRANCH   4   5
HETATM    5  N   UNL     1      -6.687   7.936  68.944  1.00  0.00    -0.048 NA 
HETATM    6  C   UNL     1      -7.344   9.196  68.549  1.00  0.00    -0.077 C  
HETATM    7  C   UNL     1      -6.789   9.810  67.251  1.00  0.00    -0.083 C  
HETATM    8  N   UNL     1      -6.829   8.917  66.074  1.00  0.00    -0.075 NA 
HETATM    9  C   UNL     1      -6.720   7.013  67.786  1.00  0.00    -0.071 C  
HETATM   10  C   UNL     1      -6.229   7.615  66.443  1.00  0.00    -0.045 C  
BRANCH   8  11
HETATM   11  C   UNL     1      -8.177   8.753  65.512  1.00  0.00    -0.132 C  
BRANCH  11  12
HETATM   12  C   UNL     1      -9.291   8.894  66.558  1.00  0.00    -0.252 C  
BRANCH  12  13
HETATM   13  C   UNL     1     -10.518   9.639  66.006  1.00  0.00     0.023 C  
BRANCH  13  14
HETATM   14  N   UNL     1     -10.833  10.827  66.842  1.00  0.00    -0.254 NA 
HETATM   15  C   UNL     1     -11.199  12.025  66.153  1.00  0.00    -0.343 A  
HETATM   16  C   UNL     1     -11.043  12.182  64.755  1.00  0.00    -0.364 A  
HETATM   17  C   UNL     1     -11.380  13.361  64.077  1.00  0.00    -0.356 A  
HETATM   18  C   UNL     1     -11.893  14.437  64.775  1.00  0.00    -0.439 A  
HETATM   19  C   UNL     1     -12.066  14.325  66.149  1.00  0.00    -0.424 A  
HETATM   20  C   UNL     1     -11.726  13.141  66.837  1.00  0.00    -0.387 A  
HETATM   21  S   UNL     1     -12.031  13.183  68.585  1.00  0.00    -0.211 SA 
HETATM   22  C   UNL     1     -11.556  11.556  69.102  1.00  0.00    -0.316 A  
HETATM   23  C   UNL     1     -11.002  10.590  68.244  1.00  0.00    -0.263 A  
HETATM   24  C   UNL     1     -10.637   9.365  68.857  1.00  0.00    -0.231 A  
HETATM   25  C   UNL     1     -10.888   9.059  70.209  1.00  0.00    -0.269 A  
HETATM   26  C   UNL     1     -11.464  10.035  71.014  1.00  0.00    -0.463 A  
HETATM   27  C   UNL     1     -10.573   7.694  70.771  1.00  0.00    -0.221 C  
HETATM   28  F   UNL     1     -10.052   6.830  69.854  1.00  0.00    -0.175 F  
HETATM   29  F   UNL     1     -11.682   7.072  71.263  1.00  0.00    -0.286 F  
HETATM   30  F   UNL     1      -9.681   7.735  71.796  1.00  0.00    -0.169 F  
HETATM   31  C   UNL     1     -11.779  11.274  70.468  1.00  0.00    -0.345 A  
ENDBRANCH  13  14
ENDBRANCH  12  13
ENDBRANCH  11  12
ENDBRANCH   8  11
ENDBRANCH   4   5
ENDBRANCH   2   4
TORSDOF 6
ENDMDL
MODEL      198
REMARK 921   NORMALIZED FREE ENERGY PREDICTED BY IDOCK:   -3.77 KCAL/MOL
REMARK 922        TOTAL FREE ENERGY PREDICTED BY IDOCK:   -5.33 KCAL/MOL
REMARK 923 INTER-LIGAND FREE ENERGY PREDICTED BY IDOCK:   -6.93 KCAL/MOL
REMARK 924 INTRA-LIGAND FREE ENERGY PREDICTED BY IDOCK:    1.60 KCAL/MOL
REMARK 927      BINDING AFFINITY PREDICTED BY RF-SCORE:    0.00 PKD
ROOT
HETATM    1  O   UNL     1      -9.537   2.830  73.411  1.00  0.00    -0.090 OA 
HETATM    2  C   UNL     1     -10.680   3.683  73.427  1.00  0.00    -0.209 C  
HETATM    3  H   UNL     1      -9.813   1.928  73.299  1.00  0.00     0.000 HD 
ENDROOT
BRANCH   2   4
HETATM    4  C   UNL     1     -10.234   5.143  73.609  1.00  0.00    -0.205 C  
BRANCH   4   5
HETATM    5  N   UNL     1     -11.112   6.129  72.947  1.00  0.00    -0.259 NA 
HETATM    6  C   UNL     1     -10.663   7.519  73.152  1.00  0.00    -0.398 C  
HETATM    7  C   UNL     1      -9.369   7.876  72.397  1.00  0.00    -0.186 C  
HETATM    8  N   UNL     1      -9.419   7.650  70.937  1.00  0.00    -0.164 NA 
HETATM    9  C   UNL     1     -11.183   5.876  71.489  1.00  0.00    -0.225 C  
HETATM   10  C   UNL     1      -9.922   6.281  70.682  1.00  0.00    -0.186 C  
BRANCH   8  11
HETATM   11  C   UNL     1     -10.209   8.660  70.218  1.00  0.00    -0.194 C  
BRANCH  11  12
HETATM   12  C   UNL     1      -9.347   9.701  69.492  1.00  0.00    -0.211 C  
BRANCH  12  13
HETATM   13  C   UNL     1      -9.946  10.111  68.137  1.00  0.00    -0.147 C  
BRANCH  13  14
HETATM   14  N   UNL     1      -8.919  10.043  67.065  1.00  0.00    -0.138 NA 
HETATM   15  C   UNL     1      -7.769   9.233  67.318  1.00  0.00    -0.095 A  
HETATM   16  C   UNL     1      -7.470   8.707  68.598  1.00  0.00    -0.096 A  
HETATM   17  C   UNL     1      -6.334   7.929  68.858  1.00  0.00    -0.040 A  
HETATM   18  C   UNL     1      -5.446   7.642  67.839  1.00  0.00    -0.031 A  
HETATM   19  C   UNL     1      -5.701   8.135  66.566  1.00  0.00    -0.040 A  
HETATM   20  C   UNL     1      -6.844   8.921  66.300  1.00  0.00    -0.074 A  
HETATM   21  S   UNL     1      -7.006   9.447  64.612  1.00  0.00    -0.101 SA 
HETATM   22  C   UNL     1      -8.538  10.337  64.629  1.00  0.00    -0.185 A  
HETATM   23  C   UNL     1      -9.298  10.572  65.788  1.00  0.00    -0.188 A  
HETATM   24  C   UNL     1     -10.468  11.351  65.606  1.00  0.00    -0.316 A  
HETATM   25  C   UNL     1     -10.928  11.793  64.350  1.00  0.00    -0.397 A  
HETATM   26  C   UNL     1     -10.159  11.514  63.226  1.00  0.00    -0.439 A  
HETATM   27  C   UNL     1     -12.241  12.525  64.215  1.00  0.00    -0.452 C  
HETATM   28  F   UNL     1     -12.903  12.689  65.395  1.00  0.00    -0.512 F  
HETATM   29  F   UNL     1     -13.114  11.868  63.399  1.00  0.00    -0.654 F  
HETATM   30  F   UNL     1     -12.102  13.771  63.687  1.00  0.00    -0.490 F  
HETATM   31  C   UNL     1      -8.970  10.808  63.369  1.00  0.00    -0.208 A  
ENDBRANCH  13  14
ENDBRANCH  12  13
ENDBRANCH  11  12
ENDBRANCH   8  11
ENDBRANCH   4   5
ENDBRANCH   2   4
TORSDOF 6
ENDMDL
MODEL      199
REMARK 921   NORMALIZED FREE ENERGY PREDICTED BY IDOCK:   -3.74 KCAL/MOL
REMARK 922        TOTAL FREE ENERGY PREDICTED BY IDOCK:   -5.29 KCAL/MOL
REMARK 923 INTER-LIGAND FREE ENERGY PREDICTED BY IDOCK:   -5.53 KCAL/MOL
REMARK 924 INTRA-LIGAND FREE ENERGY PREDICTED BY IDOCK:    0.24 KCAL/MOL
REMARK 927      BINDING AFFINITY PREDICTED BY RF-SCORE:    0.00 PKD
ROOT
HETATM    1  O   UNL     1      -6.871  11.932  66.853  1.00  0.00    -0.249 OA 
HETATM    2  C   UNL     1      -5.790  12.771  67.255  1.00  0.00    -0.013 C  
HETATM    3  H   UNL     1      -6.554  11.048  66.710  1.00  0.00     0.000 HD 
ENDROOT
BRANCH   2   4
HETATM    4  C   UNL     1      -6.303  14.202  67.484  1.00  0.00    -0.007 C  
BRANCH   4   5
HETATM    5  N   UNL     1      -7.745  14.376  67.216  1.00  0.00    -0.182 NA 
HETATM    6  C   UNL     1      -8.589  13.511  68.062  1.00  0.00    -0.177 C  
HETATM    7  C   UNL     1      -8.618  13.923  69.545  1.00  0.00     0.881 C  
HETATM    8  N   UNL     1      -9.042  15.317  69.796  1.00  0.00    -0.134 NA 
HETATM    9  C   UNL     1      -8.155  15.782  67.437  1.00  0.00    -0.169 C  
HETATM   10  C   UNL     1      -8.258  16.219  68.922  1.00  0.00    -0.231 C  
BRANCH   8  11
HETATM   11  C   UNL     1     -10.488  15.524  69.630  1.00  0.00    -0.286 C  
BRANCH  11  12
HETATM   12  C   UNL     1     -11.329  14.321  70.080  1.00  0.00    -0.224 C  
BRANCH  12  13
HETATM   13  C   UNL     1     -12.448  13.986  69.081  1.00  0.00     0.046 C  
BRANCH  13  14
HETATM   14  N   UNL     1     -11.959  13.050  68.036  1.00  0.00    -0.337 NA 
HETATM   15  C   UNL     1     -11.596  13.617  66.775  1.00  0.00    -0.364 A  
HETATM   16  C   UNL     1     -11.903  14.953  66.421  1.00  0.00    -0.137 A  
HETATM   17  C   UNL     1     -11.568  15.509  65.179  1.00  0.00    -0.060 A  
HETATM   18  C   UNL     1     -10.907  14.746  64.236  1.00  0.00     0.239 A  
HETATM   19  C   UNL     1     -10.584  13.430  64.543  1.00  0.00    -0.441 A  
HETATM   20  C   UNL     1     -10.920  12.865  65.791  1.00  0.00    -0.278 A  
HETATM   21  S   UNL     1     -10.412  11.178  66.004  1.00  0.00    -0.240 SA 
HETATM   22  C   UNL     1     -10.932  10.820  67.660  1.00  0.00    -0.306 A  
HETATM   23  C   UNL     1     -11.645  11.721  68.470  1.00  0.00    -0.321 A  
HETATM   24  C   UNL     1     -12.018  11.232  69.748  1.00  0.00    -0.431 A  
HETATM   25  C   UNL     1     -11.632   9.972  70.248  1.00  0.00    -0.354 A  
HETATM   26  C   UNL     1     -10.903   9.125  69.422  1.00  0.00    -0.165 A  
HETATM   27  C   UNL     1     -11.971   9.558  71.659  1.00  0.00    -0.401 C  
HETATM   28  F   UNL     1     -12.651  10.506  72.362  1.00  0.00    -0.327 F  
HETATM   29  F   UNL     1     -10.856   9.291  72.398  1.00  0.00    -0.301 F  
HETATM   30  F   UNL     1     -12.732   8.432  71.713  1.00  0.00    -0.299 F  
HETATM   31  C   UNL     1     -10.571   9.541  68.137  1.00  0.00    -0.265 A  
ENDBRANCH  13  14
ENDBRANCH  12  13
ENDBRANCH  11  12
ENDBRANCH   8  11
ENDBRANCH   4   5
ENDBRANCH   2   4
TORSDOF 6
ENDMDL
MODEL      200
REMARK 921   NORMALIZED FREE ENERGY PREDICTED BY IDOCK:   -3.73 KCAL/MOL
REMARK 922        TOTAL FREE ENERGY PREDICTED BY IDOCK:   -5.28 KCAL/MOL
REMARK 923 INTER-LIGAND FREE ENERGY PREDICTED BY IDOCK:   -5.59 KCAL/MOL
REMARK 924 INTRA-LIGAND FREE ENERGY PREDICTED BY IDOCK:    0.31 KCAL/MOL
REMARK 927      BINDING AFFINITY PREDICTED BY RF-SCORE:    0.00 PKD
ROOT
HETATM    1  O   UNL     1     -10.751   1.659  72.997  1.00  0.00    -0.121 OA 
HETATM    2  C   UNL     1     -10.389   2.930  73.532  1.00  0.00    -0.134 C  
HETATM    3  H   UNL     1     -10.836   1.028  73.701  1.00  0.00     0.000 HD 
ENDROOT
BRANCH   2   4
HETATM    4  C   UNL     1     -10.251   3.952  72.391  1.00  0.00    -0.157 C  
BRANCH   4   5
HETATM    5  N   UNL     1      -8.867   4.413  72.159  1.00  0.00    -0.115 NA 
HETATM    6  C   UNL     1      -8.741   5.253  70.954  1.00  0.00    -0.132 C  
HETATM    7  C   UNL     1      -9.387   6.644  71.092  1.00  0.00    -0.163 C  
HETATM    8  N   UNL     1      -8.896   7.448  72.230  1.00  0.00    -0.122 NA 
HETATM    9  C   UNL     1      -8.370   5.189  73.319  1.00  0.00    -0.111 C  
HETATM   10  C   UNL     1      -8.949   6.622  73.457  1.00  0.00    -0.126 C  
BRANCH   8  11
HETATM   11  C   UNL     1      -7.553   8.008  72.011  1.00  0.00    -0.091 C  
BRANCH  11  12
HETATM   12  C   UNL     1      -7.497   9.013  70.854  1.00  0.00    -0.128 C  
BRANCH  12  13
HETATM   13  C   UNL     1      -7.878   8.375  69.508  1.00  0.00    -0.102 C  
BRANCH  13  14
HETATM   14  N   UNL     1      -8.140   9.421  68.485  1.00  0.00    -0.104 NA 
HETATM   15  C   UNL     1      -7.275   9.446  67.347  1.00  0.00    -0.087 A  
HETATM   16  C   UNL     1      -6.076   8.697  67.281  1.00  0.00    -0.055 A  
HETATM   17  C   UNL     1      -5.213   8.733  66.177  1.00  0.00    -0.030 A  
HETATM   18  C   UNL     1      -5.519   9.525  65.087  1.00  0.00    -0.046 A  
HETATM   19  C   UNL     1      -6.687  10.276  65.109  1.00  0.00    -0.120 A  
HETATM   20  C   UNL     1      -7.559  10.244  66.219  1.00  0.00    -0.117 A  
HETATM   21  S   UNL     1      -9.007  11.257  66.055  1.00  0.00    -0.184 SA 
HETATM   22  C   UNL     1      -9.878  10.938  67.565  1.00  0.00    -0.168 A  
HETATM   23  C   UNL     1      -9.384  10.123  68.599  1.00  0.00    -0.161 A  
HETATM   24  C   UNL     1     -10.204  10.032  69.752  1.00  0.00    -0.286 A  
HETATM   25  C   UNL     1     -11.480  10.620  69.854  1.00  0.00    -0.393 A  
HETATM   26  C   UNL     1     -11.940  11.395  68.796  1.00  0.00    -0.353 A  
HETATM   27  C   UNL     1     -12.347  10.393  71.068  1.00  0.00    -0.387 C  
HETATM   28  F   UNL     1     -11.781   9.580  72.004  1.00  0.00    -0.438 F  
HETATM   29  F   UNL     1     -13.535   9.803  70.749  1.00  0.00    -0.382 F  
HETATM   30  F   UNL     1     -12.665  11.546  71.716  1.00  0.00    -0.455 F  
HETATM   31  C   UNL     1     -11.139  11.563  67.672  1.00  0.00    -0.324 A  
ENDBRANCH  13  14
ENDBRANCH  12  13
ENDBRANCH  11  12
ENDBRANCH   8  11
ENDBRANCH   4   5
ENDBRANCH   2   4
TORSDOF 6
ENDMDL
MODEL      201
REMARK 921   NORMALIZED FREE ENERGY PREDICTED BY IDOCK:   -3.73 KCAL/MOL
REMARK 922        TOTAL FREE ENERGY PREDICTED BY IDOCK:   -5.28 KCAL/MOL
REMARK 923 INTER-LIGAND FREE ENERGY PREDICTED BY IDOCK:   -5.12 KCAL/MOL
REMARK 924 INTRA-LIGAND FREE ENERGY PREDICTED BY IDOCK:   -0.16 KCAL/MOL
REMARK 927      BINDING AFFINITY PREDICTED BY RF-SCORE:    0.00 PKD
ROOT
HETATM    1  O   UNL     1      -6.768  17.308  68.968  1.00  0.00    -0.216 OA 
HETATM    2  C   UNL     1      -6.683  15.915  68.672  1.00  0.00    -0.119 C  
HETATM    3  H   UNL     1      -5.912  17.634  69.220  1.00  0.00     0.000 HD 
ENDROOT
BRANCH   2   4
HETATM    4  C   UNL     1      -8.069  15.387  68.265  1.00  0.00    -0.136 C  
BRANCH   4   5
HETATM    5  N   UNL     1      -8.036  14.368  67.196  1.00  0.00    -0.171 NA 
HETATM    6  C   UNL     1      -6.930  13.406  67.362  1.00  0.00    -0.083 C  
HETATM    7  C   UNL     1      -7.115  12.439  68.546  1.00  0.00    -0.100 C  
HETATM    8  N   UNL     1      -8.368  11.654  68.519  1.00  0.00    -0.154 NA 
HETATM    9  C   UNL     1      -9.308  13.609  67.154  1.00  0.00    -0.240 C  
HETATM   10  C   UNL     1      -9.504  12.577  68.296  1.00  0.00    -0.201 C  
BRANCH   8  11
HETATM   11  C   UNL     1      -8.351  10.565  67.531  1.00  0.00    -0.118 C  
BRANCH  11  12
HETATM   12  C   UNL     1      -7.043   9.764  67.533  1.00  0.00    -0.088 C  
BRANCH  12  13
HETATM   13  C   UNL     1      -7.127   8.513  68.422  1.00  0.00    -0.084 C  
BRANCH  13  14
HETATM   14  N   UNL     1      -8.185   7.590  67.935  1.00  0.00    -0.122 NA 
HETATM   15  C   UNL     1      -8.009   7.032  66.631  1.00  0.00    -0.108 A  
HETATM   16  C   UNL     1      -7.025   7.497  65.727  1.00  0.00    -0.061 A  
HETATM   17  C   UNL     1      -6.860   6.968  64.439  1.00  0.00    -0.047 A  
HETATM   18  C   UNL     1      -7.678   5.944  64.003  1.00  0.00    -0.103 A  
HETATM   19  C   UNL     1      -8.656   5.455  64.860  1.00  0.00    -0.131 A  
HETATM   20  C   UNL     1      -8.827   5.986  66.157  1.00  0.00    -0.148 A  
HETATM   21  S   UNL     1     -10.118   5.223  67.107  1.00  0.00    -0.214 SA 
HETATM   22  C   UNL     1     -10.014   6.074  68.658  1.00  0.00    -0.149 A  
HETATM   23  C   UNL     1      -9.133   7.140  68.910  1.00  0.00    -0.131 A  
HETATM   24  C   UNL     1      -9.237   7.728  70.196  1.00  0.00    -0.153 A  
HETATM   25  C   UNL     1     -10.080   7.242  71.215  1.00  0.00    -0.195 A  
HETATM   26  C   UNL     1     -10.914   6.167  70.929  1.00  0.00    -0.359 A  
HETATM   27  C   UNL     1     -10.061   7.847  72.597  1.00  0.00    -0.279 C  
HETATM   28  F   UNL     1      -9.165   8.864  72.740  1.00  0.00    -0.279 F  
HETATM   29  F   UNL     1      -9.726   6.934  73.554  1.00  0.00    -0.174 F  
HETATM   30  F   UNL     1     -11.266   8.355  72.971  1.00  0.00    -0.393 F  
HETATM   31  C   UNL     1     -10.891   5.602  69.659  1.00  0.00    -0.365 A  
ENDBRANCH  13  14
ENDBRANCH  12  13
ENDBRANCH  11  12
ENDBRANCH   8  11
ENDBRANCH   4   5
ENDBRANCH   2   4
TORSDOF 6
ENDMDL
MODEL      202
REMARK 921   NORMALIZED FREE ENERGY PREDICTED BY IDOCK:   -3.72 KCAL/MOL
REMARK 922        TOTAL FREE ENERGY PREDICTED BY IDOCK:   -5.26 KCAL/MOL
REMARK 923 INTER-LIGAND FREE ENERGY PREDICTED BY IDOCK:   -4.55 KCAL/MOL
REMARK 924 INTRA-LIGAND FREE ENERGY PREDICTED BY IDOCK:   -0.70 KCAL/MOL
REMARK 927      BINDING AFFINITY PREDICTED BY RF-SCORE:    0.00 PKD
ROOT
HETATM    1  O   UNL     1      -5.887   8.669  72.731  1.00  0.00    -0.072 OA 
HETATM    2  C   UNL     1      -6.724   7.997  73.671  1.00  0.00    -0.115 C  
HETATM    3  H   UNL     1      -4.991   8.670  73.044  1.00  0.00     0.000 HD 
ENDROOT
BRANCH   2   4
HETATM    4  C   UNL     1      -8.175   7.995  73.164  1.00  0.00    -0.188 C  
BRANCH   4   5
HETATM    5  N   UNL     1      -8.300   8.068  71.694  1.00  0.00    -0.114 NA 
HETATM    6  C   UNL     1      -8.076   6.766  71.038  1.00  0.00    -0.115 C  
HETATM    7  C   UNL     1      -9.203   5.744  71.278  1.00  0.00    -0.146 C  
HETATM    8  N   UNL     1     -10.552   6.200  70.879  1.00  0.00    -0.230 NA 
HETATM    9  C   UNL     1      -9.643   8.558  71.304  1.00  0.00    -0.203 C  
HETATM   10  C   UNL     1     -10.798   7.535  71.470  1.00  0.00    -0.227 C  
BRANCH   8  11
HETATM   11  C   UNL     1     -10.759   6.204  69.424  1.00  0.00    -0.320 C  
BRANCH  11  12
HETATM   12  C   UNL     1     -10.128   4.997  68.718  1.00  0.00    -0.200 C  
BRANCH  12  13
HETATM   13  C   UNL     1     -10.294   5.062  67.191  1.00  0.00    -0.161 C  
BRANCH  13  14
HETATM   14  N   UNL     1      -8.971   5.163  66.521  1.00  0.00    -0.116 NA 
HETATM   15  C   UNL     1      -8.357   3.939  66.110  1.00  0.00    -0.108 A  
HETATM   16  C   UNL     1      -8.832   2.670  66.520  1.00  0.00    -0.140 A  
HETATM   17  C   UNL     1      -8.222   1.467  66.138  1.00  0.00    -0.080 A  
HETATM   18  C   UNL     1      -7.107   1.487  65.323  1.00  0.00    -0.047 A  
HETATM   19  C   UNL     1      -6.608   2.711  64.896  1.00  0.00    -0.035 A  
HETATM   20  C   UNL     1      -7.217   3.925  65.279  1.00  0.00    -0.068 A  
HETATM   21  S   UNL     1      -6.447   5.382  64.622  1.00  0.00    -0.039 SA 
HETATM   22  C   UNL     1      -7.479   6.682  65.244  1.00  0.00    -0.082 A  
HETATM   23  C   UNL     1      -8.565   6.474  66.112  1.00  0.00    -0.145 A  
HETATM   24  C   UNL     1      -9.237   7.646  66.542  1.00  0.00    -0.220 A  
HETATM   25  C   UNL     1      -8.934   8.940  66.075  1.00  0.00    -0.235 A  
HETATM   26  C   UNL     1      -7.870   9.095  65.195  1.00  0.00    -0.106 A  
HETATM   27  C   UNL     1      -9.761  10.132  66.490  1.00  0.00    -0.200 C  
HETATM   28  F   UNL     1     -10.795   9.821  67.321  1.00  0.00    -0.323 F  
HETATM   29  F   UNL     1     -10.334  10.758  65.422  1.00  0.00    -0.303 F  
HETATM   30  F   UNL     1      -9.035  11.084  67.135  1.00  0.00    -0.140 F  
HETATM   31  C   UNL     1      -7.142   7.979  64.798  1.00  0.00    -0.075 A  
ENDBRANCH  13  14
ENDBRANCH  12  13
ENDBRANCH  11  12
ENDBRANCH   8  11
ENDBRANCH   4   5
ENDBRANCH   2   4
TORSDOF 6
ENDMDL
MODEL      203
REMARK 921   NORMALIZED FREE ENERGY PREDICTED BY IDOCK:   -3.69 KCAL/MOL
REMARK 922        TOTAL FREE ENERGY PREDICTED BY IDOCK:   -5.22 KCAL/MOL
REMARK 923 INTER-LIGAND FREE ENERGY PREDICTED BY IDOCK:   -4.87 KCAL/MOL
REMARK 924 INTRA-LIGAND FREE ENERGY PREDICTED BY IDOCK:   -0.35 KCAL/MOL
REMARK 927      BINDING AFFINITY PREDICTED BY RF-SCORE:    0.00 PKD
ROOT
HETATM    1  O   UNL     1      -9.737   1.921  73.726  1.00  0.00    -0.080 OA 
HETATM    2  C   UNL     1     -10.376   3.164  74.011  1.00  0.00    -0.159 C  
HETATM    3  H   UNL     1     -10.025   1.264  74.349  1.00  0.00     0.000 HD 
ENDROOT
BRANCH   2   4
HETATM    4  C   UNL     1      -9.909   4.228  73.003  1.00  0.00    -0.135 C  
BRANCH   4   5
HETATM    5  N   UNL     1      -9.852   5.597  73.555  1.00  0.00    -0.161 NA 
HETATM    6  C   UNL     1      -8.807   6.422  72.923  1.00  0.00    -0.123 C  
HETATM    7  C   UNL     1      -9.116   6.814  71.466  1.00  0.00    -0.145 C  
HETATM    8  N   UNL     1     -10.399   7.521  71.270  1.00  0.00    -0.193 NA 
HETATM    9  C   UNL     1     -11.153   6.287  73.386  1.00  0.00    -0.043 C  
HETATM   10  C   UNL     1     -11.473   6.755  71.942  1.00  0.00    -0.282 C  
BRANCH   8  11
HETATM   11  C   UNL     1     -10.367   8.920  71.722  1.00  0.00    -0.356 C  
BRANCH  11  12
HETATM   12  C   UNL     1     -10.449   9.931  70.570  1.00  0.00    -0.330 C  
BRANCH  12  13
HETATM   13  C   UNL     1     -10.837   9.269  69.239  1.00  0.00    -0.152 C  
BRANCH  13  14
HETATM   14  N   UNL     1     -10.058   9.848  68.115  1.00  0.00    -0.159 NA 
HETATM   15  C   UNL     1     -10.407  11.169  67.695  1.00  0.00    -0.192 A  
HETATM   16  C   UNL     1     -11.582  11.825  68.135  1.00  0.00    -0.391 A  
HETATM   17  C   UNL     1     -11.941  13.112  67.712  1.00  0.00    -0.352 A  
HETATM   18  C   UNL     1     -11.132  13.799  66.828  1.00  0.00    -0.316 A  
HETATM   19  C   UNL     1      -9.968  13.194  66.372  1.00  0.00    -0.282 A  
HETATM   20  C   UNL     1      -9.603  11.897  66.794  1.00  0.00    -0.204 A  
HETATM   21  S   UNL     1      -8.075  11.299  66.117  1.00  0.00     0.002 SA 
HETATM   22  C   UNL     1      -7.905   9.711  66.885  1.00  0.00    -0.102 A  
HETATM   23  C   UNL     1      -8.867   9.145  67.739  1.00  0.00    -0.124 A  
HETATM   24  C   UNL     1      -8.573   7.841  68.213  1.00  0.00    -0.124 A  
HETATM   25  C   UNL     1      -7.364   7.166  67.952  1.00  0.00    -0.097 A  
HETATM   26  C   UNL     1      -6.429   7.776  67.125  1.00  0.00    -0.055 A  
HETATM   27  C   UNL     1      -7.071   5.825  68.579  1.00  0.00    -0.077 C  
HETATM   28  F   UNL     1      -8.061   5.372  69.398  1.00  0.00    -0.087 F  
HETATM   29  F   UNL     1      -5.948   5.854  69.353  1.00  0.00    -0.021 F  
HETATM   30  F   UNL     1      -6.866   4.844  67.660  1.00  0.00    -0.053 F  
HETATM   31  C   UNL     1      -6.705   9.028  66.586  1.00  0.00    -0.075 A  
ENDBRANCH  13  14
ENDBRANCH  12  13
ENDBRANCH  11  12
ENDBRANCH   8  11
ENDBRANCH   4   5
ENDBRANCH   2   4
TORSDOF 6
ENDMDL
MODEL      204
REMARK 921   NORMALIZED FREE ENERGY PREDICTED BY IDOCK:   -3.66 KCAL/MOL
REMARK 922        TOTAL FREE ENERGY PREDICTED BY IDOCK:   -5.17 KCAL/MOL
REMARK 923 INTER-LIGAND FREE ENERGY PREDICTED BY IDOCK:   -4.81 KCAL/MOL
REMARK 924 INTRA-LIGAND FREE ENERGY PREDICTED BY IDOCK:   -0.36 KCAL/MOL
REMARK 927      BINDING AFFINITY PREDICTED BY RF-SCORE:    0.00 PKD
ROOT
HETATM    1  O   UNL     1     -12.536  14.624  68.474  1.00  0.00    -0.587 OA 
HETATM    2  C   UNL     1     -11.529  14.029  69.290  1.00  0.00    -0.295 C  
HETATM    3  H   UNL     1     -12.244  15.477  68.176  1.00  0.00     0.000 HD 
ENDROOT
BRANCH   2   4
HETATM    4  C   UNL     1     -12.002  12.648  69.772  1.00  0.00    -0.295 C  
BRANCH   4   5
HETATM    5  N   UNL     1     -11.912  11.588  68.748  1.00  0.00    -0.446 NA 
HETATM    6  C   UNL     1     -10.650  11.638  67.987  1.00  0.00    -0.202 C  
HETATM    7  C   UNL     1      -9.411  11.224  68.803  1.00  0.00    -0.128 C  
HETATM    8  N   UNL     1      -9.490   9.882  69.417  1.00  0.00    -0.200 NA 
HETATM    9  C   UNL     1     -12.026  10.247  69.368  1.00  0.00     0.017 C  
HETATM   10  C   UNL     1     -10.774   9.766  70.146  1.00  0.00    -0.289 C  
BRANCH   8  11
HETATM   11  C   UNL     1      -9.316   8.788  68.450  1.00  0.00    -0.137 C  
BRANCH  11  12
HETATM   12  C   UNL     1      -8.722   7.517  69.072  1.00  0.00    -0.136 C  
BRANCH  12  13
HETATM   13  C   UNL     1      -9.807   6.555  69.579  1.00  0.00    -0.151 C  
BRANCH  13  14
HETATM   14  N   UNL     1      -9.203   5.285  70.059  1.00  0.00    -0.133 NA 
HETATM   15  C   UNL     1      -9.062   5.126  71.472  1.00  0.00    -0.144 A  
HETATM   16  C   UNL     1      -9.247   6.194  72.384  1.00  0.00    -0.139 A  
HETATM   17  C   UNL     1      -9.090   6.051  73.769  1.00  0.00    -0.127 A  
HETATM   18  C   UNL     1      -8.742   4.825  74.302  1.00  0.00    -0.110 A  
HETATM   19  C   UNL     1      -8.554   3.749  73.444  1.00  0.00    -0.087 A  
HETATM   20  C   UNL     1      -8.708   3.888  72.048  1.00  0.00    -0.100 A  
HETATM   21  S   UNL     1      -8.441   2.400  71.119  1.00  0.00    -0.059 SA 
HETATM   22  C   UNL     1      -8.767   2.916  69.455  1.00  0.00    -0.078 A  
HETATM   23  C   UNL     1      -9.069   4.239  69.088  1.00  0.00    -0.126 A  
HETATM   24  C   UNL     1      -9.246   4.464  67.700  1.00  0.00    -0.169 A  
HETATM   25  C   UNL     1      -9.229   3.441  66.731  1.00  0.00    -0.194 A  
HETATM   26  C   UNL     1      -8.954   2.143  67.143  1.00  0.00    -0.160 A  
HETATM   27  C   UNL     1      -9.534   3.735  65.283  1.00  0.00    -0.168 C  
HETATM   28  F   UNL     1      -9.825   5.043  65.037  1.00  0.00    -0.110 F  
HETATM   29  F   UNL     1     -10.613   3.034  64.832  1.00  0.00     0.144 F  
HETATM   30  F   UNL     1      -8.507   3.417  64.449  1.00  0.00    -0.092 F  
HETATM   31  C   UNL     1      -8.710   1.888  68.488  1.00  0.00    -0.115 A  
ENDBRANCH  13  14
ENDBRANCH  12  13
ENDBRANCH  11  12
ENDBRANCH   8  11
ENDBRANCH   4   5
ENDBRANCH   2   4
TORSDOF 6
ENDMDL
MODEL      205
REMARK 921   NORMALIZED FREE ENERGY PREDICTED BY IDOCK:   -3.63 KCAL/MOL
REMARK 922        TOTAL FREE ENERGY PREDICTED BY IDOCK:   -5.14 KCAL/MOL
REMARK 923 INTER-LIGAND FREE ENERGY PREDICTED BY IDOCK:   -4.74 KCAL/MOL
REMARK 924 INTRA-LIGAND FREE ENERGY PREDICTED BY IDOCK:   -0.39 KCAL/MOL
REMARK 927      BINDING AFFINITY PREDICTED BY RF-SCORE:    0.00 PKD
ROOT
HETATM    1  O   UNL     1     -11.480  12.942  69.181  1.00  0.00    -0.274 OA 
HETATM    2  C   UNL     1     -11.774  11.547  69.237  1.00  0.00    -0.330 C  
HETATM    3  H   UNL     1     -12.273  13.428  68.991  1.00  0.00     0.000 HD 
ENDROOT
BRANCH   2   4
HETATM    4  C   UNL     1     -10.489  10.760  69.545  1.00  0.00    -0.170 C  
BRANCH   4   5
HETATM    5  N   UNL     1      -9.452  10.866  68.498  1.00  0.00    -0.178 NA 
HETATM    6  C   UNL     1      -8.221  10.130  68.841  1.00  0.00    -0.124 C  
HETATM    7  C   UNL     1      -8.378   8.598  68.803  1.00  0.00    -0.121 C  
HETATM    8  N   UNL     1      -8.861   8.054  67.516  1.00  0.00    -0.127 NA 
HETATM    9  C   UNL     1      -9.956  10.350  67.204  1.00  0.00    -0.195 C  
HETATM   10  C   UNL     1     -10.068   8.806  67.103  1.00  0.00    -0.252 C  
BRANCH   8  11
HETATM   11  C   UNL     1      -7.836   8.053  66.462  1.00  0.00    -0.097 C  
BRANCH  11  12
HETATM   12  C   UNL     1      -7.818   6.762  65.634  1.00  0.00    -0.105 C  
BRANCH  12  13
HETATM   13  C   UNL     1      -9.175   6.040  65.652  1.00  0.00     0.045 C  
BRANCH  13  14
HETATM   14  N   UNL     1      -9.016   4.630  66.093  1.00  0.00    -0.118 NA 
HETATM   15  C   UNL     1      -8.351   3.739  65.194  1.00  0.00    -0.101 A  
HETATM   16  C   UNL     1      -8.067   4.081  63.850  1.00  0.00    -0.090 A  
HETATM   17  C   UNL     1      -7.435   3.206  62.956  1.00  0.00    -0.054 A  
HETATM   18  C   UNL     1      -7.057   1.945  63.376  1.00  0.00    -0.036 A  
HETATM   19  C   UNL     1      -7.314   1.568  64.688  1.00  0.00    -0.053 A  
HETATM   20  C   UNL     1      -7.953   2.446  65.591  1.00  0.00    -0.082 A  
HETATM   21  S   UNL     1      -8.182   1.792  67.225  1.00  0.00    -0.077 SA 
HETATM   22  C   UNL     1      -8.938   3.146  68.083  1.00  0.00    -0.142 A  
HETATM   23  C   UNL     1      -9.297   4.360  67.472  1.00  0.00    -0.154 A  
HETATM   24  C   UNL     1      -9.940   5.302  68.314  1.00  0.00    -0.214 A  
HETATM   25  C   UNL     1     -10.134   5.114  69.697  1.00  0.00    -0.332 A  
HETATM   26  C   UNL     1      -9.738   3.909  70.264  1.00  0.00    -0.245 A  
HETATM   27  C   UNL     1     -10.727   6.204  70.555  1.00  0.00    -0.278 C  
HETATM   28  F   UNL     1     -11.028   7.342  69.869  1.00  0.00    -0.242 F  
HETATM   29  F   UNL     1      -9.879   6.596  71.549  1.00  0.00    -0.171 F  
HETATM   30  F   UNL     1     -11.877   5.825  71.174  1.00  0.00    -0.214 F  
HETATM   31  C   UNL     1      -9.161   2.931  69.461  1.00  0.00    -0.211 A  
ENDBRANCH  13  14
ENDBRANCH  12  13
ENDBRANCH  11  12
ENDBRANCH   8  11
ENDBRANCH   4   5
ENDBRANCH   2   4
TORSDOF 6
ENDMDL
MODEL      206
REMARK 921   NORMALIZED FREE ENERGY PREDICTED BY IDOCK:   -3.62 KCAL/MOL
REMARK 922        TOTAL FREE ENERGY PREDICTED BY IDOCK:   -5.12 KCAL/MOL
REMARK 923 INTER-LIGAND FREE ENERGY PREDICTED BY IDOCK:   -4.46 KCAL/MOL
REMARK 924 INTRA-LIGAND FREE ENERGY PREDICTED BY IDOCK:   -0.66 KCAL/MOL
REMARK 927      BINDING AFFINITY PREDICTED BY RF-SCORE:    0.00 PKD
ROOT
HETATM    1  O   UNL     1      -8.849   2.497  73.908  1.00  0.00    -0.073 OA 
HETATM    2  C   UNL     1      -7.450   2.734  73.763  1.00  0.00    -0.050 C  
HETATM    3  H   UNL     1      -9.085   1.692  73.462  1.00  0.00     0.000 HD 
ENDROOT
BRANCH   2   4
HETATM    4  C   UNL     1      -7.068   4.038  74.484  1.00  0.00    -0.065 C  
BRANCH   4   5
HETATM    5  N   UNL     1      -6.120   4.886  73.734  1.00  0.00    -0.036 NA 
HETATM    6  C   UNL     1      -6.402   4.915  72.287  1.00  0.00    -0.034 C  
HETATM    7  C   UNL     1      -7.684   5.684  71.916  1.00  0.00    -0.105 C  
HETATM    8  N   UNL     1      -7.730   7.083  72.392  1.00  0.00    -0.093 NA 
HETATM    9  C   UNL     1      -6.147   6.279  74.240  1.00  0.00    -0.065 C  
HETATM   10  C   UNL     1      -7.393   7.108  73.833  1.00  0.00    -0.093 C  
BRANCH   8  11
HETATM   11  C   UNL     1      -6.868   7.989  71.618  1.00  0.00    -0.057 C  
BRANCH  11  12
HETATM   12  C   UNL     1      -7.578   9.280  71.188  1.00  0.00    -0.045 C  
BRANCH  12  13
HETATM   13  C   UNL     1      -7.764   9.363  69.664  1.00  0.00    -0.098 C  
BRANCH  13  14
HETATM   14  N   UNL     1      -8.351   8.104  69.136  1.00  0.00    -0.129 NA 
HETATM   15  C   UNL     1      -7.468   7.215  68.447  1.00  0.00    -0.106 A  
HETATM   16  C   UNL     1      -6.160   7.589  68.055  1.00  0.00    -0.036 A  
HETATM   17  C   UNL     1      -5.297   6.730  67.361  1.00  0.00    -0.009 A  
HETATM   18  C   UNL     1      -5.710   5.454  67.032  1.00  0.00    -0.017 A  
HETATM   19  C   UNL     1      -6.985   5.044  67.400  1.00  0.00    -0.065 A  
HETATM   20  C   UNL     1      -7.859   5.906  68.097  1.00  0.00    -0.105 A  
HETATM   21  S   UNL     1      -9.439   5.201  68.493  1.00  0.00    -0.140 SA 
HETATM   22  C   UNL     1     -10.233   6.505  69.392  1.00  0.00    -0.183 A  
HETATM   23  C   UNL     1      -9.668   7.776  69.595  1.00  0.00    -0.172 A  
HETATM   24  C   UNL     1     -10.481   8.703  70.294  1.00  0.00    -0.229 A  
HETATM   25  C   UNL     1     -11.734   8.382  70.853  1.00  0.00    -0.269 A  
HETATM   26  C   UNL     1     -12.242   7.104  70.651  1.00  0.00    -0.245 A  
HETATM   27  C   UNL     1     -12.499   9.386  71.680  1.00  0.00    -0.378 C  
HETATM   28  F   UNL     1     -11.858  10.580  71.825  1.00  0.00    -0.337 F  
HETATM   29  F   UNL     1     -12.725   8.941  72.949  1.00  0.00    -0.444 F  
HETATM   30  F   UNL     1     -13.722   9.677  71.163  1.00  0.00    -0.415 F  
HETATM   31  C   UNL     1     -11.505   6.183  69.915  1.00  0.00    -0.371 A  
ENDBRANCH  13  14
ENDBRANCH  12  13
ENDBRANCH  11  12
ENDBRANCH   8  11
ENDBRANCH   4   5
ENDBRANCH   2   4
TORSDOF 6
ENDMDL
MODEL      207
REMARK 921   NORMALIZED FREE ENERGY PREDICTED BY IDOCK:   -3.57 KCAL/MOL
REMARK 922        TOTAL FREE ENERGY PREDICTED BY IDOCK:   -5.06 KCAL/MOL
REMARK 923 INTER-LIGAND FREE ENERGY PREDICTED BY IDOCK:   -4.30 KCAL/MOL
REMARK 924 INTRA-LIGAND FREE ENERGY PREDICTED BY IDOCK:   -0.76 KCAL/MOL
REMARK 927      BINDING AFFINITY PREDICTED BY RF-SCORE:    0.00 PKD
ROOT
HETATM    1  O   UNL     1     -12.983  16.169  71.391  1.00  0.00    -0.509 OA 
HETATM    2  C   UNL     1     -13.933  15.108  71.483  1.00  0.00    -0.522 C  
HETATM    3  H   UNL     1     -13.257  16.891  71.943  1.00  0.00     0.000 HD 
ENDROOT
BRANCH   2   4
HETATM    4  C   UNL     1     -13.489  13.938  70.589  1.00  0.00     0.258 C  
BRANCH   4   5
HETATM    5  N   UNL     1     -12.257  13.263  71.046  1.00  0.00    -0.289 NA 
HETATM    6  C   UNL     1     -12.490  12.373  72.199  1.00  0.00     0.578 C  
HETATM    7  C   UNL     1     -13.291  11.103  71.857  1.00  0.00    -0.304 C  
HETATM    8  N   UNL     1     -12.709  10.271  70.783  1.00  0.00    -0.348 NA 
HETATM    9  C   UNL     1     -11.662  12.458  69.953  1.00  0.00    -0.266 C  
HETATM   10  C   UNL     1     -12.404  11.137  69.621  1.00  0.00    -0.218 C  
BRANCH   8  11
HETATM   11  C   UNL     1     -11.529   9.506  71.213  1.00  0.00    -0.377 C  
BRANCH  11  12
HETATM   12  C   UNL     1     -10.911   8.663  70.090  1.00  0.00    -0.242 C  
BRANCH  12  13
HETATM   13  C   UNL     1      -9.420   8.376  70.329  1.00  0.00    -0.164 C  
BRANCH  13  14
HETATM   14  N   UNL     1      -8.767   7.903  69.081  1.00  0.00    -0.138 NA 
HETATM   15  C   UNL     1      -8.976   6.536  68.717  1.00  0.00    -0.124 A  
HETATM   16  C   UNL     1      -9.559   5.592  69.596  1.00  0.00    -0.210 A  
HETATM   17  C   UNL     1      -9.748   4.246  69.254  1.00  0.00    -0.240 A  
HETATM   18  C   UNL     1      -9.360   3.789  68.010  1.00  0.00    -0.232 A  
HETATM   19  C   UNL     1      -8.785   4.682  67.115  1.00  0.00    -0.104 A  
HETATM   20  C   UNL     1      -8.591   6.038  67.455  1.00  0.00    -0.106 A  
HETATM   21  S   UNL     1      -7.857   7.027  66.177  1.00  0.00    -0.106 SA 
HETATM   22  C   UNL     1      -7.816   8.641  66.909  1.00  0.00    -0.091 A  
HETATM   23  C   UNL     1      -8.220   8.915  68.227  1.00  0.00    -0.121 A  
HETATM   24  C   UNL     1      -8.062  10.260  68.649  1.00  0.00    -0.114 A  
HETATM   25  C   UNL     1      -7.631  11.301  67.803  1.00  0.00    -0.104 A  
HETATM   26  C   UNL     1      -7.269  10.988  66.498  1.00  0.00    -0.143 A  
HETATM   27  C   UNL     1      -7.591  12.730  68.285  1.00  0.00    -0.134 C  
HETATM   28  F   UNL     1      -8.013  12.888  69.571  1.00  0.00     0.381 F  
HETATM   29  F   UNL     1      -8.389  13.547  67.540  1.00  0.00    -0.140 F  
HETATM   30  F   UNL     1      -6.345  13.274  68.230  1.00  0.00    -0.071 F  
HETATM   31  C   UNL     1      -7.346   9.669  66.063  1.00  0.00    -0.099 A  
ENDBRANCH  13  14
ENDBRANCH  12  13
ENDBRANCH  11  12
ENDBRANCH   8  11
ENDBRANCH   4   5
ENDBRANCH   2   4
TORSDOF 6
ENDMDL
MODEL      208
REMARK 921   NORMALIZED FREE ENERGY PREDICTED BY IDOCK:   -3.51 KCAL/MOL
REMARK 922        TOTAL FREE ENERGY PREDICTED BY IDOCK:   -4.98 KCAL/MOL
REMARK 923 INTER-LIGAND FREE ENERGY PREDICTED BY IDOCK:   -4.38 KCAL/MOL
REMARK 924 INTRA-LIGAND FREE ENERGY PREDICTED BY IDOCK:   -0.60 KCAL/MOL
REMARK 927      BINDING AFFINITY PREDICTED BY RF-SCORE:    0.00 PKD
ROOT
HETATM    1  O   UNL     1     -12.485  16.441  70.908  1.00  0.00    -0.375 OA 
HETATM    2  C   UNL     1     -13.468  15.409  70.851  1.00  0.00    -0.367 C  
HETATM    3  H   UNL     1     -12.765  17.115  71.517  1.00  0.00     0.000 HD 
ENDROOT
BRANCH   2   4
HETATM    4  C   UNL     1     -13.016  14.318  69.865  1.00  0.00     0.280 C  
BRANCH   4   5
HETATM    5  N   UNL     1     -11.834  13.553  70.313  1.00  0.00    -0.292 NA 
HETATM    6  C   UNL     1     -12.188  12.416  71.182  1.00  0.00     0.013 C  
HETATM    7  C   UNL     1     -12.896  11.263  70.445  1.00  0.00    -0.037 C  
HETATM    8  N   UNL     1     -12.152  10.710  69.294  1.00  0.00    -0.270 NA 
HETATM    9  C   UNL     1     -11.076  13.031  69.152  1.00  0.00    -0.192 C  
HETATM   10  C   UNL     1     -11.725  11.827  68.421  1.00  0.00    -0.325 C  
BRANCH   8  11
HETATM   11  C   UNL     1     -11.016   9.865  69.687  1.00  0.00    -0.252 C  
BRANCH  11  12
HETATM   12  C   UNL     1     -10.552   8.916  68.574  1.00  0.00    -0.183 C  
BRANCH  12  13
HETATM   13  C   UNL     1      -9.044   8.625  68.647  1.00  0.00    -0.138 C  
BRANCH  13  14
HETATM   14  N   UNL     1      -8.786   7.163  68.590  1.00  0.00    -0.127 NA 
HETATM   15  C   UNL     1      -8.498   6.603  67.307  1.00  0.00    -0.120 A  
HETATM   16  C   UNL     1      -8.682   7.322  66.101  1.00  0.00    -0.170 A  
HETATM   17  C   UNL     1      -8.421   6.774  64.838  1.00  0.00     0.045 A  
HETATM   18  C   UNL     1      -7.961   5.475  64.731  1.00  0.00    -0.113 A  
HETATM   19  C   UNL     1      -7.764   4.734  65.889  1.00  0.00    -0.091 A  
HETATM   20  C   UNL     1      -8.027   5.282  67.163  1.00  0.00    -0.101 A  
HETATM   21  S   UNL     1      -7.702   4.188  68.523  1.00  0.00    -0.066 SA 
HETATM   22  C   UNL     1      -8.076   5.197  69.931  1.00  0.00    -0.082 A  
HETATM   23  C   UNL     1      -8.586   6.504  69.847  1.00  0.00    -0.139 A  
HETATM   24  C   UNL     1      -8.872   7.130  71.086  1.00  0.00    -0.144 A  
HETATM   25  C   UNL     1      -8.585   6.555  72.340  1.00  0.00    -0.119 A  
HETATM   26  C   UNL     1      -8.056   5.271  72.375  1.00  0.00    -0.107 A  
HETATM   27  C   UNL     1      -8.815   7.321  73.620  1.00  0.00    -0.183 C  
HETATM   28  F   UNL     1      -9.298   8.581  73.427  1.00  0.00    -0.281 F  
HETATM   29  F   UNL     1      -7.666   7.482  74.336  1.00  0.00    -0.133 F  
HETATM   30  F   UNL     1      -9.694   6.707  74.456  1.00  0.00    -0.231 F  
HETATM   31  C   UNL     1      -7.820   4.595  71.183  1.00  0.00    -0.082 A  
ENDBRANCH  13  14
ENDBRANCH  12  13
ENDBRANCH  11  12
ENDBRANCH   8  11
ENDBRANCH   4   5
ENDBRANCH   2   4
TORSDOF 6
ENDMDL
MODEL      209
REMARK 921   NORMALIZED FREE ENERGY PREDICTED BY IDOCK:   -3.51 KCAL/MOL
REMARK 922        TOTAL FREE ENERGY PREDICTED BY IDOCK:   -4.97 KCAL/MOL
REMARK 923 INTER-LIGAND FREE ENERGY PREDICTED BY IDOCK:   -4.34 KCAL/MOL
REMARK 924 INTRA-LIGAND FREE ENERGY PREDICTED BY IDOCK:   -0.63 KCAL/MOL
REMARK 927      BINDING AFFINITY PREDICTED BY RF-SCORE:    0.00 PKD
ROOT
HETATM    1  O   UNL     1     -14.409   8.829  70.867  1.00  0.00    -0.604 OA 
HETATM    2  C   UNL     1     -13.849   7.533  71.073  1.00  0.00    -0.009 C  
HETATM    3  H   UNL     1     -15.171   8.762  70.303  1.00  0.00     0.000 HD 
ENDROOT
BRANCH   2   4
HETATM    4  C   UNL     1     -12.617   7.642  71.986  1.00  0.00    -0.252 C  
BRANCH   4   5
HETATM    5  N   UNL     1     -11.410   6.978  71.452  1.00  0.00    -0.255 NA 
HETATM    6  C   UNL     1     -11.133   7.343  70.050  1.00  0.00    -0.220 C  
HETATM    7  C   UNL     1     -10.653   8.795  69.865  1.00  0.00    -0.224 C  
HETATM    8  N   UNL     1      -9.454   9.158  70.649  1.00  0.00    -0.240 NA 
HETATM    9  C   UNL     1     -10.218   7.321  72.263  1.00  0.00    -0.196 C  
HETATM   10  C   UNL     1      -9.664   8.755  72.058  1.00  0.00    -0.300 C  
BRANCH   8  11
HETATM   11  C   UNL     1      -8.210   8.594  70.104  1.00  0.00    -0.123 C  
BRANCH  11  12
HETATM   12  C   UNL     1      -7.246   8.092  71.188  1.00  0.00    -0.060 C  
BRANCH  12  13
HETATM   13  C   UNL     1      -6.432   6.874  70.724  1.00  0.00    -0.048 C  
BRANCH  13  14
HETATM   14  N   UNL     1      -7.272   5.648  70.725  1.00  0.00    -0.076 NA 
HETATM   15  C   UNL     1      -7.598   5.085  71.998  1.00  0.00    -0.096 A  
HETATM   16  C   UNL     1      -6.973   5.498  73.199  1.00  0.00    -0.081 A  
HETATM   17  C   UNL     1      -7.273   4.937  74.448  1.00  0.00    -0.081 A  
HETATM   18  C   UNL     1      -8.218   3.934  74.545  1.00  0.00    -0.089 A  
HETATM   19  C   UNL     1      -8.858   3.500  73.392  1.00  0.00    -0.088 A  
HETATM   20  C   UNL     1      -8.558   4.061  72.131  1.00  0.00    -0.105 A  
HETATM   21  S   UNL     1      -9.489   3.387  70.778  1.00  0.00    -0.170 SA 
HETATM   22  C   UNL     1      -8.912   4.338  69.398  1.00  0.00    -0.101 A  
HETATM   23  C   UNL     1      -7.893   5.303  69.481  1.00  0.00    -0.084 A  
HETATM   24  C   UNL     1      -7.534   5.920  68.256  1.00  0.00    -0.085 A  
HETATM   25  C   UNL     1      -8.198   5.685  67.036  1.00  0.00    -0.101 A  
HETATM   26  C   UNL     1      -9.218   4.742  67.006  1.00  0.00    -0.133 A  
HETATM   27  C   UNL     1      -7.836   6.458  65.791  1.00  0.00    -0.104 C  
HETATM   28  F   UNL     1      -6.847   7.376  65.982  1.00  0.00    -0.052 F  
HETATM   29  F   UNL     1      -8.894   7.165  65.299  1.00  0.00    -0.112 F  
HETATM   30  F   UNL     1      -7.415   5.660  64.774  1.00  0.00    -0.067 F  
HETATM   31  C   UNL     1      -9.559   4.066  68.173  1.00  0.00    -0.189 A  
ENDBRANCH  13  14
ENDBRANCH  12  13
ENDBRANCH  11  12
ENDBRANCH   8  11
ENDBRANCH   4   5
ENDBRANCH   2   4
TORSDOF 6
ENDMDL
MODEL      210
REMARK 921   NORMALIZED FREE ENERGY PREDICTED BY IDOCK:   -3.49 KCAL/MOL
REMARK 922        TOTAL FREE ENERGY PREDICTED BY IDOCK:   -4.95 KCAL/MOL
REMARK 923 INTER-LIGAND FREE ENERGY PREDICTED BY IDOCK:   -4.61 KCAL/MOL
REMARK 924 INTRA-LIGAND FREE ENERGY PREDICTED BY IDOCK:   -0.34 KCAL/MOL
REMARK 927      BINDING AFFINITY PREDICTED BY RF-SCORE:    0.00 PKD
ROOT
HETATM    1  O   UNL     1     -11.126  15.243  66.243  1.00  0.00    -0.330 OA 
HETATM    2  C   UNL     1     -10.263  14.393  66.995  1.00  0.00    -0.263 C  
HETATM    3  H   UNL     1     -10.608  15.854  65.732  1.00  0.00     0.000 HD 
ENDROOT
BRANCH   2   4
HETATM    4  C   UNL     1     -11.101  13.404  67.822  1.00  0.00    -0.268 C  
BRANCH   4   5
HETATM    5  N   UNL     1     -11.394  12.133  67.128  1.00  0.00    -0.309 NA 
HETATM    6  C   UNL     1     -10.369  11.782  66.128  1.00  0.00    -0.230 C  
HETATM    7  C   UNL     1      -9.018  11.363  66.737  1.00  0.00    -0.176 C  
HETATM    8  N   UNL     1      -9.089  10.238  67.693  1.00  0.00    -0.137 NA 
HETATM    9  C   UNL     1     -11.497  11.017  68.097  1.00  0.00    -0.302 C  
HETATM   10  C   UNL     1     -10.150  10.522  68.686  1.00  0.00    -0.180 C  
BRANCH   8  11
HETATM   11  C   UNL     1      -9.289   8.934  67.044  1.00  0.00    -0.152 C  
BRANCH  11  12
HETATM   12  C   UNL     1      -9.266   7.757  68.028  1.00  0.00    -0.140 C  
BRANCH  12  13
HETATM   13  C   UNL     1     -10.328   6.697  67.694  1.00  0.00    -0.199 C  
BRANCH  13  14
HETATM   14  N   UNL     1      -9.696   5.371  67.470  1.00  0.00    -0.130 NA 
HETATM   15  C   UNL     1      -9.093   5.147  66.193  1.00  0.00    -0.144 A  
HETATM   16  C   UNL     1      -9.280   6.020  65.095  1.00  0.00     0.334 A  
HETATM   17  C   UNL     1      -8.708   5.796  63.835  1.00  0.00     0.234 A  
HETATM   18  C   UNL     1      -7.919   4.682  63.624  1.00  0.00    -0.091 A  
HETATM   19  C   UNL     1      -7.706   3.799  64.675  1.00  0.00    -0.081 A  
HETATM   20  C   UNL     1      -8.281   4.020  65.945  1.00  0.00    -0.108 A  
HETATM   21  S   UNL     1      -7.884   2.792  67.164  1.00  0.00    -0.074 SA 
HETATM   22  C   UNL     1      -8.704   3.402  68.612  1.00  0.00    -0.101 A  
HETATM   23  C   UNL     1      -9.516   4.550  68.630  1.00  0.00    -0.158 A  
HETATM   24  C   UNL     1     -10.129   4.846  69.873  1.00  0.00    -0.332 A  
HETATM   25  C   UNL     1      -9.887   4.124  71.059  1.00  0.00    -0.247 A  
HETATM   26  C   UNL     1      -9.055   3.013  71.000  1.00  0.00    -0.185 A  
HETATM   27  C   UNL     1     -10.488   4.560  72.373  1.00  0.00    -0.168 C  
HETATM   28  F   UNL     1     -11.246   5.689  72.282  1.00  0.00    -0.287 F  
HETATM   29  F   UNL     1      -9.534   4.840  73.306  1.00  0.00    -0.122 F  
HETATM   30  F   UNL     1     -11.289   3.614  72.930  1.00  0.00    -0.171 F  
HETATM   31  C   UNL     1      -8.484   2.648  69.786  1.00  0.00    -0.095 A  
ENDBRANCH  13  14
ENDBRANCH  12  13
ENDBRANCH  11  12
ENDBRANCH   8  11
ENDBRANCH   4   5
ENDBRANCH   2   4
TORSDOF 6
ENDMDL
MODEL      211
REMARK 921   NORMALIZED FREE ENERGY PREDICTED BY IDOCK:   -3.42 KCAL/MOL
REMARK 922        TOTAL FREE ENERGY PREDICTED BY IDOCK:   -4.86 KCAL/MOL
REMARK 923 INTER-LIGAND FREE ENERGY PREDICTED BY IDOCK:   -4.34 KCAL/MOL
REMARK 924 INTRA-LIGAND FREE ENERGY PREDICTED BY IDOCK:   -0.52 KCAL/MOL
REMARK 927      BINDING AFFINITY PREDICTED BY RF-SCORE:    0.00 PKD
ROOT
HETATM    1  O   UNL     1      -7.662   8.605  74.565  1.00  0.00    -0.368 OA 
HETATM    2  C   UNL     1      -6.355   8.489  74.005  1.00  0.00    -0.122 C  
HETATM    3  H   UNL     1      -7.668   9.287  75.226  1.00  0.00     0.000 HD 
ENDROOT
BRANCH   2   4
HETATM    4  C   UNL     1      -6.347   7.384  72.936  1.00  0.00    -0.059 C  
BRANCH   4   5
HETATM    5  N   UNL     1      -5.913   7.841  71.600  1.00  0.00    -0.035 NA 
HETATM    6  C   UNL     1      -6.377   6.955  70.516  1.00  0.00    -0.042 C  
HETATM    7  C   UNL     1      -7.894   7.022  70.260  1.00  0.00    -0.105 C  
HETATM    8  N   UNL     1      -8.415   8.373  69.963  1.00  0.00    -0.123 NA 
HETATM    9  C   UNL     1      -6.411   9.209  71.325  1.00  0.00    -0.078 C  
HETATM   10  C   UNL     1      -7.924   9.312  70.998  1.00  0.00    -0.069 C  
BRANCH   8  11
HETATM   11  C   UNL     1      -8.086   8.840  68.608  1.00  0.00    -0.116 C  
BRANCH  11  12
HETATM   12  C   UNL     1      -9.258   9.537  67.906  1.00  0.00    -0.134 C  
BRANCH  12  13
HETATM   13  C   UNL     1      -9.977   8.611  66.912  1.00  0.00    -0.260 C  
BRANCH  13  14
HETATM   14  N   UNL     1      -9.437   8.790  65.539  1.00  0.00    -0.114 NA 
HETATM   15  C   UNL     1      -9.751  10.015  64.873  1.00  0.00    -0.307 A  
HETATM   16  C   UNL     1     -10.720  10.924  65.362  1.00  0.00    -0.189 A  
HETATM   17  C   UNL     1     -11.048  12.118  64.704  1.00  0.00    -0.366 A  
HETATM   18  C   UNL     1     -10.413  12.452  63.524  1.00  0.00    -0.430 A  
HETATM   19  C   UNL     1      -9.453  11.590  63.009  1.00  0.00    -0.346 A  
HETATM   20  C   UNL     1      -9.121  10.386  63.668  1.00  0.00    -0.253 A  
HETATM   21  S   UNL     1      -7.862   9.424  62.866  1.00  0.00    -0.133 SA 
HETATM   22  C   UNL     1      -7.663   8.050  63.968  1.00  0.00    -0.137 A  
HETATM   23  C   UNL     1      -8.442   7.848  65.120  1.00  0.00    -0.079 A  
HETATM   24  C   UNL     1      -8.168   6.661  65.844  1.00  0.00    -0.132 A  
HETATM   25  C   UNL     1      -7.125   5.770  65.523  1.00  0.00    -0.069 A  
HETATM   26  C   UNL     1      -6.361   6.024  64.390  1.00  0.00    -0.030 A  
HETATM   27  C   UNL     1      -6.817   4.581  66.400  1.00  0.00    -0.058 C  
HETATM   28  F   UNL     1      -7.622   4.484  67.496  1.00  0.00    -0.074 F  
HETATM   29  F   UNL     1      -5.545   4.619  66.889  1.00  0.00    -0.012 F  
HETATM   30  F   UNL     1      -6.931   3.394  65.746  1.00  0.00    -0.051 F  
HETATM   31  C   UNL     1      -6.639   7.144  63.614  1.00  0.00    -0.044 A  
ENDBRANCH  13  14
ENDBRANCH  12  13
ENDBRANCH  11  12
ENDBRANCH   8  11
ENDBRANCH   4   5
ENDBRANCH   2   4
TORSDOF 6
ENDMDL
MODEL      212
REMARK 921   NORMALIZED FREE ENERGY PREDICTED BY IDOCK:   -3.40 KCAL/MOL
REMARK 922        TOTAL FREE ENERGY PREDICTED BY IDOCK:   -4.82 KCAL/MOL
REMARK 923 INTER-LIGAND FREE ENERGY PREDICTED BY IDOCK:   -4.30 KCAL/MOL
REMARK 924 INTRA-LIGAND FREE ENERGY PREDICTED BY IDOCK:   -0.52 KCAL/MOL
REMARK 927      BINDING AFFINITY PREDICTED BY RF-SCORE:    0.00 PKD
ROOT
HETATM    1  O   UNL     1      -5.967   4.611  72.130  1.00  0.00    -0.015 OA 
HETATM    2  C   UNL     1      -5.592   3.707  71.091  1.00  0.00    -0.012 C  
HETATM    3  H   UNL     1      -5.414   5.382  72.098  1.00  0.00     0.000 HD 
ENDROOT
BRANCH   2   4
HETATM    4  C   UNL     1      -6.488   2.459  71.144  1.00  0.00    -0.023 C  
BRANCH   4   5
HETATM    5  N   UNL     1      -7.118   2.113  69.853  1.00  0.00    -0.033 NA 
HETATM    6  C   UNL     1      -8.568   1.873  69.974  1.00  0.00    -0.051 C  
HETATM    7  C   UNL     1      -9.390   3.144  70.257  1.00  0.00    -0.165 C  
HETATM    8  N   UNL     1      -9.215   4.231  69.271  1.00  0.00    -0.130 NA 
HETATM    9  C   UNL     1      -6.908   3.193  68.860  1.00  0.00    -0.044 C  
HETATM   10  C   UNL     1      -7.767   4.468  69.074  1.00  0.00    -0.070 C  
BRANCH   8  11
HETATM   11  C   UNL     1      -9.901   3.977  67.996  1.00  0.00    -0.002 C  
BRANCH  11  12
HETATM   12  C   UNL     1      -9.478   4.938  66.877  1.00  0.00    -0.156 C  
BRANCH  12  13
HETATM   13  C   UNL     1     -10.248   6.267  66.928  1.00  0.00    -0.209 C  
BRANCH  13  14
HETATM   14  N   UNL     1      -9.343   7.387  67.295  1.00  0.00    -0.129 NA 
HETATM   15  C   UNL     1      -8.502   7.907  66.262  1.00  0.00    -0.135 A  
HETATM   16  C   UNL     1      -8.333   7.259  65.015  1.00  0.00    -0.054 A  
HETATM   17  C   UNL     1      -7.495   7.753  64.006  1.00  0.00    -0.103 A  
HETATM   18  C   UNL     1      -6.789   8.923  64.206  1.00  0.00    -0.082 A  
HETATM   19  C   UNL     1      -6.927   9.594  65.415  1.00  0.00    -0.095 A  
HETATM   20  C   UNL     1      -7.769   9.100  66.434  1.00  0.00    -0.096 A  
HETATM   21  S   UNL     1      -7.827  10.101  67.899  1.00  0.00    -0.101 SA 
HETATM   22  C   UNL     1      -8.992   9.235  68.916  1.00  0.00    -0.136 A  
HETATM   23  C   UNL     1      -9.587   8.012  68.561  1.00  0.00    -0.155 A  
HETATM   24  C   UNL     1     -10.454   7.448  69.531  1.00  0.00    -0.236 A  
HETATM   25  C   UNL     1     -10.802   8.088  70.738  1.00  0.00    -0.244 A  
HETATM   26  C   UNL     1     -10.210   9.310  71.035  1.00  0.00    -0.384 A  
HETATM   27  C   UNL     1     -11.816   7.482  71.676  1.00  0.00    -0.291 C  
HETATM   28  F   UNL     1     -12.341   6.304  71.233  1.00  0.00    -0.342 F  
HETATM   29  F   UNL     1     -12.887   8.302  71.874  1.00  0.00    -0.303 F  
HETATM   30  F   UNL     1     -11.309   7.224  72.911  1.00  0.00    -0.303 F  
HETATM   31  C   UNL     1      -9.304   9.867  70.140  1.00  0.00    -0.200 A  
ENDBRANCH  13  14
ENDBRANCH  12  13
ENDBRANCH  11  12
ENDBRANCH   8  11
ENDBRANCH   4   5
ENDBRANCH   2   4
TORSDOF 6
ENDMDL
MODEL      213
REMARK 921   NORMALIZED FREE ENERGY PREDICTED BY IDOCK:   -3.39 KCAL/MOL
REMARK 922        TOTAL FREE ENERGY PREDICTED BY IDOCK:   -4.82 KCAL/MOL
REMARK 923 INTER-LIGAND FREE ENERGY PREDICTED BY IDOCK:   -4.05 KCAL/MOL
REMARK 924 INTRA-LIGAND FREE ENERGY PREDICTED BY IDOCK:   -0.77 KCAL/MOL
REMARK 927      BINDING AFFINITY PREDICTED BY RF-SCORE:    0.00 PKD
ROOT
HETATM    1  O   UNL     1     -13.270  10.999  72.100  1.00  0.00    -0.591 OA 
HETATM    2  C   UNL     1     -13.175  10.459  70.783  1.00  0.00    -0.196 C  
HETATM    3  H   UNL     1     -14.116  10.782  72.474  1.00  0.00     0.000 HD 
ENDROOT
BRANCH   2   4
HETATM    4  C   UNL     1     -11.806  10.810  70.178  1.00  0.00    -0.343 C  
BRANCH   4   5
HETATM    5  N   UNL     1     -11.090   9.657  69.596  1.00  0.00    -0.223 NA 
HETATM    6  C   UNL     1     -11.222   9.587  68.128  1.00  0.00     0.131 C  
HETATM    7  C   UNL     1     -10.452  10.690  67.379  1.00  0.00    -0.235 C  
HETATM    8  N   UNL     1      -9.006  10.753  67.678  1.00  0.00    -0.139 NA 
HETATM    9  C   UNL     1      -9.647   9.710  69.929  1.00  0.00    -0.230 C  
HETATM   10  C   UNL     1      -8.823  10.766  69.147  1.00  0.00    -0.086 C  
BRANCH   8  11
HETATM   11  C   UNL     1      -8.232   9.675  67.046  1.00  0.00    -0.117 C  
BRANCH  11  12
HETATM   12  C   UNL     1      -6.855   9.460  67.687  1.00  0.00    -0.076 C  
BRANCH  12  13
HETATM   13  C   UNL     1      -6.492   7.971  67.802  1.00  0.00    -0.053 C  
BRANCH  13  14
HETATM   14  N   UNL     1      -7.067   7.383  69.040  1.00  0.00    -0.077 NA 
HETATM   15  C   UNL     1      -6.656   7.956  70.283  1.00  0.00    -0.037 A  
HETATM   16  C   UNL     1      -5.578   8.869  70.385  1.00  0.00    -0.030 A  
HETATM   17  C   UNL     1      -5.156   9.420  71.603  1.00  0.00    -0.056 A  
HETATM   18  C   UNL     1      -5.802   9.078  72.775  1.00  0.00    -0.034 A  
HETATM   19  C   UNL     1      -6.867   8.188  72.721  1.00  0.00    -0.105 A  
HETATM   20  C   UNL     1      -7.294   7.629  71.497  1.00  0.00    -0.071 A  
HETATM   21  S   UNL     1      -8.678   6.525  71.628  1.00  0.00    -0.131 SA 
HETATM   22  C   UNL     1      -8.972   6.070  69.941  1.00  0.00    -0.141 A  
HETATM   23  C   UNL     1      -8.171   6.487  68.864  1.00  0.00    -0.119 A  
HETATM   24  C   UNL     1      -8.536   5.973  67.594  1.00  0.00    -0.106 A  
HETATM   25  C   UNL     1      -9.678   5.179  67.368  1.00  0.00    -0.172 A  
HETATM   26  C   UNL     1     -10.458   4.815  68.459  1.00  0.00     0.166 A  
HETATM   27  C   UNL     1     -10.071   4.757  65.973  1.00  0.00    -0.257 C  
HETATM   28  F   UNL     1      -9.235   5.224  65.003  1.00  0.00    -0.157 F  
HETATM   29  F   UNL     1     -11.311   5.208  65.629  1.00  0.00    -0.172 F  
HETATM   30  F   UNL     1     -10.108   3.407  65.819  1.00  0.00    -0.062 F  
HETATM   31  C   UNL     1     -10.098   5.243  69.732  1.00  0.00    -0.334 A  
ENDBRANCH  13  14
ENDBRANCH  12  13
ENDBRANCH  11  12
ENDBRANCH   8  11
ENDBRANCH   4   5
ENDBRANCH   2   4
TORSDOF 6
ENDMDL
MODEL      214
REMARK 921   NORMALIZED FREE ENERGY PREDICTED BY IDOCK:   -3.39 KCAL/MOL
REMARK 922        TOTAL FREE ENERGY PREDICTED BY IDOCK:   -4.81 KCAL/MOL
REMARK 923 INTER-LIGAND FREE ENERGY PREDICTED BY IDOCK:   -4.87 KCAL/MOL
REMARK 924 INTRA-LIGAND FREE ENERGY PREDICTED BY IDOCK:    0.06 KCAL/MOL
REMARK 927      BINDING AFFINITY PREDICTED BY RF-SCORE:    0.00 PKD
ROOT
HETATM    1  O   UNL     1     -10.873   7.028  69.994  1.00  0.00    -0.242 OA 
HETATM    2  C   UNL     1     -10.775   8.094  70.938  1.00  0.00    -0.221 C  
HETATM    3  H   UNL     1     -11.710   7.074  69.547  1.00  0.00     0.000 HD 
ENDROOT
BRANCH   2   4
HETATM    4  C   UNL     1      -9.421   8.019  71.663  1.00  0.00    -0.164 C  
BRANCH   4   5
HETATM    5  N   UNL     1      -8.554   9.195  71.444  1.00  0.00    -0.333 NA 
HETATM    6  C   UNL     1      -7.119   8.857  71.464  1.00  0.00    -0.059 C  
HETATM    7  C   UNL     1      -6.652   8.044  70.241  1.00  0.00    -0.037 C  
HETATM    8  N   UNL     1      -6.928   8.674  68.933  1.00  0.00    -0.061 NA 
HETATM    9  C   UNL     1      -8.861   9.841  70.146  1.00  0.00    -0.188 C  
HETATM   10  C   UNL     1      -8.350   9.085  68.892  1.00  0.00    -0.125 C  
BRANCH   8  11
HETATM   11  C   UNL     1      -6.031   9.797  68.627  1.00  0.00    -0.042 C  
BRANCH  11  12
HETATM   12  C   UNL     1      -5.991  10.153  67.135  1.00  0.00    -0.051 C  
BRANCH  12  13
HETATM   13  C   UNL     1      -6.688  11.489  66.835  1.00  0.00    -0.139 C  
BRANCH  13  14
HETATM   14  N   UNL     1      -7.818  11.294  65.890  1.00  0.00     0.030 NA 
HETATM   15  C   UNL     1      -7.645  10.314  64.864  1.00  0.00    -0.119 A  
HETATM   16  C   UNL     1      -6.392   9.719  64.579  1.00  0.00    -0.111 A  
HETATM   17  C   UNL     1      -6.210   8.773  63.561  1.00  0.00    -0.085 A  
HETATM   18  C   UNL     1      -7.282   8.380  62.783  1.00  0.00    -0.096 A  
HETATM   19  C   UNL     1      -8.531   8.937  63.030  1.00  0.00    -0.170 A  
HETATM   20  C   UNL     1      -8.719   9.891  64.053  1.00  0.00    -0.212 A  
HETATM   21  S   UNL     1     -10.386  10.476  64.226  1.00  0.00     0.055 SA 
HETATM   22  C   UNL     1     -10.267  11.586  65.603  1.00  0.00    -0.248 A  
HETATM   23  C   UNL     1      -9.063  11.903  66.254  1.00  0.00    -0.188 A  
HETATM   24  C   UNL     1      -9.165  12.854  67.301  1.00  0.00    -0.208 A  
HETATM   25  C   UNL     1     -10.386  13.390  67.757  1.00  0.00    -0.241 A  
HETATM   26  C   UNL     1     -11.556  13.026  67.101  1.00  0.00    -0.411 A  
HETATM   27  C   UNL     1     -10.434  14.314  68.949  1.00  0.00    -0.238 C  
HETATM   28  F   UNL     1      -9.215  14.547  69.513  1.00  0.00    -0.046 F  
HETATM   29  F   UNL     1     -11.208  13.816  69.955  1.00  0.00    -0.263 F  
HETATM   30  F   UNL     1     -10.949  15.537  68.652  1.00  0.00    -0.235 F  
HETATM   31  C   UNL     1     -11.493  12.146  66.026  1.00  0.00    -0.427 A  
ENDBRANCH  13  14
ENDBRANCH  12  13
ENDBRANCH  11  12
ENDBRANCH   8  11
ENDBRANCH   4   5
ENDBRANCH   2   4
TORSDOF 6
ENDMDL
MODEL      215
REMARK 921   NORMALIZED FREE ENERGY PREDICTED BY IDOCK:   -3.38 KCAL/MOL
REMARK 922        TOTAL FREE ENERGY PREDICTED BY IDOCK:   -4.80 KCAL/MOL
REMARK 923 INTER-LIGAND FREE ENERGY PREDICTED BY IDOCK:   -6.20 KCAL/MOL
REMARK 924 INTRA-LIGAND FREE ENERGY PREDICTED BY IDOCK:    1.39 KCAL/MOL
REMARK 927      BINDING AFFINITY PREDICTED BY RF-SCORE:    0.00 PKD
ROOT
HETATM    1  O   UNL     1      -5.836  11.236  62.434  1.00  0.00    -0.341 OA 
HETATM    2  C   UNL     1      -5.632  10.555  63.670  1.00  0.00    -0.130 C  
HETATM    3  H   UNL     1      -5.035  11.674  62.174  1.00  0.00     0.000 HD 
ENDROOT
BRANCH   2   4
HETATM    4  C   UNL     1      -6.930   9.846  64.092  1.00  0.00    -0.128 C  
BRANCH   4   5
HETATM    5  N   UNL     1      -7.745  10.608  65.060  1.00  0.00    -0.032 NA 
HETATM    6  C   UNL     1      -8.790   9.784  65.697  1.00  0.00    -0.154 C  
HETATM    7  C   UNL     1      -8.243   8.737  66.686  1.00  0.00    -0.107 C  
HETATM    8  N   UNL     1      -7.406   9.286  67.773  1.00  0.00    -0.083 NA 
HETATM    9  C   UNL     1      -6.893  11.183  66.128  1.00  0.00    -0.004 C  
HETATM   10  C   UNL     1      -6.375  10.169  67.182  1.00  0.00    -0.067 C  
BRANCH   8  11
HETATM   11  C   UNL     1      -8.181   9.978  68.813  1.00  0.00    -0.115 C  
BRANCH  11  12
HETATM   12  C   UNL     1      -9.070  11.101  68.260  1.00  0.00    -0.162 C  
BRANCH  12  13
HETATM   13  C   UNL     1     -10.543  10.676  68.146  1.00  0.00    -0.202 C  
BRANCH  13  14
HETATM   14  N   UNL     1     -11.172  10.591  69.490  1.00  0.00    -0.253 NA 
HETATM   15  C   UNL     1     -11.844  11.759  69.967  1.00  0.00    -0.342 A  
HETATM   16  C   UNL     1     -11.727  13.020  69.335  1.00  0.00    -0.386 A  
HETATM   17  C   UNL     1     -12.366  14.174  69.809  1.00  0.00    -0.350 A  
HETATM   18  C   UNL     1     -13.155  14.111  70.941  1.00  0.00    -0.338 A  
HETATM   19  C   UNL     1     -13.300  12.892  71.592  1.00  0.00    -0.358 A  
HETATM   20  C   UNL     1     -12.657  11.728  71.119  1.00  0.00    -0.309 A  
HETATM   21  S   UNL     1     -12.973  10.265  72.074  1.00  0.00    -0.320 SA 
HETATM   22  C   UNL     1     -12.079   9.020  71.185  1.00  0.00    -0.287 A  
HETATM   23  C   UNL     1     -11.280   9.280  70.059  1.00  0.00    -0.168 A  
HETATM   24  C   UNL     1     -10.601   8.160  69.517  1.00  0.00    -0.215 A  
HETATM   25  C   UNL     1     -10.769   6.841  69.984  1.00  0.00    -0.287 A  
HETATM   26  C   UNL     1     -11.592   6.626  71.083  1.00  0.00    -0.384 A  
HETATM   27  C   UNL     1     -10.100   5.678  69.291  1.00  0.00    -0.214 C  
HETATM   28  F   UNL     1      -9.359   6.038  68.205  1.00  0.00    -0.118 F  
HETATM   29  F   UNL     1     -11.003   4.768  68.827  1.00  0.00     0.144 F  
HETATM   30  F   UNL     1      -9.259   4.988  70.107  1.00  0.00    -0.140 F  
HETATM   31  C   UNL     1     -12.226   7.707  71.685  1.00  0.00    -0.346 A  
ENDBRANCH  13  14
ENDBRANCH  12  13
ENDBRANCH  11  12
ENDBRANCH   8  11
ENDBRANCH   4   5
ENDBRANCH   2   4
TORSDOF 6
ENDMDL
MODEL      216
REMARK 921   NORMALIZED FREE ENERGY PREDICTED BY IDOCK:   -3.33 KCAL/MOL
REMARK 922        TOTAL FREE ENERGY PREDICTED BY IDOCK:   -4.73 KCAL/MOL
REMARK 923 INTER-LIGAND FREE ENERGY PREDICTED BY IDOCK:   -6.46 KCAL/MOL
REMARK 924 INTRA-LIGAND FREE ENERGY PREDICTED BY IDOCK:    1.73 KCAL/MOL
REMARK 927      BINDING AFFINITY PREDICTED BY RF-SCORE:    0.00 PKD
ROOT
HETATM    1  O   UNL     1     -10.302  19.486  66.223  1.00  0.00    -0.427 OA 
HETATM    2  C   UNL     1      -9.027  18.934  66.547  1.00  0.00    -0.323 C  
HETATM    3  H   UNL     1     -10.377  19.587  65.282  1.00  0.00     0.000 HD 
ENDROOT
BRANCH   2   4
HETATM    4  C   UNL     1      -8.906  18.771  68.071  1.00  0.00    -0.300 C  
BRANCH   4   5
HETATM    5  N   UNL     1      -7.833  17.848  68.495  1.00  0.00    -0.292 NA 
HETATM    6  C   UNL     1      -8.352  16.643  69.169  1.00  0.00    -0.115 C  
HETATM    7  C   UNL     1      -9.085  15.668  68.229  1.00  0.00    -0.187 C  
HETATM    8  N   UNL     1      -8.291  15.206  67.071  1.00  0.00    -0.218 NA 
HETATM    9  C   UNL     1      -7.022  17.416  67.334  1.00  0.00    -0.164 C  
HETATM   10  C   UNL     1      -7.700  16.384  66.396  1.00  0.00    -0.214 C  
BRANCH   8  11
HETATM   11  C   UNL     1      -7.265  14.215  67.427  1.00  0.00    -0.101 C  
BRANCH  11  12
HETATM   12  C   UNL     1      -7.771  12.768  67.362  1.00  0.00    -0.165 C  
BRANCH  12  13
HETATM   13  C   UNL     1      -6.943  11.820  68.245  1.00  0.00    -0.075 C  
BRANCH  13  14
HETATM   14  N   UNL     1      -7.826  10.872  68.973  1.00  0.00    -0.141 NA 
HETATM   15  C   UNL     1      -7.229  10.103  70.020  1.00  0.00    -0.161 A  
HETATM   16  C   UNL     1      -5.828  10.039  70.218  1.00  0.00    -0.064 A  
HETATM   17  C   UNL     1      -5.235   9.271  71.229  1.00  0.00    -0.042 A  
HETATM   18  C   UNL     1      -6.025   8.534  72.090  1.00  0.00    -0.062 A  
HETATM   19  C   UNL     1      -7.404   8.570  71.934  1.00  0.00    -0.119 A  
HETATM   20  C   UNL     1      -8.007   9.340  70.915  1.00  0.00    -0.122 A  
HETATM   21  S   UNL     1      -9.780   9.272  70.883  1.00  0.00    -0.255 SA 
HETATM   22  C   UNL     1     -10.187  10.371  69.554  1.00  0.00    -0.231 A  
HETATM   23  C   UNL     1      -9.233  11.011  68.744  1.00  0.00    -0.162 A  
HETATM   24  C   UNL     1      -9.756  11.811  67.697  1.00  0.00    -0.186 A  
HETATM   25  C   UNL     1     -11.131  12.056  67.510  1.00  0.00    -0.331 A  
HETATM   26  C   UNL     1     -12.038  11.425  68.353  1.00  0.00    -0.118 A  
HETATM   27  C   UNL     1     -11.615  13.007  66.442  1.00  0.00    -0.363 C  
HETATM   28  F   UNL     1     -10.610  13.582  65.723  1.00  0.00    -0.268 F  
HETATM   29  F   UNL     1     -12.326  14.047  66.964  1.00  0.00    -0.443 F  
HETATM   30  F   UNL     1     -12.434  12.412  65.534  1.00  0.00    -0.492 F  
HETATM   31  C   UNL     1     -11.570  10.579  69.352  1.00  0.00    -0.318 A  
ENDBRANCH  13  14
ENDBRANCH  12  13
ENDBRANCH  11  12
ENDBRANCH   8  11
ENDBRANCH   4   5
ENDBRANCH   2   4
TORSDOF 6
ENDMDL
MODEL      217
REMARK 921   NORMALIZED FREE ENERGY PREDICTED BY IDOCK:   -3.30 KCAL/MOL
REMARK 922        TOTAL FREE ENERGY PREDICTED BY IDOCK:   -4.70 KCAL/MOL
REMARK 923 INTER-LIGAND FREE ENERGY PREDICTED BY IDOCK:   -5.51 KCAL/MOL
REMARK 924 INTRA-LIGAND FREE ENERGY PREDICTED BY IDOCK:    0.81 KCAL/MOL
REMARK 927      BINDING AFFINITY PREDICTED BY RF-SCORE:    0.00 PKD
ROOT
HETATM    1  O   UNL     1      -6.768   8.717  67.711  1.00  0.00    -0.064 OA 
HETATM    2  C   UNL     1      -5.792   7.817  68.232  1.00  0.00    -0.036 C  
HETATM    3  H   UNL     1      -7.177   8.335  66.943  1.00  0.00     0.000 HD 
ENDROOT
BRANCH   2   4
HETATM    4  C   UNL     1      -5.130   8.435  69.475  1.00  0.00    -0.030 C  
BRANCH   4   5
HETATM    5  N   UNL     1      -5.722   7.996  70.755  1.00  0.00    -0.029 NA 
HETATM    6  C   UNL     1      -6.389   9.093  71.480  1.00  0.00    -0.060 C  
HETATM    7  C   UNL     1      -7.694   9.576  70.820  1.00  0.00    -0.061 C  
HETATM    8  N   UNL     1      -8.708   8.523  70.604  1.00  0.00    -0.143 NA 
HETATM    9  C   UNL     1      -6.713   6.917  70.533  1.00  0.00    -0.053 C  
HETATM   10  C   UNL     1      -8.067   7.373  69.928  1.00  0.00    -0.126 C  
BRANCH   8  11
HETATM   11  C   UNL     1      -9.393   8.113  71.839  1.00  0.00    -0.190 C  
BRANCH  11  12
HETATM   12  C   UNL     1     -10.762   8.780  72.023  1.00  0.00    -0.417 C  
BRANCH  12  13
HETATM   13  C   UNL     1     -11.710   8.503  70.846  1.00  0.00    -0.245 C  
BRANCH  13  14
HETATM   14  N   UNL     1     -11.705   9.637  69.886  1.00  0.00    -0.045 NA 
HETATM   15  C   UNL     1     -12.056  10.924  70.400  1.00  0.00    -0.363 A  
HETATM   16  C   UNL     1     -12.621  11.106  71.686  1.00  0.00    -0.386 A  
HETATM   17  C   UNL     1     -12.987  12.362  72.189  1.00  0.00    -0.308 A  
HETATM   18  C   UNL     1     -12.798  13.494  71.420  1.00  0.00    -0.440 A  
HETATM   19  C   UNL     1     -12.245  13.363  70.154  1.00  0.00    -0.385 A  
HETATM   20  C   UNL     1     -11.876  12.099  69.642  1.00  0.00    -0.322 A  
HETATM   21  S   UNL     1     -11.172  12.134  68.013  1.00  0.00    -0.287 SA 
HETATM   22  C   UNL     1     -10.785  10.430  67.720  1.00  0.00    -0.279 A  
HETATM   23  C   UNL     1     -11.096   9.390  68.613  1.00  0.00     0.060 A  
HETATM   24  C   UNL     1     -10.753   8.085  68.177  1.00  0.00    -0.093 A  
HETATM   25  C   UNL     1     -10.055   7.816  66.982  1.00  0.00    -0.343 A  
HETATM   26  C   UNL     1      -9.743   8.879  66.143  1.00  0.00    -0.338 A  
HETATM   27  C   UNL     1      -9.624   6.413  66.631  1.00  0.00    -0.157 C  
HETATM   28  F   UNL     1      -9.963   5.483  67.568  1.00  0.00    -0.129 F  
HETATM   29  F   UNL     1      -8.271   6.310  66.493  1.00  0.00    -0.105 F  
HETATM   30  F   UNL     1     -10.154   5.974  65.458  1.00  0.00     0.165 F  
HETATM   31  C   UNL     1     -10.119  10.169  66.502  1.00  0.00    -0.296 A  
ENDBRANCH  13  14
ENDBRANCH  12  13
ENDBRANCH  11  12
ENDBRANCH   8  11
ENDBRANCH   4   5
ENDBRANCH   2   4
TORSDOF 6
ENDMDL
MODEL      218
REMARK 921   NORMALIZED FREE ENERGY PREDICTED BY IDOCK:   -3.30 KCAL/MOL
REMARK 922        TOTAL FREE ENERGY PREDICTED BY IDOCK:   -4.69 KCAL/MOL
REMARK 923 INTER-LIGAND FREE ENERGY PREDICTED BY IDOCK:   -5.30 KCAL/MOL
REMARK 924 INTRA-LIGAND FREE ENERGY PREDICTED BY IDOCK:    0.60 KCAL/MOL
REMARK 927      BINDING AFFINITY PREDICTED BY RF-SCORE:    0.00 PKD
ROOT
HETATM    1  O   UNL     1      -7.606   8.402  74.182  1.00  0.00    -0.245 OA 
HETATM    2  C   UNL     1      -6.289   8.693  73.718  1.00  0.00    -0.077 C  
HETATM    3  H   UNL     1      -7.997   9.186  74.549  1.00  0.00     0.000 HD 
ENDROOT
BRANCH   2   4
HETATM    4  C   UNL     1      -5.657   7.423  73.125  1.00  0.00    -0.044 C  
BRANCH   4   5
HETATM    5  N   UNL     1      -5.210   7.569  71.725  1.00  0.00    -0.035 NA 
HETATM    6  C   UNL     1      -5.908   6.653  70.805  1.00  0.00    -0.027 C  
HETATM    7  C   UNL     1      -7.388   7.009  70.572  1.00  0.00    -0.076 C  
HETATM    8  N   UNL     1      -7.628   8.381  70.077  1.00  0.00    -0.067 NA 
HETATM    9  C   UNL     1      -5.422   8.956  71.247  1.00  0.00    -0.040 C  
HETATM   10  C   UNL     1      -6.894   9.335  70.940  1.00  0.00    -0.103 C  
BRANCH   8  11
HETATM   11  C   UNL     1      -7.282   8.557  68.659  1.00  0.00    -0.080 C  
BRANCH  11  12
HETATM   12  C   UNL     1      -7.715   9.915  68.092  1.00  0.00    -0.082 C  
BRANCH  12  13
HETATM   13  C   UNL     1      -9.000   9.814  67.254  1.00  0.00    -0.135 C  
BRANCH  13  14
HETATM   14  N   UNL     1      -9.440   8.400  67.133  1.00  0.00    -0.154 NA 
HETATM   15  C   UNL     1      -8.855   7.626  66.083  1.00  0.00    -0.164 A  
HETATM   16  C   UNL     1      -8.084   8.204  65.045  1.00  0.00    -0.155 A  
HETATM   17  C   UNL     1      -7.524   7.454  64.002  1.00  0.00    -0.100 A  
HETATM   18  C   UNL     1      -7.714   6.087  63.955  1.00  0.00    -0.101 A  
HETATM   19  C   UNL     1      -8.463   5.478  64.954  1.00  0.00    -0.139 A  
HETATM   20  C   UNL     1      -9.030   6.229  66.007  1.00  0.00    -0.137 A  
HETATM   21  S   UNL     1      -9.938   5.273  67.195  1.00  0.00    -0.205 SA 
HETATM   22  C   UNL     1     -10.446   6.498  68.372  1.00  0.00    -0.218 A  
HETATM   23  C   UNL     1     -10.196   7.874  68.230  1.00  0.00    -0.203 A  
HETATM   24  C   UNL     1     -10.728   8.701  69.251  1.00  0.00    -0.151 A  
HETATM   25  C   UNL     1     -11.381   8.208  70.399  1.00  0.00    -0.181 A  
HETATM   26  C   UNL     1     -11.581   6.837  70.510  1.00  0.00    -0.426 A  
HETATM   27  C   UNL     1     -11.826   9.138  71.501  1.00  0.00    -0.358 C  
HETATM   28  F   UNL     1     -11.525  10.447  71.271  1.00  0.00    -0.403 F  
HETATM   29  F   UNL     1     -11.240   8.837  72.695  1.00  0.00    -0.391 F  
HETATM   30  F   UNL     1     -13.167   9.095  71.722  1.00  0.00    -0.331 F  
HETATM   31  C   UNL     1     -11.132   5.995  69.499  1.00  0.00    -0.468 A  
ENDBRANCH  13  14
ENDBRANCH  12  13
ENDBRANCH  11  12
ENDBRANCH   8  11
ENDBRANCH   4   5
ENDBRANCH   2   4
TORSDOF 6
ENDMDL
MODEL      219
REMARK 921   NORMALIZED FREE ENERGY PREDICTED BY IDOCK:   -3.25 KCAL/MOL
REMARK 922        TOTAL FREE ENERGY PREDICTED BY IDOCK:   -4.63 KCAL/MOL
REMARK 923 INTER-LIGAND FREE ENERGY PREDICTED BY IDOCK:   -3.96 KCAL/MOL
REMARK 924 INTRA-LIGAND FREE ENERGY PREDICTED BY IDOCK:   -0.67 KCAL/MOL
REMARK 927      BINDING AFFINITY PREDICTED BY RF-SCORE:    0.00 PKD
ROOT
HETATM    1  O   UNL     1     -12.284   9.307  72.338  1.00  0.00    -0.282 OA 
HETATM    2  C   UNL     1     -11.227   8.374  72.120  1.00  0.00    -0.361 C  
HETATM    3  H   UNL     1     -13.066   8.845  72.615  1.00  0.00     0.000 HD 
ENDROOT
BRANCH   2   4
HETATM    4  C   UNL     1      -9.961   9.122  71.671  1.00  0.00    -0.249 C  
BRANCH   4   5
HETATM    5  N   UNL     1      -9.248   8.480  70.548  1.00  0.00    -0.149 NA 
HETATM    6  C   UNL     1      -8.505   9.447  69.719  1.00  0.00    -0.165 C  
HETATM    7  C   UNL     1      -7.268  10.046  70.415  1.00  0.00    -0.108 C  
HETATM    8  N   UNL     1      -6.287   9.055  70.904  1.00  0.00    -0.053 NA 
HETATM    9  C   UNL     1      -8.291   7.463  71.045  1.00  0.00    -0.114 C  
HETATM   10  C   UNL     1      -7.001   8.028  71.696  1.00  0.00    -0.066 C  
BRANCH   8  11
HETATM   11  C   UNL     1      -5.486   8.450  69.829  1.00  0.00    -0.029 C  
BRANCH  11  12
HETATM   12  C   UNL     1      -5.625   6.924  69.755  1.00  0.00    -0.019 C  
BRANCH  12  13
HETATM   13  C   UNL     1      -5.755   6.421  68.308  1.00  0.00    -0.016 C  
BRANCH  13  14
HETATM   14  N   UNL     1      -7.143   5.967  68.031  1.00  0.00    -0.076 NA 
HETATM   15  C   UNL     1      -7.588   4.790  68.709  1.00  0.00    -0.069 A  
HETATM   16  C   UNL     1      -6.709   3.938  69.420  1.00  0.00    -0.041 A  
HETATM   17  C   UNL     1      -7.135   2.771  70.069  1.00  0.00    -0.033 A  
HETATM   18  C   UNL     1      -8.468   2.410  70.035  1.00  0.00    -0.088 A  
HETATM   19  C   UNL     1      -9.366   3.218  69.351  1.00  0.00    -0.232 A  
HETATM   20  C   UNL     1      -8.942   4.393  68.694  1.00  0.00    -0.115 A  
HETATM   21  S   UNL     1     -10.236   5.302  67.887  1.00  0.00    -0.114 SA 
HETATM   22  C   UNL     1      -9.375   6.707  67.235  1.00  0.00    -0.132 A  
HETATM   23  C   UNL     1      -7.984   6.890  67.329  1.00  0.00    -0.114 A  
HETATM   24  C   UNL     1      -7.475   8.053  66.698  1.00  0.00    -0.089 A  
HETATM   25  C   UNL     1      -8.285   9.036  66.095  1.00  0.00    -0.115 A  
HETATM   26  C   UNL     1      -9.658   8.827  66.049  1.00  0.00    -0.297 A  
HETATM   27  C   UNL     1      -7.686  10.304  65.538  1.00  0.00    -0.149 C  
HETATM   28  F   UNL     1      -6.334  10.387  65.691  1.00  0.00    -0.090 F  
HETATM   29  F   UNL     1      -8.187  11.418  66.143  1.00  0.00    -0.169 F  
HETATM   30  F   UNL     1      -7.922  10.463  64.208  1.00  0.00    -0.157 F  
HETATM   31  C   UNL     1     -10.193   7.667  66.599  1.00  0.00    -0.272 A  
ENDBRANCH  13  14
ENDBRANCH  12  13
ENDBRANCH  11  12
ENDBRANCH   8  11
ENDBRANCH   4   5
ENDBRANCH   2   4
TORSDOF 6
ENDMDL
MODEL      220
REMARK 921   NORMALIZED FREE ENERGY PREDICTED BY IDOCK:   -3.20 KCAL/MOL
REMARK 922        TOTAL FREE ENERGY PREDICTED BY IDOCK:   -4.56 KCAL/MOL
REMARK 923 INTER-LIGAND FREE ENERGY PREDICTED BY IDOCK:   -4.22 KCAL/MOL
REMARK 924 INTRA-LIGAND FREE ENERGY PREDICTED BY IDOCK:   -0.34 KCAL/MOL
REMARK 927      BINDING AFFINITY PREDICTED BY RF-SCORE:    0.00 PKD
ROOT
HETATM    1  O   UNL     1     -13.598  10.910  71.865  1.00  0.00    -0.251 OA 
HETATM    2  C   UNL     1     -13.190   9.873  70.975  1.00  0.00    -0.304 C  
HETATM    3  H   UNL     1     -14.473  10.728  72.189  1.00  0.00     0.000 HD 
ENDROOT
BRANCH   2   4
HETATM    4  C   UNL     1     -11.775  10.168  70.451  1.00  0.00    -0.308 C  
BRANCH   4   5
HETATM    5  N   UNL     1     -10.748   9.214  70.918  1.00  0.00    -0.250 NA 
HETATM    6  C   UNL     1     -11.305   8.153  71.777  1.00  0.00    -0.278 C  
HETATM    7  C   UNL     1     -12.184   7.137  71.024  1.00  0.00    -0.343 C  
HETATM    8  N   UNL     1     -11.523   6.466  69.885  1.00  0.00    -0.429 NA 
HETATM    9  C   UNL     1     -10.067   8.571  69.770  1.00  0.00    -0.197 C  
HETATM   10  C   UNL     1     -10.896   7.494  69.023  1.00  0.00    -0.061 C  
BRANCH   8  11
HETATM   11  C   UNL     1     -10.553   5.440  70.297  1.00  0.00    -0.259 C  
BRANCH  11  12
HETATM   12  C   UNL     1      -9.613   5.005  69.165  1.00  0.00    -0.220 C  
BRANCH  12  13
HETATM   13  C   UNL     1      -8.182   4.747  69.663  1.00  0.00    -0.072 C  
BRANCH  13  14
HETATM   14  N   UNL     1      -7.238   5.743  69.092  1.00  0.00    -0.072 NA 
HETATM   15  C   UNL     1      -7.020   5.697  67.680  1.00  0.00    -0.066 A  
HETATM   16  C   UNL     1      -7.468   4.624  66.872  1.00  0.00    -0.086 A  
HETATM   17  C   UNL     1      -7.241   4.561  65.491  1.00  0.00    -0.068 A  
HETATM   18  C   UNL     1      -6.554   5.579  64.858  1.00  0.00    -0.039 A  
HETATM   19  C   UNL     1      -6.098   6.653  65.612  1.00  0.00    -0.038 A  
HETATM   20  C   UNL     1      -6.323   6.719  67.004  1.00  0.00    -0.041 A  
HETATM   21  S   UNL     1      -5.679   8.174  67.791  1.00  0.00    -0.039 SA 
HETATM   22  C   UNL     1      -6.180   7.956  69.478  1.00  0.00    -0.034 A  
HETATM   23  C   UNL     1      -6.846   6.815  69.958  1.00  0.00    -0.057 A  
HETATM   24  C   UNL     1      -7.115   6.804  71.350  1.00  0.00    -0.075 A  
HETATM   25  C   UNL     1      -6.842   7.887  72.210  1.00  0.00    -0.068 A  
HETATM   26  C   UNL     1      -6.208   9.007  71.685  1.00  0.00    -0.076 A  
HETATM   27  C   UNL     1      -7.255   7.852  73.661  1.00  0.00    -0.132 C  
HETATM   28  F   UNL     1      -7.904   6.708  74.021  1.00  0.00    -0.101 F  
HETATM   29  F   UNL     1      -8.111   8.866  73.976  1.00  0.00    -0.136 F  
HETATM   30  F   UNL     1      -6.204   7.971  74.515  1.00  0.00    -0.091 F  
HETATM   31  C   UNL     1      -5.867   9.032  70.337  1.00  0.00    -0.031 A  
ENDBRANCH  13  14
ENDBRANCH  12  13
ENDBRANCH  11  12
ENDBRANCH   8  11
ENDBRANCH   4   5
ENDBRANCH   2   4
TORSDOF 6
ENDMDL
MODEL      221
REMARK 921   NORMALIZED FREE ENERGY PREDICTED BY IDOCK:   -3.15 KCAL/MOL
REMARK 922        TOTAL FREE ENERGY PREDICTED BY IDOCK:   -4.49 KCAL/MOL
REMARK 923 INTER-LIGAND FREE ENERGY PREDICTED BY IDOCK:   -3.84 KCAL/MOL
REMARK 924 INTRA-LIGAND FREE ENERGY PREDICTED BY IDOCK:   -0.64 KCAL/MOL
REMARK 927      BINDING AFFINITY PREDICTED BY RF-SCORE:    0.00 PKD
ROOT
HETATM    1  O   UNL     1      -9.680   3.239  73.379  1.00  0.00    -0.102 OA 
HETATM    2  C   UNL     1      -8.316   3.405  73.761  1.00  0.00    -0.075 C  
HETATM    3  H   UNL     1      -9.811   2.366  73.030  1.00  0.00     0.000 HD 
ENDROOT
BRANCH   2   4
HETATM    4  C   UNL     1      -8.104   4.819  74.326  1.00  0.00    -0.100 C  
BRANCH   4   5
HETATM    5  N   UNL     1      -6.915   5.511  73.789  1.00  0.00    -0.084 NA 
HETATM    6  C   UNL     1      -6.874   5.514  72.315  1.00  0.00    -0.079 C  
HETATM    7  C   UNL     1      -7.935   6.420  71.663  1.00  0.00    -0.102 C  
HETATM    8  N   UNL     1      -7.899   7.832  72.097  1.00  0.00    -0.099 NA 
HETATM    9  C   UNL     1      -6.868   6.916  74.256  1.00  0.00    -0.086 C  
HETATM   10  C   UNL     1      -7.879   7.876  73.576  1.00  0.00    -0.167 C  
BRANCH   8  11
HETATM   11  C   UNL     1      -6.781   8.591  71.517  1.00  0.00    -0.073 C  
BRANCH  11  12
HETATM   12  C   UNL     1      -7.235   9.777  70.655  1.00  0.00    -0.084 C  
BRANCH  12  13
HETATM   13  C   UNL     1      -6.602   9.757  69.255  1.00  0.00    -0.052 C  
BRANCH  13  14
HETATM   14  N   UNL     1      -7.573   9.261  68.245  1.00  0.00    -0.083 NA 
HETATM   15  C   UNL     1      -7.609   7.851  68.016  1.00  0.00    -0.113 A  
HETATM   16  C   UNL     1      -6.624   6.968  68.523  1.00  0.00    -0.055 A  
HETATM   17  C   UNL     1      -6.642   5.587  68.286  1.00  0.00    -0.049 A  
HETATM   18  C   UNL     1      -7.655   5.030  67.530  1.00  0.00    -0.087 A  
HETATM   19  C   UNL     1      -8.644   5.858  67.015  1.00  0.00    -0.110 A  
HETATM   20  C   UNL     1      -8.629   7.250  67.250  1.00  0.00    -0.121 A  
HETATM   21  S   UNL     1      -9.983   8.140  66.524  1.00  0.00    -0.184 SA 
HETATM   22  C   UNL     1      -9.683   9.804  67.054  1.00  0.00    -0.183 A  
HETATM   23  C   UNL     1      -8.556  10.201  67.795  1.00  0.00    -0.118 A  
HETATM   24  C   UNL     1      -8.467  11.587  68.079  1.00  0.00    -0.148 A  
HETATM   25  C   UNL     1      -9.469  12.521  67.748  1.00  0.00    -0.197 A  
HETATM   26  C   UNL     1     -10.580  12.079  67.039  1.00  0.00    -0.258 A  
HETATM   27  C   UNL     1      -9.362  13.964  68.176  1.00  0.00    -0.203 C  
HETATM   28  F   UNL     1      -8.239  14.240  68.899  1.00  0.00    -0.144 F  
HETATM   29  F   UNL     1     -10.404  14.344  68.970  1.00  0.00    -0.223 F  
HETATM   30  F   UNL     1      -9.355  14.830  67.128  1.00  0.00    -0.197 F  
HETATM   31  C   UNL     1     -10.676  10.738  66.684  1.00  0.00    -0.268 A  
ENDBRANCH  13  14
ENDBRANCH  12  13
ENDBRANCH  11  12
ENDBRANCH   8  11
ENDBRANCH   4   5
ENDBRANCH   2   4
TORSDOF 6
ENDMDL
MODEL      222
REMARK 921   NORMALIZED FREE ENERGY PREDICTED BY IDOCK:   -3.01 KCAL/MOL
REMARK 922        TOTAL FREE ENERGY PREDICTED BY IDOCK:   -4.31 KCAL/MOL
REMARK 923 INTER-LIGAND FREE ENERGY PREDICTED BY IDOCK:   -4.09 KCAL/MOL
REMARK 924 INTRA-LIGAND FREE ENERGY PREDICTED BY IDOCK:   -0.21 KCAL/MOL
REMARK 927      BINDING AFFINITY PREDICTED BY RF-SCORE:    0.00 PKD
ROOT
HETATM    1  O   UNL     1      -8.773  13.752  66.360  1.00  0.00    -0.446 OA 
HETATM    2  C   UNL     1      -7.567  13.325  66.991  1.00  0.00     0.177 C  
HETATM    3  H   UNL     1      -8.565  14.271  65.592  1.00  0.00     0.000 HD 
ENDROOT
BRANCH   2   4
HETATM    4  C   UNL     1      -7.902  12.485  68.235  1.00  0.00    -0.144 C  
BRANCH   4   5
HETATM    5  N   UNL     1      -8.472  11.157  67.929  1.00  0.00    -0.127 NA 
HETATM    6  C   UNL     1      -7.600  10.352  67.053  1.00  0.00    -0.101 C  
HETATM    7  C   UNL     1      -6.312   9.857  67.736  1.00  0.00    -0.055 C  
HETATM    8  N   UNL     1      -6.525   9.072  68.970  1.00  0.00    -0.047 NA 
HETATM    9  C   UNL     1      -8.713  10.389  69.173  1.00  0.00    -0.166 C  
HETATM   10  C   UNL     1      -7.444   9.818  69.859  1.00  0.00    -0.141 C  
BRANCH   8  11
HETATM   11  C   UNL     1      -7.007   7.707  68.715  1.00  0.00    -0.071 C  
BRANCH  11  12
HETATM   12  C   UNL     1      -6.215   6.632  69.472  1.00  0.00    -0.037 C  
BRANCH  12  13
HETATM   13  C   UNL     1      -7.123   5.722  70.313  1.00  0.00    -0.070 C  
BRANCH  13  14
HETATM   14  N   UNL     1      -8.544   5.871  69.903  1.00  0.00    -0.128 NA 
HETATM   15  C   UNL     1      -9.333   6.817  70.628  1.00  0.00    -0.162 A  
HETATM   16  C   UNL     1      -8.892   7.417  71.832  1.00  0.00    -0.128 A  
HETATM   17  C   UNL     1      -9.668   8.330  72.559  1.00  0.00    -0.368 A  
HETATM   18  C   UNL     1     -10.924   8.683  72.105  1.00  0.00    -0.434 A  
HETATM   19  C   UNL     1     -11.396   8.120  70.926  1.00  0.00    -0.286 A  
HETATM   20  C   UNL     1     -10.619   7.199  70.191  1.00  0.00    -0.230 A  
HETATM   21  S   UNL     1     -11.383   6.600  68.706  1.00  0.00     0.034 SA 
HETATM   22  C   UNL     1     -10.137   5.539  68.027  1.00  0.00    -0.175 A  
HETATM   23  C   UNL     1      -8.914   5.259  68.661  1.00  0.00    -0.107 A  
HETATM   24  C   UNL     1      -8.069   4.343  67.985  1.00  0.00    -0.090 A  
HETATM   25  C   UNL     1      -8.353   3.808  66.712  1.00  0.00    -0.103 A  
HETATM   26  C   UNL     1      -9.561   4.135  66.110  1.00  0.00    -0.204 A  
HETATM   27  C   UNL     1      -7.358   2.924  66.000  1.00  0.00    -0.071 C  
HETATM   28  F   UNL     1      -6.203   2.726  66.695  1.00  0.00    -0.022 F  
HETATM   29  F   UNL     1      -6.972   3.447  64.801  1.00  0.00    -0.050 F  
HETATM   30  F   UNL     1      -7.849   1.686  65.727  1.00  0.00    -0.066 F  
HETATM   31  C   UNL     1     -10.449   4.979  66.769  1.00  0.00    -0.273 A  
ENDBRANCH  13  14
ENDBRANCH  12  13
ENDBRANCH  11  12
ENDBRANCH   8  11
ENDBRANCH   4   5
ENDBRANCH   2   4
TORSDOF 6
ENDMDL
MODEL      223
REMARK 921   NORMALIZED FREE ENERGY PREDICTED BY IDOCK:   -2.98 KCAL/MOL
REMARK 922        TOTAL FREE ENERGY PREDICTED BY IDOCK:   -4.26 KCAL/MOL
REMARK 923 INTER-LIGAND FREE ENERGY PREDICTED BY IDOCK:   -3.84 KCAL/MOL
REMARK 924 INTRA-LIGAND FREE ENERGY PREDICTED BY IDOCK:   -0.42 KCAL/MOL
REMARK 927      BINDING AFFINITY PREDICTED BY RF-SCORE:    0.00 PKD
ROOT
HETATM    1  O   UNL     1      -7.687   9.163  74.560  1.00  0.00    -0.301 OA 
HETATM    2  C   UNL     1      -7.615   7.893  73.913  1.00  0.00    -0.159 C  
HETATM    3  H   UNL     1      -6.826   9.408  74.879  1.00  0.00     0.000 HD 
ENDROOT
BRANCH   2   4
HETATM    4  C   UNL     1      -9.008   7.497  73.396  1.00  0.00    -0.203 C  
BRANCH   4   5
HETATM    5  N   UNL     1      -9.380   8.134  72.116  1.00  0.00    -0.182 NA 
HETATM    6  C   UNL     1      -8.399   7.876  71.046  1.00  0.00    -0.111 C  
HETATM    7  C   UNL     1      -8.390   6.421  70.542  1.00  0.00    -0.129 C  
HETATM    8  N   UNL     1      -9.694   5.922  70.059  1.00  0.00    -0.162 NA 
HETATM    9  C   UNL     1     -10.704   7.654  71.655  1.00  0.00    -0.211 C  
HETATM   10  C   UNL     1     -10.725   6.213  71.080  1.00  0.00    -0.256 C  
BRANCH   8  11
HETATM   11  C   UNL     1     -10.070   6.458  68.742  1.00  0.00    -0.158 C  
BRANCH  11  12
HETATM   12  C   UNL     1     -10.222   5.374  67.667  1.00  0.00    -0.236 C  
BRANCH  12  13
HETATM   13  C   UNL     1     -10.238   5.960  66.246  1.00  0.00    -0.030 C  
BRANCH  13  14
HETATM   14  N   UNL     1      -9.007   5.581  65.505  1.00  0.00    -0.153 NA 
HETATM   15  C   UNL     1      -9.134   4.556  64.517  1.00  0.00    -0.148 A  
HETATM   16  C   UNL     1     -10.292   3.751  64.394  1.00  0.00    -0.235 A  
HETATM   17  C   UNL     1     -10.416   2.731  63.441  1.00  0.00    -0.205 A  
HETATM   18  C   UNL     1      -9.378   2.474  62.566  1.00  0.00    -0.090 A  
HETATM   19  C   UNL     1      -8.223   3.241  62.650  1.00  0.00    -0.073 A  
HETATM   20  C   UNL     1      -8.093   4.269  63.609  1.00  0.00    -0.092 A  
HETATM   21  S   UNL     1      -6.552   5.147  63.552  1.00  0.00    -0.030 SA 
HETATM   22  C   UNL     1      -6.754   6.369  64.821  1.00  0.00    -0.039 A  
HETATM   23  C   UNL     1      -7.880   6.453  65.657  1.00  0.00    -0.099 A  
HETATM   24  C   UNL     1      -7.833   7.466  66.648  1.00  0.00    -0.109 A  
HETATM   25  C   UNL     1      -6.792   8.409  66.755  1.00  0.00    -0.069 A  
HETATM   26  C   UNL     1      -5.710   8.305  65.889  1.00  0.00    -0.040 A  
HETATM   27  C   UNL     1      -6.857   9.530  67.764  1.00  0.00    -0.078 C  
HETATM   28  F   UNL     1      -7.995   9.528  68.515  1.00  0.00    -0.089 F  
HETATM   29  F   UNL     1      -6.818  10.758  67.172  1.00  0.00    -0.072 F  
HETATM   30  F   UNL     1      -5.824   9.509  68.648  1.00  0.00    -0.040 F  
HETATM   31  C   UNL     1      -5.686   7.285  64.943  1.00  0.00    -0.037 A  
ENDBRANCH  13  14
ENDBRANCH  12  13
ENDBRANCH  11  12
ENDBRANCH   8  11
ENDBRANCH   4   5
ENDBRANCH   2   4
TORSDOF 6
ENDMDL
MODEL      224
REMARK 921   NORMALIZED FREE ENERGY PREDICTED BY IDOCK:   -2.97 KCAL/MOL
REMARK 922        TOTAL FREE ENERGY PREDICTED BY IDOCK:   -4.25 KCAL/MOL
REMARK 923 INTER-LIGAND FREE ENERGY PREDICTED BY IDOCK:   -3.70 KCAL/MOL
REMARK 924 INTRA-LIGAND FREE ENERGY PREDICTED BY IDOCK:   -0.55 KCAL/MOL
REMARK 927      BINDING AFFINITY PREDICTED BY RF-SCORE:    0.00 PKD
ROOT
HETATM    1  O   UNL     1     -12.799  10.293  72.050  1.00  0.00    -0.417 OA 
HETATM    2  C   UNL     1     -12.445   9.825  70.750  1.00  0.00    -0.213 C  
HETATM    3  H   UNL     1     -13.738  10.221  72.172  1.00  0.00     0.000 HD 
ENDROOT
BRANCH   2   4
HETATM    4  C   UNL     1     -10.925   9.944  70.554  1.00  0.00    -0.326 C  
BRANCH   4   5
HETATM    5  N   UNL     1     -10.283   8.710  70.056  1.00  0.00    -0.190 NA 
HETATM    6  C   UNL     1     -10.164   8.683  68.586  1.00  0.00    -0.194 C  
HETATM    7  C   UNL     1      -9.131   9.677  68.025  1.00  0.00    -0.125 C  
HETATM    8  N   UNL     1      -7.765   9.530  68.570  1.00  0.00    -0.081 NA 
HETATM    9  C   UNL     1      -8.928   8.552  70.634  1.00  0.00    -0.160 C  
HETATM   10  C   UNL     1      -7.842   9.493  70.048  1.00  0.00    -0.151 C  
BRANCH   8  11
HETATM   11  C   UNL     1      -7.048   8.363  68.036  1.00  0.00    -0.086 C  
BRANCH  11  12
HETATM   12  C   UNL     1      -6.068   7.741  69.039  1.00  0.00    -0.035 C  
BRANCH  12  13
HETATM   13  C   UNL     1      -5.690   6.298  68.669  1.00  0.00    -0.016 C  
BRANCH  13  14
HETATM   14  N   UNL     1      -6.719   5.343  69.155  1.00  0.00    -0.051 NA 
HETATM   15  C   UNL     1      -7.001   5.350  70.556  1.00  0.00    -0.053 A  
HETATM   16  C   UNL     1      -6.194   6.037  71.495  1.00  0.00    -0.044 A  
HETATM   17  C   UNL     1      -6.452   6.032  72.872  1.00  0.00    -0.064 A  
HETATM   18  C   UNL     1      -7.537   5.336  73.369  1.00  0.00    -0.096 A  
HETATM   19  C   UNL     1      -8.358   4.649  72.483  1.00  0.00    -0.114 A  
HETATM   20  C   UNL     1      -8.101   4.650  71.095  1.00  0.00    -0.088 A  
HETATM   21  S   UNL     1      -9.266   3.729  70.123  1.00  0.00    -0.165 SA 
HETATM   22  C   UNL     1      -8.685   3.989  68.469  1.00  0.00    -0.099 A  
HETATM   23  C   UNL     1      -7.516   4.702  68.151  1.00  0.00    -0.066 A  
HETATM   24  C   UNL     1      -7.187   4.755  66.773  1.00  0.00    -0.080 A  
HETATM   25  C   UNL     1      -8.004   4.231  65.752  1.00  0.00    -0.095 A  
HETATM   26  C   UNL     1      -9.166   3.558  66.111  1.00  0.00    -0.173 A  
HETATM   27  C   UNL     1      -7.650   4.419  64.297  1.00  0.00    -0.072 C  
HETATM   28  F   UNL     1      -6.506   5.133  64.098  1.00  0.00    -0.033 F  
HETATM   29  F   UNL     1      -8.619   5.093  63.614  1.00  0.00    -0.130 F  
HETATM   30  F   UNL     1      -7.476   3.243  63.637  1.00  0.00    -0.056 F  
HETATM   31  C   UNL     1      -9.492   3.426  67.456  1.00  0.00    -0.227 A  
ENDBRANCH  13  14
ENDBRANCH  12  13
ENDBRANCH  11  12
ENDBRANCH   8  11
ENDBRANCH   4   5
ENDBRANCH   2   4
TORSDOF 6
ENDMDL
MODEL      225
REMARK 921   NORMALIZED FREE ENERGY PREDICTED BY IDOCK:   -2.64 KCAL/MOL
REMARK 922        TOTAL FREE ENERGY PREDICTED BY IDOCK:   -3.80 KCAL/MOL
REMARK 923 INTER-LIGAND FREE ENERGY PREDICTED BY IDOCK:   -4.19 KCAL/MOL
REMARK 924 INTRA-LIGAND FREE ENERGY PREDICTED BY IDOCK:    0.39 KCAL/MOL
REMARK 927      BINDING AFFINITY PREDICTED BY RF-SCORE:    0.00 PKD
ROOT
HETATM    1  O   UNL     1     -10.149  15.096  66.363  1.00  0.00    -0.253 OA 
HETATM    2  C   UNL     1      -9.431  14.341  67.337  1.00  0.00    -0.211 C  
HETATM    3  H   UNL     1      -9.538  15.579  65.819  1.00  0.00     0.000 HD 
ENDROOT
BRANCH   2   4
HETATM    4  C   UNL     1     -10.420  13.559  68.217  1.00  0.00    -0.253 C  
BRANCH   4   5
HETATM    5  N   UNL     1     -10.701  12.190  67.739  1.00  0.00    -0.204 NA 
HETATM    6  C   UNL     1      -9.543  11.573  67.066  1.00  0.00    -0.185 C  
HETATM    7  C   UNL     1      -8.387  11.211  68.018  1.00  0.00    -0.134 C  
HETATM    8  N   UNL     1      -8.759  10.321  69.137  1.00  0.00    -0.162 NA 
HETATM    9  C   UNL     1     -11.105  11.312  68.862  1.00  0.00    -0.238 C  
HETATM   10  C   UNL     1      -9.958  10.873  69.808  1.00  0.00     0.282 C  
BRANCH   8  11
HETATM   11  C   UNL     1      -8.962   8.923  68.727  1.00  0.00    -0.134 C  
BRANCH  11  12
HETATM   12  C   UNL     1      -8.719   7.917  69.860  1.00  0.00    -0.140 C  
BRANCH  12  13
HETATM   13  C   UNL     1      -9.912   6.971  70.065  1.00  0.00    -0.181 C  
BRANCH  13  14
HETATM   14  N   UNL     1      -9.485   5.552  69.955  1.00  0.00    -0.151 NA 
HETATM   15  C   UNL     1      -9.853   4.677  71.024  1.00  0.00    -0.198 A  
HETATM   16  C   UNL     1     -10.380   5.149  72.250  1.00  0.00    -0.267 A  
HETATM   17  C   UNL     1     -10.725   4.300  73.311  1.00  0.00    -0.299 A  
HETATM   18  C   UNL     1     -10.556   2.935  73.184  1.00  0.00    -0.261 A  
HETATM   19  C   UNL     1     -10.044   2.428  71.997  1.00  0.00    -0.204 A  
HETATM   20  C   UNL     1      -9.694   3.279  70.927  1.00  0.00    -0.117 A  
HETATM   21  S   UNL     1      -9.071   2.447  69.488  1.00  0.00    -0.123 SA 
HETATM   22  C   UNL     1      -8.796   3.782  68.355  1.00  0.00    -0.112 A  
HETATM   23  C   UNL     1      -8.984   5.137  68.678  1.00  0.00    -0.105 A  
HETATM   24  C   UNL     1      -8.660   6.061  67.653  1.00  0.00    -0.106 A  
HETATM   25  C   UNL     1      -8.270   5.684  66.352  1.00  0.00    -0.107 A  
HETATM   26  C   UNL     1      -8.124   4.331  66.069  1.00  0.00    -0.102 A  
HETATM   27  C   UNL     1      -8.045   6.718  65.276  1.00  0.00    -0.130 C  
HETATM   28  F   UNL     1      -8.266   7.998  65.690  1.00  0.00    -0.105 F  
HETATM   29  F   UNL     1      -8.873   6.536  64.208  1.00  0.00     0.149 F  
HETATM   30  F   UNL     1      -6.781   6.698  64.777  1.00  0.00    -0.041 F  
HETATM   31  C   UNL     1      -8.370   3.393  67.066  1.00  0.00    -0.096 A  
ENDBRANCH  13  14
ENDBRANCH  12  13
ENDBRANCH  11  12
ENDBRANCH   8  11
ENDBRANCH   4   5
ENDBRANCH   2   4
TORSDOF 6
ENDMDL
MODEL      226
REMARK 921   NORMALIZED FREE ENERGY PREDICTED BY IDOCK:   -2.32 KCAL/MOL
REMARK 922        TOTAL FREE ENERGY PREDICTED BY IDOCK:   -3.37 KCAL/MOL
REMARK 923 INTER-LIGAND FREE ENERGY PREDICTED BY IDOCK:   -3.37 KCAL/MOL
REMARK 924 INTRA-LIGAND FREE ENERGY PREDICTED BY IDOCK:    0.00 KCAL/MOL
REMARK 927      BINDING AFFINITY PREDICTED BY RF-SCORE:    0.00 PKD
ROOT
HETATM    1  O   UNL     1     -11.077   9.025  71.922  1.00  0.00    -0.355 OA 
HETATM    2  C   UNL     1     -11.481   9.237  70.571  1.00  0.00    -0.248 C  
HETATM    3  H   UNL     1     -11.247   8.124  72.169  1.00  0.00     0.000 HD 
ENDROOT
BRANCH   2   4
HETATM    4  C   UNL     1     -11.206  10.696  70.171  1.00  0.00    -0.302 C  
BRANCH   4   5
HETATM    5  N   UNL     1     -11.011  10.898  68.721  1.00  0.00    -0.217 NA 
HETATM    6  C   UNL     1      -9.713  11.522  68.403  1.00  0.00    -0.202 C  
HETATM    7  C   UNL     1      -8.502  10.598  68.634  1.00  0.00    -0.142 C  
HETATM    8  N   UNL     1      -8.551   9.313  67.906  1.00  0.00    -0.121 NA 
HETATM    9  C   UNL     1     -11.095   9.609  67.995  1.00  0.00    -0.047 C  
HETATM   10  C   UNL     1      -9.865   8.676  68.151  1.00  0.00    -0.165 C  
BRANCH   8  11
HETATM   11  C   UNL     1      -8.273   9.447  66.469  1.00  0.00    -0.115 C  
BRANCH  11  12
HETATM   12  C   UNL     1      -8.048   8.101  65.767  1.00  0.00    -0.115 C  
BRANCH  12  13
HETATM   13  C   UNL     1      -6.908   7.293  66.407  1.00  0.00    -0.061 C  
BRANCH  13  14
HETATM   14  N   UNL     1      -7.392   5.960  66.851  1.00  0.00    -0.078 NA 
HETATM   15  C   UNL     1      -7.489   4.940  65.855  1.00  0.00    -0.082 A  
HETATM   16  C   UNL     1      -7.376   5.210  64.470  1.00  0.00    -0.060 A  
HETATM   17  C   UNL     1      -7.490   4.218  63.487  1.00  0.00    -0.055 A  
HETATM   18  C   UNL     1      -7.721   2.906  63.853  1.00  0.00    -0.076 A  
HETATM   19  C   UNL     1      -7.836   2.595  65.202  1.00  0.00    -0.081 A  
HETATM   20  C   UNL     1      -7.723   3.591  66.196  1.00  0.00    -0.081 A  
HETATM   21  S   UNL     1      -7.883   3.000  67.862  1.00  0.00    -0.067 SA 
HETATM   22  C   UNL     1      -7.638   4.469  68.822  1.00  0.00    -0.064 A  
HETATM   23  C   UNL     1      -7.457   5.748  68.267  1.00  0.00    -0.081 A  
HETATM   24  C   UNL     1      -7.330   6.808  69.200  1.00  0.00    -0.093 A  
HETATM   25  C   UNL     1      -7.280   6.621  70.596  1.00  0.00    -0.074 A  
HETATM   26  C   UNL     1      -7.435   5.335  71.099  1.00  0.00    -0.084 A  
HETATM   27  C   UNL     1      -7.033   7.782  71.528  1.00  0.00    -0.058 C  
HETATM   28  F   UNL     1      -6.859   8.973  70.889  1.00  0.00    -0.054 F  
HETATM   29  F   UNL     1      -5.907   7.608  72.279  1.00  0.00    -0.037 F  
HETATM   30  F   UNL     1      -8.046   7.977  72.414  1.00  0.00    -0.109 F  
HETATM   31  C   UNL     1      -7.628   4.275  70.220  1.00  0.00    -0.046 A  
ENDBRANCH  13  14
ENDBRANCH  12  13
ENDBRANCH  11  12
ENDBRANCH   8  11
ENDBRANCH   4   5
ENDBRANCH   2   4
TORSDOF 6
ENDMDL
MODEL      227
REMARK 921   NORMALIZED FREE ENERGY PREDICTED BY IDOCK:   -2.25 KCAL/MOL
REMARK 922        TOTAL FREE ENERGY PREDICTED BY IDOCK:   -3.28 KCAL/MOL
REMARK 923 INTER-LIGAND FREE ENERGY PREDICTED BY IDOCK:   -5.01 KCAL/MOL
REMARK 924 INTRA-LIGAND FREE ENERGY PREDICTED BY IDOCK:    1.73 KCAL/MOL
REMARK 927      BINDING AFFINITY PREDICTED BY RF-SCORE:    0.00 PKD
ROOT
HETATM    1  O   UNL     1     -11.550   5.729  70.676  1.00  0.00    -0.059 OA 
HETATM    2  C   UNL     1     -10.918   6.964  71.007  1.00  0.00    -0.252 C  
HETATM    3  H   UNL     1     -12.429   5.895  70.356  1.00  0.00     0.000 HD 
ENDROOT
BRANCH   2   4
HETATM    4  C   UNL     1      -9.496   6.695  71.525  1.00  0.00    -0.156 C  
BRANCH   4   5
HETATM    5  N   UNL     1      -8.628   7.891  71.554  1.00  0.00    -0.116 NA 
HETATM    6  C   UNL     1      -7.615   7.884  70.483  1.00  0.00    -0.081 C  
HETATM    7  C   UNL     1      -8.195   8.101  69.072  1.00  0.00    -0.127 C  
HETATM    8  N   UNL     1      -8.987   9.338  68.909  1.00  0.00    -0.134 NA 
HETATM    9  C   UNL     1      -9.433   9.128  71.423  1.00  0.00    -0.209 C  
HETATM   10  C   UNL     1      -9.983   9.415  70.001  1.00  0.00    -0.221 C  
BRANCH   8  11
HETATM   11  C   UNL     1      -8.162  10.553  68.840  1.00  0.00    -0.141 C  
BRANCH  11  12
HETATM   12  C   UNL     1      -8.974  11.822  68.552  1.00  0.00    -0.132 C  
BRANCH  12  13
HETATM   13  C   UNL     1      -8.238  12.782  67.604  1.00  0.00    -0.175 C  
BRANCH  13  14
HETATM   14  N   UNL     1      -8.911  12.834  66.280  1.00  0.00     0.041 NA 
HETATM   15  C   UNL     1      -9.126  11.589  65.611  1.00  0.00    -0.126 A  
HETATM   16  C   UNL     1      -8.527  10.379  66.038  1.00  0.00    -0.149 A  
HETATM   17  C   UNL     1      -8.716   9.159  65.376  1.00  0.00    -0.217 A  
HETATM   18  C   UNL     1      -9.520   9.100  64.254  1.00  0.00     0.506 A  
HETATM   19  C   UNL     1     -10.130  10.263  63.802  1.00  0.00     0.041 A  
HETATM   20  C   UNL     1      -9.941  11.495  64.464  1.00  0.00    -0.263 A  
HETATM   21  S   UNL     1     -10.812  12.865  63.748  1.00  0.00    -0.216 SA 
HETATM   22  C   UNL     1     -10.402  14.200  64.839  1.00  0.00    -0.408 A  
HETATM   23  C   UNL     1      -9.516  14.083  65.924  1.00  0.00    -0.075 A  
HETATM   24  C   UNL     1      -9.275  15.278  66.648  1.00  0.00    -0.302 A  
HETATM   25  C   UNL     1      -9.935  16.496  66.394  1.00  0.00    -0.318 A  
HETATM   26  C   UNL     1     -10.825  16.558  65.328  1.00  0.00    -0.233 A  
HETATM   27  C   UNL     1      -9.712  17.702  67.274  1.00  0.00    -0.284 C  
HETATM   28  F   UNL     1      -8.846  17.479  68.302  1.00  0.00    -0.240 F  
HETATM   29  F   UNL     1     -10.866  18.131  67.860  1.00  0.00    -0.403 F  
HETATM   30  F   UNL     1      -9.219  18.771  66.593  1.00  0.00    -0.286 F  
HETATM   31  C   UNL     1     -11.042  15.426  64.551  1.00  0.00    -0.272 A  
ENDBRANCH  13  14
ENDBRANCH  12  13
ENDBRANCH  11  12
ENDBRANCH   8  11
ENDBRANCH   4   5
ENDBRANCH   2   4
TORSDOF 6
ENDMDL
MODEL      228
REMARK 921   NORMALIZED FREE ENERGY PREDICTED BY IDOCK:   -2.20 KCAL/MOL
REMARK 922        TOTAL FREE ENERGY PREDICTED BY IDOCK:   -3.21 KCAL/MOL
REMARK 923 INTER-LIGAND FREE ENERGY PREDICTED BY IDOCK:   -4.11 KCAL/MOL
REMARK 924 INTRA-LIGAND FREE ENERGY PREDICTED BY IDOCK:    0.90 KCAL/MOL
REMARK 927      BINDING AFFINITY PREDICTED BY RF-SCORE:    0.00 PKD
ROOT
HETATM    1  O   UNL     1     -10.838   6.894  73.969  1.00  0.00    -0.464 OA 
HETATM    2  C   UNL     1     -11.187   7.040  72.594  1.00  0.00    -0.272 C  
HETATM    3  H   UNL     1     -10.442   6.042  74.110  1.00  0.00     0.000 HD 
ENDROOT
BRANCH   2   4
HETATM    4  C   UNL     1     -11.828   8.419  72.366  1.00  0.00    -0.384 C  
BRANCH   4   5
HETATM    5  N   UNL     1     -11.858   8.844  70.952  1.00  0.00    -0.270 NA 
HETATM    6  C   UNL     1     -10.667   9.622  70.566  1.00  0.00    -0.311 C  
HETATM    7  C   UNL     1      -9.374   8.788  70.490  1.00  0.00    -0.187 C  
HETATM    8  N   UNL     1      -9.438   7.622  69.584  1.00  0.00    -0.157 NA 
HETATM    9  C   UNL     1     -11.957   7.671  70.052  1.00  0.00     0.416 C  
HETATM   10  C   UNL     1     -10.655   6.841  69.898  1.00  0.00    -0.222 C  
BRANCH   8  11
HETATM   11  C   UNL     1      -9.380   7.987  68.161  1.00  0.00    -0.139 C  
BRANCH  11  12
HETATM   12  C   UNL     1      -7.987   7.801  67.544  1.00  0.00    -0.123 C  
BRANCH  12  13
HETATM   13  C   UNL     1      -7.316   6.496  68.000  1.00  0.00    -0.090 C  
BRANCH  13  14
HETATM   14  N   UNL     1      -7.699   5.368  67.113  1.00  0.00    -0.096 NA 
HETATM   15  C   UNL     1      -8.280   4.220  67.736  1.00  0.00    -0.095 A  
HETATM   16  C   UNL     1      -8.280   4.029  69.139  1.00  0.00    -0.078 A  
HETATM   17  C   UNL     1      -8.829   2.897  69.756  1.00  0.00    -0.147 A  
HETATM   18  C   UNL     1      -9.406   1.904  68.988  1.00  0.00    -0.194 A  
HETATM   19  C   UNL     1      -9.430   2.051  67.607  1.00  0.00    -0.095 A  
HETATM   20  C   UNL     1      -8.877   3.189  66.981  1.00  0.00    -0.140 A  
HETATM   21  S   UNL     1      -9.016   3.205  65.211  1.00  0.00    -0.148 SA 
HETATM   22  C   UNL     1      -8.289   4.762  64.778  1.00  0.00    -0.132 A  
HETATM   23  C   UNL     1      -7.701   5.639  65.706  1.00  0.00    -0.088 A  
HETATM   24  C   UNL     1      -7.125   6.813  65.158  1.00  0.00    -0.067 A  
HETATM   25  C   UNL     1      -7.204   7.163  63.796  1.00  0.00    -0.074 A  
HETATM   26  C   UNL     1      -7.820   6.278  62.918  1.00  0.00    -0.100 A  
HETATM   27  C   UNL     1      -6.664   8.481  63.297  1.00  0.00    -0.089 C  
HETATM   28  F   UNL     1      -6.127   9.261  64.278  1.00  0.00    -0.071 F  
HETATM   29  F   UNL     1      -7.633   9.247  62.717  1.00  0.00    -0.108 F  
HETATM   30  F   UNL     1      -5.691   8.335  62.359  1.00  0.00    -0.070 F  
HETATM   31  C   UNL     1      -8.342   5.084  63.404  1.00  0.00    -0.119 A  
ENDBRANCH  13  14
ENDBRANCH  12  13
ENDBRANCH  11  12
ENDBRANCH   8  11
ENDBRANCH   4   5
ENDBRANCH   2   4
TORSDOF 6
ENDMDL
MODEL      229
REMARK 921   NORMALIZED FREE ENERGY PREDICTED BY IDOCK:   -2.13 KCAL/MOL
REMARK 922        TOTAL FREE ENERGY PREDICTED BY IDOCK:   -3.11 KCAL/MOL
REMARK 923 INTER-LIGAND FREE ENERGY PREDICTED BY IDOCK:   -5.60 KCAL/MOL
REMARK 924 INTRA-LIGAND FREE ENERGY PREDICTED BY IDOCK:    2.49 KCAL/MOL
REMARK 927      BINDING AFFINITY PREDICTED BY RF-SCORE:    0.00 PKD
ROOT
HETATM    1  O   UNL     1      -5.325  13.426  67.078  1.00  0.00    -0.183 OA 
HETATM    2  C   UNL     1      -5.524  13.956  68.387  1.00  0.00    -0.101 C  
HETATM    3  H   UNL     1      -4.897  12.580  67.137  1.00  0.00     0.000 HD 
ENDROOT
BRANCH   2   4
HETATM    4  C   UNL     1      -6.217  15.325  68.291  1.00  0.00    -0.120 C  
BRANCH   4   5
HETATM    5  N   UNL     1      -7.552  15.372  68.921  1.00  0.00    -0.149 NA 
HETATM    6  C   UNL     1      -8.597  15.865  68.005  1.00  0.00    -0.164 C  
HETATM    7  C   UNL     1      -8.952  14.882  66.874  1.00  0.00    -0.253 C  
HETATM    8  N   UNL     1      -9.374  13.540  67.326  1.00  0.00    -0.224 NA 
HETATM    9  C   UNL     1      -7.954  14.029  69.401  1.00  0.00     0.369 C  
HETATM   10  C   UNL     1      -8.380  13.028  68.296  1.00  0.00    -0.158 C  
BRANCH   8  11
HETATM   11  C   UNL     1     -10.736  13.514  67.880  1.00  0.00    -0.247 C  
BRANCH  11  12
HETATM   12  C   UNL     1     -11.020  12.270  68.733  1.00  0.00    -0.277 C  
BRANCH  12  13
HETATM   13  C   UNL     1     -10.299  11.022  68.201  1.00  0.00    -0.182 C  
BRANCH  13  14
HETATM   14  N   UNL     1     -10.545   9.854  69.086  1.00  0.00    -0.210 NA 
HETATM   15  C   UNL     1     -11.531  10.011  70.109  1.00  0.00    -0.277 A  
HETATM   16  C   UNL     1     -12.087  11.268  70.449  1.00  0.00    -0.474 A  
HETATM   17  C   UNL     1     -13.039  11.432  71.464  1.00  0.00    -0.438 A  
HETATM   18  C   UNL     1     -13.478  10.337  72.183  1.00  0.00    -0.332 A  
HETATM   19  C   UNL     1     -12.961   9.084  71.881  1.00  0.00    -0.451 A  
HETATM   20  C   UNL     1     -12.001   8.914  70.861  1.00  0.00    -0.213 A  
HETATM   21  S   UNL     1     -11.471   7.238  70.612  1.00  0.00    -0.280 SA 
HETATM   22  C   UNL     1     -10.340   7.385  69.255  1.00  0.00    -0.204 A  
HETATM   23  C   UNL     1      -9.973   8.609  68.668  1.00  0.00    -0.183 A  
HETATM   24  C   UNL     1      -9.013   8.525  67.628  1.00  0.00    -0.141 A  
HETATM   25  C   UNL     1      -8.513   7.310  67.119  1.00  0.00    -0.118 A  
HETATM   26  C   UNL     1      -8.925   6.123  67.712  1.00  0.00    -0.115 A  
HETATM   27  C   UNL     1      -7.575   7.289  65.936  1.00  0.00    -0.090 C  
HETATM   28  F   UNL     1      -7.294   8.525  65.436  1.00  0.00    -0.078 F  
HETATM   29  F   UNL     1      -8.087   6.582  64.888  1.00  0.00    -0.111 F  
HETATM   30  F   UNL     1      -6.375   6.717  66.221  1.00  0.00    -0.039 F  
HETATM   31  C   UNL     1      -9.816   6.163  68.778  1.00  0.00    -0.160 A  
ENDBRANCH  13  14
ENDBRANCH  12  13
ENDBRANCH  11  12
ENDBRANCH   8  11
ENDBRANCH   4   5
ENDBRANCH   2   4
TORSDOF 6
ENDMDL
MODEL      230
REMARK 921   NORMALIZED FREE ENERGY PREDICTED BY IDOCK:   -1.87 KCAL/MOL
REMARK 922        TOTAL FREE ENERGY PREDICTED BY IDOCK:   -2.76 KCAL/MOL
REMARK 923 INTER-LIGAND FREE ENERGY PREDICTED BY IDOCK:   -3.64 KCAL/MOL
REMARK 924 INTRA-LIGAND FREE ENERGY PREDICTED BY IDOCK:    0.88 KCAL/MOL
REMARK 927      BINDING AFFINITY PREDICTED BY RF-SCORE:    0.00 PKD
ROOT
HETATM    1  O   UNL     1     -10.318   2.140  72.400  1.00  0.00    -0.155 OA 
HETATM    2  C   UNL     1      -9.994   3.495  72.706  1.00  0.00    -0.154 C  
HETATM    3  H   UNL     1     -10.873   1.781  73.082  1.00  0.00     0.000 HD 
ENDROOT
BRANCH   2   4
HETATM    4  C   UNL     1      -9.096   4.075  71.601  1.00  0.00    -0.123 C  
BRANCH   4   5
HETATM    5  N   UNL     1      -7.896   4.775  72.104  1.00  0.00    -0.102 NA 
HETATM    6  C   UNL     1      -6.968   5.161  71.025  1.00  0.00    -0.051 C  
HETATM    7  C   UNL     1      -7.491   6.296  70.126  1.00  0.00    -0.094 C  
HETATM    8  N   UNL     1      -7.859   7.536  70.840  1.00  0.00    -0.093 NA 
HETATM    9  C   UNL     1      -8.276   5.999  72.848  1.00  0.00    -0.117 C  
HETATM   10  C   UNL     1      -8.748   7.189  71.972  1.00  0.00    -0.122 C  
BRANCH   8  11
HETATM   11  C   UNL     1      -6.697   8.319  71.285  1.00  0.00    -0.050 C  
BRANCH  11  12
HETATM   12  C   UNL     1      -6.459   9.581  70.445  1.00  0.00    -0.079 C  
BRANCH  12  13
HETATM   13  C   UNL     1      -7.773  10.248  70.009  1.00  0.00    -0.074 C  
BRANCH  13  14
HETATM   14  N   UNL     1      -8.100   9.899  68.602  1.00  0.00    -0.096 NA 
HETATM   15  C   UNL     1      -7.164  10.303  67.599  1.00  0.00    -0.087 A  
HETATM   16  C   UNL     1      -6.100  11.200  67.863  1.00  0.00    -0.049 A  
HETATM   17  C   UNL     1      -5.192  11.616  66.881  1.00  0.00    -0.119 A  
HETATM   18  C   UNL     1      -5.311  11.147  65.587  1.00  0.00    -0.015 A  
HETATM   19  C   UNL     1      -6.339  10.264  65.284  1.00  0.00    -0.125 A  
HETATM   20  C   UNL     1      -7.258   9.843  66.270  1.00  0.00    -0.102 A  
HETATM   21  S   UNL     1      -8.491   8.702  65.696  1.00  0.00    -0.165 SA 
HETATM   22  C   UNL     1      -9.411   8.352  67.170  1.00  0.00    -0.163 A  
HETATM   23  C   UNL     1      -9.171   8.968  68.411  1.00  0.00    -0.136 A  
HETATM   24  C   UNL     1     -10.049   8.595  69.459  1.00  0.00    -0.203 A  
HETATM   25  C   UNL     1     -11.042   7.603  69.335  1.00  0.00     0.009 A  
HETATM   26  C   UNL     1     -11.226   7.000  68.096  1.00  0.00     0.007 A  
HETATM   27  C   UNL     1     -11.870   7.176  70.522  1.00  0.00    -0.243 C  
HETATM   28  F   UNL     1     -11.550   7.825  71.677  1.00  0.00    -0.252 F  
HETATM   29  F   UNL     1     -11.724   5.850  70.801  1.00  0.00    -0.332 F  
HETATM   30  F   UNL     1     -13.203   7.375  70.339  1.00  0.00     0.045 F  
HETATM   31  C   UNL     1     -10.429   7.384  67.023  1.00  0.00    -0.404 A  
ENDBRANCH  13  14
ENDBRANCH  12  13
ENDBRANCH  11  12
ENDBRANCH   8  11
ENDBRANCH   4   5
ENDBRANCH   2   4
TORSDOF 6
ENDMDL
MODEL      231
REMARK 921   NORMALIZED FREE ENERGY PREDICTED BY IDOCK:   -1.81 KCAL/MOL
REMARK 922        TOTAL FREE ENERGY PREDICTED BY IDOCK:   -2.69 KCAL/MOL
REMARK 923 INTER-LIGAND FREE ENERGY PREDICTED BY IDOCK:   -2.43 KCAL/MOL
REMARK 924 INTRA-LIGAND FREE ENERGY PREDICTED BY IDOCK:   -0.26 KCAL/MOL
REMARK 927      BINDING AFFINITY PREDICTED BY RF-SCORE:    0.00 PKD
ROOT
HETATM    1  O   UNL     1     -11.477   2.945  63.785  1.00  0.00    -0.462 OA 
HETATM    2  C   UNL     1     -10.950   3.791  64.806  1.00  0.00     0.215 C  
HETATM    3  H   UNL     1     -12.190   2.426  64.137  1.00  0.00     0.000 HD 
ENDROOT
BRANCH   2   4
HETATM    4  C   UNL     1      -9.795   4.631  64.237  1.00  0.00     0.193 C  
BRANCH   4   5
HETATM    5  N   UNL     1      -8.936   5.251  65.267  1.00  0.00    -0.152 NA 
HETATM    6  C   UNL     1      -8.416   4.272  66.240  1.00  0.00    -0.112 C  
HETATM    7  C   UNL     1      -7.359   3.315  65.658  1.00  0.00    -0.072 C  
HETATM    8  N   UNL     1      -6.188   3.978  65.047  1.00  0.00    -0.026 NA 
HETATM    9  C   UNL     1      -7.783   5.943  64.644  1.00  0.00    -0.100 C  
HETATM   10  C   UNL     1      -6.665   5.013  64.103  1.00  0.00    -0.047 C  
BRANCH   8  11
HETATM   11  C   UNL     1      -5.253   4.535  66.035  1.00  0.00    -0.009 C  
BRANCH  11  12
HETATM   12  C   UNL     1      -5.653   4.234  67.486  1.00  0.00    -0.021 C  
BRANCH  12  13
HETATM   13  C   UNL     1      -5.429   5.439  68.414  1.00  0.00    -0.008 C  
BRANCH  13  14
HETATM   14  N   UNL     1      -6.630   6.313  68.441  1.00  0.00    -0.056 NA 
HETATM   15  C   UNL     1      -6.563   7.530  67.694  1.00  0.00    -0.062 A  
HETATM   16  C   UNL     1      -5.355   8.028  67.149  1.00  0.00    -0.036 A  
HETATM   17  C   UNL     1      -5.278   9.230  66.433  1.00  0.00    -0.040 A  
HETATM   18  C   UNL     1      -6.416   9.987  66.231  1.00  0.00    -0.081 A  
HETATM   19  C   UNL     1      -7.624   9.535  66.747  1.00  0.00    -0.098 A  
HETATM   20  C   UNL     1      -7.706   8.326  67.470  1.00  0.00    -0.099 A  
HETATM   21  S   UNL     1      -9.336   7.908  68.036  1.00  0.00    -0.146 SA 
HETATM   22  C   UNL     1      -9.082   6.345  68.832  1.00  0.00    -0.129 A  
HETATM   23  C   UNL     1      -7.824   5.737  68.984  1.00  0.00    -0.094 A  
HETATM   24  C   UNL     1      -7.819   4.511  69.697  1.00  0.00    -0.058 A  
HETATM   25  C   UNL     1      -8.985   3.862  70.149  1.00  0.00    -0.168 A  
HETATM   26  C   UNL     1     -10.210   4.487  69.951  1.00  0.00    -0.060 A  
HETATM   27  C   UNL     1      -8.916   2.504  70.804  1.00  0.00    -0.094 C  
HETATM   28  F   UNL     1      -7.653   2.000  70.892  1.00  0.00    -0.033 F  
HETATM   29  F   UNL     1      -9.633   1.567  70.121  1.00  0.00    -0.163 F  
HETATM   30  F   UNL     1      -9.410   2.502  72.071  1.00  0.00    -0.120 F  
HETATM   31  C   UNL     1     -10.254   5.722  69.314  1.00  0.00    -0.292 A  
ENDBRANCH  13  14
ENDBRANCH  12  13
ENDBRANCH  11  12
ENDBRANCH   8  11
ENDBRANCH   4   5
ENDBRANCH   2   4
TORSDOF 6
ENDMDL
MODEL      232
REMARK 921   NORMALIZED FREE ENERGY PREDICTED BY IDOCK:   -1.58 KCAL/MOL
REMARK 922        TOTAL FREE ENERGY PREDICTED BY IDOCK:   -2.37 KCAL/MOL
REMARK 923 INTER-LIGAND FREE ENERGY PREDICTED BY IDOCK:   -2.89 KCAL/MOL
REMARK 924 INTRA-LIGAND FREE ENERGY PREDICTED BY IDOCK:    0.52 KCAL/MOL
REMARK 927      BINDING AFFINITY PREDICTED BY RF-SCORE:    0.00 PKD
ROOT
HETATM    1  O   UNL     1      -9.103   6.080  71.067  1.00  0.00    -0.142 OA 
HETATM    2  C   UNL     1      -7.950   5.311  71.402  1.00  0.00    -0.114 C  
HETATM    3  H   UNL     1      -9.696   5.555  70.543  1.00  0.00     0.000 HD 
ENDROOT
BRANCH   2   4
HETATM    4  C   UNL     1      -6.989   6.161  72.250  1.00  0.00    -0.075 C  
BRANCH   4   5
HETATM    5  N   UNL     1      -5.730   6.515  71.564  1.00  0.00    -0.031 NA 
HETATM    6  C   UNL     1      -5.334   5.517  70.552  1.00  0.00    -0.005 C  
HETATM    7  C   UNL     1      -6.236   5.500  69.304  1.00  0.00    -0.029 C  
HETATM    8  N   UNL     1      -6.357   6.797  68.606  1.00  0.00    -0.030 NA 
HETATM    9  C   UNL     1      -5.849   7.831  70.894  1.00  0.00    -0.034 C  
HETATM   10  C   UNL     1      -6.698   7.843  69.596  1.00  0.00    -0.042 C  
BRANCH   8  11
HETATM   11  C   UNL     1      -5.160   7.154  67.831  1.00  0.00    -0.019 C  
BRANCH  11  12
HETATM   12  C   UNL     1      -5.331   8.437  67.006  1.00  0.00    -0.037 C  
BRANCH  12  13
HETATM   13  C   UNL     1      -5.675   8.144  65.537  1.00  0.00    -0.040 C  
BRANCH  13  14
HETATM   14  N   UNL     1      -6.904   7.314  65.438  1.00  0.00    -0.051 NA 
HETATM   15  C   UNL     1      -6.736   5.949  65.049  1.00  0.00    -0.043 A  
HETATM   16  C   UNL     1      -5.515   5.444  64.539  1.00  0.00    -0.016 A  
HETATM   17  C   UNL     1      -5.349   4.112  64.136  1.00  0.00    -0.013 A  
HETATM   18  C   UNL     1      -6.404   3.226  64.230  1.00  0.00    -0.023 A  
HETATM   19  C   UNL     1      -7.620   3.678  64.727  1.00  0.00    -0.077 A  
HETATM   20  C   UNL     1      -7.793   5.019  65.133  1.00  0.00    -0.089 A  
HETATM   21  S   UNL     1      -9.410   5.404  65.753  1.00  0.00    -0.070 SA 
HETATM   22  C   UNL     1      -9.255   7.110  66.211  1.00  0.00    -0.127 A  
HETATM   23  C   UNL     1      -8.097   7.878  65.997  1.00  0.00    -0.112 A  
HETATM   24  C   UNL     1      -8.185   9.239  66.383  1.00  0.00    -0.111 A  
HETATM   25  C   UNL     1      -9.302   9.798  67.034  1.00  0.00    -0.178 A  
HETATM   26  C   UNL     1     -10.415   8.994  67.250  1.00  0.00    -0.343 A  
HETATM   27  C   UNL     1      -9.287  11.228  67.516  1.00  0.00    -0.162 C  
HETATM   28  F   UNL     1      -8.115  11.879  67.270  1.00  0.00    -0.137 F  
HETATM   29  F   UNL     1      -9.474  11.318  68.864  1.00  0.00    -0.187 F  
HETATM   30  F   UNL     1     -10.264  11.989  66.953  1.00  0.00    -0.212 F  
HETATM   31  C   UNL     1     -10.395   7.669  66.828  1.00  0.00    -0.343 A  
ENDBRANCH  13  14
ENDBRANCH  12  13
ENDBRANCH  11  12
ENDBRANCH   8  11
ENDBRANCH   4   5
ENDBRANCH   2   4
TORSDOF 6
ENDMDL
MODEL      233
REMARK 921   NORMALIZED FREE ENERGY PREDICTED BY IDOCK:   -1.50 KCAL/MOL
REMARK 922        TOTAL FREE ENERGY PREDICTED BY IDOCK:   -2.27 KCAL/MOL
REMARK 923 INTER-LIGAND FREE ENERGY PREDICTED BY IDOCK:   -3.36 KCAL/MOL
REMARK 924 INTRA-LIGAND FREE ENERGY PREDICTED BY IDOCK:    1.09 KCAL/MOL
REMARK 927      BINDING AFFINITY PREDICTED BY RF-SCORE:    0.00 PKD
ROOT
HETATM    1  O   UNL     1      -5.477  15.358  70.703  1.00  0.00    -0.137 OA 
HETATM    2  C   UNL     1      -5.555  14.255  71.605  1.00  0.00    -0.186 C  
HETATM    3  H   UNL     1      -5.132  16.118  71.156  1.00  0.00     0.000 HD 
ENDROOT
BRANCH   2   4
HETATM    4  C   UNL     1      -6.113  13.025  70.872  1.00  0.00     0.296 C  
BRANCH   4   5
HETATM    5  N   UNL     1      -6.147  13.163  69.401  1.00  0.00    -0.101 NA 
HETATM    6  C   UNL     1      -5.251  12.211  68.720  1.00  0.00    -0.050 C  
HETATM    7  C   UNL     1      -5.725  10.747  68.787  1.00  0.00    -0.040 C  
HETATM    8  N   UNL     1      -7.086  10.510  68.261  1.00  0.00    -0.080 NA 
HETATM    9  C   UNL     1      -7.521  12.957  68.885  1.00  0.00     0.020 C  
HETATM   10  C   UNL     1      -8.013  11.486  68.876  1.00  0.00    -0.057 C  
BRANCH   8  11
HETATM   11  C   UNL     1      -7.157  10.547  66.793  1.00  0.00    -0.109 C  
BRANCH  11  12
HETATM   12  C   UNL     1      -7.664   9.236  66.177  1.00  0.00    -0.096 C  
BRANCH  12  13
HETATM   13  C   UNL     1      -8.567   8.450  67.140  1.00  0.00    -0.123 C  
BRANCH  13  14
HETATM   14  N   UNL     1      -8.863   7.098  66.601  1.00  0.00    -0.126 NA 
HETATM   15  C   UNL     1      -8.492   6.845  65.244  1.00  0.00    -0.055 A  
HETATM   16  C   UNL     1      -8.090   7.872  64.357  1.00  0.00    -0.103 A  
HETATM   17  C   UNL     1      -7.745   7.635  63.019  1.00  0.00    -0.124 A  
HETATM   18  C   UNL     1      -7.787   6.350  62.513  1.00  0.00    -0.102 A  
HETATM   19  C   UNL     1      -8.173   5.311  63.349  1.00  0.00    -0.117 A  
HETATM   20  C   UNL     1      -8.523   5.545  64.697  1.00  0.00    -0.108 A  
HETATM   21  S   UNL     1      -8.975   4.092  65.610  1.00  0.00    -0.139 SA 
HETATM   22  C   UNL     1      -9.289   4.734  67.232  1.00  0.00    -0.136 A  
HETATM   23  C   UNL     1      -9.240   6.101  67.558  1.00  0.00    -0.111 A  
HETATM   24  C   UNL     1      -9.574   6.423  68.898  1.00  0.00    -0.130 A  
HETATM   25  C   UNL     1      -9.842   5.460  69.892  1.00  0.00    -0.268 A  
HETATM   26  C   UNL     1      -9.852   4.118  69.530  1.00  0.00    -0.183 A  
HETATM   27  C   UNL     1     -10.083   5.867  71.325  1.00  0.00    -0.196 C  
HETATM   28  F   UNL     1     -10.002   7.211  71.536  1.00  0.00    -0.181 F  
HETATM   29  F   UNL     1      -9.174   5.313  72.177  1.00  0.00    -0.138 F  
HETATM   30  F   UNL     1     -11.306   5.489  71.786  1.00  0.00    -0.304 F  
HETATM   31  C   UNL     1      -9.594   3.763  68.211  1.00  0.00    -0.171 A  
ENDBRANCH  13  14
ENDBRANCH  12  13
ENDBRANCH  11  12
ENDBRANCH   8  11
ENDBRANCH   4   5
ENDBRANCH   2   4
TORSDOF 6
ENDMDL
MODEL      234
REMARK 921   NORMALIZED FREE ENERGY PREDICTED BY IDOCK:   -1.30 KCAL/MOL
REMARK 922        TOTAL FREE ENERGY PREDICTED BY IDOCK:   -2.00 KCAL/MOL
REMARK 923 INTER-LIGAND FREE ENERGY PREDICTED BY IDOCK:   -3.08 KCAL/MOL
REMARK 924 INTRA-LIGAND FREE ENERGY PREDICTED BY IDOCK:    1.08 KCAL/MOL
REMARK 927      BINDING AFFINITY PREDICTED BY RF-SCORE:    0.00 PKD
ROOT
HETATM    1  O   UNL     1      -6.543   4.637  69.734  1.00  0.00    -0.031 OA 
HETATM    2  C   UNL     1      -6.304   5.152  71.042  1.00  0.00    -0.023 C  
HETATM    3  H   UNL     1      -6.257   3.733  69.688  1.00  0.00     0.000 HD 
ENDROOT
BRANCH   2   4
HETATM    4  C   UNL     1      -6.768   6.616  71.116  1.00  0.00    -0.058 C  
BRANCH   4   5
HETATM    5  N   UNL     1      -5.704   7.600  70.830  1.00  0.00    -0.030 NA 
HETATM    6  C   UNL     1      -5.615   7.942  69.399  1.00  0.00    -0.026 C  
HETATM    7  C   UNL     1      -6.799   8.780  68.881  1.00  0.00    -0.061 C  
HETATM    8  N   UNL     1      -7.033  10.044  69.611  1.00  0.00    -0.081 NA 
HETATM    9  C   UNL     1      -5.928   8.852  71.592  1.00  0.00    -0.063 C  
HETATM   10  C   UNL     1      -7.071   9.756  71.063  1.00  0.00     0.156 C  
BRANCH   8  11
HETATM   11  C   UNL     1      -6.051  11.091  69.292  1.00  0.00    -0.050 C  
BRANCH  11  12
HETATM   12  C   UNL     1      -5.577  11.054  67.833  1.00  0.00    -0.042 C  
BRANCH  12  13
HETATM   13  C   UNL     1      -6.512  11.837  66.897  1.00  0.00    -0.121 C  
BRANCH  13  14
HETATM   14  N   UNL     1      -7.513  12.609  67.677  1.00  0.00    -0.130 NA 
HETATM   15  C   UNL     1      -7.243  13.997  67.887  1.00  0.00    -0.159 A  
HETATM   16  C   UNL     1      -5.987  14.583  67.597  1.00  0.00    -0.044 A  
HETATM   17  C   UNL     1      -5.708  15.939  67.820  1.00  0.00    -0.164 A  
HETATM   18  C   UNL     1      -6.682  16.767  68.342  1.00  0.00    -0.154 A  
HETATM   19  C   UNL     1      -7.930  16.234  68.639  1.00  0.00    -0.215 A  
HETATM   20  C   UNL     1      -8.215  14.869  68.418  1.00  0.00    -0.151 A  
HETATM   21  S   UNL     1      -9.867  14.378  68.845  1.00  0.00    -0.108 SA 
HETATM   22  C   UNL     1      -9.890  12.663  68.396  1.00  0.00    -0.200 A  
HETATM   23  C   UNL     1      -8.771  11.963  67.912  1.00  0.00    -0.167 A  
HETATM   24  C   UNL     1      -8.974  10.583  67.659  1.00  0.00    -0.138 A  
HETATM   25  C   UNL     1     -10.223   9.941  67.774  1.00  0.00    -0.241 A  
HETATM   26  C   UNL     1     -11.309  10.679  68.230  1.00  0.00    -0.357 A  
HETATM   27  C   UNL     1     -10.394   8.493  67.383  1.00  0.00    -0.286 C  
HETATM   28  F   UNL     1      -9.253   7.912  66.916  1.00  0.00    -0.139 F  
HETATM   29  F   UNL     1     -11.313   8.334  66.389  1.00  0.00     0.507 F  
HETATM   30  F   UNL     1     -10.817   7.712  68.413  1.00  0.00    -0.209 F  
HETATM   31  C   UNL     1     -11.138  12.021  68.552  1.00  0.00    -0.289 A  
ENDBRANCH  13  14
ENDBRANCH  12  13
ENDBRANCH  11  12
ENDBRANCH   8  11
ENDBRANCH   4   5
ENDBRANCH   2   4
TORSDOF 6
ENDMDL
MODEL      235
REMARK 921   NORMALIZED FREE ENERGY PREDICTED BY IDOCK:   -1.28 KCAL/MOL
REMARK 922        TOTAL FREE ENERGY PREDICTED BY IDOCK:   -1.97 KCAL/MOL
REMARK 923 INTER-LIGAND FREE ENERGY PREDICTED BY IDOCK:   -3.03 KCAL/MOL
REMARK 924 INTRA-LIGAND FREE ENERGY PREDICTED BY IDOCK:    1.06 KCAL/MOL
REMARK 927      BINDING AFFINITY PREDICTED BY RF-SCORE:    0.00 PKD
ROOT
HETATM    1  O   UNL     1     -10.047   8.352  72.697  1.00  0.00    -0.292 OA 
HETATM    2  C   UNL     1     -10.350   8.432  71.305  1.00  0.00    -0.214 C  
HETATM    3  H   UNL     1      -9.834   7.455  72.927  1.00  0.00     0.000 HD 
ENDROOT
BRANCH   2   4
HETATM    4  C   UNL     1     -10.695   9.883  70.933  1.00  0.00    -0.235 C  
BRANCH   4   5
HETATM    5  N   UNL     1     -10.695  10.150  69.480  1.00  0.00    -0.232 NA 
HETATM    6  C   UNL     1      -9.383  10.608  68.986  1.00  0.00    -0.180 C  
HETATM    7  C   UNL     1      -8.300   9.513  68.981  1.00  0.00    -0.126 C  
HETATM    8  N   UNL     1      -8.647   8.297  68.216  1.00  0.00    -0.132 NA 
HETATM    9  C   UNL     1     -11.077   8.935  68.722  1.00  0.00     0.223 C  
HETATM   10  C   UNL     1      -9.988   7.833  68.640  1.00  0.00    -0.182 C  
BRANCH   8  11
HETATM   11  C   UNL     1      -8.574   8.485  66.760  1.00  0.00    -0.114 C  
BRANCH  11  12
HETATM   12  C   UNL     1      -7.731   7.415  66.052  1.00  0.00    -0.095 C  
BRANCH  12  13
HETATM   13  C   UNL     1      -6.484   7.026  66.862  1.00  0.00    -0.054 C  
BRANCH  13  14
HETATM   14  N   UNL     1      -6.720   5.771  67.622  1.00  0.00    -0.057 NA 
HETATM   15  C   UNL     1      -6.407   5.788  69.017  1.00  0.00    -0.040 A  
HETATM   16  C   UNL     1      -5.683   6.842  69.625  1.00  0.00    -0.015 A  
HETATM   17  C   UNL     1      -5.355   6.856  70.987  1.00  0.00    -0.027 A  
HETATM   18  C   UNL     1      -5.744   5.810  71.802  1.00  0.00    -0.022 A  
HETATM   19  C   UNL     1      -6.460   4.756  71.247  1.00  0.00    -0.019 A  
HETATM   20  C   UNL     1      -6.791   4.737  69.875  1.00  0.00    -0.048 A  
HETATM   21  S   UNL     1      -7.719   3.317  69.355  1.00  0.00    -0.050 SA 
HETATM   22  C   UNL     1      -8.002   3.644  67.637  1.00  0.00    -0.081 A  
HETATM   23  C   UNL     1      -7.482   4.758  66.954  1.00  0.00    -0.086 A  
HETATM   24  C   UNL     1      -7.773   4.817  65.568  1.00  0.00    -0.086 A  
HETATM   25  C   UNL     1      -8.609   3.898  64.903  1.00  0.00    -0.114 A  
HETATM   26  C   UNL     1      -9.124   2.828  65.624  1.00  0.00    -0.133 A  
HETATM   27  C   UNL     1      -8.967   4.082  63.448  1.00  0.00    -0.115 C  
HETATM   28  F   UNL     1      -8.422   5.197  62.885  1.00  0.00    -0.098 F  
HETATM   29  F   UNL     1     -10.313   4.205  63.262  1.00  0.00    -0.181 F  
HETATM   30  F   UNL     1      -8.575   3.039  62.669  1.00  0.00    -0.076 F  
HETATM   31  C   UNL     1      -8.809   2.695  66.972  1.00  0.00    -0.155 A  
ENDBRANCH  13  14
ENDBRANCH  12  13
ENDBRANCH  11  12
ENDBRANCH   8  11
ENDBRANCH   4   5
ENDBRANCH   2   4
TORSDOF 6
ENDMDL
MODEL      236
REMARK 921   NORMALIZED FREE ENERGY PREDICTED BY IDOCK:   -0.05 KCAL/MOL
REMARK 922        TOTAL FREE ENERGY PREDICTED BY IDOCK:   -0.31 KCAL/MOL
REMARK 923 INTER-LIGAND FREE ENERGY PREDICTED BY IDOCK:   -2.99 KCAL/MOL
REMARK 924 INTRA-LIGAND FREE ENERGY PREDICTED BY IDOCK:    2.68 KCAL/MOL
REMARK 927      BINDING AFFINITY PREDICTED BY RF-SCORE:    0.00 PKD
ROOT
HETATM    1  O   UNL     1      -8.215   5.950  71.092  1.00  0.00    -0.119 OA 
HETATM    2  C   UNL     1      -8.244   7.195  71.788  1.00  0.00    -0.105 C  
HETATM    3  H   UNL     1      -9.073   5.544  71.127  1.00  0.00     0.000 HD 
ENDROOT
BRANCH   2   4
HETATM    4  C   UNL     1      -6.855   7.852  71.730  1.00  0.00    -0.062 C  
BRANCH   4   5
HETATM    5  N   UNL     1      -6.305   7.980  70.365  1.00  0.00    -0.036 NA 
HETATM    6  C   UNL     1      -7.148   7.325  69.347  1.00  0.00    -0.074 C  
HETATM    7  C   UNL     1      -8.484   8.046  69.085  1.00  0.00    -0.136 C  
HETATM    8  N   UNL     1      -8.359   9.465  68.693  1.00  0.00    -0.116 NA 
HETATM    9  C   UNL     1      -6.151   9.406  69.992  1.00  0.00    -0.040 C  
HETATM   10  C   UNL     1      -7.470  10.151  69.657  1.00  0.00    -0.147 C  
BRANCH   8  11
HETATM   11  C   UNL     1      -7.899   9.647  67.308  1.00  0.00    -0.095 C  
BRANCH  11  12
HETATM   12  C   UNL     1      -7.836  11.119  66.879  1.00  0.00    -0.152 C  
BRANCH  12  13
HETATM   13  C   UNL     1      -8.402  11.340  65.467  1.00  0.00     0.140 C  
BRANCH  13  14
HETATM   14  N   UNL     1      -9.294  12.528  65.436  1.00  0.00     0.115 NA 
HETATM   15  C   UNL     1     -10.500  12.415  64.677  1.00  0.00    -0.309 A  
HETATM   16  C   UNL     1     -10.748  11.339  63.791  1.00  0.00    -0.448 A  
HETATM   17  C   UNL     1     -11.918  11.232  63.028  1.00  0.00     0.633 A  
HETATM   18  C   UNL     1     -12.896  12.203  63.124  1.00  0.00    -0.154 A  
HETATM   19  C   UNL     1     -12.695  13.276  63.983  1.00  0.00    -0.092 A  
HETATM   20  C   UNL     1     -11.517  13.389  64.752  1.00  0.00    -0.336 A  
HETATM   21  S   UNL     1     -11.449  14.819  65.801  1.00  0.00    -0.283 SA 
HETATM   22  C   UNL     1      -9.901  14.613  66.640  1.00  0.00    -0.269 A  
HETATM   23  C   UNL     1      -8.999  13.568  66.377  1.00  0.00     0.034 A  
HETATM   24  C   UNL     1      -7.788  13.604  67.113  1.00  0.00    -0.028 A  
HETATM   25  C   UNL     1      -7.513  14.548  68.123  1.00  0.00    -0.126 A  
HETATM   26  C   UNL     1      -8.447  15.548  68.368  1.00  0.00    -0.163 A  
HETATM   27  C   UNL     1      -6.250  14.463  68.945  1.00  0.00    -0.088 C  
HETATM   28  F   UNL     1      -5.452  13.408  68.619  1.00  0.00    -0.066 F  
HETATM   29  F   UNL     1      -6.512  14.320  70.276  1.00  0.00    -0.156 F  
HETATM   30  F   UNL     1      -5.470  15.571  68.835  1.00  0.00    -0.096 F  
HETATM   31  C   UNL     1      -9.619  15.587  67.623  1.00  0.00    -0.210 A  
ENDBRANCH  13  14
ENDBRANCH  12  13
ENDBRANCH  11  12
ENDBRANCH   8  11
ENDBRANCH   4   5
ENDBRANCH   2   4
TORSDOF 6
ENDMDL
MODEL      237
REMARK 921   NORMALIZED FREE ENERGY PREDICTED BY IDOCK:    0.09 KCAL/MOL
REMARK 922        TOTAL FREE ENERGY PREDICTED BY IDOCK:   -0.12 KCAL/MOL
REMARK 923 INTER-LIGAND FREE ENERGY PREDICTED BY IDOCK:   -2.86 KCAL/MOL
REMARK 924 INTRA-LIGAND FREE ENERGY PREDICTED BY IDOCK:    2.74 KCAL/MOL
REMARK 927      BINDING AFFINITY PREDICTED BY RF-SCORE:    0.00 PKD
ROOT
HETATM    1  O   UNL     1     -11.681   5.301  71.227  1.00  0.00     0.553 OA 
HETATM    2  C   UNL     1     -11.120   5.674  72.484  1.00  0.00    -0.276 C  
HETATM    3  H   UNL     1     -12.194   4.508  71.328  1.00  0.00     0.000 HD 
ENDROOT
BRANCH   2   4
HETATM    4  C   UNL     1     -10.288   6.957  72.320  1.00  0.00    -0.196 C  
BRANCH   4   5
HETATM    5  N   UNL     1     -10.131   7.398  70.919  1.00  0.00    -0.189 NA 
HETATM    6  C   UNL     1      -9.396   8.671  70.802  1.00  0.00    -0.191 C  
HETATM    7  C   UNL     1      -7.897   8.560  71.139  1.00  0.00    -0.116 C  
HETATM    8  N   UNL     1      -7.153   7.559  70.346  1.00  0.00    -0.058 NA 
HETATM    9  C   UNL     1      -9.414   6.374  70.123  1.00  0.00    -0.160 C  
HETATM   10  C   UNL     1      -7.888   6.275  70.387  1.00  0.00    -0.107 C  
BRANCH   8  11
HETATM   11  C   UNL     1      -6.890   7.989  68.965  1.00  0.00    -0.057 C  
BRANCH  11  12
HETATM   12  C   UNL     1      -6.117   9.312  68.878  1.00  0.00    -0.043 C  
BRANCH  12  13
HETATM   13  C   UNL     1      -6.553  10.314  69.960  1.00  0.00    -0.127 C  
BRANCH  13  14
HETATM   14  N   UNL     1      -7.069  11.564  69.343  1.00  0.00    -0.080 NA 
HETATM   15  C   UNL     1      -6.503  12.795  69.801  1.00  0.00    -0.005 A  
HETATM   16  C   UNL     1      -5.675  12.876  70.947  1.00  0.00    -0.109 A  
HETATM   17  C   UNL     1      -5.134  14.082  71.413  1.00  0.00    -0.150 A  
HETATM   18  C   UNL     1      -5.398  15.262  70.745  1.00  0.00    -0.133 A  
HETATM   19  C   UNL     1      -6.204  15.227  69.614  1.00  0.00    -0.147 A  
HETATM   20  C   UNL     1      -6.753  14.016  69.141  1.00  0.00    -0.112 A  
HETATM   21  S   UNL     1      -7.742  14.171  67.676  1.00  0.00    -0.185 SA 
HETATM   22  C   UNL     1      -8.209  12.494  67.343  1.00  0.00    -0.183 A  
HETATM   23  C   UNL     1      -7.879  11.407  68.172  1.00  0.00    -0.130 A  
HETATM   24  C   UNL     1      -8.389  10.149  67.765  1.00  0.00    -0.114 A  
HETATM   25  C   UNL     1      -9.096   9.941  66.563  1.00  0.00    -0.179 A  
HETATM   26  C   UNL     1      -9.375  11.040  65.760  1.00  0.00    -0.236 A  
HETATM   27  C   UNL     1      -9.515   8.556  66.136  1.00  0.00    -0.217 C  
HETATM   28  F   UNL     1      -9.136   7.575  67.003  1.00  0.00    -0.122 F  
HETATM   29  F   UNL     1      -8.976   8.203  64.934  1.00  0.00    -0.093 F  
HETATM   30  F   UNL     1     -10.862   8.430  65.993  1.00  0.00     0.313 F  
HETATM   31  C   UNL     1      -8.949  12.303  66.155  1.00  0.00    -0.009 A  
ENDBRANCH  13  14
ENDBRANCH  12  13
ENDBRANCH  11  12
ENDBRANCH   8  11
ENDBRANCH   4   5
ENDBRANCH   2   4
TORSDOF 6
ENDMDL
MODEL      238
REMARK 921   NORMALIZED FREE ENERGY PREDICTED BY IDOCK:    0.16 KCAL/MOL
REMARK 922        TOTAL FREE ENERGY PREDICTED BY IDOCK:   -0.02 KCAL/MOL
REMARK 923 INTER-LIGAND FREE ENERGY PREDICTED BY IDOCK:   -4.61 KCAL/MOL
REMARK 924 INTRA-LIGAND FREE ENERGY PREDICTED BY IDOCK:    4.60 KCAL/MOL
REMARK 927      BINDING AFFINITY PREDICTED BY RF-SCORE:    0.00 PKD
ROOT
HETATM    1  O   UNL     1      -6.506   7.982  65.371  1.00  0.00    -0.048 OA 
HETATM    2  C   UNL     1      -6.784   9.228  66.008  1.00  0.00    -0.077 C  
HETATM    3  H   UNL     1      -6.867   7.985  64.492  1.00  0.00     0.000 HD 
ENDROOT
BRANCH   2   4
HETATM    4  C   UNL     1      -6.199   9.223  67.430  1.00  0.00    -0.058 C  
BRANCH   4   5
HETATM    5  N   UNL     1      -6.678  10.329  68.284  1.00  0.00    -0.057 NA 
HETATM    6  C   UNL     1      -7.305  11.415  67.509  1.00  0.00    -0.112 C  
HETATM    7  C   UNL     1      -8.667  11.040  66.895  1.00  0.00    -0.148 C  
HETATM    8  N   UNL     1      -9.677  10.566  67.864  1.00  0.00    -0.152 NA 
HETATM    9  C   UNL     1      -7.665   9.838  69.275  1.00  0.00    -0.101 C  
HETATM   10  C   UNL     1      -9.070   9.510  68.707  1.00  0.00    -0.133 C  
BRANCH   8  11
HETATM   11  C   UNL     1     -10.253  11.645  68.680  1.00  0.00    -0.206 C  
BRANCH  11  12
HETATM   12  C   UNL     1      -9.249  12.756  69.013  1.00  0.00     0.486 C  
BRANCH  12  13
HETATM   13  C   UNL     1      -8.525  13.281  67.763  1.00  0.00    -0.181 C  
BRANCH  13  14
HETATM   14  N   UNL     1      -8.759  14.739  67.591  1.00  0.00    -0.170 NA 
HETATM   15  C   UNL     1      -7.830  15.624  68.221  1.00  0.00    -0.128 A  
HETATM   16  C   UNL     1      -6.873  15.182  69.165  1.00  0.00    -0.136 A  
HETATM   17  C   UNL     1      -5.972  16.047  69.802  1.00  0.00    -0.168 A  
HETATM   18  C   UNL     1      -5.993  17.398  69.515  1.00  0.00    -0.246 A  
HETATM   19  C   UNL     1      -6.914  17.875  68.591  1.00  0.00    -0.252 A  
HETATM   20  C   UNL     1      -7.824  17.008  67.949  1.00  0.00    -0.184 A  
HETATM   21  S   UNL     1      -8.913  17.799  66.792  1.00  0.00    -0.266 SA 
HETATM   22  C   UNL     1      -9.852  16.440  66.149  1.00  0.00    -0.338 A  
HETATM   23  C   UNL     1      -9.724  15.115  66.600  1.00  0.00    -0.258 A  
HETATM   24  C   UNL     1     -10.601  14.176  66.000  1.00  0.00    -0.297 A  
HETATM   25  C   UNL     1     -11.483  14.490  64.948  1.00  0.00    -0.396 A  
HETATM   26  C   UNL     1     -11.556  15.809  64.514  1.00  0.00    -0.247 A  
HETATM   27  C   UNL     1     -12.311  13.420  64.279  1.00  0.00    -0.335 C  
HETATM   28  F   UNL     1     -12.103  12.170  64.783  1.00  0.00    -0.419 F  
HETATM   29  F   UNL     1     -12.043  13.320  62.946  1.00  0.00    -0.585 F  
HETATM   30  F   UNL     1     -13.648  13.645  64.376  1.00  0.00     0.755 F  
HETATM   31  C   UNL     1     -10.760  16.774  65.121  1.00  0.00    -0.159 A  
ENDBRANCH  13  14
ENDBRANCH  12  13
ENDBRANCH  11  12
ENDBRANCH   8  11
ENDBRANCH   4   5
ENDBRANCH   2   4
TORSDOF 6
ENDMDL
MODEL      239
REMARK 921   NORMALIZED FREE ENERGY PREDICTED BY IDOCK:    0.54 KCAL/MOL
REMARK 922        TOTAL FREE ENERGY PREDICTED BY IDOCK:    0.49 KCAL/MOL
REMARK 923 INTER-LIGAND FREE ENERGY PREDICTED BY IDOCK:   -3.85 KCAL/MOL
REMARK 924 INTRA-LIGAND FREE ENERGY PREDICTED BY IDOCK:    4.34 KCAL/MOL
REMARK 927      BINDING AFFINITY PREDICTED BY RF-SCORE:    0.00 PKD
ROOT
HETATM    1  O   UNL     1     -10.169  19.914  65.371  1.00  0.00    -0.339 OA 
HETATM    2  C   UNL     1      -9.133  19.499  66.260  1.00  0.00    -0.360 C  
HETATM    3  H   UNL     1     -10.726  20.550  65.803  1.00  0.00     0.000 HD 
ENDROOT
BRANCH   2   4
HETATM    4  C   UNL     1      -8.231  18.469  65.559  1.00  0.00     0.819 C  
BRANCH   4   5
HETATM    5  N   UNL     1      -8.649  17.067  65.760  1.00  0.00    -0.476 NA 
HETATM    6  C   UNL     1      -7.698  16.302  66.588  1.00  0.00    -0.251 C  
HETATM    7  C   UNL     1      -7.690  16.715  68.072  1.00  0.00    -0.165 C  
HETATM    8  N   UNL     1      -9.003  16.641  68.745  1.00  0.00    -0.248 NA 
HETATM    9  C   UNL     1      -9.981  17.002  66.405  1.00  0.00    -0.307 C  
HETATM   10  C   UNL     1     -10.005  17.348  67.916  1.00  0.00    -0.301 C  
BRANCH   8  11
HETATM   11  C   UNL     1      -9.425  15.266  69.049  1.00  0.00    -0.232 C  
BRANCH  11  12
HETATM   12  C   UNL     1      -9.593  14.392  67.799  1.00  0.00    -0.216 C  
BRANCH  12  13
HETATM   13  C   UNL     1      -8.607  13.213  67.775  1.00  0.00    -0.188 C  
BRANCH  13  14
HETATM   14  N   UNL     1      -9.289  11.948  68.149  1.00  0.00    -0.187 NA 
HETATM   15  C   UNL     1     -10.374  12.044  69.075  1.00  0.00    -0.013 A  
HETATM   16  C   UNL     1     -10.654  13.225  69.804  1.00  0.00     0.662 A  
HETATM   17  C   UNL     1     -11.703  13.321  70.728  1.00  0.00     0.188 A  
HETATM   18  C   UNL     1     -12.521  12.232  70.959  1.00  0.00    -0.361 A  
HETATM   19  C   UNL     1     -12.284  11.053  70.263  1.00  0.00    -0.447 A  
HETATM   20  C   UNL     1     -11.227  10.951  69.333  1.00  0.00    -0.272 A  
HETATM   21  S   UNL     1     -11.092   9.373  68.533  1.00  0.00     0.170 SA 
HETATM   22  C   UNL     1      -9.734   9.616  67.420  1.00  0.00    -0.156 A  
HETATM   23  C   UNL     1      -8.976  10.798  67.353  1.00  0.00    -0.139 A  
HETATM   24  C   UNL     1      -7.895  10.781  66.436  1.00  0.00    -0.148 A  
HETATM   25  C   UNL     1      -7.627   9.710  65.560  1.00  0.00    -0.109 A  
HETATM   26  C   UNL     1      -8.420   8.571  65.643  1.00  0.00    -0.170 A  
HETATM   27  C   UNL     1      -6.526   9.802  64.532  1.00  0.00    -0.112 C  
HETATM   28  F   UNL     1      -5.863  10.992  64.542  1.00  0.00    -0.054 F  
HETATM   29  F   UNL     1      -6.998   9.663  63.260  1.00  0.00    -0.099 F  
HETATM   30  F   UNL     1      -5.576   8.842  64.684  1.00  0.00    -0.056 F  
HETATM   31  C   UNL     1      -9.451   8.521  66.574  1.00  0.00    -0.282 A  
ENDBRANCH  13  14
ENDBRANCH  12  13
ENDBRANCH  11  12
ENDBRANCH   8  11
ENDBRANCH   4   5
ENDBRANCH   2   4
TORSDOF 6
ENDMDL
MODEL      240
REMARK 921   NORMALIZED FREE ENERGY PREDICTED BY IDOCK:    0.82 KCAL/MOL
REMARK 922        TOTAL FREE ENERGY PREDICTED BY IDOCK:    0.87 KCAL/MOL
REMARK 923 INTER-LIGAND FREE ENERGY PREDICTED BY IDOCK:   -1.54 KCAL/MOL
REMARK 924 INTRA-LIGAND FREE ENERGY PREDICTED BY IDOCK:    2.41 KCAL/MOL
REMARK 927      BINDING AFFINITY PREDICTED BY RF-SCORE:    0.00 PKD
ROOT
HETATM    1  O   UNL     1     -10.975   6.915  73.870  1.00  0.00    -0.480 OA 
HETATM    2  C   UNL     1     -11.337   7.256  72.533  1.00  0.00    -0.296 C  
HETATM    3  H   UNL     1     -10.600   6.043  73.887  1.00  0.00     0.000 HD 
ENDROOT
BRANCH   2   4
HETATM    4  C   UNL     1     -11.945   8.669  72.506  1.00  0.00    -0.288 C  
BRANCH   4   5
HETATM    5  N   UNL     1     -11.783   9.370  71.216  1.00  0.00    -0.331 NA 
HETATM    6  C   UNL     1     -10.451   9.985  71.066  1.00  0.00     0.166 C  
HETATM    7  C   UNL     1      -9.311   8.967  70.876  1.00  0.00    -0.264 C  
HETATM    8  N   UNL     1      -9.487   8.040  69.739  1.00  0.00    -0.160 NA 
HETATM    9  C   UNL     1     -11.995   8.441  70.082  1.00  0.00     0.439 C  
HETATM   10  C   UNL     1     -10.839   7.441  69.817  1.00  0.00    -0.234 C  
BRANCH   8  11
HETATM   11  C   UNL     1      -9.248   8.669  68.432  1.00  0.00    -0.138 C  
BRANCH  11  12
HETATM   12  C   UNL     1      -7.804   8.509  67.937  1.00  0.00    -0.103 C  
BRANCH  12  13
HETATM   13  C   UNL     1      -6.803   9.299  68.794  1.00  0.00    -0.060 C  
BRANCH  13  14
HETATM   14  N   UNL     1      -6.215   8.434  69.850  1.00  0.00    -0.032 NA 
HETATM   15  C   UNL     1      -5.868   9.064  71.086  1.00  0.00    -0.051 A  
HETATM   16  C   UNL     1      -5.840  10.470  71.246  1.00  0.00     0.125 A  
HETATM   17  C   UNL     1      -5.481  11.095  72.448  1.00  0.00     0.733 A  
HETATM   18  C   UNL     1      -5.135  10.331  73.546  1.00  0.00     0.123 A  
HETATM   19  C   UNL     1      -5.150   8.947  73.434  1.00  0.00    -0.073 A  
HETATM   20  C   UNL     1      -5.510   8.313  72.225  1.00  0.00    -0.039 A  
HETATM   21  S   UNL     1      -5.485   6.539  72.280  1.00  0.00    -0.037 SA 
HETATM   22  C   UNL     1      -6.031   6.092  70.654  1.00  0.00    -0.026 A  
HETATM   23  C   UNL     1      -6.300   7.021  69.633  1.00  0.00    -0.035 A  
HETATM   24  C   UNL     1      -6.674   6.465  68.384  1.00  0.00    -0.068 A  
HETATM   25  C   UNL     1      -6.873   5.088  68.166  1.00  0.00    -0.056 A  
HETATM   26  C   UNL     1      -6.622   4.208  69.213  1.00  0.00    -0.040 A  
HETATM   27  C   UNL     1      -7.379   4.573  66.841  1.00  0.00    -0.081 C  
HETATM   28  F   UNL     1      -7.620   5.555  65.926  1.00  0.00    -0.078 F  
HETATM   29  F   UNL     1      -8.558   3.899  66.966  1.00  0.00    -0.101 F  
HETATM   30  F   UNL     1      -6.516   3.708  66.243  1.00  0.00    -0.033 F  
HETATM   31  C   UNL     1      -6.190   4.706  70.437  1.00  0.00    -0.022 A  
ENDBRANCH  13  14
ENDBRANCH  12  13
ENDBRANCH  11  12
ENDBRANCH   8  11
ENDBRANCH   4   5
ENDBRANCH   2   4
TORSDOF 6
ENDMDL
MODEL      241
REMARK 921   NORMALIZED FREE ENERGY PREDICTED BY IDOCK:    1.64 KCAL/MOL
REMARK 922        TOTAL FREE ENERGY PREDICTED BY IDOCK:    1.98 KCAL/MOL
REMARK 923 INTER-LIGAND FREE ENERGY PREDICTED BY IDOCK:   -2.59 KCAL/MOL
REMARK 924 INTRA-LIGAND FREE ENERGY PREDICTED BY IDOCK:    4.57 KCAL/MOL
REMARK 927      BINDING AFFINITY PREDICTED BY RF-SCORE:    0.00 PKD
ROOT
HETATM    1  O   UNL     1     -11.479   2.946  63.787  1.00  0.00    -0.462 OA 
HETATM    2  C   UNL     1     -10.949   3.799  64.800  1.00  0.00     0.215 C  
HETATM    3  H   UNL     1     -12.198   2.437  64.141  1.00  0.00     0.000 HD 
ENDROOT
BRANCH   2   4
HETATM    4  C   UNL     1      -9.785   4.623  64.226  1.00  0.00     0.132 C  
BRANCH   4   5
HETATM    5  N   UNL     1      -8.919   5.240  65.252  1.00  0.00    -0.152 NA 
HETATM    6  C   UNL     1      -8.408   4.261  66.229  1.00  0.00    -0.108 C  
HETATM    7  C   UNL     1      -7.361   3.290  65.652  1.00  0.00    -0.072 C  
HETATM    8  N   UNL     1      -6.184   3.938  65.037  1.00  0.00    -0.023 NA 
HETATM    9  C   UNL     1      -7.760   5.916  64.624  1.00  0.00    -0.100 C  
HETATM   10  C   UNL     1      -6.652   4.974  64.087  1.00  0.00    -0.042 C  
BRANCH   8  11
HETATM   11  C   UNL     1      -5.243   4.492  66.021  1.00  0.00    -0.009 C  
BRANCH  11  12
HETATM   12  C   UNL     1      -5.858   4.668  67.416  1.00  0.00    -0.022 C  
BRANCH  12  13
HETATM   13  C   UNL     1      -5.499   6.024  68.044  1.00  0.00    -0.004 C  
BRANCH  13  14
HETATM   14  N   UNL     1      -6.500   7.058  67.673  1.00  0.00    -0.049 NA 
HETATM   15  C   UNL     1      -6.430   7.583  66.345  1.00  0.00    -0.049 A  
HETATM   16  C   UNL     1      -5.333   7.339  65.484  1.00  0.00    -0.028 A  
HETATM   17  C   UNL     1      -5.248   7.867  64.188  1.00  0.00    -0.036 A  
HETATM   18  C   UNL     1      -6.265   8.664  63.699  1.00  0.00    -0.080 A  
HETATM   19  C   UNL     1      -7.361   8.927  64.510  1.00  0.00    -0.102 A  
HETATM   20  C   UNL     1      -7.451   8.399  65.816  1.00  0.00    -0.077 A  
HETATM   21  S   UNL     1      -8.932   8.834  66.693  1.00  0.00    -0.147 SA 
HETATM   22  C   UNL     1      -8.739   7.976  68.232  1.00  0.00    -0.130 A  
HETATM   23  C   UNL     1      -7.596   7.235  68.579  1.00  0.00    -0.118 A  
HETATM   24  C   UNL     1      -7.607   6.665  69.877  1.00  0.00    -0.100 A  
HETATM   25  C   UNL     1      -8.711   6.727  70.751  1.00  0.00    -0.146 A  
HETATM   26  C   UNL     1      -9.831   7.447  70.354  1.00  0.00    -0.183 A  
HETATM   27  C   UNL     1      -8.697   6.004  72.076  1.00  0.00    -0.136 C  
HETATM   28  F   UNL     1      -7.550   5.307  72.309  1.00  0.00    -0.087 F  
HETATM   29  F   UNL     1      -9.702   5.087  72.171  1.00  0.00    -0.168 F  
HETATM   30  F   UNL     1      -8.852   6.839  73.138  1.00  0.00    -0.124 F  
HETATM   31  C   UNL     1      -9.836   8.077  69.114  1.00  0.00    -0.178 A  
ENDBRANCH  13  14
ENDBRANCH  12  13
ENDBRANCH  11  12
ENDBRANCH   8  11
ENDBRANCH   4   5
ENDBRANCH   2   4
TORSDOF 6
ENDMDL
MODEL      242
REMARK 921   NORMALIZED FREE ENERGY PREDICTED BY IDOCK:    1.90 KCAL/MOL
REMARK 922        TOTAL FREE ENERGY PREDICTED BY IDOCK:    2.33 KCAL/MOL
REMARK 923 INTER-LIGAND FREE ENERGY PREDICTED BY IDOCK:   -2.64 KCAL/MOL
REMARK 924 INTRA-LIGAND FREE ENERGY PREDICTED BY IDOCK:    4.97 KCAL/MOL
REMARK 927      BINDING AFFINITY PREDICTED BY RF-SCORE:    0.00 PKD
ROOT
HETATM    1  O   UNL     1      -6.157  14.980  70.282  1.00  0.00    -0.147 OA 
HETATM    2  C   UNL     1      -6.880  13.780  70.013  1.00  0.00     0.228 C  
HETATM    3  H   UNL     1      -5.391  14.781  70.806  1.00  0.00     0.000 HD 
ENDROOT
BRANCH   2   4
HETATM    4  C   UNL     1      -8.121  14.102  69.164  1.00  0.00     0.132 C  
BRANCH   4   5
HETATM    5  N   UNL     1      -8.345  13.165  68.045  1.00  0.00    -0.153 NA 
HETATM    6  C   UNL     1      -7.224  13.144  67.087  1.00  0.00     0.093 C  
HETATM    7  C   UNL     1      -5.945  12.486  67.636  1.00  0.00    -0.136 C  
HETATM    8  N   UNL     1      -6.118  11.102  68.125  1.00  0.00    -0.049 NA 
HETATM    9  C   UNL     1      -8.551  11.786  68.546  1.00  0.00    -0.123 C  
HETATM   10  C   UNL     1      -7.274  11.064  69.049  1.00  0.00    -0.111 C  
BRANCH   8  11
HETATM   11  C   UNL     1      -6.256  10.115  67.044  1.00  0.00    -0.063 C  
BRANCH  11  12
HETATM   12  C   UNL     1      -6.733   8.741  67.535  1.00  0.00    -0.066 C  
BRANCH  12  13
HETATM   13  C   UNL     1      -8.235   8.526  67.292  1.00  0.00    -0.108 C  
BRANCH  13  14
HETATM   14  N   UNL     1      -8.662   9.167  66.022  1.00  0.00    -0.144 NA 
HETATM   15  C   UNL     1      -8.186   8.582  64.807  1.00  0.00    -0.162 A  
HETATM   16  C   UNL     1      -7.168   7.599  64.780  1.00  0.00    -0.067 A  
HETATM   17  C   UNL     1      -6.682   7.036  63.592  1.00  0.00    -0.044 A  
HETATM   18  C   UNL     1      -7.202   7.436  62.376  1.00  0.00    -0.083 A  
HETATM   19  C   UNL     1      -8.205   8.396  62.356  1.00  0.00    -0.181 A  
HETATM   20  C   UNL     1      -8.696   8.968  63.550  1.00  0.00    -0.076 A  
HETATM   21  S   UNL     1      -9.986  10.166  63.324  1.00  0.00     0.557 SA 
HETATM   22  C   UNL     1     -10.392  10.619  64.989  1.00  0.00    -0.271 A  
HETATM   23  C   UNL     1      -9.714  10.135  66.121  1.00  0.00    -0.218 A  
HETATM   24  C   UNL     1     -10.151  10.656  67.365  1.00  0.00    -0.231 A  
HETATM   25  C   UNL     1     -11.252  11.524  67.509  1.00  0.00    -0.360 A  
HETATM   26  C   UNL     1     -11.910  11.955  66.363  1.00  0.00    -0.115 A  
HETATM   27  C   UNL     1     -11.732  11.954  68.873  1.00  0.00    -0.323 C  
HETATM   28  F   UNL     1     -11.016  11.420  69.902  1.00  0.00    -0.265 F  
HETATM   29  F   UNL     1     -13.025  11.585  69.103  1.00  0.00     0.216 F  
HETATM   30  F   UNL     1     -11.692  13.302  69.049  1.00  0.00    -0.278 F  
HETATM   31  C   UNL     1     -11.473  11.518  65.117  1.00  0.00    -0.090 A  
ENDBRANCH  13  14
ENDBRANCH  12  13
ENDBRANCH  11  12
ENDBRANCH   8  11
ENDBRANCH   4   5
ENDBRANCH   2   4
TORSDOF 6
ENDMDL
MODEL      243
REMARK 921   NORMALIZED FREE ENERGY PREDICTED BY IDOCK:    2.32 KCAL/MOL
REMARK 922        TOTAL FREE ENERGY PREDICTED BY IDOCK:    2.90 KCAL/MOL
REMARK 923 INTER-LIGAND FREE ENERGY PREDICTED BY IDOCK:   -1.33 KCAL/MOL
REMARK 924 INTRA-LIGAND FREE ENERGY PREDICTED BY IDOCK:    4.22 KCAL/MOL
REMARK 927      BINDING AFFINITY PREDICTED BY RF-SCORE:    0.00 PKD
ROOT
HETATM    1  O   UNL     1      -5.543  14.585  70.539  1.00  0.00    -0.124 OA 
HETATM    2  C   UNL     1      -6.376  13.464  70.248  1.00  0.00     0.055 C  
HETATM    3  H   UNL     1      -4.792  14.302  71.047  1.00  0.00     0.000 HD 
ENDROOT
BRANCH   2   4
HETATM    4  C   UNL     1      -7.591  13.923  69.425  1.00  0.00     0.245 C  
BRANCH   4   5
HETATM    5  N   UNL     1      -7.825  13.129  68.202  1.00  0.00    -0.134 NA 
HETATM    6  C   UNL     1      -6.623  13.020  67.355  1.00  0.00    -0.107 C  
HETATM    7  C   UNL     1      -5.516  12.131  67.953  1.00  0.00    -0.065 C  
HETATM    8  N   UNL     1      -5.936  10.753  68.284  1.00  0.00    -0.046 NA 
HETATM    9  C   UNL     1      -8.278  11.760  68.542  1.00  0.00    -0.134 C  
HETATM   10  C   UNL     1      -7.178  10.812  69.088  1.00  0.00    -0.107 C  
BRANCH   8  11
HETATM   11  C   UNL     1      -6.096   9.893  67.102  1.00  0.00    -0.058 C  
BRANCH  11  12
HETATM   12  C   UNL     1      -5.571   8.467  67.314  1.00  0.00    -0.039 C  
BRANCH  12  13
HETATM   13  C   UNL     1      -6.644   7.531  67.893  1.00  0.00    -0.058 C  
BRANCH  13  14
HETATM   14  N   UNL     1      -8.005   8.071  67.642  1.00  0.00    -0.121 NA 
HETATM   15  C   UNL     1      -8.288   8.531  66.318  1.00  0.00    -0.116 A  
HETATM   16  C   UNL     1      -7.281   8.707  65.339  1.00  0.00    -0.083 A  
HETATM   17  C   UNL     1      -7.547   9.177  64.046  1.00  0.00    -0.113 A  
HETATM   18  C   UNL     1      -8.842   9.489  63.678  1.00  0.00    -0.236 A  
HETATM   19  C   UNL     1      -9.862   9.328  64.607  1.00  0.00     0.666 A  
HETATM   20  C   UNL     1      -9.598   8.857  65.911  1.00  0.00    -0.223 A  
HETATM   21  S   UNL     1     -11.030   8.704  66.949  1.00  0.00     0.670 SA 
HETATM   22  C   UNL     1     -10.353   8.050  68.451  1.00  0.00    -0.199 A  
HETATM   23  C   UNL     1      -8.980   7.834  68.665  1.00  0.00    -0.133 A  
HETATM   24  C   UNL     1      -8.629   7.355  69.952  1.00  0.00    -0.140 A  
HETATM   25  C   UNL     1      -9.569   7.008  70.943  1.00  0.00    -0.167 A  
HETATM   26  C   UNL     1     -10.918   7.212  70.677  1.00  0.00    -0.283 A  
HETATM   27  C   UNL     1      -9.132   6.400  72.253  1.00  0.00    -0.139 C  
HETATM   28  F   UNL     1      -7.784   6.222  72.353  1.00  0.00    -0.097 F  
HETATM   29  F   UNL     1      -9.675   5.165  72.452  1.00  0.00    -0.161 F  
HETATM   30  F   UNL     1      -9.493   7.145  73.331  1.00  0.00    -0.162 F  
HETATM   31  C   UNL     1     -11.302   7.742  69.451  1.00  0.00     0.283 A  
ENDBRANCH  13  14
ENDBRANCH  12  13
ENDBRANCH  11  12
ENDBRANCH   8  11
ENDBRANCH   4   5
ENDBRANCH   2   4
TORSDOF 6
ENDMDL
MODEL      244
REMARK 921   NORMALIZED FREE ENERGY PREDICTED BY IDOCK:    2.78 KCAL/MOL
REMARK 922        TOTAL FREE ENERGY PREDICTED BY IDOCK:    3.52 KCAL/MOL
REMARK 923 INTER-LIGAND FREE ENERGY PREDICTED BY IDOCK:   -4.16 KCAL/MOL
REMARK 924 INTRA-LIGAND FREE ENERGY PREDICTED BY IDOCK:    7.67 KCAL/MOL
REMARK 927      BINDING AFFINITY PREDICTED BY RF-SCORE:    0.00 PKD
ROOT
HETATM    1  O   UNL     1      -6.182  11.305  67.733  1.00  0.00    -0.050 OA 
HETATM    2  C   UNL     1      -5.289  12.310  68.208  1.00  0.00    -0.056 C  
HETATM    3  H   UNL     1      -5.955  10.467  68.118  1.00  0.00     0.000 HD 
ENDROOT
BRANCH   2   4
HETATM    4  C   UNL     1      -5.657  13.666  67.584  1.00  0.00    -0.007 C  
BRANCH   4   5
HETATM    5  N   UNL     1      -6.668  14.427  68.347  1.00  0.00    -0.094 NA 
HETATM    6  C   UNL     1      -7.108  15.649  67.648  1.00  0.00    -0.168 C  
HETATM    7  C   UNL     1      -7.971  15.379  66.401  1.00  0.00     0.300 C  
HETATM    8  N   UNL     1      -9.179  14.564  66.645  1.00  0.00    -0.265 NA 
HETATM    9  C   UNL     1      -7.862  13.592  68.616  1.00  0.00    -0.084 C  
HETATM   10  C   UNL     1      -8.792  13.350  67.399  1.00  0.00    -0.214 C  
BRANCH   8  11
HETATM   11  C   UNL     1     -10.253  15.304  67.324  1.00  0.00    -0.248 C  
BRANCH  11  12
HETATM   12  C   UNL     1     -10.527  14.804  68.749  1.00  0.00    -0.250 C  
BRANCH  12  13
HETATM   13  C   UNL     1      -9.934  13.408  69.001  1.00  0.00     0.169 C  
BRANCH  13  14
HETATM   14  N   UNL     1     -10.831  12.604  69.871  1.00  0.00     0.479 NA 
HETATM   15  C   UNL     1     -11.867  13.307  70.562  1.00  0.00    -0.134 A  
HETATM   16  C   UNL     1     -11.916  14.721  70.633  1.00  0.00    -0.371 A  
HETATM   17  C   UNL     1     -12.916  15.416  71.326  1.00  0.00    -0.541 A  
HETATM   18  C   UNL     1     -13.916  14.720  71.977  1.00  0.00    -0.582 A  
HETATM   19  C   UNL     1     -13.909  13.332  71.930  1.00  0.00    -0.315 A  
HETATM   20  C   UNL     1     -12.902  12.627  71.236  1.00  0.00    -0.250 A  
HETATM   21  S   UNL     1     -13.070  10.861  71.277  1.00  0.00    -0.228 SA 
HETATM   22  C   UNL     1     -11.707  10.317  70.284  1.00  0.00    -0.306 A  
HETATM   23  C   UNL     1     -10.747  11.181  69.728  1.00  0.00    -0.010 A  
HETATM   24  C   UNL     1      -9.700  10.552  69.008  1.00  0.00    -0.221 A  
HETATM   25  C   UNL     1      -9.645   9.166  68.756  1.00  0.00    -0.161 A  
HETATM   26  C   UNL     1     -10.632   8.353  69.301  1.00  0.00    -0.193 A  
HETATM   27  C   UNL     1      -8.562   8.575  67.888  1.00  0.00    -0.134 C  
HETATM   28  F   UNL     1      -7.691   9.499  67.390  1.00  0.00    -0.093 F  
HETATM   29  F   UNL     1      -9.069   7.934  66.797  1.00  0.00    -0.134 F  
HETATM   30  F   UNL     1      -7.801   7.657  68.541  1.00  0.00    -0.110 F  
HETATM   31  C   UNL     1     -11.641   8.923  70.069  1.00  0.00     0.111 A  
ENDBRANCH  13  14
ENDBRANCH  12  13
ENDBRANCH  11  12
ENDBRANCH   8  11
ENDBRANCH   4   5
ENDBRANCH   2   4
TORSDOF 6
ENDMDL
MODEL      245
REMARK 921   NORMALIZED FREE ENERGY PREDICTED BY IDOCK:    4.47 KCAL/MOL
REMARK 922        TOTAL FREE ENERGY PREDICTED BY IDOCK:    5.81 KCAL/MOL
REMARK 923 INTER-LIGAND FREE ENERGY PREDICTED BY IDOCK:   -2.70 KCAL/MOL
REMARK 924 INTRA-LIGAND FREE ENERGY PREDICTED BY IDOCK:    8.51 KCAL/MOL
REMARK 927      BINDING AFFINITY PREDICTED BY RF-SCORE:    0.00 PKD
ROOT
HETATM    1  O   UNL     1      -5.730  12.120  62.665  1.00  0.00     0.597 OA 
HETATM    2  C   UNL     1      -5.490  11.020  63.540  1.00  0.00     0.213 C  
HETATM    3  H   UNL     1      -4.910  12.411  62.285  1.00  0.00     0.000 HD 
ENDROOT
BRANCH   2   4
HETATM    4  C   UNL     1      -6.819  10.550  64.156  1.00  0.00     0.117 C  
BRANCH   4   5
HETATM    5  N   UNL     1      -6.882  10.681  65.626  1.00  0.00    -0.111 NA 
HETATM    6  C   UNL     1      -7.900   9.803  66.232  1.00  0.00    -0.106 C  
HETATM    7  C   UNL     1      -7.542   8.306  66.187  1.00  0.00    -0.085 C  
HETATM    8  N   UNL     1      -6.248   7.957  66.809  1.00  0.00    -0.052 NA 
HETATM    9  C   UNL     1      -5.571  10.362  66.239  1.00  0.00    -0.065 C  
HETATM   10  C   UNL     1      -5.201   8.856  66.271  1.00  0.00    -0.030 C  
BRANCH   8  11
HETATM   11  C   UNL     1      -6.282   7.984  68.279  1.00  0.00    -0.049 C  
BRANCH  11  12
HETATM   12  C   UNL     1      -6.548   9.382  68.854  1.00  0.00    -0.047 C  
BRANCH  12  13
HETATM   13  C   UNL     1      -7.888   9.963  68.375  1.00  0.00    -0.085 C  
BRANCH  13  14
HETATM   14  N   UNL     1      -9.004   9.495  69.237  1.00  0.00    -0.151 NA 
HETATM   15  C   UNL     1      -8.673   8.589  70.292  1.00  0.00    -0.142 A  
HETATM   16  C   UNL     1      -7.409   7.957  70.389  1.00  0.00    -0.068 A  
HETATM   17  C   UNL     1      -7.085   7.052  71.409  1.00  0.00    -0.070 A  
HETATM   18  C   UNL     1      -8.017   6.742  72.379  1.00  0.00    -0.098 A  
HETATM   19  C   UNL     1      -9.270   7.340  72.324  1.00  0.00    -0.154 A  
HETATM   20  C   UNL     1      -9.602   8.252  71.298  1.00  0.00    -0.171 A  
HETATM   21  S   UNL     1     -11.242   8.923  71.403  1.00  0.00    -0.342 SA 
HETATM   22  C   UNL     1     -11.293  10.040  70.029  1.00  0.00    -0.275 A  
HETATM   23  C   UNL     1     -10.246  10.195  69.103  1.00  0.00    -0.214 A  
HETATM   24  C   UNL     1     -10.498  11.100  68.041  1.00  0.00    -0.217 A  
HETATM   25  C   UNL     1     -11.663  11.886  67.939  1.00  0.00    -0.368 A  
HETATM   26  C   UNL     1     -12.660  11.719  68.893  1.00  0.00     0.728 A  
HETATM   27  C   UNL     1     -11.819  12.909  66.841  1.00  0.00    -0.379 C  
HETATM   28  F   UNL     1     -10.744  12.988  66.007  1.00  0.00    -0.269 F  
HETATM   29  F   UNL     1     -11.987  14.170  67.334  1.00  0.00    -0.374 F  
HETATM   30  F   UNL     1     -12.895  12.673  66.044  1.00  0.00    -0.156 F  
HETATM   31  C   UNL     1     -12.482  10.795  69.916  1.00  0.00    -0.277 A  
ENDBRANCH  13  14
ENDBRANCH  12  13
ENDBRANCH  11  12
ENDBRANCH   8  11
ENDBRANCH   4   5
ENDBRANCH   2   4
TORSDOF 6
ENDMDL
MODEL      246
REMARK 921   NORMALIZED FREE ENERGY PREDICTED BY IDOCK:    5.65 KCAL/MOL
REMARK 922        TOTAL FREE ENERGY PREDICTED BY IDOCK:    7.40 KCAL/MOL
REMARK 923 INTER-LIGAND FREE ENERGY PREDICTED BY IDOCK:    3.43 KCAL/MOL
REMARK 924 INTRA-LIGAND FREE ENERGY PREDICTED BY IDOCK:    3.97 KCAL/MOL
REMARK 927      BINDING AFFINITY PREDICTED BY RF-SCORE:    0.00 PKD
ROOT
HETATM    1  O   UNL     1     -11.984   4.088  71.061  1.00  0.00     5.286 OA 
HETATM    2  C   UNL     1     -11.428   4.533  72.297  1.00  0.00     0.582 C  
HETATM    3  H   UNL     1     -12.597   3.380  71.223  1.00  0.00     0.000 HD 
ENDROOT
BRANCH   2   4
HETATM    4  C   UNL     1     -10.437   5.679  72.035  1.00  0.00    -0.219 C  
BRANCH   4   5
HETATM    5  N   UNL     1     -10.050   5.830  70.617  1.00  0.00    -0.193 NA 
HETATM    6  C   UNL     1      -9.065   6.907  70.407  1.00  0.00    -0.156 C  
HETATM    7  C   UNL     1      -7.663   6.588  70.957  1.00  0.00    -0.094 C  
HETATM    8  N   UNL     1      -7.058   5.344  70.435  1.00  0.00    -0.060 NA 
HETATM    9  C   UNL     1      -9.476   4.569  70.092  1.00  0.00    -0.167 C  
HETATM   10  C   UNL     1      -8.037   4.243  70.572  1.00  0.00    -0.066 C  
BRANCH   8  11
HETATM   11  C   UNL     1      -6.573   5.469  69.052  1.00  0.00    -0.051 C  
BRANCH  11  12
HETATM   12  C   UNL     1      -5.684   6.699  68.830  1.00  0.00    -0.017 C  
BRANCH  12  13
HETATM   13  C   UNL     1      -6.275   7.968  69.464  1.00  0.00    -0.034 C  
BRANCH  13  14
HETATM   14  N   UNL     1      -6.647   8.956  68.418  1.00  0.00    -0.059 NA 
HETATM   15  C   UNL     1      -6.377  10.331  68.698  1.00  0.00    -0.051 A  
HETATM   16  C   UNL     1      -6.004  10.791  69.985  1.00  0.00    -0.094 A  
HETATM   17  C   UNL     1      -5.757  12.140  70.271  1.00  0.00    -0.163 A  
HETATM   18  C   UNL     1      -5.871  13.090  69.275  1.00  0.00    -0.086 A  
HETATM   19  C   UNL     1      -6.232  12.683  67.997  1.00  0.00    -0.094 A  
HETATM   20  C   UNL     1      -6.484  11.325  67.703  1.00  0.00    -0.067 A  
HETATM   21  S   UNL     1      -6.917  10.999  66.013  1.00  0.00     0.057 SA 
HETATM   22  C   UNL     1      -7.101   9.236  65.993  1.00  0.00    -0.090 A  
HETATM   23  C   UNL     1      -6.989   8.422  67.133  1.00  0.00    -0.075 A  
HETATM   24  C   UNL     1      -7.223   7.039  66.923  1.00  0.00    -0.077 A  
HETATM   25  C   UNL     1      -7.453   6.467  65.657  1.00  0.00    -0.082 A  
HETATM   26  C   UNL     1      -7.527   7.307  64.552  1.00  0.00    -0.092 A  
HETATM   27  C   UNL     1      -7.584   4.972  65.490  1.00  0.00    -0.086 C  
HETATM   28  F   UNL     1      -7.448   4.275  66.653  1.00  0.00    -0.076 F  
HETATM   29  F   UNL     1      -6.637   4.463  64.651  1.00  0.00    -0.038 F  
HETATM   30  F   UNL     1      -8.784   4.600  64.968  1.00  0.00    -0.121 F  
HETATM   31  C   UNL     1      -7.369   8.678  64.724  1.00  0.00    -0.091 A  
ENDBRANCH  13  14
ENDBRANCH  12  13
ENDBRANCH  11  12
ENDBRANCH   8  11
ENDBRANCH   4   5
ENDBRANCH   2   4
TORSDOF 6
ENDMDL
MODEL      247
REMARK 921   NORMALIZED FREE ENERGY PREDICTED BY IDOCK:    6.53 KCAL/MOL
REMARK 922        TOTAL FREE ENERGY PREDICTED BY IDOCK:    8.58 KCAL/MOL
REMARK 923 INTER-LIGAND FREE ENERGY PREDICTED BY IDOCK:    7.61 KCAL/MOL
REMARK 924 INTRA-LIGAND FREE ENERGY PREDICTED BY IDOCK:    0.97 KCAL/MOL
REMARK 927      BINDING AFFINITY PREDICTED BY RF-SCORE:    0.00 PKD
ROOT
HETATM    1  O   UNL     1      -9.545  19.661  72.458  1.00  0.00     2.092 OA 
HETATM    2  C   UNL     1      -8.484  19.139  71.660  1.00  0.00     6.038 C  
HETATM    3  H   UNL     1      -9.186  20.085  73.229  1.00  0.00     0.000 HD 
ENDROOT
BRANCH   2   4
HETATM    4  C   UNL     1      -9.064  18.452  70.413  1.00  0.00     3.036 C  
BRANCH   4   5
HETATM    5  N   UNL     1      -8.060  17.748  69.590  1.00  0.00     0.669 NA 
HETATM    6  C   UNL     1      -8.031  16.296  69.845  1.00  0.00     0.749 C  
HETATM    7  C   UNL     1      -9.270  15.545  69.322  1.00  0.00    -0.268 C  
HETATM    8  N   UNL     1      -9.543  15.723  67.880  1.00  0.00    -0.213 NA 
HETATM    9  C   UNL     1      -8.320  17.959  68.147  1.00  0.00    -0.267 C  
HETATM   10  C   UNL     1      -9.522  17.170  67.566  1.00  0.00    -0.247 C  
BRANCH   8  11
HETATM   11  C   UNL     1      -8.623  14.968  67.016  1.00  0.00    -0.239 C  
BRANCH  11  12
HETATM   12  C   UNL     1      -7.889  13.839  67.752  1.00  0.00    -0.174 C  
BRANCH  12  13
HETATM   13  C   UNL     1      -8.717  12.545  67.809  1.00  0.00    -0.178 C  
BRANCH  13  14
HETATM   14  N   UNL     1      -8.666  11.829  66.508  1.00  0.00    -0.189 NA 
HETATM   15  C   UNL     1      -7.856  10.653  66.446  1.00  0.00    -0.144 A  
HETATM   16  C   UNL     1      -6.946  10.296  67.470  1.00  0.00    -0.085 A  
HETATM   17  C   UNL     1      -6.134   9.155  67.407  1.00  0.00    -0.054 A  
HETATM   18  C   UNL     1      -6.203   8.319  66.310  1.00  0.00    -0.046 A  
HETATM   19  C   UNL     1      -7.085   8.629  65.282  1.00  0.00    -0.082 A  
HETATM   20  C   UNL     1      -7.903   9.778  65.340  1.00  0.00    -0.122 A  
HETATM   21  S   UNL     1      -8.974   9.999  63.942  1.00  0.00    -0.259 SA 
HETATM   22  C   UNL     1      -9.872  11.466  64.368  1.00  0.00    -0.261 A  
HETATM   23  C   UNL     1      -9.632  12.225  65.526  1.00  0.00    -0.099 A  
HETATM   24  C   UNL     1     -10.419  13.396  65.665  1.00  0.00    -0.293 A  
HETATM   25  C   UNL     1     -11.451  13.756  64.776  1.00  0.00    -0.366 A  
HETATM   26  C   UNL     1     -11.672  12.961  63.658  1.00  0.00    -0.572 A  
HETATM   27  C   UNL     1     -12.324  14.959  65.042  1.00  0.00    -0.114 C  
HETATM   28  F   UNL     1     -12.016  15.616  66.196  1.00  0.00     0.167 F  
HETATM   29  F   UNL     1     -13.641  14.623  65.159  1.00  0.00     0.037 F  
HETATM   30  F   UNL     1     -12.261  15.889  64.053  1.00  0.00    -0.442 F  
HETATM   31  C   UNL     1     -10.879  11.838  63.450  1.00  0.00    -0.460 A  
ENDBRANCH  13  14
ENDBRANCH  12  13
ENDBRANCH  11  12
ENDBRANCH   8  11
ENDBRANCH   4   5
ENDBRANCH   2   4
TORSDOF 6
ENDMDL
MODEL      248
REMARK 921   NORMALIZED FREE ENERGY PREDICTED BY IDOCK:    7.10 KCAL/MOL
REMARK 922        TOTAL FREE ENERGY PREDICTED BY IDOCK:    9.36 KCAL/MOL
REMARK 923 INTER-LIGAND FREE ENERGY PREDICTED BY IDOCK:   -0.69 KCAL/MOL
REMARK 924 INTRA-LIGAND FREE ENERGY PREDICTED BY IDOCK:   10.04 KCAL/MOL
REMARK 927      BINDING AFFINITY PREDICTED BY RF-SCORE:    0.00 PKD
ROOT
HETATM    1  O   UNL     1      -6.580  12.608  62.355  1.00  0.00     2.037 OA 
HETATM    2  C   UNL     1      -6.389  11.334  62.967  1.00  0.00     0.867 C  
HETATM    3  H   UNL     1      -5.787  12.866  61.900  1.00  0.00     0.000 HD 
ENDROOT
BRANCH   2   4
HETATM    4  C   UNL     1      -7.672  10.917  63.704  1.00  0.00     0.407 C  
BRANCH   4   5
HETATM    5  N   UNL     1      -7.432  10.214  64.981  1.00  0.00    -0.140 NA 
HETATM    6  C   UNL     1      -8.487   9.233  65.298  1.00  0.00    -0.154 C  
HETATM    7  C   UNL     1      -8.478   7.990  64.389  1.00  0.00     0.072 C  
HETATM    8  N   UNL     1      -7.199   7.251  64.358  1.00  0.00    -0.069 NA 
HETATM    9  C   UNL     1      -6.132   9.503  64.954  1.00  0.00    -0.078 C  
HETATM   10  C   UNL     1      -6.100   8.209  64.100  1.00  0.00    -0.065 C  
BRANCH   8  11
HETATM   11  C   UNL     1      -6.954   6.460  65.573  1.00  0.00    -0.053 C  
BRANCH  11  12
HETATM   12  C   UNL     1      -6.797   7.319  66.835  1.00  0.00    -0.069 C  
BRANCH  12  13
HETATM   13  C   UNL     1      -7.927   8.350  66.983  1.00  0.00    -0.100 C  
BRANCH  13  14
HETATM   14  N   UNL     1      -9.025   7.811  67.827  1.00  0.00    -0.128 NA 
HETATM   15  C   UNL     1      -8.933   6.437  68.211  1.00  0.00    -0.116 A  
HETATM   16  C   UNL     1      -7.997   5.543  67.638  1.00  0.00    -0.101 A  
HETATM   17  C   UNL     1      -7.915   4.190  67.994  1.00  0.00    -0.085 A  
HETATM   18  C   UNL     1      -8.772   3.675  68.947  1.00  0.00    -0.135 A  
HETATM   19  C   UNL     1      -9.705   4.517  69.538  1.00  0.00    -0.282 A  
HETATM   20  C   UNL     1      -9.793   5.880  69.181  1.00  0.00    -0.156 A  
HETATM   21  S   UNL     1     -11.036   6.798  70.054  1.00  0.00    -0.320 SA 
HETATM   22  C   UNL     1     -10.830   8.437  69.413  1.00  0.00    -0.082 A  
HETATM   23  C   UNL     1      -9.921   8.774  68.395  1.00  0.00    -0.179 A  
HETATM   24  C   UNL     1      -9.941  10.129  67.980  1.00  0.00    -0.173 A  
HETATM   25  C   UNL     1     -10.730  11.125  68.591  1.00  0.00    -0.234 A  
HETATM   26  C   UNL     1     -11.594  10.751  69.613  1.00  0.00    -0.388 A  
HETATM   27  C   UNL     1     -10.621  12.570  68.172  1.00  0.00    -0.226 C  
HETATM   28  F   UNL     1      -9.704  12.790  67.188  1.00  0.00    -0.201 F  
HETATM   29  F   UNL     1     -10.244  13.378  69.204  1.00  0.00    -0.150 F  
HETATM   30  F   UNL     1     -11.795  13.079  67.710  1.00  0.00    -0.339 F  
HETATM   31  C   UNL     1     -11.653   9.419  70.007  1.00  0.00    -0.046 A  
ENDBRANCH  13  14
ENDBRANCH  12  13
ENDBRANCH  11  12
ENDBRANCH   8  11
ENDBRANCH   4   5
ENDBRANCH   2   4
TORSDOF 6
ENDMDL
MODEL      249
REMARK 921   NORMALIZED FREE ENERGY PREDICTED BY IDOCK:    7.31 KCAL/MOL
REMARK 922        TOTAL FREE ENERGY PREDICTED BY IDOCK:    9.64 KCAL/MOL
REMARK 923 INTER-LIGAND FREE ENERGY PREDICTED BY IDOCK:    2.51 KCAL/MOL
REMARK 924 INTRA-LIGAND FREE ENERGY PREDICTED BY IDOCK:    7.13 KCAL/MOL
REMARK 927      BINDING AFFINITY PREDICTED BY RF-SCORE:    0.00 PKD
ROOT
HETATM    1  O   UNL     1     -11.385   4.381  66.455  1.00  0.00     0.314 OA 
HETATM    2  C   UNL     1     -10.202   5.108  66.126  1.00  0.00    -0.222 C  
HETATM    3  H   UNL     1     -11.172   3.464  66.583  1.00  0.00     0.000 HD 
ENDROOT
BRANCH   2   4
HETATM    4  C   UNL     1     -10.548   6.592  65.919  1.00  0.00     1.198 C  
BRANCH   4   5
HETATM    5  N   UNL     1      -9.546   7.339  65.131  1.00  0.00     1.207 NA 
HETATM    6  C   UNL     1      -9.925   8.749  64.919  1.00  0.00     1.601 C  
HETATM    7  C   UNL     1      -9.854   9.613  66.192  1.00  0.00    -0.265 C  
HETATM    8  N   UNL     1      -8.541   9.618  66.868  1.00  0.00    -0.127 NA 
HETATM    9  C   UNL     1      -8.224   7.311  65.800  1.00  0.00    -0.135 C  
HETATM   10  C   UNL     1      -8.092   8.219  67.050  1.00  0.00    -0.104 C  
BRANCH   8  11
HETATM   11  C   UNL     1      -7.529  10.425  66.170  1.00  0.00    -0.131 C  
BRANCH  11  12
HETATM   12  C   UNL     1      -7.679  11.932  66.419  1.00  0.00     0.198 C  
BRANCH  12  13
HETATM   13  C   UNL     1      -8.313  12.238  67.785  1.00  0.00    -0.162 C  
BRANCH  13  14
HETATM   14  N   UNL     1      -7.285  12.225  68.858  1.00  0.00    -0.098 NA 
HETATM   15  C   UNL     1      -6.714  13.483  69.225  1.00  0.00    -0.080 A  
HETATM   16  C   UNL     1      -6.909  14.662  68.465  1.00  0.00    -0.098 A  
HETATM   17  C   UNL     1      -6.336  15.894  68.807  1.00  0.00    -0.114 A  
HETATM   18  C   UNL     1      -5.541  15.997  69.932  1.00  0.00    -0.154 A  
HETATM   19  C   UNL     1      -5.325  14.866  70.709  1.00  0.00    -0.135 A  
HETATM   20  C   UNL     1      -5.899  13.622  70.367  1.00  0.00    -0.161 A  
HETATM   21  S   UNL     1      -5.521  12.297  71.487  1.00  0.00     0.292 SA 
HETATM   22  C   UNL     1      -6.428  10.938  70.801  1.00  0.00     0.356 A  
HETATM   23  C   UNL     1      -7.159  11.007  69.602  1.00  0.00    -0.087 A  
HETATM   24  C   UNL     1      -7.774   9.798  69.189  1.00  0.00    -0.092 A  
HETATM   25  C   UNL     1      -7.762   8.613  69.951  1.00  0.00    -0.084 A  
HETATM   26  C   UNL     1      -7.049   8.598  71.144  1.00  0.00    -0.081 A  
HETATM   27  C   UNL     1      -8.529   7.392  69.505  1.00  0.00    -0.133 C  
HETATM   28  F   UNL     1      -9.213   7.569  68.339  1.00  0.00    -0.139 F  
HETATM   29  F   UNL     1      -9.467   7.012  70.419  1.00  0.00    -0.160 F  
HETATM   30  F   UNL     1      -7.734   6.306  69.312  1.00  0.00    -0.091 F  
HETATM   31  C   UNL     1      -6.377   9.744  71.554  1.00  0.00     0.195 A  
ENDBRANCH  13  14
ENDBRANCH  12  13
ENDBRANCH  11  12
ENDBRANCH   8  11
ENDBRANCH   4   5
ENDBRANCH   2   4
TORSDOF 6
ENDMDL
MODEL      250
REMARK 921   NORMALIZED FREE ENERGY PREDICTED BY IDOCK:    8.67 KCAL/MOL
REMARK 922        TOTAL FREE ENERGY PREDICTED BY IDOCK:   11.47 KCAL/MOL
REMARK 923 INTER-LIGAND FREE ENERGY PREDICTED BY IDOCK:    3.33 KCAL/MOL
REMARK 924 INTRA-LIGAND FREE ENERGY PREDICTED BY IDOCK:    8.14 KCAL/MOL
REMARK 927      BINDING AFFINITY PREDICTED BY RF-SCORE:    0.00 PKD
ROOT
HETATM    1  O   UNL     1      -7.388  10.668  67.647  1.00  0.00    -0.088 OA 
HETATM    2  C   UNL     1      -6.000  10.665  67.976  1.00  0.00    -0.046 C  
HETATM    3  H   UNL     1      -7.729   9.783  67.689  1.00  0.00     0.000 HD 
ENDROOT
BRANCH   2   4
HETATM    4  C   UNL     1      -5.449  12.099  67.908  1.00  0.00    -0.065 C  
BRANCH   4   5
HETATM    5  N   UNL     1      -5.995  13.005  68.938  1.00  0.00    -0.075 NA 
HETATM    6  C   UNL     1      -5.363  14.337  68.918  1.00  0.00    -0.087 C  
HETATM    7  C   UNL     1      -5.741  15.189  67.692  1.00  0.00    -0.033 C  
HETATM    8  N   UNL     1      -7.191  15.398  67.503  1.00  0.00    -0.179 NA 
HETATM    9  C   UNL     1      -7.456  13.182  68.761  1.00  0.00    -0.050 C  
HETATM   10  C   UNL     1      -7.876  14.088  67.574  1.00  0.00    -0.184 C  
BRANCH   8  11
HETATM   11  C   UNL     1      -7.769  16.364  68.449  1.00  0.00    -0.177 C  
BRANCH  11  12
HETATM   12  C   UNL     1      -8.550  15.700  69.591  1.00  0.00    -0.079 C  
BRANCH  12  13
HETATM   13  C   UNL     1      -9.018  14.282  69.230  1.00  0.00     0.282 C  
BRANCH  13  14
HETATM   14  N   UNL     1     -10.501  14.193  69.259  1.00  0.00    -0.129 NA 
HETATM   15  C   UNL     1     -11.166  14.784  70.378  1.00  0.00    -0.169 A  
HETATM   16  C   UNL     1     -10.475  15.221  71.534  1.00  0.00     0.722 A  
HETATM   17  C   UNL     1     -11.121  15.783  72.643  1.00  0.00     0.502 A  
HETATM   18  C   UNL     1     -12.495  15.933  72.639  1.00  0.00    -0.571 A  
HETATM   19  C   UNL     1     -13.212  15.521  71.523  1.00  0.00    -0.589 A  
HETATM   20  C   UNL     1     -12.566  14.953  70.404  1.00  0.00    -0.343 A  
HETATM   21  S   UNL     1     -13.647  14.501  69.071  1.00  0.00     4.821 SA 
HETATM   22  C   UNL     1     -12.521  13.892  67.846  1.00  0.00     0.261 A  
HETATM   23  C   UNL     1     -11.135  13.768  68.046  1.00  0.00    -0.261 A  
HETATM   24  C   UNL     1     -10.408  13.209  66.965  1.00  0.00    -0.249 A  
HETATM   25  C   UNL     1     -10.982  12.882  65.720  1.00  0.00    -0.303 A  
HETATM   26  C   UNL     1     -12.352  13.047  65.558  1.00  0.00    -0.527 A  
HETATM   27  C   UNL     1     -10.130  12.393  64.574  1.00  0.00    -0.250 C  
HETATM   28  F   UNL     1      -8.802  12.321  64.869  1.00  0.00     0.363 F  
HETATM   29  F   UNL     1     -10.215  13.211  63.486  1.00  0.00    -0.210 F  
HETATM   30  F   UNL     1     -10.486  11.155  64.140  1.00  0.00    -0.338 F  
HETATM   31  C   UNL     1     -13.114  13.532  66.616  1.00  0.00     1.375 A  
ENDBRANCH  13  14
ENDBRANCH  12  13
ENDBRANCH  11  12
ENDBRANCH   8  11
ENDBRANCH   4   5
ENDBRANCH   2   4
TORSDOF 6
ENDMDL
MODEL      251
REMARK 921   NORMALIZED FREE ENERGY PREDICTED BY IDOCK:   25.37 KCAL/MOL
REMARK 922        TOTAL FREE ENERGY PREDICTED BY IDOCK:   34.04 KCAL/MOL
REMARK 923 INTER-LIGAND FREE ENERGY PREDICTED BY IDOCK:   26.65 KCAL/MOL
REMARK 924 INTRA-LIGAND FREE ENERGY PREDICTED BY IDOCK:    7.38 KCAL/MOL
REMARK 927      BINDING AFFINITY PREDICTED BY RF-SCORE:    0.00 PKD
ROOT
HETATM    1  O   UNL     1     -12.720  19.318  65.316  1.00  0.00     7.595 OA 
HETATM    2  C   UNL     1     -11.624  20.231  65.288  1.00  0.00     1.692 C  
HETATM    3  H   UNL     1     -13.386  19.636  65.915  1.00  0.00     0.000 HD 
ENDROOT
BRANCH   2   4
HETATM    4  C   UNL     1     -10.547  19.715  64.319  1.00  0.00     4.972 C  
BRANCH   4   5
HETATM    5  N   UNL     1      -9.989  18.397  64.684  1.00  0.00     2.724 NA 
HETATM    6  C   UNL     1      -8.973  18.484  65.748  1.00  0.00     0.473 C  
HETATM    7  C   UNL     1      -9.546  18.840  67.133  1.00  0.00    -0.300 C  
HETATM    8  N   UNL     1     -10.604  17.931  67.621  1.00  0.00    -0.401 NA 
HETATM    9  C   UNL     1     -11.061  17.481  65.140  1.00  0.00     0.468 C  
HETATM   10  C   UNL     1     -11.621  17.767  66.558  1.00  0.00     1.876 C  
BRANCH   8  11
HETATM   11  C   UNL     1     -10.089  16.633  68.082  1.00  0.00    -0.267 C  
BRANCH  11  12
HETATM   12  C   UNL     1      -8.789  16.213  67.383  1.00  0.00    -0.199 C  
BRANCH  12  13
HETATM   13  C   UNL     1      -8.363  14.784  67.754  1.00  0.00    -0.159 C  
BRANCH  13  14
HETATM   14  N   UNL     1      -9.543  13.885  67.829  1.00  0.00    -0.216 NA 
HETATM   15  C   UNL     1     -10.534  14.195  68.812  1.00  0.00    -0.247 A  
HETATM   16  C   UNL     1     -10.322  15.148  69.837  1.00  0.00    -0.207 A  
HETATM   17  C   UNL     1     -11.281  15.443  70.816  1.00  0.00    -0.378 A  
HETATM   18  C   UNL     1     -12.499  14.792  70.806  1.00  0.00    -0.402 A  
HETATM   19  C   UNL     1     -12.751  13.851  69.817  1.00  0.00     0.055 A  
HETATM   20  C   UNL     1     -11.788  13.549  68.829  1.00  0.00    -0.355 A  
HETATM   21  S   UNL     1     -12.297  12.332  67.642  1.00  0.00     1.056 SA 
HETATM   22  C   UNL     1     -10.904  12.247  66.551  1.00  0.00    -0.259 A  
HETATM   23  C   UNL     1      -9.709  12.962  66.745  1.00  0.00    -0.246 A  
HETATM   24  C   UNL     1      -8.688  12.720  65.791  1.00  0.00     0.812 A  
HETATM   25  C   UNL     1      -8.855  11.905  64.654  1.00  0.00     0.730 A  
HETATM   26  C   UNL     1     -10.064  11.239  64.488  1.00  0.00    -0.348 A  
HETATM   27  C   UNL     1      -7.764  11.778  63.620  1.00  0.00     2.433 C  
HETATM   28  F   UNL     1      -6.655  12.520  63.898  1.00  0.00     5.629 F  
HETATM   29  F   UNL     1      -8.174  12.189  62.386  1.00  0.00     0.456 F  
HETATM   30  F   UNL     1      -7.329  10.499  63.462  1.00  0.00    -0.139 F  
HETATM   31  C   UNL     1     -11.069  11.397  65.435  1.00  0.00    -0.196 A  
ENDBRANCH  13  14
ENDBRANCH  12  13
ENDBRANCH  11  12
ENDBRANCH   8  11
ENDBRANCH   4   5
ENDBRANCH   2   4
TORSDOF 6
ENDMDL
