MODEL        1
REMARK 921   NORMALIZED FREE ENERGY PREDICTED BY IDOCK:   -8.43 KCAL/MOL
REMARK 922        TOTAL FREE ENERGY PREDICTED BY IDOCK:   -9.88 KCAL/MOL
REMARK 923 INTER-LIGAND FREE ENERGY PREDICTED BY IDOCK:   -9.41 KCAL/MOL
REMARK 924 INTRA-LIGAND FREE ENERGY PREDICTED BY IDOCK:   -0.47 KCAL/MOL
REMARK 927      BINDING AFFINITY PREDICTED BY RF-SCORE:    0.00 PKD
ROOT
HETATM    1  C   UNL     1      -9.671  11.587  63.936  1.00  0.00    -0.279 C  
HETATM    2  C   UNL     1      -9.826  11.883  65.432  1.00  0.00    -0.233 C  
HETATM    3  O   UNL     1     -10.763  11.020  66.034  1.00  0.00    -0.245 OA 
HETATM    4  C   UNL     1      -8.420  11.539  66.007  1.00  0.00    -0.005 C  
HETATM    5  C   UNL     1     -11.268  11.757  67.141  1.00  0.00    -0.316 C  
HETATM    6  C   UNL     1     -10.124  12.045  68.333  1.00  0.00    -0.211 C  
HETATM    7  C   UNL     1     -10.042  13.634  68.435  1.00  0.00    -0.241 C  
HETATM    8  C   UNL     1      -8.992  14.929  68.323  1.00  0.00    -0.177 C  
HETATM    9  C   UNL     1      -8.424  15.091  66.847  1.00  0.00    -0.269 C  
HETATM   10  C   UNL     1      -7.921  16.432  66.361  1.00  0.00    -0.294 C  
HETATM   11  F   UNL     1      -6.632  16.568  66.765  1.00  0.00    -0.209 F  
HETATM   12  C   UNL     1      -8.820  17.575  66.819  1.00  0.00    -0.275 C  
HETATM   13  C   UNL     1      -8.983  18.662  66.069  1.00  0.00     0.012 C  
HETATM   14  C   UNL     1      -7.650  19.318  66.251  1.00  0.00    -0.277 C  
HETATM   15  O   UNL     1      -7.187  19.964  65.326  1.00  0.00    -0.348 OA 
HETATM   16  C   UNL     1      -6.985  19.209  67.645  1.00  0.00    -0.237 C  
HETATM   17  C   UNL     1      -7.552  18.112  68.691  1.00  0.00    -0.306 C  
HETATM   18  C   UNL     1      -9.011  17.673  68.342  1.00  0.00    -0.280 C  
HETATM   19  C   UNL     1      -9.871  18.846  68.877  1.00  0.00    -0.447 C  
HETATM   20  C   UNL     1      -9.716  16.276  68.626  1.00  0.00    -0.235 C  
HETATM   21  C   UNL     1     -10.840  15.987  69.626  1.00  0.00    -0.329 C  
HETATM   22  C   UNL     1     -11.962  15.369  68.715  1.00  0.00    -0.278 C  
HETATM   23  O   UNL     1     -11.312  17.078  70.382  1.00  0.00    -0.301 OA 
HETATM   24  C   UNL     1     -11.548  13.931  68.245  1.00  0.00    -0.372 C  
HETATM   25  H   UNL     1     -12.009  16.899  71.002  1.00  0.00     0.000 HD 
HETATM   26  C   UNL     1     -12.401  13.091  69.343  1.00  0.00    -0.025 C  
HETATM   27  C   UNL     1     -11.612  13.181  66.703  1.00  0.00    -0.356 C  
HETATM   28  O   UNL     1     -10.331  13.224  65.686  1.00  0.00    -0.278 OA 
ENDROOT
BRANCH  27  29
HETATM   29  C   UNL     1     -12.294  14.073  65.662  1.00  0.00    -0.479 C  
HETATM   30  O   UNL     1     -13.532  14.086  65.575  1.00  0.00    -0.677 OA 
BRANCH  29  31
HETATM   31  C   UNL     1     -11.555  15.182  64.926  1.00  0.00    -0.336 C  
HETATM   32  O   UNL     1     -12.213  15.731  63.812  1.00  0.00    -1.113 OA 
HETATM   33  H   UNL     1     -11.752  16.424  63.354  1.00  0.00     0.000 HD 
ENDBRANCH  29  31
ENDBRANCH  27  29
TORSDOF 2
ENDMDL
MODEL        2
REMARK 921   NORMALIZED FREE ENERGY PREDICTED BY IDOCK:   -7.68 KCAL/MOL
REMARK 922        TOTAL FREE ENERGY PREDICTED BY IDOCK:   -9.04 KCAL/MOL
REMARK 923 INTER-LIGAND FREE ENERGY PREDICTED BY IDOCK:   -8.61 KCAL/MOL
REMARK 924 INTRA-LIGAND FREE ENERGY PREDICTED BY IDOCK:   -0.43 KCAL/MOL
REMARK 927      BINDING AFFINITY PREDICTED BY RF-SCORE:    0.00 PKD
ROOT
HETATM    1  C   UNL     1      -8.922  10.797  63.574  1.00  0.00    -0.192 C  
HETATM    2  C   UNL     1      -9.220  10.959  65.068  1.00  0.00    -0.207 C  
HETATM    3  O   UNL     1     -10.034   9.915  65.548  1.00  0.00    -0.304 OA 
HETATM    4  C   UNL     1      -7.815  10.811  65.725  1.00  0.00    -0.106 C  
HETATM    5  C   UNL     1     -10.725  10.481  66.655  1.00  0.00    -0.155 C  
HETATM    6  C   UNL     1      -9.724  10.869  67.944  1.00  0.00    -0.178 C  
HETATM    7  C   UNL     1      -9.917  12.439  68.143  1.00  0.00    -0.215 C  
HETATM    8  C   UNL     1      -9.095  13.893  68.185  1.00  0.00    -0.193 C  
HETATM    9  C   UNL     1      -8.470  14.248  66.766  1.00  0.00    -0.051 C  
HETATM   10  C   UNL     1      -8.170  15.684  66.398  1.00  0.00    -0.098 C  
HETATM   11  F   UNL     1      -6.950  16.000  66.904  1.00  0.00    -0.223 F  
HETATM   12  C   UNL     1      -9.275  16.629  66.854  1.00  0.00    -0.245 C  
HETATM   13  C   UNL     1      -9.571  17.724  66.158  1.00  0.00    -0.202 C  
HETATM   14  C   UNL     1      -8.382  18.575  66.475  1.00  0.00    -0.281 C  
HETATM   15  O   UNL     1      -7.975  19.351  65.626  1.00  0.00    -0.427 OA 
HETATM   16  C   UNL     1      -7.797  18.480  67.906  1.00  0.00    -0.268 C  
HETATM   17  C   UNL     1      -8.238  17.235  68.842  1.00  0.00    -0.181 C  
HETATM   18  C   UNL     1      -9.577  16.588  68.361  1.00  0.00    -0.233 C  
HETATM   19  C   UNL     1     -10.654  17.565  68.897  1.00  0.00    -0.193 C  
HETATM   20  C   UNL     1     -10.053  15.079  68.511  1.00  0.00    -0.225 C  
HETATM   21  C   UNL     1     -11.174  14.540  69.406  1.00  0.00    -0.280 C  
HETATM   22  C   UNL     1     -12.116  13.812  68.380  1.00  0.00    -0.324 C  
HETATM   23  O   UNL     1     -11.870  15.485  70.186  1.00  0.00    -0.305 OA 
HETATM   24  C   UNL     1     -11.437  12.498  67.859  1.00  0.00    -0.369 C  
HETATM   25  H   UNL     1     -12.565  15.151  70.742  1.00  0.00     0.000 HD 
HETATM   26  C   UNL     1     -12.205  11.455  68.840  1.00  0.00    -0.153 C  
HETATM   27  C   UNL     1     -11.276  11.856  66.276  1.00  0.00    -0.337 C  
HETATM   28  O   UNL     1      -9.958  12.178  65.362  1.00  0.00    -0.253 OA 
ENDROOT
BRANCH  27  29
HETATM   29  C   UNL     1     -12.030  12.694  65.240  1.00  0.00    -0.439 C  
HETATM   30  O   UNL     1     -13.266  12.610  65.157  1.00  0.00    -0.646 OA 
BRANCH  29  31
HETATM   31  C   UNL     1     -11.384  13.861  64.506  1.00  0.00    -0.372 C  
HETATM   32  O   UNL     1     -12.260  14.727  63.830  1.00  0.00    -0.953 OA 
HETATM   33  H   UNL     1     -11.857  15.456  63.372  1.00  0.00     0.000 HD 
ENDBRANCH  29  31
ENDBRANCH  27  29
TORSDOF 2
ENDMDL
MODEL        3
REMARK 921   NORMALIZED FREE ENERGY PREDICTED BY IDOCK:   -6.75 KCAL/MOL
REMARK 922        TOTAL FREE ENERGY PREDICTED BY IDOCK:   -8.01 KCAL/MOL
REMARK 923 INTER-LIGAND FREE ENERGY PREDICTED BY IDOCK:   -7.31 KCAL/MOL
REMARK 924 INTRA-LIGAND FREE ENERGY PREDICTED BY IDOCK:   -0.70 KCAL/MOL
REMARK 927      BINDING AFFINITY PREDICTED BY RF-SCORE:    0.00 PKD
ROOT
HETATM    1  C   UNL     1      -9.105   8.609  72.078  1.00  0.00    -0.311 C  
HETATM    2  C   UNL     1      -9.550   8.260  70.654  1.00  0.00    -0.171 C  
HETATM    3  O   UNL     1      -9.071   6.996  70.259  1.00  0.00    -0.155 OA 
HETATM    4  C   UNL     1     -11.100   8.166  70.782  1.00  0.00    -0.275 C  
HETATM    5  C   UNL     1      -8.982   7.075  68.841  1.00  0.00    -0.129 C  
HETATM    6  C   UNL     1     -10.471   7.224  68.083  1.00  0.00    -0.244 C  
HETATM    7  C   UNL     1     -10.380   8.604  67.288  1.00  0.00    -0.366 C  
HETATM    8  C   UNL     1     -11.109  10.097  67.114  1.00  0.00    -0.122 C  
HETATM    9  C   UNL     1     -10.984  10.964  68.441  1.00  0.00    -0.288 C  
HETATM   10  C   UNL     1     -11.059  12.473  68.381  1.00  0.00    -0.258 C  
HETATM   11  F   UNL     1     -12.370  12.828  68.391  1.00  0.00    -0.281 F  
HETATM   12  C   UNL     1     -10.293  13.032  67.188  1.00  0.00    -0.243 C  
HETATM   13  C   UNL     1      -9.692  14.218  67.254  1.00  0.00    -0.234 C  
HETATM   14  C   UNL     1     -10.881  15.126  67.222  1.00  0.00    -0.316 C  
HETATM   15  O   UNL     1     -10.828  16.179  67.835  1.00  0.00    -0.320 OA 
HETATM   16  C   UNL     1     -12.075  14.707  66.329  1.00  0.00    -0.213 C  
HETATM   17  C   UNL     1     -12.143  13.182  65.791  1.00  0.00    -0.502 C  
HETATM   18  C   UNL     1     -10.743  12.489  65.822  1.00  0.00    -0.299 C  
HETATM   19  C   UNL     1     -10.039  13.058  64.563  1.00  0.00    -0.254 C  
HETATM   20  C   UNL     1     -10.409  10.946  66.010  1.00  0.00    -0.304 C  
HETATM   21  C   UNL     1      -9.852   9.978  64.960  1.00  0.00    -0.304 C  
HETATM   22  C   UNL     1      -8.543   9.441  65.645  1.00  0.00    -0.159 C  
HETATM   23  O   UNL     1      -9.601  10.510  63.680  1.00  0.00    -0.273 OA 
HETATM   24  C   UNL     1      -8.907   8.482  66.831  1.00  0.00    -0.153 C  
HETATM   25  H   UNL     1      -9.256   9.910  63.029  1.00  0.00     0.000 HD 
HETATM   26  C   UNL     1      -8.707   7.077  66.042  1.00  0.00    -0.156 C  
HETATM   27  C   UNL     1      -8.305   8.383  68.435  1.00  0.00    -0.131 C  
HETATM   28  O   UNL     1      -9.028   9.188  69.662  1.00  0.00    -0.141 OA 
ENDROOT
BRANCH  27  29
HETATM   29  C   UNL     1      -7.141   9.352  68.668  1.00  0.00    -0.070 C  
HETATM   30  O   UNL     1      -5.997   9.045  68.295  1.00  0.00    -0.041 OA 
BRANCH  29  31
HETATM   31  C   UNL     1      -7.354  10.807  69.058  1.00  0.00    -0.109 C  
HETATM   32  O   UNL     1      -6.894  11.180  70.332  1.00  0.00    -0.490 OA 
HETATM   33  H   UNL     1      -7.027  12.089  70.576  1.00  0.00     0.000 HD 
ENDBRANCH  29  31
ENDBRANCH  27  29
TORSDOF 2
ENDMDL
MODEL        4
REMARK 921   NORMALIZED FREE ENERGY PREDICTED BY IDOCK:   -6.60 KCAL/MOL
REMARK 922        TOTAL FREE ENERGY PREDICTED BY IDOCK:   -7.84 KCAL/MOL
REMARK 923 INTER-LIGAND FREE ENERGY PREDICTED BY IDOCK:   -7.42 KCAL/MOL
REMARK 924 INTRA-LIGAND FREE ENERGY PREDICTED BY IDOCK:   -0.41 KCAL/MOL
REMARK 927      BINDING AFFINITY PREDICTED BY RF-SCORE:    0.00 PKD
ROOT
HETATM    1  C   UNL     1      -8.896   9.983  69.961  1.00  0.00    -0.117 C  
HETATM    2  C   UNL     1      -9.939  10.629  69.042  1.00  0.00    -0.213 C  
HETATM    3  O   UNL     1     -10.505   9.685  68.162  1.00  0.00    -0.199 OA 
HETATM    4  C   UNL     1     -11.049  11.085  70.034  1.00  0.00    -0.236 C  
HETATM    5  C   UNL     1     -10.907  10.447  67.031  1.00  0.00    -0.203 C  
HETATM    6  C   UNL     1     -12.149  11.527  67.357  1.00  0.00     0.358 C  
HETATM    7  C   UNL     1     -11.540  12.958  67.006  1.00  0.00    -0.419 C  
HETATM    8  C   UNL     1     -11.219  14.468  67.644  1.00  0.00    -0.335 C  
HETATM    9  C   UNL     1     -10.126  14.392  68.797  1.00  0.00    -0.234 C  
HETATM   10  C   UNL     1      -9.290  15.604  69.141  1.00  0.00    -0.252 C  
HETATM   11  F   UNL     1     -10.003  16.373  70.005  1.00  0.00    -0.161 F  
HETATM   12  C   UNL     1      -8.840  16.357  67.895  1.00  0.00    -0.184 C  
HETATM   13  C   UNL     1      -7.674  16.997  67.864  1.00  0.00    -0.180 C  
HETATM   14  C   UNL     1      -7.982  18.163  68.749  1.00  0.00    -0.245 C  
HETATM   15  O   UNL     1      -7.087  18.628  69.435  1.00  0.00    -0.215 OA 
HETATM   16  C   UNL     1      -9.406  18.766  68.667  1.00  0.00    -0.392 C  
HETATM   17  C   UNL     1     -10.570  17.908  67.940  1.00  0.00    -0.387 C  
HETATM   18  C   UNL     1      -9.983  16.825  66.978  1.00  0.00    -0.269 C  
HETATM   19  C   UNL     1      -9.595  17.643  65.720  1.00  0.00     0.146 C  
HETATM   20  C   UNL     1     -10.609  15.421  66.572  1.00  0.00    -0.306 C  
HETATM   21  C   UNL     1     -11.178  15.014  65.208  1.00  0.00    -0.367 C  
HETATM   22  C   UNL     1     -10.324  13.746  64.843  1.00  0.00    -0.420 C  
HETATM   23  O   UNL     1     -11.142  15.988  64.191  1.00  0.00    -1.021 OA 
HETATM   24  C   UNL     1     -10.732  12.537  65.755  1.00  0.00    -0.299 C  
HETATM   25  H   UNL     1     -11.495  15.736  63.346  1.00  0.00     0.000 HD 
HETATM   26  C   UNL     1     -11.724  11.797  64.702  1.00  0.00    -0.241 C  
HETATM   27  C   UNL     1      -9.783  11.397  66.618  1.00  0.00    -0.200 C  
HETATM   28  O   UNL     1      -9.366  11.651  68.180  1.00  0.00    -0.175 OA 
ENDROOT
BRANCH  27  29
HETATM   29  C   UNL     1      -8.288  11.568  66.334  1.00  0.00    -0.118 C  
HETATM   30  O   UNL     1      -7.659  12.494  66.871  1.00  0.00    -0.063 OA 
BRANCH  29  31
HETATM   31  C   UNL     1      -7.452  10.483  65.670  1.00  0.00    -0.129 C  
HETATM   32  O   UNL     1      -7.004  10.758  64.367  1.00  0.00    -0.345 OA 
HETATM   33  H   UNL     1      -6.482  10.081  63.952  1.00  0.00     0.000 HD 
ENDBRANCH  29  31
ENDBRANCH  27  29
TORSDOF 2
ENDMDL
MODEL        5
REMARK 921   NORMALIZED FREE ENERGY PREDICTED BY IDOCK:   -6.51 KCAL/MOL
REMARK 922        TOTAL FREE ENERGY PREDICTED BY IDOCK:   -7.73 KCAL/MOL
REMARK 923 INTER-LIGAND FREE ENERGY PREDICTED BY IDOCK:   -7.04 KCAL/MOL
REMARK 924 INTRA-LIGAND FREE ENERGY PREDICTED BY IDOCK:   -0.69 KCAL/MOL
REMARK 927      BINDING AFFINITY PREDICTED BY RF-SCORE:    0.00 PKD
ROOT
HETATM    1  C   UNL     1     -11.127   6.221  68.513  1.00  0.00    -0.397 C  
HETATM    2  C   UNL     1      -9.879   6.985  68.057  1.00  0.00    -0.138 C  
HETATM    3  O   UNL     1      -8.721   6.516  68.708  1.00  0.00    -0.124 OA 
HETATM    4  C   UNL     1      -9.766   6.608  66.550  1.00  0.00    -0.176 C  
HETATM    5  C   UNL     1      -7.838   7.631  68.714  1.00  0.00    -0.120 C  
HETATM    6  C   UNL     1      -7.316   8.080  67.184  1.00  0.00    -0.091 C  
HETATM    7  C   UNL     1      -7.810   9.587  67.018  1.00  0.00    -0.098 C  
HETATM    8  C   UNL     1      -8.734  10.593  66.056  1.00  0.00    -0.186 C  
HETATM    9  C   UNL     1     -10.273  10.196  66.109  1.00  0.00    -0.285 C  
HETATM   10  C   UNL     1     -11.340  11.221  65.796  1.00  0.00     0.092 C  
HETATM   11  F   UNL     1     -11.500  11.260  64.447  1.00  0.00    -0.346 F  
HETATM   12  C   UNL     1     -11.019  12.580  66.404  1.00  0.00    -0.309 C  
HETATM   13  C   UNL     1     -11.988  13.395  66.814  1.00  0.00    -0.447 C  
HETATM   14  C   UNL     1     -12.537  13.846  65.498  1.00  0.00    -0.526 C  
HETATM   15  O   UNL     1     -13.730  14.090  65.415  1.00  0.00    -0.376 OA 
HETATM   16  C   UNL     1     -11.531  14.064  64.341  1.00  0.00    -0.357 C  
HETATM   17  C   UNL     1     -10.039  13.452  64.486  1.00  0.00    -0.220 C  
HETATM   18  C   UNL     1      -9.665  13.172  65.978  1.00  0.00    -0.234 C  
HETATM   19  C   UNL     1      -9.302  14.579  66.521  1.00  0.00    -0.307 C  
HETATM   20  C   UNL     1      -8.680  12.068  66.558  1.00  0.00    -0.138 C  
HETATM   21  C   UNL     1      -7.310  12.290  67.207  1.00  0.00    -0.140 C  
HETATM   22  C   UNL     1      -7.482  11.615  68.616  1.00  0.00    -0.117 C  
HETATM   23  O   UNL     1      -6.866  13.623  67.308  1.00  0.00    -0.359 OA 
HETATM   24  C   UNL     1      -7.537  10.055  68.467  1.00  0.00    -0.087 C  
HETATM   25  H   UNL     1      -6.017  13.761  67.710  1.00  0.00     0.000 HD 
HETATM   26  C   UNL     1      -5.988   9.746  68.846  1.00  0.00    -0.038 C  
HETATM   27  C   UNL     1      -8.589   8.887  69.156  1.00  0.00    -0.134 C  
HETATM   28  O   UNL     1      -9.944   8.403  68.378  1.00  0.00    -0.175 OA 
ENDROOT
BRANCH  27  29
HETATM   29  C   UNL     1      -9.557   9.514  70.164  1.00  0.00    -0.248 C  
HETATM   30  O   UNL     1      -9.240   9.587  71.362  1.00  0.00    -0.224 OA 
BRANCH  29  31
HETATM   31  C   UNL     1     -10.764  10.335  69.735  1.00  0.00    -0.285 C  
HETATM   32  O   UNL     1     -11.999   9.665  69.733  1.00  0.00    -0.450 OA 
HETATM   33  H   UNL     1     -12.753  10.178  69.466  1.00  0.00     0.000 HD 
ENDBRANCH  29  31
ENDBRANCH  27  29
TORSDOF 2
ENDMDL
MODEL        6
REMARK 921   NORMALIZED FREE ENERGY PREDICTED BY IDOCK:   -6.42 KCAL/MOL
REMARK 922        TOTAL FREE ENERGY PREDICTED BY IDOCK:   -7.63 KCAL/MOL
REMARK 923 INTER-LIGAND FREE ENERGY PREDICTED BY IDOCK:   -7.18 KCAL/MOL
REMARK 924 INTRA-LIGAND FREE ENERGY PREDICTED BY IDOCK:   -0.45 KCAL/MOL
REMARK 927      BINDING AFFINITY PREDICTED BY RF-SCORE:    0.00 PKD
ROOT
HETATM    1  C   UNL     1      -5.898  17.179  70.562  1.00  0.00     0.094 C  
HETATM    2  C   UNL     1      -6.296  17.409  69.100  1.00  0.00    -0.234 C  
HETATM    3  O   UNL     1      -6.028  18.731  68.694  1.00  0.00    -0.203 OA 
HETATM    4  C   UNL     1      -5.334  16.464  68.321  1.00  0.00    -0.106 C  
HETATM    5  C   UNL     1      -6.964  18.982  67.654  1.00  0.00    -0.213 C  
HETATM    6  C   UNL     1      -6.708  18.053  66.281  1.00  0.00    -0.282 C  
HETATM    7  C   UNL     1      -8.056  17.222  66.100  1.00  0.00    -0.272 C  
HETATM    8  C   UNL     1      -8.667  15.671  65.987  1.00  0.00    -0.104 C  
HETATM    9  C   UNL     1      -8.466  14.866  67.344  1.00  0.00    -0.212 C  
HETATM   10  C   UNL     1      -9.368  13.701  67.684  1.00  0.00    -0.215 C  
HETATM   11  F   UNL     1      -8.874  12.594  67.072  1.00  0.00    -0.185 F  
HETATM   12  C   UNL     1     -10.823  13.987  67.330  1.00  0.00    -0.288 C  
HETATM   13  C   UNL     1     -11.818  13.474  68.050  1.00  0.00    -0.400 C  
HETATM   14  C   UNL     1     -11.745  12.040  67.628  1.00  0.00    -0.294 C  
HETATM   15  O   UNL     1     -12.042  11.177  68.438  1.00  0.00    -0.605 OA 
HETATM   16  C   UNL     1     -11.385  11.748  66.150  1.00  0.00    -0.342 C  
HETATM   17  C   UNL     1     -10.752  12.939  65.257  1.00  0.00    -0.318 C  
HETATM   18  C   UNL     1     -11.067  14.349  65.855  1.00  0.00    -0.319 C  
HETATM   19  C   UNL     1     -12.533  14.598  65.418  1.00  0.00    -0.163 C  
HETATM   20  C   UNL     1     -10.207  15.682  65.748  1.00  0.00    -0.391 C  
HETATM   21  C   UNL     1     -10.547  16.948  64.956  1.00  0.00     0.024 C  
HETATM   22  C   UNL     1     -10.519  18.065  66.062  1.00  0.00    -0.317 C  
HETATM   23  O   UNL     1     -11.762  16.941  64.241  1.00  0.00    -0.865 OA 
HETATM   24  C   UNL     1      -9.043  18.337  66.519  1.00  0.00    -0.291 C  
HETATM   25  H   UNL     1     -11.973  17.726  63.750  1.00  0.00     0.000 HD 
HETATM   26  C   UNL     1      -8.775  19.657  65.610  1.00  0.00     0.260 C  
HETATM   27  C   UNL     1      -8.354  18.510  68.081  1.00  0.00    -0.296 C  
HETATM   28  O   UNL     1      -7.722  17.227  68.875  1.00  0.00    -0.258 OA 
ENDROOT
BRANCH  27  29
HETATM   29  C   UNL     1      -9.421  18.490  69.181  1.00  0.00    -0.054 C  
HETATM   30  O   UNL     1      -9.974  19.547  69.525  1.00  0.00    -0.320 OA 
BRANCH  29  31
HETATM   31  C   UNL     1     -10.067  17.202  69.669  1.00  0.00     0.098 C  
HETATM   32  O   UNL     1     -11.054  17.341  70.659  1.00  0.00    -0.109 OA 
HETATM   33  H   UNL     1     -11.459  16.537  70.963  1.00  0.00     0.000 HD 
ENDBRANCH  29  31
ENDBRANCH  27  29
TORSDOF 2
ENDMDL
MODEL        7
REMARK 921   NORMALIZED FREE ENERGY PREDICTED BY IDOCK:   -6.37 KCAL/MOL
REMARK 922        TOTAL FREE ENERGY PREDICTED BY IDOCK:   -7.58 KCAL/MOL
REMARK 923 INTER-LIGAND FREE ENERGY PREDICTED BY IDOCK:   -6.97 KCAL/MOL
REMARK 924 INTRA-LIGAND FREE ENERGY PREDICTED BY IDOCK:   -0.61 KCAL/MOL
REMARK 927      BINDING AFFINITY PREDICTED BY RF-SCORE:    0.00 PKD
ROOT
HETATM    1  C   UNL     1      -8.764  14.720  69.310  1.00  0.00    -0.026 C  
HETATM    2  C   UNL     1      -8.490  13.514  68.404  1.00  0.00    -0.143 C  
HETATM    3  O   UNL     1      -8.469  13.885  67.045  1.00  0.00    -0.199 OA 
HETATM    4  C   UNL     1      -7.046  13.091  68.807  1.00  0.00    -0.097 C  
HETATM    5  C   UNL     1      -8.847  12.704  66.347  1.00  0.00     0.016 C  
HETATM    6  C   UNL     1      -7.725  11.464  66.470  1.00  0.00    -0.093 C  
HETATM    7  C   UNL     1      -8.524  10.264  67.151  1.00  0.00    -0.125 C  
HETATM    8  C   UNL     1      -8.523   9.233  68.465  1.00  0.00    -0.123 C  
HETATM    9  C   UNL     1      -8.744  10.025  69.826  1.00  0.00    -0.198 C  
HETATM   10  C   UNL     1      -9.312   9.322  71.039  1.00  0.00    -0.227 C  
HETATM   11  F   UNL     1      -8.288   8.703  71.682  1.00  0.00    -0.157 F  
HETATM   12  C   UNL     1     -10.449   8.379  70.668  1.00  0.00    -0.227 C  
HETATM   13  C   UNL     1     -11.462   8.163  71.504  1.00  0.00    -0.310 C  
HETATM   14  C   UNL     1     -10.783   7.324  72.540  1.00  0.00    -0.262 C  
HETATM   15  O   UNL     1     -11.150   7.418  73.700  1.00  0.00    -0.258 OA 
HETATM   16  C   UNL     1      -9.714   6.315  72.053  1.00  0.00    -0.164 C  
HETATM   17  C   UNL     1      -9.124   6.473  70.554  1.00  0.00    -0.152 C  
HETATM   18  C   UNL     1     -10.080   7.301  69.635  1.00  0.00    -0.195 C  
HETATM   19  C   UNL     1     -11.179   6.275  69.255  1.00  0.00    -0.458 C  
HETATM   20  C   UNL     1      -9.705   8.219  68.393  1.00  0.00    -0.170 C  
HETATM   21  C   UNL     1      -9.999   7.950  66.913  1.00  0.00    -0.262 C  
HETATM   22  C   UNL     1     -10.815   9.224  66.486  1.00  0.00     0.177 C  
HETATM   23  O   UNL     1     -10.683   6.756  66.611  1.00  0.00    -0.492 OA 
HETATM   24  C   UNL     1      -9.872  10.475  66.422  1.00  0.00    -0.260 C  
HETATM   25  H   UNL     1     -10.865   6.589  65.693  1.00  0.00     0.000 HD 
HETATM   26  C   UNL     1      -9.619  10.473  64.818  1.00  0.00    -0.342 C  
HETATM   27  C   UNL     1     -10.068  12.073  67.017  1.00  0.00    -0.203 C  
HETATM   28  O   UNL     1      -9.525  12.496  68.501  1.00  0.00    -0.187 OA 
ENDROOT
BRANCH  27  29
HETATM   29  C   UNL     1     -11.461  12.293  67.614  1.00  0.00    -0.336 C  
HETATM   30  O   UNL     1     -12.396  12.655  66.883  1.00  0.00    -0.430 OA 
BRANCH  29  31
HETATM   31  C   UNL     1     -11.843  11.799  69.002  1.00  0.00    -0.317 C  
HETATM   32  O   UNL     1     -12.641  10.643  69.049  1.00  0.00    -0.746 OA 
HETATM   33  H   UNL     1     -12.879  10.334  69.915  1.00  0.00     0.000 HD 
ENDBRANCH  29  31
ENDBRANCH  27  29
TORSDOF 2
ENDMDL
MODEL        8
REMARK 921   NORMALIZED FREE ENERGY PREDICTED BY IDOCK:   -6.28 KCAL/MOL
REMARK 922        TOTAL FREE ENERGY PREDICTED BY IDOCK:   -7.48 KCAL/MOL
REMARK 923 INTER-LIGAND FREE ENERGY PREDICTED BY IDOCK:   -6.89 KCAL/MOL
REMARK 924 INTRA-LIGAND FREE ENERGY PREDICTED BY IDOCK:   -0.60 KCAL/MOL
REMARK 927      BINDING AFFINITY PREDICTED BY RF-SCORE:    0.00 PKD
ROOT
HETATM    1  C   UNL     1      -7.652  19.221  66.034  1.00  0.00    -0.290 C  
HETATM    2  C   UNL     1      -8.838  18.672  66.835  1.00  0.00    -0.287 C  
HETATM    3  O   UNL     1      -8.897  19.241  68.122  1.00  0.00    -0.308 OA 
HETATM    4  C   UNL     1     -10.071  19.177  66.030  1.00  0.00    -0.437 C  
HETATM    5  C   UNL     1      -9.552  18.260  68.917  1.00  0.00    -0.250 C  
HETATM    6  C   UNL     1     -11.153  18.007  68.485  1.00  0.00     0.530 C  
HETATM    7  C   UNL     1     -11.223  16.464  68.087  1.00  0.00    -0.273 C  
HETATM    8  C   UNL     1     -11.624  15.421  66.845  1.00  0.00     0.019 C  
HETATM    9  C   UNL     1     -10.653  15.600  65.599  1.00  0.00    -0.393 C  
HETATM   10  C   UNL     1     -10.449  14.468  64.617  1.00  0.00    -0.210 C  
HETATM   11  F   UNL     1     -11.458  14.513  63.710  1.00  0.00    -0.104 F  
HETATM   12  C   UNL     1     -10.330  13.121  65.320  1.00  0.00    -0.319 C  
HETATM   13  C   UNL     1      -9.564  12.153  64.823  1.00  0.00     0.026 C  
HETATM   14  C   UNL     1     -10.387  11.736  63.644  1.00  0.00    -0.434 C  
HETATM   15  O   UNL     1      -9.813  11.339  62.643  1.00  0.00    -0.242 OA 
HETATM   16  C   UNL     1     -11.927  11.748  63.808  1.00  0.00    -0.468 C  
HETATM   17  C   UNL     1     -12.567  12.543  65.064  1.00  0.00    -0.424 C  
HETATM   18  C   UNL     1     -11.527  12.753  66.213  1.00  0.00    -0.405 C  
HETATM   19  C   UNL     1     -11.493  11.371  66.915  1.00  0.00    -0.198 C  
HETATM   20  C   UNL     1     -11.456  13.932  67.277  1.00  0.00    -0.369 C  
HETATM   21  C   UNL     1     -11.737  13.848  68.781  1.00  0.00    -0.357 C  
HETATM   22  C   UNL     1     -10.400  14.381  69.412  1.00  0.00    -0.047 C  
HETATM   23  O   UNL     1     -12.096  12.584  69.288  1.00  0.00    -0.256 OA 
HETATM   24  C   UNL     1     -10.268  15.926  69.178  1.00  0.00    -0.234 C  
HETATM   25  H   UNL     1     -12.271  12.532  70.220  1.00  0.00     0.000 HD 
HETATM   26  C   UNL     1     -10.793  16.411  70.636  1.00  0.00     0.021 C  
HETATM   27  C   UNL     1      -8.946  16.883  68.645  1.00  0.00    -0.266 C  
HETATM   28  O   UNL     1      -8.742  17.238  67.061  1.00  0.00    -0.218 OA 
ENDROOT
BRANCH  27  29
HETATM   29  C   UNL     1      -7.669  16.052  68.482  1.00  0.00    -0.158 C  
HETATM   30  O   UNL     1      -6.900  15.906  69.446  1.00  0.00    -0.179 OA 
BRANCH  29  31
HETATM   31  C   UNL     1      -7.437  15.136  67.290  1.00  0.00    -0.194 C  
HETATM   32  O   UNL     1      -7.553  13.758  67.536  1.00  0.00    -0.163 OA 
HETATM   33  H   UNL     1      -7.409  13.186  66.791  1.00  0.00     0.000 HD 
ENDBRANCH  29  31
ENDBRANCH  27  29
TORSDOF 2
ENDMDL
MODEL        9
REMARK 921   NORMALIZED FREE ENERGY PREDICTED BY IDOCK:   -6.25 KCAL/MOL
REMARK 922        TOTAL FREE ENERGY PREDICTED BY IDOCK:   -7.45 KCAL/MOL
REMARK 923 INTER-LIGAND FREE ENERGY PREDICTED BY IDOCK:   -6.95 KCAL/MOL
REMARK 924 INTRA-LIGAND FREE ENERGY PREDICTED BY IDOCK:   -0.50 KCAL/MOL
REMARK 927      BINDING AFFINITY PREDICTED BY RF-SCORE:    0.00 PKD
ROOT
HETATM    1  C   UNL     1      -9.968  20.553  65.492  1.00  0.00     0.267 C  
HETATM    2  C   UNL     1      -9.478  19.936  66.806  1.00  0.00    -0.395 C  
HETATM    3  O   UNL     1      -8.430  20.690  67.370  1.00  0.00    -0.334 OA 
HETATM    4  C   UNL     1     -10.717  20.065  67.740  1.00  0.00    -0.295 C  
HETATM    5  C   UNL     1      -7.686  19.750  68.136  1.00  0.00    -0.301 C  
HETATM    6  C   UNL     1      -8.530  19.139  69.451  1.00  0.00     0.128 C  
HETATM    7  C   UNL     1      -8.584  17.566  69.197  1.00  0.00     0.099 C  
HETATM    8  C   UNL     1      -9.631  16.275  69.022  1.00  0.00    -0.257 C  
HETATM    9  C   UNL     1     -10.519  16.421  67.711  1.00  0.00    -0.300 C  
HETATM   10  C   UNL     1     -11.117  15.199  67.051  1.00  0.00    -0.328 C  
HETATM   11  F   UNL     1     -12.281  14.906  67.687  1.00  0.00    -0.340 F  
HETATM   12  C   UNL     1     -10.137  14.032  67.022  1.00  0.00    -0.255 C  
HETATM   13  C   UNL     1     -10.147  13.153  66.023  1.00  0.00    -0.286 C  
HETATM   14  C   UNL     1     -11.403  12.402  66.337  1.00  0.00    -0.342 C  
HETATM   15  O   UNL     1     -12.064  11.958  65.413  1.00  0.00    -0.382 OA 
HETATM   16  C   UNL     1     -11.735  12.158  67.829  1.00  0.00    -0.390 C  
HETATM   17  C   UNL     1     -10.946  13.019  68.950  1.00  0.00    -0.271 C  
HETATM   18  C   UNL     1      -9.605  13.604  68.399  1.00  0.00    -0.203 C  
HETATM   19  C   UNL     1      -8.645  12.388  68.444  1.00  0.00    -0.129 C  
HETATM   20  C   UNL     1      -8.856  14.935  68.837  1.00  0.00    -0.184 C  
HETATM   21  C   UNL     1      -7.534  15.052  69.604  1.00  0.00    -0.161 C  
HETATM   22  C   UNL     1      -6.649  15.919  68.636  1.00  0.00    -0.118 C  
HETATM   23  O   UNL     1      -6.902  13.845  69.962  1.00  0.00    -0.360 OA 
HETATM   24  C   UNL     1      -7.160  17.401  68.616  1.00  0.00    -0.237 C  
HETATM   25  H   UNL     1      -6.083  13.917  70.438  1.00  0.00     0.000 HD 
HETATM   26  C   UNL     1      -6.081  18.017  69.663  1.00  0.00    -0.233 C  
HETATM   27  C   UNL     1      -7.449  18.483  67.315  1.00  0.00    -0.218 C  
HETATM   28  O   UNL     1      -8.927  18.602  66.625  1.00  0.00    -0.288 OA 
ENDROOT
BRANCH  27  29
HETATM   29  C   UNL     1      -7.020  17.886  65.971  1.00  0.00    -0.311 C  
HETATM   30  O   UNL     1      -7.687  16.973  65.459  1.00  0.00    -0.023 OA 
BRANCH  29  31
HETATM   31  C   UNL     1      -5.993  18.556  65.070  1.00  0.00    -0.211 C  
HETATM   32  O   UNL     1      -6.367  19.792  64.517  1.00  0.00    -0.291 OA 
HETATM   33  H   UNL     1      -5.725  20.211  63.955  1.00  0.00     0.000 HD 
ENDBRANCH  29  31
ENDBRANCH  27  29
TORSDOF 2
ENDMDL
MODEL       10
REMARK 921   NORMALIZED FREE ENERGY PREDICTED BY IDOCK:   -6.21 KCAL/MOL
REMARK 922        TOTAL FREE ENERGY PREDICTED BY IDOCK:   -7.40 KCAL/MOL
REMARK 923 INTER-LIGAND FREE ENERGY PREDICTED BY IDOCK:   -6.75 KCAL/MOL
REMARK 924 INTRA-LIGAND FREE ENERGY PREDICTED BY IDOCK:   -0.65 KCAL/MOL
REMARK 927      BINDING AFFINITY PREDICTED BY RF-SCORE:    0.00 PKD
ROOT
HETATM    1  C   UNL     1     -10.552   8.199  72.744  1.00  0.00    -0.386 C  
HETATM    2  C   UNL     1     -10.634   7.516  71.375  1.00  0.00    -0.210 C  
HETATM    3  O   UNL     1     -10.298   6.151  71.458  1.00  0.00    -0.200 OA 
HETATM    4  C   UNL     1     -12.148   7.616  71.022  1.00  0.00    -0.282 C  
HETATM    5  C   UNL     1      -9.802   5.825  70.166  1.00  0.00    -0.184 C  
HETATM    6  C   UNL     1     -10.966   5.906  68.961  1.00  0.00    -0.359 C  
HETATM    7  C   UNL     1     -10.410   6.996  67.938  1.00  0.00    -0.247 C  
HETATM    8  C   UNL     1     -10.781   8.447  67.198  1.00  0.00    -0.222 C  
HETATM    9  C   UNL     1     -10.880   9.631  68.256  1.00  0.00    -0.230 C  
HETATM   10  C   UNL     1     -10.664  11.064  67.825  1.00  0.00    -0.227 C  
HETATM   11  F   UNL     1     -11.839  11.537  67.335  1.00  0.00    -0.346 F  
HETATM   12  C   UNL     1      -9.506  11.193  66.842  1.00  0.00    -0.203 C  
HETATM   13  C   UNL     1      -8.745  12.285  66.817  1.00  0.00    -0.175 C  
HETATM   14  C   UNL     1      -9.695  13.261  66.198  1.00  0.00    -0.250 C  
HETATM   15  O   UNL     1      -9.629  14.432  66.533  1.00  0.00    -0.269 OA 
HETATM   16  C   UNL     1     -10.645  12.733  65.095  1.00  0.00    -0.324 C  
HETATM   17  C   UNL     1     -10.832  11.133  64.934  1.00  0.00    -0.261 C  
HETATM   18  C   UNL     1      -9.644  10.340  65.570  1.00  0.00    -0.299 C  
HETATM   19  C   UNL     1      -8.525  10.466  64.504  1.00  0.00    -0.172 C  
HETATM   20  C   UNL     1      -9.659   8.884  66.208  1.00  0.00    -0.328 C  
HETATM   21  C   UNL     1      -9.012   7.614  65.646  1.00  0.00     0.008 C  
HETATM   22  C   UNL     1      -8.067   7.160  66.817  1.00  0.00    -0.113 C  
HETATM   23  O   UNL     1      -8.320   7.742  64.425  1.00  0.00    -0.332 OA 
HETATM   24  C   UNL     1      -8.915   6.607  68.015  1.00  0.00    -0.117 C  
HETATM   25  H   UNL     1      -7.920   6.955  64.076  1.00  0.00     0.000 HD 
HETATM   26  C   UNL     1      -8.756   5.025  67.680  1.00  0.00    -0.103 C  
HETATM   27  C   UNL     1      -8.815   6.897  69.703  1.00  0.00    -0.141 C  
HETATM   28  O   UNL     1      -9.697   8.077  70.414  1.00  0.00    -0.177 OA 
ENDROOT
BRANCH  27  29
HETATM   29  C   UNL     1      -7.609   7.771  70.062  1.00  0.00    -0.085 C  
HETATM   30  O   UNL     1      -6.545   7.241  70.420  1.00  0.00    -0.045 OA 
BRANCH  29  31
HETATM   31  C   UNL     1      -7.540   9.251  69.712  1.00  0.00    -0.082 C  
HETATM   32  O   UNL     1      -7.663  10.147  70.787  1.00  0.00    -0.393 OA 
HETATM   33  H   UNL     1      -7.619  11.071  70.568  1.00  0.00     0.000 HD 
ENDBRANCH  29  31
ENDBRANCH  27  29
TORSDOF 2
ENDMDL
MODEL       11
REMARK 921   NORMALIZED FREE ENERGY PREDICTED BY IDOCK:   -6.18 KCAL/MOL
REMARK 922        TOTAL FREE ENERGY PREDICTED BY IDOCK:   -7.37 KCAL/MOL
REMARK 923 INTER-LIGAND FREE ENERGY PREDICTED BY IDOCK:   -6.78 KCAL/MOL
REMARK 924 INTRA-LIGAND FREE ENERGY PREDICTED BY IDOCK:   -0.58 KCAL/MOL
REMARK 927      BINDING AFFINITY PREDICTED BY RF-SCORE:    0.00 PKD
ROOT
HETATM    1  C   UNL     1      -9.084   8.151  72.934  1.00  0.00    -0.337 C  
HETATM    2  C   UNL     1      -9.598   7.763  71.543  1.00  0.00    -0.155 C  
HETATM    3  O   UNL     1      -9.238   6.443  71.210  1.00  0.00    -0.155 OA 
HETATM    4  C   UNL     1     -11.145   7.810  71.713  1.00  0.00    -0.287 C  
HETATM    5  C   UNL     1      -9.183   6.435  69.789  1.00  0.00    -0.144 C  
HETATM    6  C   UNL     1     -10.675   6.670  69.058  1.00  0.00    -0.299 C  
HETATM    7  C   UNL     1     -10.491   7.990  68.184  1.00  0.00    -0.222 C  
HETATM    8  C   UNL     1     -11.097   9.528  67.941  1.00  0.00    -0.053 C  
HETATM    9  C   UNL     1     -10.861  10.453  69.213  1.00  0.00    -0.280 C  
HETATM   10  C   UNL     1     -10.810  11.958  69.068  1.00  0.00    -0.190 C  
HETATM   11  F   UNL     1     -12.086  12.424  69.089  1.00  0.00    -0.317 F  
HETATM   12  C   UNL     1     -10.034  12.382  67.827  1.00  0.00    -0.205 C  
HETATM   13  C   UNL     1      -9.334  13.514  67.810  1.00  0.00    -0.213 C  
HETATM   14  C   UNL     1     -10.442  14.517  67.754  1.00  0.00    -0.242 C  
HETATM   15  O   UNL     1     -10.284  15.595  68.304  1.00  0.00    -0.219 OA 
HETATM   16  C   UNL     1     -11.692  14.154  66.915  1.00  0.00    -0.437 C  
HETATM   17  C   UNL     1     -11.904  12.613  66.468  1.00  0.00    -0.463 C  
HETATM   18  C   UNL     1     -10.567  11.805  66.505  1.00  0.00    -0.289 C  
HETATM   19  C   UNL     1      -9.853  12.242  65.200  1.00  0.00    -0.178 C  
HETATM   20  C   UNL     1     -10.359  10.252  66.774  1.00  0.00    -0.288 C  
HETATM   21  C   UNL     1      -9.916   9.184  65.769  1.00  0.00    -0.075 C  
HETATM   22  C   UNL     1      -8.638   8.575  66.452  1.00  0.00    -0.136 C  
HETATM   23  O   UNL     1      -9.657   9.620  64.454  1.00  0.00    -0.428 OA 
HETATM   24  C   UNL     1      -9.047   7.718  67.700  1.00  0.00    -0.138 C  
HETATM   25  H   UNL     1      -9.382   8.958  63.831  1.00  0.00     0.000 HD 
HETATM   26  C   UNL     1      -8.989   6.259  66.988  1.00  0.00    -0.115 C  
HETATM   27  C   UNL     1      -8.410   7.657  69.292  1.00  0.00    -0.134 C  
HETATM   28  O   UNL     1      -9.027   8.587  70.488  1.00  0.00    -0.141 OA 
ENDROOT
BRANCH  27  29
HETATM   29  C   UNL     1      -7.162   8.533  69.441  1.00  0.00    -0.062 C  
HETATM   30  O   UNL     1      -6.036   8.012  69.424  1.00  0.00    -0.032 OA 
BRANCH  29  31
HETATM   31  C   UNL     1      -7.206  10.048  69.303  1.00  0.00    -0.078 C  
HETATM   32  O   UNL     1      -7.078  10.782  70.494  1.00  0.00    -0.471 OA 
HETATM   33  H   UNL     1      -7.105  11.728  70.407  1.00  0.00     0.000 HD 
ENDBRANCH  29  31
ENDBRANCH  27  29
TORSDOF 2
ENDMDL
MODEL       12
REMARK 921   NORMALIZED FREE ENERGY PREDICTED BY IDOCK:   -6.16 KCAL/MOL
REMARK 922        TOTAL FREE ENERGY PREDICTED BY IDOCK:   -7.35 KCAL/MOL
REMARK 923 INTER-LIGAND FREE ENERGY PREDICTED BY IDOCK:   -6.91 KCAL/MOL
REMARK 924 INTRA-LIGAND FREE ENERGY PREDICTED BY IDOCK:   -0.44 KCAL/MOL
REMARK 927      BINDING AFFINITY PREDICTED BY RF-SCORE:    0.00 PKD
ROOT
HETATM    1  C   UNL     1      -9.502  20.773  67.287  1.00  0.00    -0.467 C  
HETATM    2  C   UNL     1      -8.836  19.662  68.107  1.00  0.00    -0.320 C  
HETATM    3  O   UNL     1      -7.602  20.083  68.639  1.00  0.00    -0.252 OA 
HETATM    4  C   UNL     1      -9.825  19.459  69.293  1.00  0.00    -0.330 C  
HETATM    5  C   UNL     1      -6.849  18.886  68.786  1.00  0.00    -0.283 C  
HETATM    6  C   UNL     1      -7.475  17.836  69.935  1.00  0.00     1.058 C  
HETATM    7  C   UNL     1      -7.794  16.499  69.126  1.00  0.00    -0.192 C  
HETATM    8  C   UNL     1      -9.018  15.431  68.737  1.00  0.00    -0.196 C  
HETATM    9  C   UNL     1     -10.132  16.125  67.839  1.00  0.00    -0.244 C  
HETATM   10  C   UNL     1     -11.014  15.295  66.933  1.00  0.00    -0.315 C  
HETATM   11  F   UNL     1     -12.049  14.822  67.674  1.00  0.00    -0.377 F  
HETATM   12  C   UNL     1     -10.228  14.198  66.226  1.00  0.00    -0.301 C  
HETATM   13  C   UNL     1     -10.564  13.791  65.004  1.00  0.00    -0.402 C  
HETATM   14  C   UNL     1     -11.817  13.032  65.307  1.00  0.00    -0.376 C  
HETATM   15  O   UNL     1     -12.709  13.021  64.475  1.00  0.00    -0.656 OA 
HETATM   16  C   UNL     1     -11.861  12.225  66.628  1.00  0.00    -0.362 C  
HETATM   17  C   UNL     1     -10.747  12.533  67.762  1.00  0.00    -0.242 C  
HETATM   18  C   UNL     1      -9.484  13.232  67.164  1.00  0.00    -0.240 C  
HETATM   19  C   UNL     1      -8.708  12.061  66.508  1.00  0.00    -0.138 C  
HETATM   20  C   UNL     1      -8.487  14.245  67.875  1.00  0.00    -0.168 C  
HETATM   21  C   UNL     1      -7.031  13.990  68.281  1.00  0.00    -0.107 C  
HETATM   22  C   UNL     1      -6.258  15.134  67.529  1.00  0.00    -0.079 C  
HETATM   23  O   UNL     1      -6.507  12.715  67.990  1.00  0.00    -0.071 OA 
HETATM   24  C   UNL     1      -6.557  16.520  68.197  1.00  0.00    -0.145 C  
HETATM   25  H   UNL     1      -5.605  12.557  68.241  1.00  0.00     0.000 HD 
HETATM   26  C   UNL     1      -5.211  16.621  69.100  1.00  0.00    -0.128 C  
HETATM   27  C   UNL     1      -6.961  18.043  67.515  1.00  0.00    -0.192 C  
HETATM   28  O   UNL     1      -8.521  18.490  67.305  1.00  0.00    -0.253 OA 
ENDROOT
BRANCH  27  29
HETATM   29  C   UNL     1      -6.906  18.016  65.985  1.00  0.00    -0.297 C  
HETATM   30  O   UNL     1      -7.899  17.648  65.337  1.00  0.00    -0.142 OA 
BRANCH  29  31
HETATM   31  C   UNL     1      -5.804  18.707  65.194  1.00  0.00    -0.253 C  
HETATM   32  O   UNL     1      -6.137  19.107  63.889  1.00  0.00    -0.441 OA 
HETATM   33  H   UNL     1      -5.449  19.539  63.395  1.00  0.00     0.000 HD 
ENDBRANCH  29  31
ENDBRANCH  27  29
TORSDOF 2
ENDMDL
MODEL       13
REMARK 921   NORMALIZED FREE ENERGY PREDICTED BY IDOCK:   -6.12 KCAL/MOL
REMARK 922        TOTAL FREE ENERGY PREDICTED BY IDOCK:   -7.30 KCAL/MOL
REMARK 923 INTER-LIGAND FREE ENERGY PREDICTED BY IDOCK:   -6.84 KCAL/MOL
REMARK 924 INTRA-LIGAND FREE ENERGY PREDICTED BY IDOCK:   -0.46 KCAL/MOL
REMARK 927      BINDING AFFINITY PREDICTED BY RF-SCORE:    0.00 PKD
ROOT
HETATM    1  C   UNL     1      -7.031   5.546  67.891  1.00  0.00    -0.066 C  
HETATM    2  C   UNL     1      -7.435   6.662  68.861  1.00  0.00    -0.096 C  
HETATM    3  O   UNL     1      -7.670   6.159  70.155  1.00  0.00    -0.093 OA 
HETATM    4  C   UNL     1      -6.162   7.556  68.919  1.00  0.00    -0.035 C  
HETATM    5  C   UNL     1      -8.596   7.072  70.731  1.00  0.00    -0.143 C  
HETATM    6  C   UNL     1      -7.961   8.605  70.976  1.00  0.00    -0.153 C  
HETATM    7  C   UNL     1      -8.891   9.569  70.111  1.00  0.00    -0.266 C  
HETATM    8  C   UNL     1      -8.868  10.697  68.878  1.00  0.00    -0.160 C  
HETATM    9  C   UNL     1      -8.426  10.041  67.498  1.00  0.00    -0.118 C  
HETATM   10  C   UNL     1      -8.835  10.671  66.185  1.00  0.00    -0.168 C  
HETATM   11  F   UNL     1      -7.939  11.649  65.892  1.00  0.00    -0.015 F  
HETATM   12  C   UNL     1     -10.276  11.164  66.216  1.00  0.00    -0.286 C  
HETATM   13  C   UNL     1     -11.029  11.151  65.119  1.00  0.00    -0.156 C  
HETATM   14  C   UNL     1     -10.408  12.276  64.352  1.00  0.00    -0.331 C  
HETATM   15  O   UNL     1     -10.386  12.210  63.134  1.00  0.00    -0.389 OA 
HETATM   16  C   UNL     1      -9.913  13.502  65.158  1.00  0.00    -0.201 C  
HETATM   17  C   UNL     1      -9.745  13.359  66.761  1.00  0.00    -0.262 C  
HETATM   18  C   UNL     1     -10.588  12.174  67.333  1.00  0.00    -0.253 C  
HETATM   19  C   UNL     1     -12.024  12.755  67.386  1.00  0.00    -0.335 C  
HETATM   20  C   UNL     1     -10.290  11.278  68.612  1.00  0.00    -0.217 C  
HETATM   21  C   UNL     1     -11.054  11.266  69.940  1.00  0.00    -0.109 C  
HETATM   22  C   UNL     1     -11.486   9.761  70.077  1.00  0.00    -0.232 C  
HETATM   23  O   UNL     1     -12.150  12.144  70.047  1.00  0.00    -0.313 OA 
HETATM   24  C   UNL     1     -10.239   8.866  70.396  1.00  0.00    -0.236 C  
HETATM   25  H   UNL     1     -12.624  12.137  70.870  1.00  0.00     0.000 HD 
HETATM   26  C   UNL     1     -10.456   8.757  72.002  1.00  0.00    -0.414 C  
HETATM   27  C   UNL     1      -9.720   7.368  69.738  1.00  0.00    -0.170 C  
HETATM   28  O   UNL     1      -8.679   7.312  68.477  1.00  0.00    -0.124 OA 
ENDROOT
BRANCH  27  29
HETATM   29  C   UNL     1     -10.738   6.798  68.745  1.00  0.00    -0.239 C  
HETATM   30  O   UNL     1     -11.755   6.222  69.164  1.00  0.00    -0.201 OA 
BRANCH  29  31
HETATM   31  C   UNL     1     -10.731   7.163  67.268  1.00  0.00    -0.329 C  
HETATM   32  O   UNL     1     -11.194   6.173  66.384  1.00  0.00    -0.725 OA 
HETATM   33  H   UNL     1     -11.190   6.401  65.461  1.00  0.00     0.000 HD 
ENDBRANCH  29  31
ENDBRANCH  27  29
TORSDOF 2
ENDMDL
MODEL       14
REMARK 921   NORMALIZED FREE ENERGY PREDICTED BY IDOCK:   -6.05 KCAL/MOL
REMARK 922        TOTAL FREE ENERGY PREDICTED BY IDOCK:   -7.22 KCAL/MOL
REMARK 923 INTER-LIGAND FREE ENERGY PREDICTED BY IDOCK:   -6.78 KCAL/MOL
REMARK 924 INTRA-LIGAND FREE ENERGY PREDICTED BY IDOCK:   -0.44 KCAL/MOL
REMARK 927      BINDING AFFINITY PREDICTED BY RF-SCORE:    0.00 PKD
ROOT
HETATM    1  C   UNL     1     -11.401   6.372  69.541  1.00  0.00    -0.460 C  
HETATM    2  C   UNL     1     -10.326   6.867  68.567  1.00  0.00    -0.186 C  
HETATM    3  O   UNL     1      -9.212   6.007  68.548  1.00  0.00    -0.116 OA 
HETATM    4  C   UNL     1     -11.033   6.766  67.183  1.00  0.00    -0.458 C  
HETATM    5  C   UNL     1      -8.123   6.840  68.169  1.00  0.00    -0.115 C  
HETATM    6  C   UNL     1      -8.240   7.424  66.601  1.00  0.00    -0.125 C  
HETATM    7  C   UNL     1      -8.257   9.010  66.763  1.00  0.00    -0.115 C  
HETATM    8  C   UNL     1      -9.150  10.380  66.420  1.00  0.00    -0.177 C  
HETATM    9  C   UNL     1     -10.534  10.382  67.202  1.00  0.00    -0.311 C  
HETATM   10  C   UNL     1     -11.247  11.683  67.495  1.00  0.00    -0.293 C  
HETATM   11  F   UNL     1     -11.979  12.016  66.400  1.00  0.00    -0.418 F  
HETATM   12  C   UNL     1     -10.278  12.777  67.927  1.00  0.00    -0.229 C  
HETATM   13  C   UNL     1     -10.647  13.717  68.793  1.00  0.00    -0.253 C  
HETATM   14  C   UNL     1     -11.562  14.533  67.934  1.00  0.00    -0.344 C  
HETATM   15  O   UNL     1     -12.518  15.081  68.456  1.00  0.00     0.038 OA 
HETATM   16  C   UNL     1     -11.177  14.704  66.444  1.00  0.00    -0.336 C  
HETATM   17  C   UNL     1     -10.057  13.719  65.814  1.00  0.00    -0.322 C  
HETATM   18  C   UNL     1      -9.156  13.077  66.919  1.00  0.00    -0.227 C  
HETATM   19  C   UNL     1      -8.168  14.217  67.275  1.00  0.00    -0.212 C  
HETATM   20  C   UNL     1      -8.416  11.671  66.896  1.00  0.00    -0.168 C  
HETATM   21  C   UNL     1      -6.909  11.412  66.801  1.00  0.00    -0.132 C  
HETATM   22  C   UNL     1      -6.625  10.549  68.083  1.00  0.00    -0.063 C  
HETATM   23  O   UNL     1      -6.076  12.546  66.730  1.00  0.00    -0.493 OA 
HETATM   24  C   UNL     1      -7.227   9.111  67.913  1.00  0.00    -0.080 C  
HETATM   25  H   UNL     1      -5.141  12.386  66.671  1.00  0.00     0.000 HD 
HETATM   26  C   UNL     1      -5.858   8.355  67.472  1.00  0.00    -0.043 C  
HETATM   27  C   UNL     1      -8.157   8.138  68.977  1.00  0.00    -0.115 C  
HETATM   28  O   UNL     1      -9.793   8.168  68.940  1.00  0.00    -0.168 OA 
ENDROOT
BRANCH  27  29
HETATM   29  C   UNL     1      -8.313   8.788  70.355  1.00  0.00    -0.140 C  
HETATM   30  O   UNL     1      -9.313   9.480  70.603  1.00  0.00    -0.254 OA 
BRANCH  29  31
HETATM   31  C   UNL     1      -7.461   8.384  71.550  1.00  0.00    -0.098 C  
HETATM   32  O   UNL     1      -8.026   8.606  72.817  1.00  0.00    -0.370 OA 
HETATM   33  H   UNL     1      -7.495   8.354  73.563  1.00  0.00     0.000 HD 
ENDBRANCH  29  31
ENDBRANCH  27  29
TORSDOF 2
ENDMDL
MODEL       15
REMARK 921   NORMALIZED FREE ENERGY PREDICTED BY IDOCK:   -6.01 KCAL/MOL
REMARK 922        TOTAL FREE ENERGY PREDICTED BY IDOCK:   -7.18 KCAL/MOL
REMARK 923 INTER-LIGAND FREE ENERGY PREDICTED BY IDOCK:   -6.51 KCAL/MOL
REMARK 924 INTRA-LIGAND FREE ENERGY PREDICTED BY IDOCK:   -0.67 KCAL/MOL
REMARK 927      BINDING AFFINITY PREDICTED BY RF-SCORE:    0.00 PKD
ROOT
HETATM    1  C   UNL     1     -12.624   9.839  71.320  1.00  0.00    -0.460 C  
HETATM    2  C   UNL     1     -12.147   8.427  71.680  1.00  0.00    -0.313 C  
HETATM    3  O   UNL     1     -11.999   8.273  73.072  1.00  0.00    -0.265 OA 
HETATM    4  C   UNL     1     -13.333   7.528  71.222  1.00  0.00    -0.312 C  
HETATM    5  C   UNL     1     -11.010   7.261  73.216  1.00  0.00    -0.311 C  
HETATM    6  C   UNL     1     -11.508   5.755  72.669  1.00  0.00    -0.337 C  
HETATM    7  C   UNL     1     -10.467   5.381  71.520  1.00  0.00    -0.289 C  
HETATM    8  C   UNL     1     -10.348   4.971  69.905  1.00  0.00    -0.298 C  
HETATM    9  C   UNL     1     -10.806   6.170  68.966  1.00  0.00    -0.416 C  
HETATM   10  C   UNL     1     -10.301   6.265  67.543  1.00  0.00    -0.200 C  
HETATM   11  F   UNL     1     -11.093   5.484  66.764  1.00  0.00    -0.305 F  
HETATM   12  C   UNL     1      -8.822   5.915  67.441  1.00  0.00    -0.106 C  
HETATM   13  C   UNL     1      -8.041   6.496  66.534  1.00  0.00    -0.111 C  
HETATM   14  C   UNL     1      -8.532   5.829  65.288  1.00  0.00    -0.148 C  
HETATM   15  O   UNL     1      -8.523   6.461  64.244  1.00  0.00     0.011 OA 
HETATM   16  C   UNL     1      -8.934   4.337  65.388  1.00  0.00    -0.134 C  
HETATM   17  C   UNL     1      -9.164   3.692  66.855  1.00  0.00    -0.204 C  
HETATM   18  C   UNL     1      -8.452   4.520  67.974  1.00  0.00    -0.101 C  
HETATM   19  C   UNL     1      -6.970   4.082  67.849  1.00  0.00    -0.055 C  
HETATM   20  C   UNL     1      -8.870   4.683  69.499  1.00  0.00    -0.121 C  
HETATM   21  C   UNL     1      -8.151   4.117  70.728  1.00  0.00    -0.063 C  
HETATM   22  C   UNL     1      -7.865   5.404  71.583  1.00  0.00    -0.111 C  
HETATM   23  O   UNL     1      -6.981   3.369  70.487  1.00  0.00    -0.033 OA 
HETATM   24  C   UNL     1      -9.199   5.955  72.196  1.00  0.00    -0.151 C  
HETATM   25  H   UNL     1      -6.535   3.018  71.249  1.00  0.00     0.000 HD 
HETATM   26  C   UNL     1      -9.041   5.305  73.677  1.00  0.00    -0.123 C  
HETATM   27  C   UNL     1      -9.834   7.547  72.282  1.00  0.00    -0.169 C  
HETATM   28  O   UNL     1     -10.838   8.122  71.125  1.00  0.00    -0.225 OA 
ENDROOT
BRANCH  27  29
HETATM   29  C   UNL     1      -8.844   8.586  71.747  1.00  0.00    -0.211 C  
HETATM   30  O   UNL     1      -7.843   8.887  72.415  1.00  0.00    -0.368 OA 
BRANCH  29  31
HETATM   31  C   UNL     1      -8.852   9.052  70.298  1.00  0.00    -0.189 C  
HETATM   32  O   UNL     1      -9.347  10.347  70.067  1.00  0.00    -0.393 OA 
HETATM   33  H   UNL     1      -9.352  10.638  69.162  1.00  0.00     0.000 HD 
ENDBRANCH  29  31
ENDBRANCH  27  29
TORSDOF 2
ENDMDL
MODEL       16
REMARK 921   NORMALIZED FREE ENERGY PREDICTED BY IDOCK:   -5.76 KCAL/MOL
REMARK 922        TOTAL FREE ENERGY PREDICTED BY IDOCK:   -6.90 KCAL/MOL
REMARK 923 INTER-LIGAND FREE ENERGY PREDICTED BY IDOCK:   -6.50 KCAL/MOL
REMARK 924 INTRA-LIGAND FREE ENERGY PREDICTED BY IDOCK:   -0.40 KCAL/MOL
REMARK 927      BINDING AFFINITY PREDICTED BY RF-SCORE:    0.00 PKD
ROOT
HETATM    1  C   UNL     1      -9.613  16.776  69.154  1.00  0.00    -0.185 C  
HETATM    2  C   UNL     1      -9.769  15.801  67.982  1.00  0.00    -0.212 C  
HETATM    3  O   UNL     1     -10.902  16.107  67.204  1.00  0.00    -0.302 OA 
HETATM    4  C   UNL     1      -8.504  16.083  67.118  1.00  0.00    -0.223 C  
HETATM    5  C   UNL     1     -11.282  14.866  66.622  1.00  0.00    -0.340 C  
HETATM    6  C   UNL     1     -10.161  14.267  65.528  1.00  0.00    -0.379 C  
HETATM    7  C   UNL     1      -9.731  12.853  66.127  1.00  0.00    -0.250 C  
HETATM    8  C   UNL     1      -8.414  11.965  66.645  1.00  0.00    -0.143 C  
HETATM    9  C   UNL     1      -7.754  12.607  67.942  1.00  0.00    -0.141 C  
HETATM   10  C   UNL     1      -6.942  11.754  68.891  1.00  0.00    -0.109 C  
HETATM   11  F   UNL     1      -5.676  11.677  68.406  1.00  0.00    -0.046 F  
HETATM   12  C   UNL     1      -7.584  10.391  69.119  1.00  0.00    -0.117 C  
HETATM   13  C   UNL     1      -7.464   9.763  70.287  1.00  0.00    -0.173 C  
HETATM   14  C   UNL     1      -6.028   9.345  70.222  1.00  0.00    -0.040 C  
HETATM   15  O   UNL     1      -5.388   9.292  71.259  1.00  0.00    -0.037 OA 
HETATM   16  C   UNL     1      -5.472   8.913  68.843  1.00  0.00    -0.037 C  
HETATM   17  C   UNL     1      -6.319   9.283  67.515  1.00  0.00    -0.062 C  
HETATM   18  C   UNL     1      -7.821   9.568  67.841  1.00  0.00    -0.091 C  
HETATM   19  C   UNL     1      -8.422   8.149  68.010  1.00  0.00    -0.133 C  
HETATM   20  C   UNL     1      -8.833  10.526  67.076  1.00  0.00    -0.142 C  
HETATM   21  C   UNL     1     -10.040  10.117  66.225  1.00  0.00    -0.238 C  
HETATM   22  C   UNL     1     -11.227  10.877  66.922  1.00  0.00    -0.162 C  
HETATM   23  O   UNL     1     -10.291   8.736  66.106  1.00  0.00    -0.365 OA 
HETATM   24  C   UNL     1     -11.122  12.417  66.644  1.00  0.00    -0.336 C  
HETATM   25  H   UNL     1     -11.040   8.482  65.578  1.00  0.00     0.000 HD 
HETATM   26  C   UNL     1     -12.193  12.489  65.425  1.00  0.00    -0.475 C  
HETATM   27  C   UNL     1     -11.278  13.770  67.688  1.00  0.00    -0.293 C  
HETATM   28  O   UNL     1      -9.973  14.429  68.422  1.00  0.00    -0.228 OA 
ENDROOT
BRANCH  27  29
HETATM   29  C   UNL     1     -11.693  13.355  69.103  1.00  0.00    -0.326 C  
HETATM   30  O   UNL     1     -11.084  12.441  69.682  1.00  0.00    -0.094 OA 
BRANCH  29  31
HETATM   31  C   UNL     1     -12.614  14.204  69.967  1.00  0.00    -0.214 C  
HETATM   32  O   UNL     1     -12.736  15.555  69.599  1.00  0.00    -0.609 OA 
HETATM   33  H   UNL     1     -13.311  16.085  70.138  1.00  0.00     0.000 HD 
ENDBRANCH  29  31
ENDBRANCH  27  29
TORSDOF 2
ENDMDL
MODEL       17
REMARK 921   NORMALIZED FREE ENERGY PREDICTED BY IDOCK:   -5.75 KCAL/MOL
REMARK 922        TOTAL FREE ENERGY PREDICTED BY IDOCK:   -6.89 KCAL/MOL
REMARK 923 INTER-LIGAND FREE ENERGY PREDICTED BY IDOCK:   -6.27 KCAL/MOL
REMARK 924 INTRA-LIGAND FREE ENERGY PREDICTED BY IDOCK:   -0.62 KCAL/MOL
REMARK 927      BINDING AFFINITY PREDICTED BY RF-SCORE:    0.00 PKD
ROOT
HETATM    1  C   UNL     1      -5.131   8.481  65.472  1.00  0.00    -0.034 C  
HETATM    2  C   UNL     1      -6.620   8.832  65.378  1.00  0.00    -0.067 C  
HETATM    3  O   UNL     1      -6.869   9.748  64.337  1.00  0.00    -0.107 OA 
HETATM    4  C   UNL     1      -7.277   7.475  64.988  1.00  0.00    -0.066 C  
HETATM    5  C   UNL     1      -8.042  10.441  64.744  1.00  0.00    -0.124 C  
HETATM    6  C   UNL     1      -9.410   9.471  64.796  1.00  0.00    -0.235 C  
HETATM    7  C   UNL     1      -9.898   9.547  66.312  1.00  0.00    -0.334 C  
HETATM    8  C   UNL     1     -10.239   8.614  67.656  1.00  0.00    -0.300 C  
HETATM    9  C   UNL     1      -8.933   7.899  68.213  1.00  0.00    -0.132 C  
HETATM   10  C   UNL     1      -8.852   7.469  69.661  1.00  0.00    -0.141 C  
HETATM   11  F   UNL     1      -9.445   6.252  69.771  1.00  0.00    -0.147 F  
HETATM   12  C   UNL     1      -9.446   8.515  70.597  1.00  0.00    -0.203 C  
HETATM   13  C   UNL     1      -8.963   8.690  71.825  1.00  0.00    -0.307 C  
HETATM   14  C   UNL     1      -9.471   7.452  72.495  1.00  0.00    -0.152 C  
HETATM   15  O   UNL     1      -8.797   6.948  73.378  1.00  0.00    -0.124 OA 
HETATM   16  C   UNL     1     -10.874   6.943  72.084  1.00  0.00    -0.256 C  
HETATM   17  C   UNL     1     -11.544   7.523  70.730  1.00  0.00    -0.300 C  
HETATM   18  C   UNL     1     -10.909   8.886  70.302  1.00  0.00    -0.265 C  
HETATM   19  C   UNL     1     -11.589   9.905  71.252  1.00  0.00    -0.456 C  
HETATM   20  C   UNL     1     -10.756   9.488  68.839  1.00  0.00    -0.220 C  
HETATM   21  C   UNL     1     -11.500  10.687  68.242  1.00  0.00    -0.245 C  
HETATM   22  C   UNL     1     -10.327  11.637  67.803  1.00  0.00    -0.202 C  
HETATM   23  O   UNL     1     -12.425  11.340  69.081  1.00  0.00    -0.378 OA 
HETATM   24  C   UNL     1      -9.586  11.042  66.555  1.00  0.00    -0.223 C  
HETATM   25  H   UNL     1     -12.886  12.083  68.712  1.00  0.00     0.000 HD 
HETATM   26  C   UNL     1     -10.329  11.934  65.418  1.00  0.00    -0.306 C  
HETATM   27  C   UNL     1      -7.916  10.862  66.208  1.00  0.00    -0.161 C  
HETATM   28  O   UNL     1      -7.118   9.483  66.580  1.00  0.00    -0.084 OA 
ENDROOT
BRANCH  27  29
HETATM   29  C   UNL     1      -7.036  11.500  67.288  1.00  0.00    -0.128 C  
HETATM   30  O   UNL     1      -6.787  12.715  67.244  1.00  0.00    -0.153 OA 
BRANCH  29  31
HETATM   31  C   UNL     1      -6.696  10.789  68.590  1.00  0.00    -0.058 C  
HETATM   32  O   UNL     1      -7.331  11.275  69.745  1.00  0.00    -0.358 OA 
HETATM   33  H   UNL     1      -7.120  10.831  70.558  1.00  0.00     0.000 HD 
ENDBRANCH  29  31
ENDBRANCH  27  29
TORSDOF 2
ENDMDL
MODEL       18
REMARK 921   NORMALIZED FREE ENERGY PREDICTED BY IDOCK:   -5.75 KCAL/MOL
REMARK 922        TOTAL FREE ENERGY PREDICTED BY IDOCK:   -6.89 KCAL/MOL
REMARK 923 INTER-LIGAND FREE ENERGY PREDICTED BY IDOCK:   -6.19 KCAL/MOL
REMARK 924 INTRA-LIGAND FREE ENERGY PREDICTED BY IDOCK:   -0.70 KCAL/MOL
REMARK 927      BINDING AFFINITY PREDICTED BY RF-SCORE:    0.00 PKD
ROOT
HETATM    1  C   UNL     1      -7.404   4.507  65.847  1.00  0.00    -0.077 C  
HETATM    2  C   UNL     1      -8.608   5.303  66.364  1.00  0.00    -0.114 C  
HETATM    3  O   UNL     1      -8.898   6.400  65.530  1.00  0.00    -0.119 OA 
HETATM    4  C   UNL     1      -9.781   4.286  66.242  1.00  0.00    -0.225 C  
HETATM    5  C   UNL     1      -9.526   7.345  66.387  1.00  0.00    -0.134 C  
HETATM    6  C   UNL     1     -11.019   6.839  66.962  1.00  0.00    -0.439 C  
HETATM    7  C   UNL     1     -10.854   6.825  68.548  1.00  0.00    -0.280 C  
HETATM    8  C   UNL     1     -10.968   5.844  69.896  1.00  0.00    -0.444 C  
HETATM    9  C   UNL     1      -9.874   4.689  69.868  1.00  0.00    -0.296 C  
HETATM   10  C   UNL     1      -9.415   4.038  71.154  1.00  0.00    -0.160 C  
HETATM   11  F   UNL     1     -10.300   3.056  71.466  1.00  0.00    -0.176 F  
HETATM   12  C   UNL     1      -9.227   5.057  72.271  1.00  0.00    -0.152 C  
HETATM   13  C   UNL     1      -8.295   4.886  73.206  1.00  0.00    -0.104 C  
HETATM   14  C   UNL     1      -8.906   3.773  73.997  1.00  0.00    -0.088 C  
HETATM   15  O   UNL     1      -8.168   2.958  74.525  1.00  0.00    -0.066 OA 
HETATM   16  C   UNL     1     -10.445   3.782  74.172  1.00  0.00    -0.268 C  
HETATM   17  C   UNL     1     -11.329   4.739  73.211  1.00  0.00    -0.408 C  
HETATM   18  C   UNL     1     -10.475   5.895  72.594  1.00  0.00    -0.237 C  
HETATM   19  C   UNL     1     -10.366   6.913  73.758  1.00  0.00    -0.409 C  
HETATM   20  C   UNL     1     -10.680   6.640  71.205  1.00  0.00    -0.269 C  
HETATM   21  C   UNL     1     -11.137   8.086  70.982  1.00  0.00    -0.253 C  
HETATM   22  C   UNL     1      -9.963   8.691  70.129  1.00  0.00    -0.193 C  
HETATM   23  O   UNL     1     -11.405   8.850  72.134  1.00  0.00    -0.356 OA 
HETATM   24  C   UNL     1      -9.987   8.099  68.677  1.00  0.00    -0.201 C  
HETATM   25  H   UNL     1     -11.688   9.746  71.996  1.00  0.00     0.000 HD 
HETATM   26  C   UNL     1     -10.747   9.338  67.952  1.00  0.00    -0.248 C  
HETATM   27  C   UNL     1      -8.732   7.477  67.686  1.00  0.00    -0.122 C  
HETATM   28  O   UNL     1      -8.372   5.880  67.679  1.00  0.00    -0.105 OA 
ENDROOT
BRANCH  27  29
HETATM   29  C   UNL     1      -7.355   7.643  68.337  1.00  0.00    -0.095 C  
HETATM   30  O   UNL     1      -6.729   8.705  68.194  1.00  0.00    -0.063 OA 
BRANCH  29  31
HETATM   31  C   UNL     1      -6.837   6.694  69.408  1.00  0.00    -0.065 C  
HETATM   32  O   UNL     1      -5.969   5.681  68.970  1.00  0.00    -0.021 OA 
HETATM   33  H   UNL     1      -5.645   5.089  69.638  1.00  0.00     0.000 HD 
ENDBRANCH  29  31
ENDBRANCH  27  29
TORSDOF 2
ENDMDL
MODEL       19
REMARK 921   NORMALIZED FREE ENERGY PREDICTED BY IDOCK:   -5.74 KCAL/MOL
REMARK 922        TOTAL FREE ENERGY PREDICTED BY IDOCK:   -6.88 KCAL/MOL
REMARK 923 INTER-LIGAND FREE ENERGY PREDICTED BY IDOCK:   -6.61 KCAL/MOL
REMARK 924 INTRA-LIGAND FREE ENERGY PREDICTED BY IDOCK:   -0.28 KCAL/MOL
REMARK 927      BINDING AFFINITY PREDICTED BY RF-SCORE:    0.00 PKD
ROOT
HETATM    1  C   UNL     1     -10.549   5.631  66.476  1.00  0.00    -0.320 C  
HETATM    2  C   UNL     1      -9.368   6.580  66.711  1.00  0.00    -0.156 C  
HETATM    3  O   UNL     1      -8.394   5.995  67.544  1.00  0.00    -0.109 OA 
HETATM    4  C   UNL     1      -8.752   6.733  65.289  1.00  0.00     0.060 C  
HETATM    5  C   UNL     1      -7.753   7.098  68.172  1.00  0.00    -0.117 C  
HETATM    6  C   UNL     1      -6.884   8.063  67.109  1.00  0.00    -0.073 C  
HETATM    7  C   UNL     1      -7.552   9.505  67.237  1.00  0.00    -0.091 C  
HETATM    8  C   UNL     1      -8.304  10.713  66.361  1.00  0.00    -0.151 C  
HETATM    9  C   UNL     1      -9.700  10.224  65.778  1.00  0.00    -0.297 C  
HETATM   10  C   UNL     1     -10.783  11.225  65.440  1.00  0.00    -0.227 C  
HETATM   11  F   UNL     1     -10.540  11.700  64.191  1.00  0.00    -0.300 F  
HETATM   12  C   UNL     1     -10.889  12.322  66.492  1.00  0.00    -0.297 C  
HETATM   13  C   UNL     1     -12.059  12.891  66.774  1.00  0.00    -0.335 C  
HETATM   14  C   UNL     1     -12.260  13.718  65.543  1.00  0.00    -0.442 C  
HETATM   15  O   UNL     1     -13.398  13.900  65.141  1.00  0.00    -0.698 OA 
HETATM   16  C   UNL     1     -11.008  14.371  64.909  1.00  0.00    -0.416 C  
HETATM   17  C   UNL     1      -9.546  13.842  65.358  1.00  0.00     0.044 C  
HETATM   18  C   UNL     1      -9.590  13.107  66.737  1.00  0.00    -0.249 C  
HETATM   19  C   UNL     1      -9.645  14.273  67.758  1.00  0.00    -0.221 C  
HETATM   20  C   UNL     1      -8.651  11.937  67.263  1.00  0.00    -0.170 C  
HETATM   21  C   UNL     1      -7.592  12.017  68.368  1.00  0.00    -0.128 C  
HETATM   22  C   UNL     1      -8.058  10.902  69.374  1.00  0.00     0.001 C  
HETATM   23  O   UNL     1      -7.428  13.266  68.998  1.00  0.00    -0.273 OA 
HETATM   24  C   UNL     1      -7.804   9.481  68.763  1.00  0.00    -0.084 C  
HETATM   25  H   UNL     1      -6.772  13.316  69.683  1.00  0.00     0.000 HD 
HETATM   26  C   UNL     1      -6.408   9.162  69.531  1.00  0.00    -0.043 C  
HETATM   27  C   UNL     1      -8.801   8.086  68.685  1.00  0.00    -0.134 C  
HETATM   28  O   UNL     1      -9.763   7.803  67.392  1.00  0.00    -0.146 OA 
ENDROOT
BRANCH  27  29
HETATM   29  C   UNL     1     -10.115   8.280  69.448  1.00  0.00    -0.198 C  
HETATM   30  O   UNL     1     -10.889   9.194  69.122  1.00  0.00    -0.203 OA 
BRANCH  29  31
HETATM   31  C   UNL     1     -10.677   7.225  70.390  1.00  0.00    -0.236 C  
HETATM   32  O   UNL     1     -12.024   6.875  70.194  1.00  0.00    -0.600 OA 
HETATM   33  H   UNL     1     -12.375   6.216  70.782  1.00  0.00     0.000 HD 
ENDBRANCH  29  31
ENDBRANCH  27  29
TORSDOF 2
ENDMDL
MODEL       20
REMARK 921   NORMALIZED FREE ENERGY PREDICTED BY IDOCK:   -5.73 KCAL/MOL
REMARK 922        TOTAL FREE ENERGY PREDICTED BY IDOCK:   -6.87 KCAL/MOL
REMARK 923 INTER-LIGAND FREE ENERGY PREDICTED BY IDOCK:   -6.37 KCAL/MOL
REMARK 924 INTRA-LIGAND FREE ENERGY PREDICTED BY IDOCK:   -0.50 KCAL/MOL
REMARK 927      BINDING AFFINITY PREDICTED BY RF-SCORE:    0.00 PKD
ROOT
HETATM    1  C   UNL     1     -12.591  12.983  65.368  1.00  0.00    -0.481 C  
HETATM    2  C   UNL     1     -11.288  13.015  66.174  1.00  0.00    -0.314 C  
HETATM    3  O   UNL     1     -10.256  13.655  65.460  1.00  0.00    -0.294 OA 
HETATM    4  C   UNL     1     -11.651  13.910  67.396  1.00  0.00    -0.398 C  
HETATM    5  C   UNL     1      -9.059  13.080  65.969  1.00  0.00     0.195 C  
HETATM    6  C   UNL     1      -8.765  13.458  67.577  1.00  0.00    -0.205 C  
HETATM    7  C   UNL     1      -8.720  12.047  68.319  1.00  0.00    -0.178 C  
HETATM    8  C   UNL     1      -9.419  11.161  69.552  1.00  0.00     0.388 C  
HETATM    9  C   UNL     1     -10.947  10.843  69.244  1.00  0.00    -0.295 C  
HETATM   10  C   UNL     1     -11.626   9.654  69.886  1.00  0.00    -0.030 C  
HETATM   11  F   UNL     1     -12.056  10.031  71.118  1.00  0.00    -0.346 F  
HETATM   12  C   UNL     1     -10.720   8.429  69.913  1.00  0.00    -0.227 C  
HETATM   13  C   UNL     1     -11.224   7.201  69.816  1.00  0.00    -0.206 C  
HETATM   14  C   UNL     1     -11.856   7.061  71.165  1.00  0.00    -0.338 C  
HETATM   15  O   UNL     1     -12.873   6.395  71.268  1.00  0.00    -0.002 OA 
HETATM   16  C   UNL     1     -11.120   7.701  72.368  1.00  0.00    -0.362 C  
HETATM   17  C   UNL     1      -9.947   8.777  72.077  1.00  0.00    -0.391 C  
HETATM   18  C   UNL     1      -9.375   8.638  70.628  1.00  0.00    -0.218 C  
HETATM   19  C   UNL     1      -8.430   7.415  70.737  1.00  0.00    -0.131 C  
HETATM   20  C   UNL     1      -8.740   9.767  69.706  1.00  0.00    -0.228 C  
HETATM   21  C   UNL     1      -7.272   9.915  69.292  1.00  0.00    -0.073 C  
HETATM   22  C   UNL     1      -7.354   9.913  67.722  1.00  0.00    -0.089 C  
HETATM   23  O   UNL     1      -6.376   8.941  69.777  1.00  0.00    -0.034 OA 
HETATM   24  C   UNL     1      -7.987  11.254  67.211  1.00  0.00    -0.141 C  
HETATM   25  H   UNL     1      -5.466   9.033  69.521  1.00  0.00     0.000 HD 
HETATM   26  C   UNL     1      -6.603  12.017  66.835  1.00  0.00    -0.048 C  
HETATM   27  C   UNL     1      -9.202  11.560  66.038  1.00  0.00    -0.217 C  
HETATM   28  O   UNL     1     -10.777  11.684  66.463  1.00  0.00    -0.249 OA 
ENDROOT
BRANCH  27  29
HETATM   29  C   UNL     1      -9.638  10.278  65.322  1.00  0.00    -0.264 C  
HETATM   30  O   UNL     1     -10.284   9.415  65.937  1.00  0.00    -0.259 OA 
BRANCH  29  31
HETATM   31  C   UNL     1      -9.592  10.133  63.807  1.00  0.00    -0.223 C  
HETATM   32  O   UNL     1     -10.413  11.007  63.076  1.00  0.00    -0.716 OA 
HETATM   33  H   UNL     1     -10.384  10.917  62.131  1.00  0.00     0.000 HD 
ENDBRANCH  29  31
ENDBRANCH  27  29
TORSDOF 2
ENDMDL
MODEL       21
REMARK 921   NORMALIZED FREE ENERGY PREDICTED BY IDOCK:   -5.71 KCAL/MOL
REMARK 922        TOTAL FREE ENERGY PREDICTED BY IDOCK:   -6.85 KCAL/MOL
REMARK 923 INTER-LIGAND FREE ENERGY PREDICTED BY IDOCK:   -6.36 KCAL/MOL
REMARK 924 INTRA-LIGAND FREE ENERGY PREDICTED BY IDOCK:   -0.49 KCAL/MOL
REMARK 927      BINDING AFFINITY PREDICTED BY RF-SCORE:    0.00 PKD
ROOT
HETATM    1  C   UNL     1     -12.716  14.104  65.485  1.00  0.00    -0.468 C  
HETATM    2  C   UNL     1     -11.306  13.655  65.885  1.00  0.00    -0.309 C  
HETATM    3  O   UNL     1     -11.298  12.319  66.330  1.00  0.00    -0.315 OA 
HETATM    4  C   UNL     1     -10.523  13.717  64.541  1.00  0.00    -0.411 C  
HETATM    5  C   UNL     1     -10.189  12.245  67.217  1.00  0.00    -0.210 C  
HETATM    6  C   UNL     1      -8.707  12.453  66.458  1.00  0.00    -0.059 C  
HETATM    7  C   UNL     1      -8.068  13.730  67.166  1.00  0.00    -0.094 C  
HETATM    8  C   UNL     1      -7.461  15.259  66.872  1.00  0.00     0.013 C  
HETATM    9  C   UNL     1      -8.591  16.240  66.336  1.00  0.00    -0.361 C  
HETATM   10  C   UNL     1      -8.453  17.736  66.510  1.00  0.00    -0.260 C  
HETATM   11  F   UNL     1      -7.696  18.210  65.486  1.00  0.00    -0.148 F  
HETATM   12  C   UNL     1      -7.902  18.099  67.884  1.00  0.00    -0.247 C  
HETATM   13  C   UNL     1      -8.266  19.226  68.493  1.00  0.00    -0.401 C  
HETATM   14  C   UNL     1      -7.528  20.230  67.666  1.00  0.00    -0.309 C  
HETATM   15  O   UNL     1      -8.027  21.331  67.501  1.00  0.00    -0.225 OA 
HETATM   16  C   UNL     1      -6.124  19.835  67.147  1.00  0.00    -0.196 C  
HETATM   17  C   UNL     1      -5.691  18.276  67.193  1.00  0.00    -0.152 C  
HETATM   18  C   UNL     1      -6.543  17.464  68.222  1.00  0.00    -0.174 C  
HETATM   19  C   UNL     1      -5.903  17.836  69.584  1.00  0.00    -0.245 C  
HETATM   20  C   UNL     1      -6.936  15.924  68.181  1.00  0.00    -0.124 C  
HETATM   21  C   UNL     1      -6.428  14.808  69.100  1.00  0.00    -0.109 C  
HETATM   22  C   UNL     1      -7.758  14.225  69.703  1.00  0.00     0.303 C  
HETATM   23  O   UNL     1      -5.511  15.182  70.102  1.00  0.00    -0.112 OA 
HETATM   24  C   UNL     1      -8.547  13.429  68.606  1.00  0.00     0.010 C  
HETATM   25  H   UNL     1      -5.196  14.490  70.672  1.00  0.00     0.000 HD 
HETATM   26  C   UNL     1      -8.060  11.938  69.030  1.00  0.00     0.166 C  
HETATM   27  C   UNL     1     -10.207  13.438  68.173  1.00  0.00    -0.246 C  
HETATM   28  O   UNL     1     -10.769  14.426  66.996  1.00  0.00    -0.279 OA 
ENDROOT
BRANCH  27  29
HETATM   29  C   UNL     1     -11.038  14.315  69.115  1.00  0.00    -0.262 C  
HETATM   30  O   UNL     1     -11.096  15.541  68.929  1.00  0.00    -0.248 OA 
BRANCH  29  31
HETATM   31  C   UNL     1     -12.051  13.733  70.091  1.00  0.00    -0.359 C  
HETATM   32  O   UNL     1     -11.772  12.445  70.578  1.00  0.00    -0.525 OA 
HETATM   33  H   UNL     1     -12.404  12.082  71.188  1.00  0.00     0.000 HD 
ENDBRANCH  29  31
ENDBRANCH  27  29
TORSDOF 2
ENDMDL
MODEL       22
REMARK 921   NORMALIZED FREE ENERGY PREDICTED BY IDOCK:   -5.64 KCAL/MOL
REMARK 922        TOTAL FREE ENERGY PREDICTED BY IDOCK:   -6.77 KCAL/MOL
REMARK 923 INTER-LIGAND FREE ENERGY PREDICTED BY IDOCK:   -6.45 KCAL/MOL
REMARK 924 INTRA-LIGAND FREE ENERGY PREDICTED BY IDOCK:   -0.31 KCAL/MOL
REMARK 927      BINDING AFFINITY PREDICTED BY RF-SCORE:    0.00 PKD
ROOT
HETATM    1  C   UNL     1     -12.011  13.055  66.551  1.00  0.00    -0.457 C  
HETATM    2  C   UNL     1     -10.661  12.705  67.188  1.00  0.00    -0.241 C  
HETATM    3  O   UNL     1      -9.586  13.140  66.389  1.00  0.00    -0.264 OA 
HETATM    4  C   UNL     1     -10.659  13.551  68.495  1.00  0.00    -0.257 C  
HETATM    5  C   UNL     1      -8.521  12.253  66.710  1.00  0.00    -0.119 C  
HETATM    6  C   UNL     1      -7.972  12.407  68.287  1.00  0.00    -0.160 C  
HETATM    7  C   UNL     1      -8.199  10.968  68.934  1.00  0.00    -0.127 C  
HETATM    8  C   UNL     1      -8.960  10.170  70.190  1.00  0.00     0.092 C  
HETATM    9  C   UNL     1     -10.542  10.254  70.058  1.00  0.00    -0.321 C  
HETATM   10  C   UNL     1     -11.422   9.211  70.710  1.00  0.00    -0.282 C  
HETATM   11  F   UNL     1     -11.610   9.571  72.006  1.00  0.00    -0.442 F  
HETATM   12  C   UNL     1     -10.850   7.807  70.551  1.00  0.00    -0.245 C  
HETATM   13  C   UNL     1     -11.649   6.748  70.447  1.00  0.00    -0.422 C  
HETATM   14  C   UNL     1     -12.148   6.647  71.854  1.00  0.00    -0.340 C  
HETATM   15  O   UNL     1     -13.281   6.236  72.044  1.00  0.00    -0.023 OA 
HETATM   16  C   UNL     1     -11.152   6.984  72.991  1.00  0.00    -0.295 C  
HETATM   17  C   UNL     1      -9.787   7.770  72.618  1.00  0.00    -0.284 C  
HETATM   18  C   UNL     1      -9.426   7.626  71.104  1.00  0.00    -0.163 C  
HETATM   19  C   UNL     1      -8.807   6.207  71.021  1.00  0.00    -0.139 C  
HETATM   20  C   UNL     1      -8.634   8.646  70.176  1.00  0.00    -0.138 C  
HETATM   21  C   UNL     1      -7.228   8.475  69.591  1.00  0.00    -0.052 C  
HETATM   22  C   UNL     1      -7.475   8.630  68.047  1.00  0.00    -0.097 C  
HETATM   23  O   UNL     1      -6.555   7.277  69.903  1.00  0.00    -0.038 OA 
HETATM   24  C   UNL     1      -7.808  10.122  67.699  1.00  0.00    -0.098 C  
HETATM   25  H   UNL     1      -5.683   7.170  69.540  1.00  0.00     0.000 HD 
HETATM   26  C   UNL     1      -6.326  10.562  67.198  1.00  0.00    -0.068 C  
HETATM   27  C   UNL     1      -9.027  10.810  66.707  1.00  0.00    -0.147 C  
HETATM   28  O   UNL     1     -10.468  11.270  67.332  1.00  0.00    -0.196 OA 
ENDROOT
BRANCH  27  29
HETATM   29  C   UNL     1      -9.842   9.738  65.977  1.00  0.00    -0.274 C  
HETATM   30  O   UNL     1      -9.658   9.541  64.765  1.00  0.00    -0.216 OA 
BRANCH  29  31
HETATM   31  C   UNL     1     -10.652   8.683  66.715  1.00  0.00    -0.153 C  
HETATM   32  O   UNL     1     -10.341   7.345  66.420  1.00  0.00    -0.487 OA 
HETATM   33  H   UNL     1     -10.846   6.686  66.882  1.00  0.00     0.000 HD 
ENDBRANCH  29  31
ENDBRANCH  27  29
TORSDOF 2
ENDMDL
MODEL       23
REMARK 921   NORMALIZED FREE ENERGY PREDICTED BY IDOCK:   -5.57 KCAL/MOL
REMARK 922        TOTAL FREE ENERGY PREDICTED BY IDOCK:   -6.68 KCAL/MOL
REMARK 923 INTER-LIGAND FREE ENERGY PREDICTED BY IDOCK:   -6.09 KCAL/MOL
REMARK 924 INTRA-LIGAND FREE ENERGY PREDICTED BY IDOCK:   -0.60 KCAL/MOL
REMARK 927      BINDING AFFINITY PREDICTED BY RF-SCORE:    0.00 PKD
ROOT
HETATM    1  C   UNL     1      -7.425  13.587  67.980  1.00  0.00    -0.140 C  
HETATM    2  C   UNL     1      -7.079  12.105  67.797  1.00  0.00    -0.109 C  
HETATM    3  O   UNL     1      -6.430  11.875  66.568  1.00  0.00    -0.023 OA 
HETATM    4  C   UNL     1      -6.052  11.840  68.937  1.00  0.00    -0.054 C  
HETATM    5  C   UNL     1      -6.741  10.525  66.247  1.00  0.00    -0.123 C  
HETATM    6  C   UNL     1      -6.065   9.411  67.303  1.00  0.00    -0.056 C  
HETATM    7  C   UNL     1      -7.312   8.632  67.918  1.00  0.00    -0.092 C  
HETATM    8  C   UNL     1      -8.068   8.242  69.356  1.00  0.00    -0.115 C  
HETATM    9  C   UNL     1      -8.641   9.536  70.081  1.00  0.00    -0.250 C  
HETATM   10  C   UNL     1      -9.789   9.421  71.059  1.00  0.00    -0.247 C  
HETATM   11  F   UNL     1      -9.275   9.091  72.272  1.00  0.00    -0.320 F  
HETATM   12  C   UNL     1     -10.855   8.448  70.572  1.00  0.00    -0.250 C  
HETATM   13  C   UNL     1     -12.140   8.634  70.865  1.00  0.00    -0.173 C  
HETATM   14  C   UNL     1     -12.139   8.280  72.319  1.00  0.00    -0.379 C  
HETATM   15  O   UNL     1     -12.913   8.861  73.062  1.00  0.00    -0.297 OA 
HETATM   16  C   UNL     1     -11.213   7.125  72.772  1.00  0.00    -0.314 C  
HETATM   17  C   UNL     1     -10.049   6.624  71.765  1.00  0.00    -0.198 C  
HETATM   18  C   UNL     1     -10.346   7.026  70.284  1.00  0.00    -0.219 C  
HETATM   19  C   UNL     1     -11.392   5.973  69.835  1.00  0.00    -0.355 C  
HETATM   20  C   UNL     1      -9.310   7.330  69.117  1.00  0.00    -0.146 C  
HETATM   21  C   UNL     1      -9.032   6.480  67.873  1.00  0.00    -0.115 C  
HETATM   22  C   UNL     1      -9.306   7.487  66.697  1.00  0.00    -0.222 C  
HETATM   23  O   UNL     1      -9.777   5.292  67.738  1.00  0.00    -0.128 OA 
HETATM   24  C   UNL     1      -8.169   8.566  66.632  1.00  0.00    -0.108 C  
HETATM   25  H   UNL     1      -9.605   4.765  66.967  1.00  0.00     0.000 HD 
HETATM   26  C   UNL     1      -7.296   7.888  65.442  1.00  0.00    -0.076 C  
HETATM   27  C   UNL     1      -8.234  10.272  66.458  1.00  0.00    -0.127 C  
HETATM   28  O   UNL     1      -8.260  11.256  67.765  1.00  0.00    -0.115 OA 
ENDROOT
BRANCH  27  29
HETATM   29  C   UNL     1      -9.665  10.768  66.228  1.00  0.00    -0.205 C  
HETATM   30  O   UNL     1     -10.202  10.613  65.119  1.00  0.00    -0.296 OA 
BRANCH  29  31
HETATM   31  C   UNL     1     -10.585  11.169  67.372  1.00  0.00    -0.234 C  
HETATM   32  O   UNL     1     -11.594  10.249  67.705  1.00  0.00    -0.602 OA 
HETATM   33  H   UNL     1     -12.168  10.499  68.420  1.00  0.00     0.000 HD 
ENDBRANCH  29  31
ENDBRANCH  27  29
TORSDOF 2
ENDMDL
MODEL       24
REMARK 921   NORMALIZED FREE ENERGY PREDICTED BY IDOCK:   -5.56 KCAL/MOL
REMARK 922        TOTAL FREE ENERGY PREDICTED BY IDOCK:   -6.68 KCAL/MOL
REMARK 923 INTER-LIGAND FREE ENERGY PREDICTED BY IDOCK:   -6.34 KCAL/MOL
REMARK 924 INTRA-LIGAND FREE ENERGY PREDICTED BY IDOCK:   -0.34 KCAL/MOL
REMARK 927      BINDING AFFINITY PREDICTED BY RF-SCORE:    0.00 PKD
ROOT
HETATM    1  C   UNL     1      -7.659   6.488  64.817  1.00  0.00    -0.099 C  
HETATM    2  C   UNL     1      -7.575   7.446  66.011  1.00  0.00    -0.088 C  
HETATM    3  O   UNL     1      -7.235   6.764  67.195  1.00  0.00    -0.080 OA 
HETATM    4  C   UNL     1      -6.383   8.375  65.634  1.00  0.00    -0.052 C  
HETATM    5  C   UNL     1      -7.797   7.555  68.236  1.00  0.00    -0.122 C  
HETATM    6  C   UNL     1      -7.083   9.065  68.391  1.00  0.00    -0.076 C  
HETATM    7  C   UNL     1      -8.275  10.098  68.157  1.00  0.00    -0.113 C  
HETATM    8  C   UNL     1      -8.765  11.382  67.206  1.00  0.00    -0.148 C  
HETATM    9  C   UNL     1      -8.984  10.935  65.696  1.00  0.00    -0.209 C  
HETATM   10  C   UNL     1      -9.909  11.719  64.791  1.00  0.00    -0.211 C  
HETATM   11  F   UNL     1      -9.207  12.763  64.277  1.00  0.00     0.280 F  
HETATM   12  C   UNL     1     -11.181  12.145  65.513  1.00  0.00    -0.381 C  
HETATM   13  C   UNL     1     -12.337  12.250  64.861  1.00  0.00    -0.376 C  
HETATM   14  C   UNL     1     -12.086  13.492  64.064  1.00  0.00    -0.441 C  
HETATM   15  O   UNL     1     -12.598  13.591  62.961  1.00  0.00    -0.716 OA 
HETATM   16  C   UNL     1     -11.262  14.617  64.736  1.00  0.00    -0.395 C  
HETATM   17  C   UNL     1     -10.416  14.267  66.071  1.00  0.00    -0.306 C  
HETATM   18  C   UNL     1     -10.952  12.982  66.782  1.00  0.00    -0.299 C  
HETATM   19  C   UNL     1     -12.209  13.493  67.533  1.00  0.00    -0.247 C  
HETATM   20  C   UNL     1     -10.148  11.935  67.667  1.00  0.00    -0.202 C  
HETATM   21  C   UNL     1     -10.258  11.714  69.180  1.00  0.00     0.034 C  
HETATM   22  C   UNL     1     -10.622  10.188  69.280  1.00  0.00    -0.254 C  
HETATM   23  O   UNL     1     -11.178  12.526  69.872  1.00  0.00    -0.486 OA 
HETATM   24  C   UNL     1      -9.380   9.309  68.899  1.00  0.00    -0.150 C  
HETATM   25  H   UNL     1     -11.247  12.389  70.810  1.00  0.00     0.000 HD 
HETATM   26  C   UNL     1      -8.879   8.977  70.408  1.00  0.00    -0.228 C  
HETATM   27  C   UNL     1      -9.234   7.936  67.881  1.00  0.00    -0.134 C  
HETATM   28  O   UNL     1      -8.847   8.091  66.299  1.00  0.00    -0.145 OA 
ENDROOT
BRANCH  27  29
HETATM   29  C   UNL     1     -10.595   7.464  67.360  1.00  0.00    -0.301 C  
HETATM   30  O   UNL     1     -11.280   8.217  66.650  1.00  0.00     0.583 OA 
BRANCH  29  31
HETATM   31  C   UNL     1     -11.026   6.005  67.406  1.00  0.00    -0.246 C  
HETATM   32  O   UNL     1     -11.093   5.340  66.170  1.00  0.00    -0.730 OA 
HETATM   33  H   UNL     1     -11.362   4.429  66.199  1.00  0.00     0.000 HD 
ENDBRANCH  29  31
ENDBRANCH  27  29
TORSDOF 2
ENDMDL
MODEL       25
REMARK 921   NORMALIZED FREE ENERGY PREDICTED BY IDOCK:   -5.53 KCAL/MOL
REMARK 922        TOTAL FREE ENERGY PREDICTED BY IDOCK:   -6.64 KCAL/MOL
REMARK 923 INTER-LIGAND FREE ENERGY PREDICTED BY IDOCK:   -6.24 KCAL/MOL
REMARK 924 INTRA-LIGAND FREE ENERGY PREDICTED BY IDOCK:   -0.39 KCAL/MOL
REMARK 927      BINDING AFFINITY PREDICTED BY RF-SCORE:    0.00 PKD
ROOT
HETATM    1  C   UNL     1      -6.261  16.006  70.418  1.00  0.00     0.130 C  
HETATM    2  C   UNL     1      -6.901  16.373  69.074  1.00  0.00    -0.198 C  
HETATM    3  O   UNL     1      -7.149  17.757  68.982  1.00  0.00    -0.257 OA 
HETATM    4  C   UNL     1      -5.788  16.018  68.045  1.00  0.00    -0.135 C  
HETATM    5  C   UNL     1      -8.244  17.864  68.080  1.00  0.00    -0.269 C  
HETATM    6  C   UNL     1      -7.871  17.392  66.514  1.00  0.00    -0.320 C  
HETATM    7  C   UNL     1      -8.872  16.189  66.208  1.00  0.00    -0.371 C  
HETATM    8  C   UNL     1      -8.934  14.581  65.759  1.00  0.00     0.550 C  
HETATM    9  C   UNL     1      -8.298  13.641  66.873  1.00  0.00    -0.017 C  
HETATM   10  C   UNL     1      -8.702  12.187  66.971  1.00  0.00    -0.190 C  
HETATM   11  F   UNL     1      -7.948  11.482  66.088  1.00  0.00    -0.142 F  
HETATM   12  C   UNL     1     -10.200  11.999  66.768  1.00  0.00    -0.225 C  
HETATM   13  C   UNL     1     -10.861  11.028  67.394  1.00  0.00    -0.327 C  
HETATM   14  C   UNL     1     -10.365   9.835  66.639  1.00  0.00    -0.206 C  
HETATM   15  O   UNL     1     -10.245   8.776  67.234  1.00  0.00    -0.219 OA 
HETATM   16  C   UNL     1     -10.125  10.001  65.119  1.00  0.00    -0.268 C  
HETATM   17  C   UNL     1     -10.053  11.497  64.504  1.00  0.00    -0.324 C  
HETATM   18  C   UNL     1     -10.743  12.545  65.437  1.00  0.00    -0.312 C  
HETATM   19  C   UNL     1     -12.252  12.337  65.146  1.00  0.00    -0.345 C  
HETATM   20  C   UNL     1     -10.405  14.088  65.607  1.00  0.00    -0.342 C  
HETATM   21  C   UNL     1     -11.253  15.283  65.158  1.00  0.00    -0.370 C  
HETATM   22  C   UNL     1     -11.457  16.084  66.496  1.00  0.00     0.435 C  
HETATM   23  O   UNL     1     -12.476  14.989  64.524  1.00  0.00    -0.412 OA 
HETATM   24  C   UNL     1     -10.114  16.766  66.930  1.00  0.00    -0.286 C  
HETATM   25  H   UNL     1     -13.002  15.729  64.245  1.00  0.00     0.000 HD 
HETATM   26  C   UNL     1     -10.427  18.250  66.349  1.00  0.00    -0.387 C  
HETATM   27  C   UNL     1      -9.325  16.849  68.452  1.00  0.00    -0.255 C  
HETATM   28  O   UNL     1      -8.199  15.744  68.883  1.00  0.00    -0.177 OA 
ENDROOT
BRANCH  27  29
HETATM   29  C   UNL     1     -10.168  16.223  69.567  1.00  0.00    -0.251 C  
HETATM   30  O   UNL     1     -10.888  16.944  70.276  1.00  0.00    -0.133 OA 
BRANCH  29  31
HETATM   31  C   UNL     1     -10.413  14.724  69.663  1.00  0.00    -0.111 C  
HETATM   32  O   UNL     1     -11.302  14.305  70.667  1.00  0.00    -0.510 OA 
HETATM   33  H   UNL     1     -11.455  13.369  70.727  1.00  0.00     0.000 HD 
ENDBRANCH  29  31
ENDBRANCH  27  29
TORSDOF 2
ENDMDL
MODEL       26
REMARK 921   NORMALIZED FREE ENERGY PREDICTED BY IDOCK:   -5.50 KCAL/MOL
REMARK 922        TOTAL FREE ENERGY PREDICTED BY IDOCK:   -6.61 KCAL/MOL
REMARK 923 INTER-LIGAND FREE ENERGY PREDICTED BY IDOCK:   -6.20 KCAL/MOL
REMARK 924 INTRA-LIGAND FREE ENERGY PREDICTED BY IDOCK:   -0.41 KCAL/MOL
REMARK 927      BINDING AFFINITY PREDICTED BY RF-SCORE:    0.00 PKD
ROOT
HETATM    1  C   UNL     1      -9.343  15.061  69.039  1.00  0.00    -0.206 C  
HETATM    2  C   UNL     1      -8.835  13.872  68.216  1.00  0.00    -0.185 C  
HETATM    3  O   UNL     1      -8.646  14.225  66.865  1.00  0.00    -0.209 OA 
HETATM    4  C   UNL     1      -7.436  13.586  68.837  1.00  0.00    -0.017 C  
HETATM    5  C   UNL     1      -8.812  13.006  66.151  1.00  0.00     0.316 C  
HETATM    6  C   UNL     1      -7.617  11.873  66.470  1.00  0.00     0.133 C  
HETATM    7  C   UNL     1      -8.402  10.616  67.058  1.00  0.00    -0.126 C  
HETATM    8  C   UNL     1      -8.507   9.607  68.385  1.00  0.00    -0.118 C  
HETATM    9  C   UNL     1      -8.994  10.394  69.678  1.00  0.00    -0.061 C  
HETATM   10  C   UNL     1      -9.672   9.660  70.813  1.00  0.00    -0.122 C  
HETATM   11  F   UNL     1      -8.705   9.143  71.615  1.00  0.00    -0.252 F  
HETATM   12  C   UNL     1     -10.656   8.614  70.304  1.00  0.00    -0.240 C  
HETATM   13  C   UNL     1     -11.759   8.319  70.989  1.00  0.00    -0.293 C  
HETATM   14  C   UNL     1     -11.171   7.558  72.135  1.00  0.00    -0.270 C  
HETATM   15  O   UNL     1     -11.712   7.635  73.225  1.00  0.00    -0.142 OA 
HETATM   16  C   UNL     1      -9.958   6.643  71.837  1.00  0.00    -0.189 C  
HETATM   17  C   UNL     1      -9.169   6.833  70.436  1.00  0.00    -0.156 C  
HETATM   18  C   UNL     1     -10.047   7.559  69.366  1.00  0.00    -0.190 C  
HETATM   19  C   UNL     1     -10.984   6.434  68.856  1.00  0.00    -0.412 C  
HETATM   20  C   UNL     1      -9.573   8.490  68.168  1.00  0.00    -0.158 C  
HETATM   21  C   UNL     1      -9.620   8.176  66.669  1.00  0.00    -0.229 C  
HETATM   22  C   UNL     1     -10.471   9.366  66.093  1.00  0.00    -0.027 C  
HETATM   23  O   UNL     1     -10.145   6.921  66.301  1.00  0.00    -0.432 OA 
HETATM   24  C   UNL     1      -9.641  10.695  66.135  1.00  0.00    -0.232 C  
HETATM   25  H   UNL     1     -10.175   6.726  65.372  1.00  0.00     0.000 HD 
HETATM   26  C   UNL     1      -9.153  10.695  64.585  1.00  0.00    -0.238 C  
HETATM   27  C   UNL     1     -10.059  12.277  66.652  1.00  0.00    -0.215 C  
HETATM   28  O   UNL     1      -9.781  12.768  68.188  1.00  0.00    -0.214 OA 
ENDROOT
BRANCH  27  29
HETATM   29  C   UNL     1     -11.539  12.380  67.033  1.00  0.00    -0.365 C  
HETATM   30  O   UNL     1     -11.997  11.662  67.936  1.00  0.00    -0.599 OA 
BRANCH  29  31
HETATM   31  C   UNL     1     -12.422  13.533  66.577  1.00  0.00    -0.253 C  
HETATM   32  O   UNL     1     -12.322  14.721  67.322  1.00  0.00    -0.498 OA 
HETATM   33  H   UNL     1     -12.873  15.441  67.037  1.00  0.00     0.000 HD 
ENDBRANCH  29  31
ENDBRANCH  27  29
TORSDOF 2
ENDMDL
MODEL       27
REMARK 921   NORMALIZED FREE ENERGY PREDICTED BY IDOCK:   -5.49 KCAL/MOL
REMARK 922        TOTAL FREE ENERGY PREDICTED BY IDOCK:   -6.60 KCAL/MOL
REMARK 923 INTER-LIGAND FREE ENERGY PREDICTED BY IDOCK:   -6.06 KCAL/MOL
REMARK 924 INTRA-LIGAND FREE ENERGY PREDICTED BY IDOCK:   -0.54 KCAL/MOL
REMARK 927      BINDING AFFINITY PREDICTED BY RF-SCORE:    0.00 PKD
ROOT
HETATM    1  C   UNL     1     -11.612  13.519  66.772  1.00  0.00    -0.397 C  
HETATM    2  C   UNL     1     -10.285  12.982  67.321  1.00  0.00    -0.239 C  
HETATM    3  O   UNL     1      -9.200  13.358  66.505  1.00  0.00    -0.240 OA 
HETATM    4  C   UNL     1     -10.140  13.725  68.682  1.00  0.00    -0.195 C  
HETATM    5  C   UNL     1      -8.227  12.342  66.715  1.00  0.00    -0.058 C  
HETATM    6  C   UNL     1      -7.605  12.321  68.273  1.00  0.00    -0.133 C  
HETATM    7  C   UNL     1      -7.962  10.870  68.829  1.00  0.00    -0.139 C  
HETATM    8  C   UNL     1      -8.756  10.069  70.061  1.00  0.00    -0.118 C  
HETATM    9  C   UNL     1     -10.324  10.330  70.009  1.00  0.00    -0.255 C  
HETATM   10  C   UNL     1     -11.287   9.341  70.626  1.00  0.00    -0.275 C  
HETATM   11  F   UNL     1     -11.385   9.623  71.952  1.00  0.00    -0.430 F  
HETATM   12  C   UNL     1     -10.878   7.900  70.346  1.00  0.00    -0.244 C  
HETATM   13  C   UNL     1     -11.792   6.942  70.207  1.00  0.00    -0.311 C  
HETATM   14  C   UNL     1     -12.245   6.791  71.625  1.00  0.00    -0.365 C  
HETATM   15  O   UNL     1     -13.407   6.491  71.838  1.00  0.00    -0.169 OA 
HETATM   16  C   UNL     1     -11.175   6.937  72.735  1.00  0.00    -0.277 C  
HETATM   17  C   UNL     1      -9.748   7.599  72.354  1.00  0.00    -0.231 C  
HETATM   18  C   UNL     1      -9.463   7.528  70.819  1.00  0.00    -0.163 C  
HETATM   19  C   UNL     1      -9.006   6.062  70.611  1.00  0.00    -0.150 C  
HETATM   20  C   UNL     1      -8.600   8.523  69.928  1.00  0.00    -0.131 C  
HETATM   21  C   UNL     1      -7.245   8.247  69.269  1.00  0.00    -0.064 C  
HETATM   22  C   UNL     1      -7.533   8.540  67.752  1.00  0.00    -0.097 C  
HETATM   23  O   UNL     1      -6.695   6.965  69.466  1.00  0.00    -0.047 OA 
HETATM   24  C   UNL     1      -7.713  10.081  67.522  1.00  0.00    -0.091 C  
HETATM   25  H   UNL     1      -5.855   6.793  69.057  1.00  0.00     0.000 HD 
HETATM   26  C   UNL     1      -6.213  10.397  66.985  1.00  0.00    -0.067 C  
HETATM   27  C   UNL     1      -8.888  10.965  66.637  1.00  0.00    -0.159 C  
HETATM   28  O   UNL     1     -10.244  11.528  67.358  1.00  0.00    -0.198 OA 
ENDROOT
BRANCH  27  29
HETATM   29  C   UNL     1      -9.842  10.042  65.873  1.00  0.00    -0.264 C  
HETATM   30  O   UNL     1     -10.520   9.206  66.491  1.00  0.00    -0.228 OA 
BRANCH  29  31
HETATM   31  C   UNL     1     -10.238  10.293  64.425  1.00  0.00    -0.035 C  
HETATM   32  O   UNL     1     -10.288  11.638  64.022  1.00  0.00    -0.291 OA 
HETATM   33  H   UNL     1     -10.535  11.795  63.118  1.00  0.00     0.000 HD 
ENDBRANCH  29  31
ENDBRANCH  27  29
TORSDOF 2
ENDMDL
MODEL       28
REMARK 921   NORMALIZED FREE ENERGY PREDICTED BY IDOCK:   -5.43 KCAL/MOL
REMARK 922        TOTAL FREE ENERGY PREDICTED BY IDOCK:   -6.53 KCAL/MOL
REMARK 923 INTER-LIGAND FREE ENERGY PREDICTED BY IDOCK:   -6.05 KCAL/MOL
REMARK 924 INTRA-LIGAND FREE ENERGY PREDICTED BY IDOCK:   -0.48 KCAL/MOL
REMARK 927      BINDING AFFINITY PREDICTED BY RF-SCORE:    0.00 PKD
ROOT
HETATM    1  C   UNL     1      -5.935   5.021  69.944  1.00  0.00    -0.021 C  
HETATM    2  C   UNL     1      -6.713   6.057  70.762  1.00  0.00    -0.057 C  
HETATM    3  O   UNL     1      -7.151   5.521  71.989  1.00  0.00    -0.080 OA 
HETATM    4  C   UNL     1      -5.639   7.141  71.070  1.00  0.00    -0.027 C  
HETATM    5  C   UNL     1      -8.311   6.276  72.315  1.00  0.00    -0.108 C  
HETATM    6  C   UNL     1      -7.992   7.890  72.642  1.00  0.00    -0.162 C  
HETATM    7  C   UNL     1      -8.842   8.695  71.560  1.00  0.00    -0.285 C  
HETATM    8  C   UNL     1      -8.719   9.814  70.326  1.00  0.00    -0.172 C  
HETATM    9  C   UNL     1      -7.885   9.239  69.100  1.00  0.00    -0.086 C  
HETATM   10  C   UNL     1      -8.082   9.797  67.709  1.00  0.00    -0.113 C  
HETATM   11  F   UNL     1      -7.306  10.905  67.588  1.00  0.00    -0.087 F  
HETATM   12  C   UNL     1      -9.552  10.056  67.404  1.00  0.00    -0.182 C  
HETATM   13  C   UNL     1     -10.030   9.926  66.168  1.00  0.00    -0.331 C  
HETATM   14  C   UNL     1      -9.434  11.136  65.520  1.00  0.00    -0.221 C  
HETATM   15  O   UNL     1      -9.131  11.076  64.340  1.00  0.00    -0.181 OA 
HETATM   16  C   UNL     1      -9.328  12.424  66.373  1.00  0.00    -0.219 C  
HETATM   17  C   UNL     1      -9.502  12.307  67.978  1.00  0.00    -0.206 C  
HETATM   18  C   UNL     1     -10.258  11.002  68.390  1.00  0.00    -0.198 C  
HETATM   19  C   UNL     1     -11.742  11.349  68.105  1.00  0.00    -0.355 C  
HETATM   20  C   UNL     1     -10.118  10.163  69.733  1.00  0.00    -0.269 C  
HETATM   21  C   UNL     1     -11.149  10.029  70.859  1.00  0.00    -0.314 C  
HETATM   22  C   UNL     1     -11.362   8.474  70.947  1.00  0.00    -0.304 C  
HETATM   23  O   UNL     1     -12.364  10.722  70.691  1.00  0.00    -0.311 OA 
HETATM   24  C   UNL     1     -10.095   7.787  71.564  1.00  0.00    -0.212 C  
HETATM   25  H   UNL     1     -13.003  10.639  71.389  1.00  0.00     0.000 HD 
HETATM   26  C   UNL     1     -10.646   7.643  73.086  1.00  0.00    -0.438 C  
HETATM   27  C   UNL     1      -9.217   6.391  71.088  1.00  0.00    -0.156 C  
HETATM   28  O   UNL     1      -7.925   6.502  70.091  1.00  0.00    -0.108 OA 
ENDROOT
BRANCH  27  29
HETATM   29  C   UNL     1      -9.887   5.668  69.916  1.00  0.00    -0.189 C  
HETATM   30  O   UNL     1     -10.644   4.709  70.132  1.00  0.00    -0.008 OA 
BRANCH  29  31
HETATM   31  C   UNL     1      -9.921   6.250  68.510  1.00  0.00    -0.144 C  
HETATM   32  O   UNL     1     -11.191   6.574  68.005  1.00  0.00    -0.501 OA 
HETATM   33  H   UNL     1     -11.213   6.937  67.127  1.00  0.00     0.000 HD 
ENDBRANCH  29  31
ENDBRANCH  27  29
TORSDOF 2
ENDMDL
MODEL       29
REMARK 921   NORMALIZED FREE ENERGY PREDICTED BY IDOCK:   -5.30 KCAL/MOL
REMARK 922        TOTAL FREE ENERGY PREDICTED BY IDOCK:   -6.39 KCAL/MOL
REMARK 923 INTER-LIGAND FREE ENERGY PREDICTED BY IDOCK:   -5.89 KCAL/MOL
REMARK 924 INTRA-LIGAND FREE ENERGY PREDICTED BY IDOCK:   -0.50 KCAL/MOL
REMARK 927      BINDING AFFINITY PREDICTED BY RF-SCORE:    0.00 PKD
ROOT
HETATM    1  C   UNL     1      -9.948  10.742  64.541  1.00  0.00    -0.395 C  
HETATM    2  C   UNL     1      -8.860  10.560  65.605  1.00  0.00    -0.182 C  
HETATM    3  O   UNL     1      -7.576  10.518  65.027  1.00  0.00    -0.121 OA 
HETATM    4  C   UNL     1      -8.965  11.868  66.444  1.00  0.00    -0.180 C  
HETATM    5  C   UNL     1      -6.800   9.747  65.935  1.00  0.00    -0.096 C  
HETATM    6  C   UNL     1      -6.575  10.489  67.423  1.00  0.00    -0.067 C  
HETATM    7  C   UNL     1      -7.213   9.477  68.477  1.00  0.00    -0.071 C  
HETATM    8  C   UNL     1      -8.363   9.350  69.682  1.00  0.00    -0.147 C  
HETATM    9  C   UNL     1      -9.834   9.523  69.103  1.00  0.00    -0.176 C  
HETATM   10  C   UNL     1     -11.020   8.934  69.834  1.00  0.00    -0.182 C  
HETATM   11  F   UNL     1     -11.402   9.816  70.794  1.00  0.00    -0.296 F  
HETATM   12  C   UNL     1     -10.717   7.543  70.379  1.00  0.00    -0.248 C  
HETATM   13  C   UNL     1     -11.670   6.619  70.468  1.00  0.00    -0.453 C  
HETATM   14  C   UNL     1     -12.463   7.159  71.616  1.00  0.00    -0.370 C  
HETATM   15  O   UNL     1     -13.669   6.975  71.630  1.00  0.00    -0.351 OA 
HETATM   16  C   UNL     1     -11.682   7.840  72.766  1.00  0.00    -0.312 C  
HETATM   17  C   UNL     1     -10.141   8.266  72.511  1.00  0.00    -0.376 C  
HETATM   18  C   UNL     1      -9.506   7.472  71.324  1.00  0.00    -0.158 C  
HETATM   19  C   UNL     1      -9.177   6.095  71.955  1.00  0.00    -0.150 C  
HETATM   20  C   UNL     1      -8.351   7.934  70.334  1.00  0.00    -0.121 C  
HETATM   21  C   UNL     1      -6.915   7.401  70.264  1.00  0.00    -0.059 C  
HETATM   22  C   UNL     1      -6.797   6.924  68.771  1.00  0.00    -0.066 C  
HETATM   23  O   UNL     1      -6.573   6.382  71.175  1.00  0.00    -0.048 OA 
HETATM   24  C   UNL     1      -6.746   8.162  67.809  1.00  0.00    -0.065 C  
HETATM   25  H   UNL     1      -5.684   6.052  71.131  1.00  0.00     0.000 HD 
HETATM   26  C   UNL     1      -5.136   8.210  67.603  1.00  0.00    -0.033 C  
HETATM   27  C   UNL     1      -7.570   8.490  66.339  1.00  0.00    -0.091 C  
HETATM   28  O   UNL     1      -8.989   9.303  66.327  1.00  0.00    -0.144 OA 
ENDROOT
BRANCH  27  29
HETATM   29  C   UNL     1      -8.408   7.294  65.875  1.00  0.00    -0.144 C  
HETATM   30  O   UNL     1      -8.053   6.639  64.883  1.00  0.00    -0.125 OA 
BRANCH  29  31
HETATM   31  C   UNL     1      -9.491   6.670  66.744  1.00  0.00    -0.160 C  
HETATM   32  O   UNL     1     -10.810   7.070  66.471  1.00  0.00    -0.505 OA 
HETATM   33  H   UNL     1     -11.486   6.680  67.012  1.00  0.00     0.000 HD 
ENDBRANCH  29  31
ENDBRANCH  27  29
TORSDOF 2
ENDMDL
MODEL       30
REMARK 921   NORMALIZED FREE ENERGY PREDICTED BY IDOCK:   -5.29 KCAL/MOL
REMARK 922        TOTAL FREE ENERGY PREDICTED BY IDOCK:   -6.37 KCAL/MOL
REMARK 923 INTER-LIGAND FREE ENERGY PREDICTED BY IDOCK:   -6.23 KCAL/MOL
REMARK 924 INTRA-LIGAND FREE ENERGY PREDICTED BY IDOCK:   -0.14 KCAL/MOL
REMARK 927      BINDING AFFINITY PREDICTED BY RF-SCORE:    0.00 PKD
ROOT
HETATM    1  C   UNL     1      -8.284  17.544  68.479  1.00  0.00    -0.278 C  
HETATM    2  C   UNL     1      -8.959  16.524  67.555  1.00  0.00    -0.196 C  
HETATM    3  O   UNL     1     -10.174  17.020  67.041  1.00  0.00    -0.290 OA 
HETATM    4  C   UNL     1      -7.954  16.400  66.372  1.00  0.00    -0.329 C  
HETATM    5  C   UNL     1     -10.951  15.858  66.780  1.00  0.00    -0.151 C  
HETATM    6  C   UNL     1     -10.329  14.896  65.554  1.00  0.00    -0.388 C  
HETATM    7  C   UNL     1     -10.056  13.487  66.249  1.00  0.00    -0.298 C  
HETATM    8  C   UNL     1      -8.864  12.359  66.564  1.00  0.00    -0.106 C  
HETATM    9  C   UNL     1      -7.751  12.946  67.537  1.00  0.00    -0.174 C  
HETATM   10  C   UNL     1      -6.905  12.020  68.381  1.00  0.00    -0.072 C  
HETATM   11  F   UNL     1      -5.868  11.587  67.619  1.00  0.00    -0.043 F  
HETATM   12  C   UNL     1      -7.729  10.885  68.978  1.00  0.00    -0.135 C  
HETATM   13  C   UNL     1      -7.424  10.367  70.166  1.00  0.00     0.005 C  
HETATM   14  C   UNL     1      -6.184   9.606  69.818  1.00  0.00    -0.045 C  
HETATM   15  O   UNL     1      -5.307   9.502  70.660  1.00  0.00    -0.036 OA 
HETATM   16  C   UNL     1      -6.135   8.915  68.433  1.00  0.00    -0.046 C  
HETATM   17  C   UNL     1      -7.220   9.347  67.313  1.00  0.00    -0.087 C  
HETATM   18  C   UNL     1      -8.478  10.023  67.949  1.00  0.00    -0.118 C  
HETATM   19  C   UNL     1      -9.292   8.819  68.488  1.00  0.00    -0.142 C  
HETATM   20  C   UNL     1      -9.438  11.118  67.311  1.00  0.00    -0.178 C  
HETATM   21  C   UNL     1     -10.892  10.934  66.862  1.00  0.00    -0.249 C  
HETATM   22  C   UNL     1     -11.652  12.027  67.697  1.00  0.00    -0.392 C  
HETATM   23  O   UNL     1     -11.450   9.652  67.033  1.00  0.00     0.015 OA 
HETATM   24  C   UNL     1     -11.308  13.459  67.157  1.00  0.00    -0.344 C  
HETATM   25  H   UNL     1     -12.351   9.538  66.754  1.00  0.00     0.000 HD 
HETATM   26  C   UNL     1     -12.635  13.669  66.244  1.00  0.00    -0.346 C  
HETATM   27  C   UNL     1     -10.882  14.906  67.974  1.00  0.00    -0.263 C  
HETATM   28  O   UNL     1      -9.316  15.295  68.247  1.00  0.00    -0.188 OA 
ENDROOT
BRANCH  27  29
HETATM   29  C   UNL     1     -10.966  14.749  69.495  1.00  0.00    -0.266 C  
HETATM   30  O   UNL     1      -9.989  15.047  70.202  1.00  0.00    -0.057 OA 
BRANCH  29  31
HETATM   31  C   UNL     1     -12.285  14.538  70.224  1.00  0.00    -0.330 C  
HETATM   32  O   UNL     1     -13.206  15.597  70.156  1.00  0.00    -0.703 OA 
HETATM   33  H   UNL     1     -14.030  15.465  70.610  1.00  0.00     0.000 HD 
ENDBRANCH  29  31
ENDBRANCH  27  29
TORSDOF 2
ENDMDL
MODEL       31
REMARK 921   NORMALIZED FREE ENERGY PREDICTED BY IDOCK:   -5.21 KCAL/MOL
REMARK 922        TOTAL FREE ENERGY PREDICTED BY IDOCK:   -6.28 KCAL/MOL
REMARK 923 INTER-LIGAND FREE ENERGY PREDICTED BY IDOCK:   -5.81 KCAL/MOL
REMARK 924 INTRA-LIGAND FREE ENERGY PREDICTED BY IDOCK:   -0.47 KCAL/MOL
REMARK 927      BINDING AFFINITY PREDICTED BY RF-SCORE:    0.00 PKD
ROOT
HETATM    1  C   UNL     1      -6.868  10.239  64.896  1.00  0.00    -0.100 C  
HETATM    2  C   UNL     1      -8.296  10.573  65.339  1.00  0.00    -0.165 C  
HETATM    3  O   UNL     1      -8.701  11.837  64.866  1.00  0.00     0.367 OA 
HETATM    4  C   UNL     1      -9.152   9.494  64.612  1.00  0.00    -0.263 C  
HETATM    5  C   UNL     1      -9.672  12.276  65.807  1.00  0.00    -0.216 C  
HETATM    6  C   UNL     1     -11.072  11.351  65.808  1.00  0.00    -0.217 C  
HETATM    7  C   UNL     1     -11.173  10.777  67.292  1.00  0.00    -0.272 C  
HETATM    8  C   UNL     1     -11.267   9.361  68.175  1.00  0.00     0.139 C  
HETATM    9  C   UNL     1      -9.938   8.500  68.034  1.00  0.00    -0.221 C  
HETATM   10  C   UNL     1      -9.554   7.504  69.106  1.00  0.00    -0.157 C  
HETATM   11  F   UNL     1     -10.213   6.343  68.856  1.00  0.00    -0.157 F  
HETATM   12  C   UNL     1      -9.806   8.051  70.506  1.00  0.00    -0.184 C  
HETATM   13  C   UNL     1      -9.028   7.703  71.528  1.00  0.00    -0.148 C  
HETATM   14  C   UNL     1      -9.473   6.291  71.739  1.00  0.00    -0.150 C  
HETATM   15  O   UNL     1      -8.657   5.473  72.133  1.00  0.00    -0.125 OA 
HETATM   16  C   UNL     1     -10.975   5.977  71.531  1.00  0.00    -0.335 C  
HETATM   17  C   UNL     1     -11.893   7.061  70.755  1.00  0.00    -0.401 C  
HETATM   18  C   UNL     1     -11.255   8.488  70.775  1.00  0.00    -0.289 C  
HETATM   19  C   UNL     1     -11.589   9.004  72.198  1.00  0.00    -0.348 C  
HETATM   20  C   UNL     1     -11.402   9.650  69.701  1.00  0.00    -0.113 C  
HETATM   21  C   UNL     1     -12.151  10.977  69.860  1.00  0.00    -0.361 C  
HETATM   22  C   UNL     1     -11.034  12.042  69.562  1.00  0.00    -0.056 C  
HETATM   23  O   UNL     1     -12.783  11.202  71.099  1.00  0.00    -0.380 OA 
HETATM   24  C   UNL     1     -10.674  12.038  68.036  1.00  0.00    -0.244 C  
HETATM   25  H   UNL     1     -13.248  12.025  71.198  1.00  0.00     0.000 HD 
HETATM   26  C   UNL     1     -11.580  13.312  67.596  1.00  0.00    -0.386 C  
HETATM   27  C   UNL     1      -9.159  12.046  67.229  1.00  0.00    -0.178 C  
HETATM   28  O   UNL     1      -8.428  10.651  66.786  1.00  0.00    -0.129 OA 
ENDROOT
BRANCH  27  29
HETATM   29  C   UNL     1      -7.991  12.187  68.210  1.00  0.00    -0.163 C  
HETATM   30  O   UNL     1      -7.447  11.171  68.673  1.00  0.00    -0.102 OA 
BRANCH  29  31
HETATM   31  C   UNL     1      -7.251  13.501  68.417  1.00  0.00    -0.109 C  
HETATM   32  O   UNL     1      -7.640  14.260  69.533  1.00  0.00    -0.348 OA 
HETATM   33  H   UNL     1      -7.178  15.080  69.663  1.00  0.00     0.000 HD 
ENDBRANCH  29  31
ENDBRANCH  27  29
TORSDOF 2
ENDMDL
MODEL       32
REMARK 921   NORMALIZED FREE ENERGY PREDICTED BY IDOCK:   -5.18 KCAL/MOL
REMARK 922        TOTAL FREE ENERGY PREDICTED BY IDOCK:   -6.25 KCAL/MOL
REMARK 923 INTER-LIGAND FREE ENERGY PREDICTED BY IDOCK:   -5.87 KCAL/MOL
REMARK 924 INTRA-LIGAND FREE ENERGY PREDICTED BY IDOCK:   -0.38 KCAL/MOL
REMARK 927      BINDING AFFINITY PREDICTED BY RF-SCORE:    0.00 PKD
ROOT
HETATM    1  C   UNL     1     -13.306   7.315  71.457  1.00  0.00    -0.435 C  
HETATM    2  C   UNL     1     -11.787   7.231  71.647  1.00  0.00    -0.298 C  
HETATM    3  O   UNL     1     -11.323   8.228  72.528  1.00  0.00    -0.375 OA 
HETATM    4  C   UNL     1     -11.595   5.851  72.342  1.00  0.00    -0.341 C  
HETATM    5  C   UNL     1      -9.976   8.454  72.132  1.00  0.00    -0.306 C  
HETATM    6  C   UNL     1      -8.968   7.140  72.402  1.00  0.00    -0.145 C  
HETATM    7  C   UNL     1      -8.405   6.762  70.959  1.00  0.00    -0.127 C  
HETATM    8  C   UNL     1      -8.300   5.517  69.849  1.00  0.00    -0.105 C  
HETATM    9  C   UNL     1      -9.733   5.113  69.291  1.00  0.00    -0.242 C  
HETATM   10  C   UNL     1      -9.869   4.440  67.944  1.00  0.00    -0.080 C  
HETATM   11  F   UNL     1      -9.671   3.108  68.119  1.00  0.00    -0.245 F  
HETATM   12  C   UNL     1      -8.939   5.056  66.905  1.00  0.00    -0.112 C  
HETATM   13  C   UNL     1      -9.285   5.110  65.621  1.00  0.00    -0.157 C  
HETATM   14  C   UNL     1      -9.146   3.669  65.243  1.00  0.00    -0.145 C  
HETATM   15  O   UNL     1      -9.898   3.213  64.397  1.00  0.00    -0.159 OA 
HETATM   16  C   UNL     1      -7.987   2.870  65.887  1.00  0.00    -0.082 C  
HETATM   17  C   UNL     1      -7.240   3.494  67.180  1.00  0.00    -0.063 C  
HETATM   18  C   UNL     1      -7.449   5.040  67.285  1.00  0.00    -0.083 C  
HETATM   19  C   UNL     1      -6.445   5.603  66.247  1.00  0.00    -0.044 C  
HETATM   20  C   UNL     1      -7.483   5.945  68.592  1.00  0.00    -0.086 C  
HETATM   21  C   UNL     1      -6.440   6.973  69.041  1.00  0.00    -0.036 C  
HETATM   22  C   UNL     1      -7.287   8.290  69.173  1.00  0.00    -0.081 C  
HETATM   23  O   UNL     1      -5.320   7.145  68.203  1.00  0.00    -0.018 OA 
HETATM   24  C   UNL     1      -8.234   8.202  70.420  1.00  0.00    -0.114 C  
HETATM   25  H   UNL     1      -4.673   7.783  68.481  1.00  0.00     0.000 HD 
HETATM   26  C   UNL     1      -7.312   9.053  71.453  1.00  0.00    -0.066 C  
HETATM   27  C   UNL     1      -9.896   8.587  70.611  1.00  0.00    -0.186 C  
HETATM   28  O   UNL     1     -11.057   7.452  70.409  1.00  0.00    -0.258 OA 
ENDROOT
BRANCH  27  29
HETATM   29  C   UNL     1     -10.485   9.218  69.346  1.00  0.00    -0.219 C  
HETATM   30  O   UNL     1     -10.651   8.525  68.330  1.00  0.00    -0.198 OA 
BRANCH  29  31
HETATM   31  C   UNL     1     -11.167  10.578  69.353  1.00  0.00    -0.269 C  
HETATM   32  O   UNL     1     -12.464  10.623  68.813  1.00  0.00    -0.795 OA 
HETATM   33  H   UNL     1     -12.890  11.472  68.818  1.00  0.00     0.000 HD 
ENDBRANCH  29  31
ENDBRANCH  27  29
TORSDOF 2
ENDMDL
MODEL       33
REMARK 921   NORMALIZED FREE ENERGY PREDICTED BY IDOCK:   -5.18 KCAL/MOL
REMARK 922        TOTAL FREE ENERGY PREDICTED BY IDOCK:   -6.25 KCAL/MOL
REMARK 923 INTER-LIGAND FREE ENERGY PREDICTED BY IDOCK:   -5.59 KCAL/MOL
REMARK 924 INTRA-LIGAND FREE ENERGY PREDICTED BY IDOCK:   -0.66 KCAL/MOL
REMARK 927      BINDING AFFINITY PREDICTED BY RF-SCORE:    0.00 PKD
ROOT
HETATM    1  C   UNL     1     -12.669  12.549  64.188  1.00  0.00    -0.417 C  
HETATM    2  C   UNL     1     -11.328  12.028  64.716  1.00  0.00    -0.313 C  
HETATM    3  O   UNL     1     -11.331  10.624  64.831  1.00  0.00     0.416 OA 
HETATM    4  C   UNL     1     -10.330  12.414  63.586  1.00  0.00    -0.434 C  
HETATM    5  C   UNL     1     -10.388  10.348  65.860  1.00  0.00    -0.190 C  
HETATM    6  C   UNL     1      -8.810  10.742  65.447  1.00  0.00    -0.202 C  
HETATM    7  C   UNL     1      -8.366  11.818  66.537  1.00  0.00    -0.093 C  
HETATM    8  C   UNL     1      -7.793  13.376  66.721  1.00  0.00     0.425 C  
HETATM    9  C   UNL     1      -8.862  14.450  66.237  1.00  0.00     0.087 C  
HETATM   10  C   UNL     1      -8.829  15.862  66.778  1.00  0.00    -0.262 C  
HETATM   11  F   UNL     1      -7.932  16.571  66.044  1.00  0.00    -0.331 F  
HETATM   12  C   UNL     1      -8.541  15.890  68.274  1.00  0.00    -0.176 C  
HETATM   13  C   UNL     1      -9.059  16.835  69.054  1.00  0.00    -0.191 C  
HETATM   14  C   UNL     1      -8.240  18.014  68.630  1.00  0.00    -0.278 C  
HETATM   15  O   UNL     1      -8.757  19.119  68.641  1.00  0.00    -0.349 OA 
HETATM   16  C   UNL     1      -6.750  17.763  68.292  1.00  0.00    -0.206 C  
HETATM   17  C   UNL     1      -6.255  16.242  68.049  1.00  0.00    -0.135 C  
HETATM   18  C   UNL     1      -7.231  15.202  68.690  1.00  0.00    -0.118 C  
HETATM   19  C   UNL     1      -6.853  15.242  70.193  1.00  0.00    -0.006 C  
HETATM   20  C   UNL     1      -7.534  13.713  68.221  1.00  0.00    -0.124 C  
HETATM   21  C   UNL     1      -7.137  12.414  68.929  1.00  0.00    -0.078 C  
HETATM   22  C   UNL     1      -8.520  11.695  69.132  1.00  0.00     0.279 C  
HETATM   23  O   UNL     1      -6.425  12.544  70.137  1.00  0.00    -0.361 OA 
HETATM   24  C   UNL     1      -9.069  11.178  67.757  1.00  0.00    -0.149 C  
HETATM   25  H   UNL     1      -6.178  11.738  70.577  1.00  0.00     0.000 HD 
HETATM   26  C   UNL     1      -8.589   9.632  67.900  1.00  0.00    -0.122 C  
HETATM   27  C   UNL     1     -10.629  11.279  67.049  1.00  0.00    -0.246 C  
HETATM   28  O   UNL     1     -11.029  12.515  66.054  1.00  0.00    -0.268 OA 
ENDROOT
BRANCH  27  29
HETATM   29  C   UNL     1     -11.651  11.899  68.006  1.00  0.00    -0.332 C  
HETATM   30  O   UNL     1     -12.364  11.165  68.708  1.00  0.00    -0.539 OA 
BRANCH  29  31
HETATM   31  C   UNL     1     -11.635  13.375  68.374  1.00  0.00    -0.332 C  
HETATM   32  O   UNL     1     -12.461  14.214  67.607  1.00  0.00    -0.540 OA 
HETATM   33  H   UNL     1     -12.451  15.136  67.837  1.00  0.00     0.000 HD 
ENDBRANCH  29  31
ENDBRANCH  27  29
TORSDOF 2
ENDMDL
MODEL       34
REMARK 921   NORMALIZED FREE ENERGY PREDICTED BY IDOCK:   -5.11 KCAL/MOL
REMARK 922        TOTAL FREE ENERGY PREDICTED BY IDOCK:   -6.18 KCAL/MOL
REMARK 923 INTER-LIGAND FREE ENERGY PREDICTED BY IDOCK:   -5.53 KCAL/MOL
REMARK 924 INTRA-LIGAND FREE ENERGY PREDICTED BY IDOCK:   -0.65 KCAL/MOL
REMARK 927      BINDING AFFINITY PREDICTED BY RF-SCORE:    0.00 PKD
ROOT
HETATM    1  C   UNL     1      -8.285  13.639  67.932  1.00  0.00    -0.171 C  
HETATM    2  C   UNL     1      -7.661  12.242  67.831  1.00  0.00    -0.133 C  
HETATM    3  O   UNL     1      -6.953  12.081  66.624  1.00  0.00    -0.024 OA 
HETATM    4  C   UNL     1      -6.629  12.232  68.997  1.00  0.00    -0.100 C  
HETATM    5  C   UNL     1      -6.996  10.682  66.369  1.00  0.00    -0.129 C  
HETATM    6  C   UNL     1      -6.146   9.769  67.490  1.00  0.00    -0.058 C  
HETATM    7  C   UNL     1      -7.237   8.798  68.128  1.00  0.00    -0.083 C  
HETATM    8  C   UNL     1      -7.939   8.341  69.574  1.00  0.00    -0.112 C  
HETATM    9  C   UNL     1      -8.762   9.537  70.224  1.00  0.00    -0.270 C  
HETATM   10  C   UNL     1      -9.890   9.254  71.191  1.00  0.00    -0.272 C  
HETATM   11  F   UNL     1      -9.351   9.086  72.426  1.00  0.00    -0.320 F  
HETATM   12  C   UNL     1     -10.742   8.074  70.740  1.00  0.00    -0.236 C  
HETATM   13  C   UNL     1     -12.045   8.027  71.007  1.00  0.00    -0.232 C  
HETATM   14  C   UNL     1     -12.010   7.750  72.477  1.00  0.00    -0.253 C  
HETATM   15  O   UNL     1     -12.897   8.208  73.178  1.00  0.00     0.132 OA 
HETATM   16  C   UNL     1     -10.893   6.814  73.001  1.00  0.00    -0.314 C  
HETATM   17  C   UNL     1      -9.633   6.496  72.037  1.00  0.00    -0.154 C  
HETATM   18  C   UNL     1      -9.967   6.762  70.533  1.00  0.00    -0.197 C  
HETATM   19  C   UNL     1     -10.784   5.509  70.126  1.00  0.00    -0.348 C  
HETATM   20  C   UNL     1      -8.981   7.200  69.366  1.00  0.00    -0.136 C  
HETATM   21  C   UNL     1      -8.518   6.359  68.171  1.00  0.00    -0.115 C  
HETATM   22  C   UNL     1      -8.950   7.238  66.942  1.00  0.00    -0.148 C  
HETATM   23  O   UNL     1      -9.023   5.047  68.088  1.00  0.00    -0.105 OA 
HETATM   24  C   UNL     1      -8.037   8.508  66.836  1.00  0.00    -0.099 C  
HETATM   25  H   UNL     1      -8.737   4.525  67.348  1.00  0.00     0.000 HD 
HETATM   26  C   UNL     1      -7.024   7.952  65.694  1.00  0.00    -0.053 C  
HETATM   27  C   UNL     1      -8.419  10.161  66.573  1.00  0.00    -0.127 C  
HETATM   28  O   UNL     1      -8.660  11.184  67.827  1.00  0.00    -0.127 OA 
ENDROOT
BRANCH  27  29
HETATM   29  C   UNL     1      -9.912  10.365  66.298  1.00  0.00    -0.226 C  
HETATM   30  O   UNL     1     -10.353  10.225  65.146  1.00  0.00    -0.286 OA 
BRANCH  29  31
HETATM   31  C   UNL     1     -10.946  10.430  67.412  1.00  0.00    -0.270 C  
HETATM   32  O   UNL     1     -11.754  11.580  67.440  1.00  0.00    -0.567 OA 
HETATM   33  H   UNL     1     -12.400  11.620  68.136  1.00  0.00     0.000 HD 
ENDBRANCH  29  31
ENDBRANCH  27  29
TORSDOF 2
ENDMDL
MODEL       35
REMARK 921   NORMALIZED FREE ENERGY PREDICTED BY IDOCK:   -5.06 KCAL/MOL
REMARK 922        TOTAL FREE ENERGY PREDICTED BY IDOCK:   -6.12 KCAL/MOL
REMARK 923 INTER-LIGAND FREE ENERGY PREDICTED BY IDOCK:   -5.41 KCAL/MOL
REMARK 924 INTRA-LIGAND FREE ENERGY PREDICTED BY IDOCK:   -0.71 KCAL/MOL
REMARK 927      BINDING AFFINITY PREDICTED BY RF-SCORE:    0.00 PKD
ROOT
HETATM    1  C   UNL     1      -6.458   6.797  65.939  1.00  0.00    -0.050 C  
HETATM    2  C   UNL     1      -7.848   7.269  66.381  1.00  0.00    -0.106 C  
HETATM    3  O   UNL     1      -8.253   8.416  65.670  1.00  0.00    -0.116 OA 
HETATM    4  C   UNL     1      -8.772   6.090  65.955  1.00  0.00    -0.157 C  
HETATM    5  C   UNL     1      -9.151   9.081  66.549  1.00  0.00    -0.163 C  
HETATM    6  C   UNL     1     -10.569   8.230  66.830  1.00  0.00    -0.302 C  
HETATM    7  C   UNL     1     -10.588   7.991  68.407  1.00  0.00    -0.150 C  
HETATM    8  C   UNL     1     -10.657   6.801  69.578  1.00  0.00    -0.265 C  
HETATM    9  C   UNL     1      -9.360   5.882  69.551  1.00  0.00    -0.156 C  
HETATM   10  C   UNL     1      -8.930   5.126  70.789  1.00  0.00    -0.134 C  
HETATM   11  F   UNL     1      -9.631   3.964  70.834  1.00  0.00    -0.203 F  
HETATM   12  C   UNL     1      -9.079   5.969  72.049  1.00  0.00    -0.144 C  
HETATM   13  C   UNL     1      -8.245   5.821  73.076  1.00  0.00    -0.118 C  
HETATM   14  C   UNL     1      -8.709   4.504  73.613  1.00  0.00    -0.106 C  
HETATM   15  O   UNL     1      -7.888   3.761  74.126  1.00  0.00    -0.079 OA 
HETATM   16  C   UNL     1     -10.228   4.208  73.565  1.00  0.00    -0.214 C  
HETATM   17  C   UNL     1     -11.169   5.132  72.626  1.00  0.00    -0.277 C  
HETATM   18  C   UNL     1     -10.498   6.506  72.301  1.00  0.00    -0.226 C  
HETATM   19  C   UNL     1     -10.728   7.327  73.596  1.00  0.00    -0.282 C  
HETATM   20  C   UNL     1     -10.687   7.416  71.011  1.00  0.00    -0.244 C  
HETATM   21  C   UNL     1     -11.394   8.772  70.922  1.00  0.00    -0.275 C  
HETATM   22  C   UNL     1     -10.274   9.708  70.338  1.00  0.00    -0.348 C  
HETATM   23  O   UNL     1     -11.939   9.280  72.118  1.00  0.00    -0.344 OA 
HETATM   24  C   UNL     1     -10.013   9.363  68.830  1.00  0.00    -0.188 C  
HETATM   25  H   UNL     1     -12.378  10.121  72.063  1.00  0.00     0.000 HD 
HETATM   26  C   UNL     1     -10.916  10.545  68.178  1.00  0.00    -0.330 C  
HETATM   27  C   UNL     1      -8.553   9.144  67.955  1.00  0.00    -0.121 C  
HETATM   28  O   UNL     1      -7.884   7.661  67.782  1.00  0.00    -0.115 OA 
ENDROOT
BRANCH  27  29
HETATM   29  C   UNL     1      -7.322   9.449  68.812  1.00  0.00    -0.074 C  
HETATM   30  O   UNL     1      -6.911  10.616  68.911  1.00  0.00    -0.057 OA 
BRANCH  29  31
HETATM   31  C   UNL     1      -6.747   8.446  69.803  1.00  0.00    -0.039 C  
HETATM   32  O   UNL     1      -5.571   7.788  69.406  1.00  0.00    -0.025 OA 
HETATM   33  H   UNL     1      -5.212   7.162  70.025  1.00  0.00     0.000 HD 
ENDBRANCH  29  31
ENDBRANCH  27  29
TORSDOF 2
ENDMDL
MODEL       36
REMARK 921   NORMALIZED FREE ENERGY PREDICTED BY IDOCK:   -5.02 KCAL/MOL
REMARK 922        TOTAL FREE ENERGY PREDICTED BY IDOCK:   -6.08 KCAL/MOL
REMARK 923 INTER-LIGAND FREE ENERGY PREDICTED BY IDOCK:   -5.40 KCAL/MOL
REMARK 924 INTRA-LIGAND FREE ENERGY PREDICTED BY IDOCK:   -0.68 KCAL/MOL
REMARK 927      BINDING AFFINITY PREDICTED BY RF-SCORE:    0.00 PKD
ROOT
HETATM    1  C   UNL     1     -11.121   4.906  71.923  1.00  0.00     0.122 C  
HETATM    2  C   UNL     1      -9.760   5.227  71.296  1.00  0.00    -0.166 C  
HETATM    3  O   UNL     1      -8.701   4.726  72.078  1.00  0.00    -0.121 OA 
HETATM    4  C   UNL     1      -9.789   4.426  69.960  1.00  0.00    -0.294 C  
HETATM    5  C   UNL     1      -7.605   5.584  71.785  1.00  0.00    -0.095 C  
HETATM    6  C   UNL     1      -7.062   5.462  70.202  1.00  0.00    -0.065 C  
HETATM    7  C   UNL     1      -7.236   6.930  69.605  1.00  0.00    -0.080 C  
HETATM    8  C   UNL     1      -7.967   7.797  68.377  1.00  0.00    -0.122 C  
HETATM    9  C   UNL     1      -9.551   7.767  68.509  1.00  0.00    -0.151 C  
HETATM   10  C   UNL     1     -10.392   8.863  67.894  1.00  0.00    -0.230 C  
HETATM   11  F   UNL     1     -10.595   8.554  66.587  1.00  0.00    -0.367 F  
HETATM   12  C   UNL     1      -9.769  10.239  68.099  1.00  0.00    -0.158 C  
HETATM   13  C   UNL     1     -10.529  11.322  68.240  1.00  0.00    -0.220 C  
HETATM   14  C   UNL     1     -11.024  11.489  66.838  1.00  0.00    -0.296 C  
HETATM   15  O   UNL     1     -12.141  11.948  66.664  1.00  0.00    -0.587 OA 
HETATM   16  C   UNL     1     -10.042  11.154  65.689  1.00  0.00    -0.304 C  
HETATM   17  C   UNL     1      -8.707  10.306  66.033  1.00  0.00    -0.162 C  
HETATM   18  C   UNL     1      -8.340  10.386  67.551  1.00  0.00    -0.114 C  
HETATM   19  C   UNL     1      -7.669  11.777  67.679  1.00  0.00    -0.137 C  
HETATM   20  C   UNL     1      -7.586   9.307  68.442  1.00  0.00    -0.086 C  
HETATM   21  C   UNL     1      -6.174   9.407  69.030  1.00  0.00    -0.042 C  
HETATM   22  C   UNL     1      -6.427   9.209  70.569  1.00  0.00    -0.056 C  
HETATM   23  O   UNL     1      -5.457  10.589  68.758  1.00  0.00    -0.042 OA 
HETATM   24  C   UNL     1      -6.813   7.719  70.867  1.00  0.00    -0.042 C  
HETATM   25  H   UNL     1      -4.582  10.651  69.122  1.00  0.00     0.000 HD 
HETATM   26  C   UNL     1      -5.349   7.208  71.351  1.00  0.00    -0.028 C  
HETATM   27  C   UNL     1      -8.057   7.043  71.837  1.00  0.00    -0.098 C  
HETATM   28  O   UNL     1      -9.514   6.658  71.199  1.00  0.00    -0.163 OA 
ENDROOT
BRANCH  27  29
HETATM   29  C   UNL     1      -8.831   8.119  72.604  1.00  0.00    -0.219 C  
HETATM   30  O   UNL     1      -8.308   8.679  73.581  1.00  0.00    -0.380 OA 
BRANCH  29  31
HETATM   31  C   UNL     1     -10.094   8.766  72.054  1.00  0.00    -0.327 C  
HETATM   32  O   UNL     1     -11.297   8.416  72.691  1.00  0.00    -0.372 OA 
HETATM   33  H   UNL     1     -12.085   8.821  72.348  1.00  0.00     0.000 HD 
ENDBRANCH  29  31
ENDBRANCH  27  29
TORSDOF 2
ENDMDL
MODEL       37
REMARK 921   NORMALIZED FREE ENERGY PREDICTED BY IDOCK:   -5.02 KCAL/MOL
REMARK 922        TOTAL FREE ENERGY PREDICTED BY IDOCK:   -6.07 KCAL/MOL
REMARK 923 INTER-LIGAND FREE ENERGY PREDICTED BY IDOCK:   -5.45 KCAL/MOL
REMARK 924 INTRA-LIGAND FREE ENERGY PREDICTED BY IDOCK:   -0.62 KCAL/MOL
REMARK 927      BINDING AFFINITY PREDICTED BY RF-SCORE:    0.00 PKD
ROOT
HETATM    1  C   UNL     1     -11.582   6.118  69.802  1.00  0.00    -0.201 C  
HETATM    2  C   UNL     1     -10.256   6.588  69.195  1.00  0.00    -0.180 C  
HETATM    3  O   UNL     1      -9.185   5.767  69.599  1.00  0.00    -0.135 OA 
HETATM    4  C   UNL     1     -10.473   6.376  67.668  1.00  0.00    -0.284 C  
HETATM    5  C   UNL     1      -8.043   6.613  69.534  1.00  0.00    -0.126 C  
HETATM    6  C   UNL     1      -7.651   7.092  67.975  1.00  0.00    -0.111 C  
HETATM    7  C   UNL     1      -7.739   8.684  68.010  1.00  0.00    -0.102 C  
HETATM    8  C   UNL     1      -8.489   9.998  67.300  1.00  0.00    -0.122 C  
HETATM    9  C   UNL     1     -10.053  10.001  67.591  1.00  0.00    -0.232 C  
HETATM   10  C   UNL     1     -10.838  11.292  67.544  1.00  0.00    -0.245 C  
HETATM   11  F   UNL     1     -11.179  11.530  66.251  1.00  0.00    -0.338 F  
HETATM   12  C   UNL     1     -10.076  12.444  68.188  1.00  0.00    -0.224 C  
HETATM   13  C   UNL     1     -10.718  13.424  68.819  1.00  0.00    -0.257 C  
HETATM   14  C   UNL     1     -11.314  14.151  67.655  1.00  0.00    -0.319 C  
HETATM   15  O   UNL     1     -12.394  14.698  67.799  1.00  0.00    -0.160 OA 
HETATM   16  C   UNL     1     -10.468  14.241  66.361  1.00  0.00    -0.282 C  
HETATM   17  C   UNL     1      -9.192  13.258  66.199  1.00  0.00     0.004 C  
HETATM   18  C   UNL     1      -8.691  12.719  67.578  1.00  0.00    -0.185 C  
HETATM   19  C   UNL     1      -7.886  13.913  68.153  1.00  0.00    -0.147 C  
HETATM   20  C   UNL     1      -7.966  11.341  67.895  1.00  0.00    -0.118 C  
HETATM   21  C   UNL     1      -6.507  11.129  68.311  1.00  0.00    -0.057 C  
HETATM   22  C   UNL     1      -6.644  10.359  69.674  1.00  0.00    -0.085 C  
HETATM   23  O   UNL     1      -5.710  12.285  68.433  1.00  0.00    -0.053 OA 
HETATM   24  C   UNL     1      -7.140   8.893  69.420  1.00  0.00    -0.057 C  
HETATM   25  H   UNL     1      -4.805  12.154  68.690  1.00  0.00     0.000 HD 
HETATM   26  C   UNL     1      -5.693   8.159  69.500  1.00  0.00    -0.026 C  
HETATM   27  C   UNL     1      -8.353   7.957  70.193  1.00  0.00    -0.127 C  
HETATM   28  O   UNL     1      -9.888   7.928  69.627  1.00  0.00    -0.176 OA 
ENDROOT
BRANCH  27  29
HETATM   29  C   UNL     1      -8.956   8.686  71.397  1.00  0.00    -0.222 C  
HETATM   30  O   UNL     1      -8.292   8.815  72.438  1.00  0.00    -0.387 OA 
BRANCH  29  31
HETATM   31  C   UNL     1     -10.215   9.535  71.292  1.00  0.00    -0.175 C  
HETATM   32  O   UNL     1     -11.283   9.165  72.127  1.00  0.00    -0.326 OA 
HETATM   33  H   UNL     1     -12.068   9.696  72.062  1.00  0.00     0.000 HD 
ENDBRANCH  29  31
ENDBRANCH  27  29
TORSDOF 2
ENDMDL
MODEL       38
REMARK 921   NORMALIZED FREE ENERGY PREDICTED BY IDOCK:   -4.94 KCAL/MOL
REMARK 922        TOTAL FREE ENERGY PREDICTED BY IDOCK:   -5.99 KCAL/MOL
REMARK 923 INTER-LIGAND FREE ENERGY PREDICTED BY IDOCK:   -5.52 KCAL/MOL
REMARK 924 INTRA-LIGAND FREE ENERGY PREDICTED BY IDOCK:   -0.47 KCAL/MOL
REMARK 927      BINDING AFFINITY PREDICTED BY RF-SCORE:    0.00 PKD
ROOT
HETATM    1  C   UNL     1     -10.382   3.775  64.579  1.00  0.00    -0.208 C  
HETATM    2  C   UNL     1      -9.121   4.388  65.197  1.00  0.00    -0.148 C  
HETATM    3  O   UNL     1      -8.301   3.402  65.780  1.00  0.00    -0.100 OA 
HETATM    4  C   UNL     1      -8.370   4.968  63.963  1.00  0.00    -0.132 C  
HETATM    5  C   UNL     1      -7.589   4.089  66.802  1.00  0.00    -0.088 C  
HETATM    6  C   UNL     1      -6.521   5.242  66.216  1.00  0.00    -0.044 C  
HETATM    7  C   UNL     1      -7.019   6.614  66.859  1.00  0.00    -0.067 C  
HETATM    8  C   UNL     1      -7.542   8.155  66.482  1.00  0.00    -0.092 C  
HETATM    9  C   UNL     1      -8.930   8.125  65.707  1.00  0.00    -0.165 C  
HETATM   10  C   UNL     1      -9.851   9.325  65.737  1.00  0.00    -0.231 C  
HETATM   11  F   UNL     1      -9.445  10.189  64.771  1.00  0.00    -0.246 F  
HETATM   12  C   UNL     1      -9.916   9.956  67.122  1.00  0.00    -0.252 C  
HETATM   13  C   UNL     1     -11.029  10.542  67.557  1.00  0.00    -0.365 C  
HETATM   14  C   UNL     1     -11.021  11.787  66.727  1.00  0.00    -0.288 C  
HETATM   15  O   UNL     1     -12.089  12.267  66.384  1.00  0.00    -0.623 OA 
HETATM   16  C   UNL     1      -9.649  12.440  66.433  1.00  0.00    -0.249 C  
HETATM   17  C   UNL     1      -8.306  11.577  66.699  1.00  0.00    -0.167 C  
HETATM   18  C   UNL     1      -8.558  10.397  67.693  1.00  0.00    -0.118 C  
HETATM   19  C   UNL     1      -8.562  11.096  69.077  1.00  0.00    -0.033 C  
HETATM   20  C   UNL     1      -7.816   8.994  67.767  1.00  0.00    -0.101 C  
HETATM   21  C   UNL     1      -6.855   8.504  68.856  1.00  0.00    -0.061 C  
HETATM   22  C   UNL     1      -7.538   7.175  69.347  1.00  0.00    -0.098 C  
HETATM   23  O   UNL     1      -6.599   9.392  69.920  1.00  0.00    -0.048 OA 
HETATM   24  C   UNL     1      -7.405   6.061  68.251  1.00  0.00    -0.085 C  
HETATM   25  H   UNL     1      -6.003   9.089  70.595  1.00  0.00     0.000 HD 
HETATM   26  C   UNL     1      -6.129   5.283  68.889  1.00  0.00    -0.022 C  
HETATM   27  C   UNL     1      -8.551   4.955  67.615  1.00  0.00    -0.103 C  
HETATM   28  O   UNL     1      -9.424   5.314  66.278  1.00  0.00    -0.145 OA 
ENDROOT
BRANCH  27  29
HETATM   29  C   UNL     1      -9.894   5.039  68.347  1.00  0.00    -0.147 C  
HETATM   30  O   UNL     1     -10.061   4.415  69.406  1.00  0.00    -0.162 OA 
BRANCH  29  31
HETATM   31  C   UNL     1     -10.942   6.092  68.013  1.00  0.00    -0.305 C  
HETATM   32  O   UNL     1     -11.683   6.592  69.097  1.00  0.00    -0.629 OA 
HETATM   33  H   UNL     1     -12.337   7.250  68.889  1.00  0.00     0.000 HD 
ENDBRANCH  29  31
ENDBRANCH  27  29
TORSDOF 2
ENDMDL
MODEL       39
REMARK 921   NORMALIZED FREE ENERGY PREDICTED BY IDOCK:   -4.91 KCAL/MOL
REMARK 922        TOTAL FREE ENERGY PREDICTED BY IDOCK:   -5.95 KCAL/MOL
REMARK 923 INTER-LIGAND FREE ENERGY PREDICTED BY IDOCK:   -5.52 KCAL/MOL
REMARK 924 INTRA-LIGAND FREE ENERGY PREDICTED BY IDOCK:   -0.43 KCAL/MOL
REMARK 927      BINDING AFFINITY PREDICTED BY RF-SCORE:    0.00 PKD
ROOT
HETATM    1  C   UNL     1      -5.777   6.668  67.395  1.00  0.00    -0.013 C  
HETATM    2  C   UNL     1      -6.491   6.897  68.732  1.00  0.00    -0.036 C  
HETATM    3  O   UNL     1      -6.435   5.751  69.549  1.00  0.00    -0.038 OA 
HETATM    4  C   UNL     1      -5.630   8.007  69.405  1.00  0.00    -0.027 C  
HETATM    5  C   UNL     1      -7.587   5.847  70.377  1.00  0.00    -0.091 C  
HETATM    6  C   UNL     1      -7.539   7.138  71.447  1.00  0.00    -0.088 C  
HETATM    7  C   UNL     1      -8.814   8.018  71.072  1.00  0.00    -0.153 C  
HETATM    8  C   UNL     1      -9.291   9.547  70.595  1.00  0.00    -0.263 C  
HETATM    9  C   UNL     1      -8.739   9.903  69.147  1.00  0.00    -0.159 C  
HETATM   10  C   UNL     1      -9.440  10.934  68.292  1.00  0.00    -0.168 C  
HETATM   11  F   UNL     1      -8.985  12.161  68.657  1.00  0.00    -0.175 F  
HETATM   12  C   UNL     1     -10.956  10.805  68.374  1.00  0.00    -0.299 C  
HETATM   13  C   UNL     1     -11.727  11.103  67.331  1.00  0.00    -0.030 C  
HETATM   14  C   UNL     1     -11.614  12.595  67.330  1.00  0.00    -0.364 C  
HETATM   15  O   UNL     1     -11.655  13.183  66.262  1.00  0.00    -0.324 OA 
HETATM   16  C   UNL     1     -11.545  13.308  68.703  1.00  0.00    -0.362 C  
HETATM   17  C   UNL     1     -11.224  12.423  70.020  1.00  0.00     0.187 C  
HETATM   18  C   UNL     1     -11.535  10.908  69.795  1.00  0.00    -0.390 C  
HETATM   19  C   UNL     1     -13.076  10.837  69.941  1.00  0.00     0.327 C  
HETATM   20  C   UNL     1     -10.842   9.647  70.472  1.00  0.00    -0.371 C  
HETATM   21  C   UNL     1     -11.454   8.684  71.495  1.00  0.00    -0.295 C  
HETATM   22  C   UNL     1     -11.297   7.287  70.792  1.00  0.00    -0.312 C  
HETATM   23  O   UNL     1     -12.785   8.936  71.883  1.00  0.00    -0.328 OA 
HETATM   24  C   UNL     1      -9.790   6.854  70.778  1.00  0.00    -0.190 C  
HETATM   25  H   UNL     1     -13.165   8.340  72.517  1.00  0.00     0.000 HD 
HETATM   26  C   UNL     1      -9.839   5.861  72.063  1.00  0.00    -0.181 C  
HETATM   27  C   UNL     1      -8.808   6.204  69.530  1.00  0.00    -0.130 C  
HETATM   28  O   UNL     1      -7.909   7.174  68.567  1.00  0.00    -0.117 OA 
ENDROOT
BRANCH  27  29
HETATM   29  C   UNL     1      -9.615   5.920  68.259  1.00  0.00    -0.121 C  
HETATM   30  O   UNL     1     -10.053   4.778  68.047  1.00  0.00    -0.125 OA 
BRANCH  29  31
HETATM   31  C   UNL     1     -10.177   7.031  67.383  1.00  0.00    -0.215 C  
HETATM   32  O   UNL     1     -11.522   6.896  67.000  1.00  0.00    -0.670 OA 
HETATM   33  H   UNL     1     -11.873   7.590  66.453  1.00  0.00     0.000 HD 
ENDBRANCH  29  31
ENDBRANCH  27  29
TORSDOF 2
ENDMDL
MODEL       40
REMARK 921   NORMALIZED FREE ENERGY PREDICTED BY IDOCK:   -4.87 KCAL/MOL
REMARK 922        TOTAL FREE ENERGY PREDICTED BY IDOCK:   -5.90 KCAL/MOL
REMARK 923 INTER-LIGAND FREE ENERGY PREDICTED BY IDOCK:   -5.20 KCAL/MOL
REMARK 924 INTRA-LIGAND FREE ENERGY PREDICTED BY IDOCK:   -0.70 KCAL/MOL
REMARK 927      BINDING AFFINITY PREDICTED BY RF-SCORE:    0.00 PKD
ROOT
HETATM    1  C   UNL     1      -9.112  11.216  68.346  1.00  0.00    -0.168 C  
HETATM    2  C   UNL     1      -9.971  10.171  69.067  1.00  0.00    -0.208 C  
HETATM    3  O   UNL     1     -10.577  10.708  70.219  1.00  0.00    -0.147 OA 
HETATM    4  C   UNL     1     -11.096   9.866  68.033  1.00  0.00    -0.220 C  
HETATM    5  C   UNL     1     -10.769   9.589  71.076  1.00  0.00    -0.340 C  
HETATM    6  C   UNL     1     -11.879   8.477  70.487  1.00  0.00    -0.022 C  
HETATM    7  C   UNL     1     -11.054   7.119  70.350  1.00  0.00    -0.309 C  
HETATM    8  C   UNL     1     -10.593   5.939  69.261  1.00  0.00    -0.379 C  
HETATM    9  C   UNL     1      -9.629   6.526  68.141  1.00  0.00    -0.123 C  
HETATM   10  C   UNL     1      -8.672   5.618  67.401  1.00  0.00    -0.107 C  
HETATM   11  F   UNL     1      -9.350   5.042  66.374  1.00  0.00    -0.127 F  
HETATM   12  C   UNL     1      -8.015   4.606  68.331  1.00  0.00    -0.080 C  
HETATM   13  C   UNL     1      -6.775   4.176  68.110  1.00  0.00    -0.047 C  
HETATM   14  C   UNL     1      -7.003   3.296  66.921  1.00  0.00    -0.054 C  
HETATM   15  O   UNL     1      -6.119   3.203  66.086  1.00  0.00    -0.023 OA 
HETATM   16  C   UNL     1      -8.319   2.482  66.877  1.00  0.00    -0.089 C  
HETATM   17  C   UNL     1      -9.518   2.891  67.885  1.00  0.00    -0.203 C  
HETATM   18  C   UNL     1      -8.996   3.713  69.108  1.00  0.00    -0.176 C  
HETATM   19  C   UNL     1      -8.390   2.626  70.032  1.00  0.00    -0.074 C  
HETATM   20  C   UNL     1      -9.766   4.815  69.957  1.00  0.00    -0.280 C  
HETATM   21  C   UNL     1     -10.259   4.701  71.404  1.00  0.00    -0.141 C  
HETATM   22  C   UNL     1      -9.554   5.919  72.105  1.00  0.00    -0.164 C  
HETATM   23  O   UNL     1     -10.001   3.485  72.066  1.00  0.00    -0.165 OA 
HETATM   24  C   UNL     1     -10.201   7.266  71.632  1.00  0.00    -0.207 C  
HETATM   25  H   UNL     1     -10.306   3.414  72.963  1.00  0.00     0.000 HD 
HETATM   26  C   UNL     1     -11.184   7.493  72.905  1.00  0.00    -0.396 C  
HETATM   27  C   UNL     1      -9.495   8.745  71.123  1.00  0.00    -0.240 C  
HETATM   28  O   UNL     1      -9.191   9.039  69.543  1.00  0.00    -0.146 OA 
ENDROOT
BRANCH  27  29
HETATM   29  C   UNL     1      -7.971   8.732  71.272  1.00  0.00    -0.139 C  
HETATM   30  O   UNL     1      -7.454   9.014  72.365  1.00  0.00    -0.340 OA 
BRANCH  29  31
HETATM   31  C   UNL     1      -7.054   8.093  70.239  1.00  0.00    -0.047 C  
HETATM   32  O   UNL     1      -6.222   8.970  69.523  1.00  0.00    -0.039 OA 
HETATM   33  H   UNL     1      -5.649   8.570  68.879  1.00  0.00     0.000 HD 
ENDBRANCH  29  31
ENDBRANCH  27  29
TORSDOF 2
ENDMDL
MODEL       41
REMARK 921   NORMALIZED FREE ENERGY PREDICTED BY IDOCK:   -4.85 KCAL/MOL
REMARK 922        TOTAL FREE ENERGY PREDICTED BY IDOCK:   -5.89 KCAL/MOL
REMARK 923 INTER-LIGAND FREE ENERGY PREDICTED BY IDOCK:   -5.43 KCAL/MOL
REMARK 924 INTRA-LIGAND FREE ENERGY PREDICTED BY IDOCK:   -0.45 KCAL/MOL
REMARK 927      BINDING AFFINITY PREDICTED BY RF-SCORE:    0.00 PKD
ROOT
HETATM    1  C   UNL     1     -11.208   3.256  73.704  1.00  0.00    -0.280 C  
HETATM    2  C   UNL     1      -9.991   4.104  73.319  1.00  0.00    -0.136 C  
HETATM    3  O   UNL     1      -9.545   4.886  74.402  1.00  0.00    -0.123 OA 
HETATM    4  C   UNL     1      -8.898   3.037  73.017  1.00  0.00    -0.087 C  
HETATM    5  C   UNL     1      -8.916   6.009  73.797  1.00  0.00    -0.127 C  
HETATM    6  C   UNL     1      -7.523   5.620  72.948  1.00  0.00    -0.096 C  
HETATM    7  C   UNL     1      -7.820   6.088  71.452  1.00  0.00    -0.112 C  
HETATM    8  C   UNL     1      -7.900   5.548  69.873  1.00  0.00    -0.082 C  
HETATM    9  C   UNL     1      -9.077   4.497  69.677  1.00  0.00    -0.166 C  
HETATM   10  C   UNL     1      -9.693   4.284  68.312  1.00  0.00    -0.096 C  
HETATM   11  F   UNL     1      -8.920   3.394  67.637  1.00  0.00    -0.114 F  
HETATM   12  C   UNL     1      -9.891   5.598  67.566  1.00  0.00    -0.156 C  
HETATM   13  C   UNL     1     -10.909   5.762  66.725  1.00  0.00    -0.327 C  
HETATM   14  C   UNL     1     -10.458   4.905  65.584  1.00  0.00    -0.121 C  
HETATM   15  O   UNL     1     -11.302   4.324  64.922  1.00  0.00    -0.278 OA 
HETATM   16  C   UNL     1      -8.944   4.885  65.261  1.00  0.00    -0.152 C  
HETATM   17  C   UNL     1      -7.908   5.465  66.361  1.00  0.00    -0.100 C  
HETATM   18  C   UNL     1      -8.611   6.427  67.373  1.00  0.00    -0.107 C  
HETATM   19  C   UNL     1      -8.734   7.750  66.575  1.00  0.00    -0.162 C  
HETATM   20  C   UNL     1      -8.230   6.713  68.890  1.00  0.00    -0.120 C  
HETATM   21  C   UNL     1      -7.641   8.000  69.477  1.00  0.00    -0.101 C  
HETATM   22  C   UNL     1      -8.686   8.384  70.586  1.00  0.00    -0.158 C  
HETATM   23  O   UNL     1      -7.409   9.058  68.576  1.00  0.00    -0.075 OA 
HETATM   24  C   UNL     1      -8.589   7.387  71.792  1.00  0.00    -0.124 C  
HETATM   25  H   UNL     1      -7.044   9.856  68.939  1.00  0.00     0.000 HD 
HETATM   26  C   UNL     1      -7.673   8.312  72.764  1.00  0.00    -0.170 C  
HETATM   27  C   UNL     1      -9.803   6.564  72.683  1.00  0.00    -0.169 C  
HETATM   28  O   UNL     1     -10.289   5.059  72.262  1.00  0.00    -0.197 OA 
ENDROOT
BRANCH  27  29
HETATM   29  C   UNL     1     -11.211   6.989  72.256  1.00  0.00    -0.263 C  
HETATM   30  O   UNL     1     -11.750   7.970  72.793  1.00  0.00    -0.396 OA 
BRANCH  29  31
HETATM   31  C   UNL     1     -11.875   6.464  70.991  1.00  0.00    -0.258 C  
HETATM   32  O   UNL     1     -13.018   7.158  70.558  1.00  0.00    -0.581 OA 
HETATM   33  H   UNL     1     -13.432   6.831  69.768  1.00  0.00     0.000 HD 
ENDBRANCH  29  31
ENDBRANCH  27  29
TORSDOF 2
ENDMDL
MODEL       42
REMARK 921   NORMALIZED FREE ENERGY PREDICTED BY IDOCK:   -4.84 KCAL/MOL
REMARK 922        TOTAL FREE ENERGY PREDICTED BY IDOCK:   -5.87 KCAL/MOL
REMARK 923 INTER-LIGAND FREE ENERGY PREDICTED BY IDOCK:   -5.24 KCAL/MOL
REMARK 924 INTRA-LIGAND FREE ENERGY PREDICTED BY IDOCK:   -0.63 KCAL/MOL
REMARK 927      BINDING AFFINITY PREDICTED BY RF-SCORE:    0.00 PKD
ROOT
HETATM    1  C   UNL     1      -9.397   2.850  69.913  1.00  0.00    -0.213 C  
HETATM    2  C   UNL     1      -8.841   4.168  70.463  1.00  0.00    -0.082 C  
HETATM    3  O   UNL     1      -9.208   4.361  71.809  1.00  0.00    -0.126 OA 
HETATM    4  C   UNL     1      -7.300   3.948  70.414  1.00  0.00    -0.041 C  
HETATM    5  C   UNL     1      -9.213   5.773  71.979  1.00  0.00    -0.147 C  
HETATM    6  C   UNL     1      -7.694   6.471  71.845  1.00  0.00    -0.098 C  
HETATM    7  C   UNL     1      -7.828   7.497  70.631  1.00  0.00    -0.095 C  
HETATM    8  C   UNL     1      -7.192   7.891  69.137  1.00  0.00    -0.081 C  
HETATM    9  C   UNL     1      -7.459   6.743  68.070  1.00  0.00    -0.099 C  
HETATM   10  C   UNL     1      -7.482   7.060  66.592  1.00  0.00    -0.081 C  
HETATM   11  F   UNL     1      -6.202   7.046  66.139  1.00  0.00    -0.035 F  
HETATM   12  C   UNL     1      -8.209   8.368  66.304  1.00  0.00    -0.111 C  
HETATM   13  C   UNL     1      -8.892   8.539  65.174  1.00  0.00    -0.116 C  
HETATM   14  C   UNL     1      -7.767   8.669  64.196  1.00  0.00    -0.129 C  
HETATM   15  O   UNL     1      -7.929   8.251  63.061  1.00  0.00    -0.145 OA 
HETATM   16  C   UNL     1      -6.494   9.415  64.666  1.00  0.00    -0.080 C  
HETATM   17  C   UNL     1      -6.289   9.677  66.250  1.00  0.00    -0.069 C  
HETATM   18  C   UNL     1      -7.639   9.596  67.034  1.00  0.00    -0.095 C  
HETATM   19  C   UNL     1      -8.300  10.967  66.742  1.00  0.00    -0.147 C  
HETATM   20  C   UNL     1      -7.879   9.159  68.544  1.00  0.00    -0.101 C  
HETATM   21  C   UNL     1      -8.302  10.052  69.716  1.00  0.00    -0.172 C  
HETATM   22  C   UNL     1      -9.612   9.349  70.229  1.00  0.00    -0.294 C  
HETATM   23  O   UNL     1      -8.509  11.416  69.430  1.00  0.00    -0.359 OA 
HETATM   24  C   UNL     1      -9.258   7.998  70.942  1.00  0.00    -0.163 C  
HETATM   25  H   UNL     1      -8.771  11.969  70.156  1.00  0.00     0.000 HD 
HETATM   26  C   UNL     1      -9.313   8.541  72.472  1.00  0.00    -0.316 C  
HETATM   27  C   UNL     1      -9.951   6.434  70.814  1.00  0.00    -0.185 C  
HETATM   28  O   UNL     1      -9.362   5.330  69.759  1.00  0.00    -0.123 OA 
ENDROOT
BRANCH  27  29
HETATM   29  C   UNL     1     -11.190   6.430  69.913  1.00  0.00    -0.420 C  
HETATM   30  O   UNL     1     -12.284   6.806  70.365  1.00  0.00    -0.324 OA 
BRANCH  29  31
HETATM   31  C   UNL     1     -11.101   6.283  68.401  1.00  0.00    -0.279 C  
HETATM   32  O   UNL     1     -11.264   7.462  67.654  1.00  0.00    -0.514 OA 
HETATM   33  H   UNL     1     -11.208   7.370  66.710  1.00  0.00     0.000 HD 
ENDBRANCH  29  31
ENDBRANCH  27  29
TORSDOF 2
ENDMDL
MODEL       43
REMARK 921   NORMALIZED FREE ENERGY PREDICTED BY IDOCK:   -4.64 KCAL/MOL
REMARK 922        TOTAL FREE ENERGY PREDICTED BY IDOCK:   -5.65 KCAL/MOL
REMARK 923 INTER-LIGAND FREE ENERGY PREDICTED BY IDOCK:   -6.54 KCAL/MOL
REMARK 924 INTRA-LIGAND FREE ENERGY PREDICTED BY IDOCK:    0.89 KCAL/MOL
REMARK 927      BINDING AFFINITY PREDICTED BY RF-SCORE:    0.00 PKD
ROOT
HETATM    1  C   UNL     1     -10.678  15.556  70.573  1.00  0.00    -0.309 C  
HETATM    2  C   UNL     1     -10.570  15.106  69.112  1.00  0.00    -0.256 C  
HETATM    3  O   UNL     1     -11.666  15.557  68.351  1.00  0.00    -0.365 OA 
HETATM    4  C   UNL     1      -9.298  15.850  68.607  1.00  0.00    -0.212 C  
HETATM    5  C   UNL     1     -11.786  14.607  67.299  1.00  0.00    -0.385 C  
HETATM    6  C   UNL     1     -10.490  14.620  66.233  1.00  0.00    -0.302 C  
HETATM    7  C   UNL     1      -9.888  13.145  66.315  1.00  0.00    -0.284 C  
HETATM    8  C   UNL     1      -8.494  12.286  66.647  1.00  0.00    -0.056 C  
HETATM    9  C   UNL     1      -8.064  12.443  68.169  1.00  0.00    -0.163 C  
HETATM   10  C   UNL     1      -7.209  11.388  68.836  1.00  0.00    -0.113 C  
HETATM   11  F   UNL     1      -5.909  11.657  68.545  1.00  0.00    -0.049 F  
HETATM   12  C   UNL     1      -7.636   9.979  68.443  1.00  0.00    -0.083 C  
HETATM   13  C   UNL     1      -7.517   8.964  69.296  1.00  0.00    -0.075 C  
HETATM   14  C   UNL     1      -6.032   8.776  69.286  1.00  0.00    -0.041 C  
HETATM   15  O   UNL     1      -5.485   8.398  70.309  1.00  0.00    -0.022 OA 
HETATM   16  C   UNL     1      -5.294   8.987  67.941  1.00  0.00    -0.035 C  
HETATM   17  C   UNL     1      -6.072   9.744  66.741  1.00  0.00    -0.063 C  
HETATM   18  C   UNL     1      -7.623   9.701  66.931  1.00  0.00    -0.095 C  
HETATM   19  C   UNL     1      -7.995   8.269  66.469  1.00  0.00    -0.100 C  
HETATM   20  C   UNL     1      -8.707  10.756  66.443  1.00  0.00    -0.163 C  
HETATM   21  C   UNL     1      -9.752  10.573  65.337  1.00  0.00    -0.257 C  
HETATM   22  C   UNL     1     -11.103  10.855  66.089  1.00  0.00    -0.009 C  
HETATM   23  O   UNL     1      -9.763   9.330  64.675  1.00  0.00    -0.356 OA 
HETATM   24  C   UNL     1     -11.229  12.381  66.426  1.00  0.00    -0.365 C  
HETATM   25  H   UNL     1     -10.410   9.217  63.989  1.00  0.00     0.000 HD 
HETATM   26  C   UNL     1     -12.187  12.799  65.182  1.00  0.00    -0.530 C  
HETATM   27  C   UNL     1     -11.695  13.190  67.866  1.00  0.00    -0.357 C  
HETATM   28  O   UNL     1     -10.584  13.657  68.972  1.00  0.00    -0.213 OA 
ENDROOT
BRANCH  27  29
HETATM   29  C   UNL     1     -12.158  12.209  68.947  1.00  0.00    -0.133 C  
HETATM   30  O   UNL     1     -12.114  10.987  68.733  1.00  0.00    -0.518 OA 
BRANCH  29  31
HETATM   31  C   UNL     1     -12.383  12.632  70.392  1.00  0.00    -0.237 C  
HETATM   32  O   UNL     1     -12.673  11.600  71.300  1.00  0.00    -0.393 OA 
HETATM   33  H   UNL     1     -12.813  11.864  72.203  1.00  0.00     0.000 HD 
ENDBRANCH  29  31
ENDBRANCH  27  29
TORSDOF 2
ENDMDL
MODEL       44
REMARK 921   NORMALIZED FREE ENERGY PREDICTED BY IDOCK:   -4.63 KCAL/MOL
REMARK 922        TOTAL FREE ENERGY PREDICTED BY IDOCK:   -5.64 KCAL/MOL
REMARK 923 INTER-LIGAND FREE ENERGY PREDICTED BY IDOCK:   -5.37 KCAL/MOL
REMARK 924 INTRA-LIGAND FREE ENERGY PREDICTED BY IDOCK:   -0.27 KCAL/MOL
REMARK 927      BINDING AFFINITY PREDICTED BY RF-SCORE:    0.00 PKD
ROOT
HETATM    1  C   UNL     1      -9.716   6.355  73.910  1.00  0.00    -0.228 C  
HETATM    2  C   UNL     1      -9.414   7.317  72.756  1.00  0.00    -0.152 C  
HETATM    3  O   UNL     1     -10.110   8.533  72.902  1.00  0.00    -0.211 OA 
HETATM    4  C   UNL     1      -7.895   7.612  72.930  1.00  0.00    -0.135 C  
HETATM    5  C   UNL     1     -10.268   9.017  71.574  1.00  0.00    -0.344 C  
HETATM    6  C   UNL     1      -8.821   9.439  70.838  1.00  0.00    -0.168 C  
HETATM    7  C   UNL     1      -8.736   8.502  69.551  1.00  0.00    -0.136 C  
HETATM    8  C   UNL     1      -7.790   7.351  68.794  1.00  0.00    -0.121 C  
HETATM    9  C   UNL     1      -7.699   6.016  69.653  1.00  0.00    -0.097 C  
HETATM   10  C   UNL     1      -7.389   4.695  68.986  1.00  0.00    -0.053 C  
HETATM   11  F   UNL     1      -6.040   4.592  68.867  1.00  0.00    -0.025 F  
HETATM   12  C   UNL     1      -8.124   4.542  67.660  1.00  0.00    -0.099 C  
HETATM   13  C   UNL     1      -8.524   3.347  67.231  1.00  0.00    -0.105 C  
HETATM   14  C   UNL     1      -7.209   2.744  66.848  1.00  0.00    -0.061 C  
HETATM   15  O   UNL     1      -7.058   1.540  66.979  1.00  0.00    -0.044 OA 
HETATM   16  C   UNL     1      -6.151   3.681  66.216  1.00  0.00    -0.024 C  
HETATM   17  C   UNL     1      -6.357   5.281  66.344  1.00  0.00    -0.039 C  
HETATM   18  C   UNL     1      -7.846   5.656  66.637  1.00  0.00    -0.101 C  
HETATM   19  C   UNL     1      -8.522   5.531  65.248  1.00  0.00    -0.147 C  
HETATM   20  C   UNL     1      -8.409   6.913  67.432  1.00  0.00    -0.122 C  
HETATM   21  C   UNL     1      -9.173   8.111  66.859  1.00  0.00    -0.160 C  
HETATM   22  C   UNL     1     -10.508   8.098  67.688  1.00  0.00    -0.300 C  
HETATM   23  O   UNL     1      -9.410   8.106  65.470  1.00  0.00    -0.418 OA 
HETATM   24  C   UNL     1     -10.234   8.546  69.165  1.00  0.00    -0.218 C  
HETATM   25  H   UNL     1      -9.883   8.849  65.115  1.00  0.00     0.000 HD 
HETATM   26  C   UNL     1     -10.701  10.094  69.012  1.00  0.00    -0.249 C  
HETATM   27  C   UNL     1     -10.751   7.888  70.664  1.00  0.00    -0.228 C  
HETATM   28  O   UNL     1      -9.839   6.792  71.467  1.00  0.00    -0.172 OA 
ENDROOT
BRANCH  27  29
HETATM   29  C   UNL     1     -11.730   6.726  70.470  1.00  0.00    -0.375 C  
HETATM   30  O   UNL     1     -11.377   5.720  69.835  1.00  0.00    -0.287 OA 
BRANCH  29  31
HETATM   31  C   UNL     1     -13.017   6.599  71.273  1.00  0.00     0.000 C  
HETATM   32  O   UNL     1     -13.846   7.733  71.297  1.00  0.00    -0.554 OA 
HETATM   33  H   UNL     1     -14.649   7.654  71.798  1.00  0.00     0.000 HD 
ENDBRANCH  29  31
ENDBRANCH  27  29
TORSDOF 2
ENDMDL
MODEL       45
REMARK 921   NORMALIZED FREE ENERGY PREDICTED BY IDOCK:   -4.62 KCAL/MOL
REMARK 922        TOTAL FREE ENERGY PREDICTED BY IDOCK:   -5.63 KCAL/MOL
REMARK 923 INTER-LIGAND FREE ENERGY PREDICTED BY IDOCK:   -5.13 KCAL/MOL
REMARK 924 INTRA-LIGAND FREE ENERGY PREDICTED BY IDOCK:   -0.50 KCAL/MOL
REMARK 927      BINDING AFFINITY PREDICTED BY RF-SCORE:    0.00 PKD
ROOT
HETATM    1  C   UNL     1     -10.782   7.340  67.164  1.00  0.00    -0.413 C  
HETATM    2  C   UNL     1      -9.387   7.975  67.173  1.00  0.00    -0.149 C  
HETATM    3  O   UNL     1      -8.399   7.042  67.541  1.00  0.00    -0.118 OA 
HETATM    4  C   UNL     1      -9.161   8.349  65.678  1.00  0.00    -0.155 C  
HETATM    5  C   UNL     1      -7.361   7.828  68.114  1.00  0.00    -0.106 C  
HETATM    6  C   UNL     1      -6.604   8.843  67.014  1.00  0.00    -0.061 C  
HETATM    7  C   UNL     1      -6.837  10.310  67.595  1.00  0.00    -0.075 C  
HETATM    8  C   UNL     1      -7.479  11.808  67.225  1.00  0.00    -0.151 C  
HETATM    9  C   UNL     1      -9.056  11.735  67.037  1.00  0.00    -0.187 C  
HETATM   10  C   UNL     1      -9.910  12.967  67.238  1.00  0.00    -0.218 C  
HETATM   11  F   UNL     1      -9.905  13.674  66.078  1.00  0.00    -0.278 F  
HETATM   12  C   UNL     1      -9.456  13.782  68.442  1.00  0.00    -0.198 C  
HETATM   13  C   UNL     1     -10.329  14.471  69.174  1.00  0.00    -0.197 C  
HETATM   14  C   UNL     1     -10.647  15.590  68.233  1.00  0.00    -0.255 C  
HETATM   15  O   UNL     1     -11.770  16.066  68.249  1.00  0.00    -0.303 OA 
HETATM   16  C   UNL     1      -9.492  16.136  67.358  1.00  0.00    -0.227 C  
HETATM   17  C   UNL     1      -8.139  15.258  67.223  1.00  0.00    -0.229 C  
HETATM   18  C   UNL     1      -7.987  14.236  68.396  1.00  0.00    -0.143 C  
HETATM   19  C   UNL     1      -7.478  15.115  69.567  1.00  0.00    -0.213 C  
HETATM   20  C   UNL     1      -7.258  12.824  68.386  1.00  0.00    -0.115 C  
HETATM   21  C   UNL     1      -5.954  12.444  69.096  1.00  0.00    -0.081 C  
HETATM   22  C   UNL     1      -6.389  11.226  69.989  1.00  0.00    -0.140 C  
HETATM   23  O   UNL     1      -5.325  13.456  69.848  1.00  0.00    -0.084 OA 
HETATM   24  C   UNL     1      -6.666   9.969  69.094  1.00  0.00    -0.055 C  
HETATM   25  H   UNL     1      -4.516  13.221  70.288  1.00  0.00     0.000 HD 
HETATM   26  C   UNL     1      -5.236   9.228  69.313  1.00  0.00    -0.036 C  
HETATM   27  C   UNL     1      -7.956   8.838  69.095  1.00  0.00    -0.109 C  
HETATM   28  O   UNL     1      -9.271   9.052  68.145  1.00  0.00    -0.136 OA 
ENDROOT
BRANCH  27  29
HETATM   29  C   UNL     1      -8.926   9.081  70.256  1.00  0.00    -0.198 C  
HETATM   30  O   UNL     1      -9.849   9.902  70.129  1.00  0.00    -0.247 OA 
BRANCH  29  31
HETATM   31  C   UNL     1      -9.014   8.149  71.456  1.00  0.00    -0.158 C  
HETATM   32  O   UNL     1      -7.949   7.247  71.618  1.00  0.00    -0.095 OA 
HETATM   33  H   UNL     1      -8.004   6.665  72.368  1.00  0.00     0.000 HD 
ENDBRANCH  29  31
ENDBRANCH  27  29
TORSDOF 2
ENDMDL
MODEL       46
REMARK 921   NORMALIZED FREE ENERGY PREDICTED BY IDOCK:   -4.60 KCAL/MOL
REMARK 922        TOTAL FREE ENERGY PREDICTED BY IDOCK:   -5.61 KCAL/MOL
REMARK 923 INTER-LIGAND FREE ENERGY PREDICTED BY IDOCK:   -5.05 KCAL/MOL
REMARK 924 INTRA-LIGAND FREE ENERGY PREDICTED BY IDOCK:   -0.56 KCAL/MOL
REMARK 927      BINDING AFFINITY PREDICTED BY RF-SCORE:    0.00 PKD
ROOT
HETATM    1  C   UNL     1      -9.446  11.568  62.851  1.00  0.00    -0.309 C  
HETATM    2  C   UNL     1     -10.048  11.721  64.252  1.00  0.00    -0.290 C  
HETATM    3  O   UNL     1     -10.085  13.071  64.653  1.00  0.00    -0.305 OA 
HETATM    4  C   UNL     1     -11.516  11.239  64.059  1.00  0.00    -0.036 C  
HETATM    5  C   UNL     1     -10.033  13.024  66.073  1.00  0.00    -0.276 C  
HETATM    6  C   UNL     1     -11.393  12.333  66.771  1.00  0.00    -0.395 C  
HETATM    7  C   UNL     1     -10.835  11.080  67.584  1.00  0.00    -0.306 C  
HETATM    8  C   UNL     1     -10.970   9.422  67.745  1.00  0.00    -0.122 C  
HETATM    9  C   UNL     1     -10.478   8.669  66.433  1.00  0.00     0.028 C  
HETATM   10  C   UNL     1      -9.995   7.238  66.507  1.00  0.00    -0.112 C  
HETATM   11  F   UNL     1     -11.082   6.425  66.446  1.00  0.00    -0.313 F  
HETATM   12  C   UNL     1      -9.128   6.994  67.736  1.00  0.00    -0.126 C  
HETATM   13  C   UNL     1      -8.131   6.113  67.709  1.00  0.00    -0.113 C  
HETATM   14  C   UNL     1      -8.903   4.831  67.701  1.00  0.00    -0.104 C  
HETATM   15  O   UNL     1      -8.440   3.874  67.103  1.00  0.00    -0.098 OA 
HETATM   16  C   UNL     1     -10.204   4.776  68.540  1.00  0.00    -0.054 C  
HETATM   17  C   UNL     1     -10.851   6.166  69.058  1.00  0.00    -0.416 C  
HETATM   18  C   UNL     1      -9.804   7.326  69.077  1.00  0.00    -0.165 C  
HETATM   19  C   UNL     1      -8.994   7.050  70.369  1.00  0.00    -0.155 C  
HETATM   20  C   UNL     1     -10.054   8.885  68.886  1.00  0.00    -0.209 C  
HETATM   21  C   UNL     1      -9.937   9.984  69.947  1.00  0.00    -0.237 C  
HETATM   22  C   UNL     1      -8.890  10.969  69.310  1.00  0.00     0.090 C  
HETATM   23  O   UNL     1      -9.563   9.576  71.242  1.00  0.00    -0.237 OA 
HETATM   24  C   UNL     1      -9.531  11.733  68.100  1.00  0.00    -0.193 C  
HETATM   25  H   UNL     1      -9.490  10.258  71.900  1.00  0.00     0.000 HD 
HETATM   26  C   UNL     1      -9.896  13.109  68.882  1.00  0.00     0.120 C  
HETATM   27  C   UNL     1      -8.940  12.054  66.521  1.00  0.00    -0.193 C  
HETATM   28  O   UNL     1      -9.263  11.046  65.274  1.00  0.00    -0.204 OA 
ENDROOT
BRANCH  27  29
HETATM   29  C   UNL     1      -7.493  11.584  66.347  1.00  0.00     0.047 C  
HETATM   30  O   UNL     1      -6.580  12.148  66.971  1.00  0.00    -0.147 OA 
BRANCH  29  31
HETATM   31  C   UNL     1      -7.138  10.260  65.685  1.00  0.00    -0.137 C  
HETATM   32  O   UNL     1      -6.922   9.174  66.550  1.00  0.00    -0.079 OA 
HETATM   33  H   UNL     1      -6.701   8.347  66.136  1.00  0.00     0.000 HD 
ENDBRANCH  29  31
ENDBRANCH  27  29
TORSDOF 2
ENDMDL
MODEL       47
REMARK 921   NORMALIZED FREE ENERGY PREDICTED BY IDOCK:   -4.60 KCAL/MOL
REMARK 922        TOTAL FREE ENERGY PREDICTED BY IDOCK:   -5.60 KCAL/MOL
REMARK 923 INTER-LIGAND FREE ENERGY PREDICTED BY IDOCK:   -4.91 KCAL/MOL
REMARK 924 INTRA-LIGAND FREE ENERGY PREDICTED BY IDOCK:   -0.69 KCAL/MOL
REMARK 927      BINDING AFFINITY PREDICTED BY RF-SCORE:    0.00 PKD
ROOT
HETATM    1  C   UNL     1      -8.384   9.414  70.927  1.00  0.00    -0.112 C  
HETATM    2  C   UNL     1      -9.327   9.692  69.751  1.00  0.00    -0.218 C  
HETATM    3  O   UNL     1      -9.496   8.548  68.946  1.00  0.00    -0.146 OA 
HETATM    4  C   UNL     1     -10.686   9.989  70.451  1.00  0.00    -0.369 C  
HETATM    5  C   UNL     1      -9.807   9.062  67.657  1.00  0.00    -0.173 C  
HETATM    6  C   UNL     1     -11.283   9.856  67.589  1.00  0.00    -0.032 C  
HETATM    7  C   UNL     1     -10.920  11.340  67.129  1.00  0.00    -0.348 C  
HETATM    8  C   UNL     1     -11.053  12.946  67.569  1.00  0.00    -0.302 C  
HETATM    9  C   UNL     1     -10.226  13.257  68.891  1.00  0.00    -0.033 C  
HETATM   10  C   UNL     1      -9.744  14.661  69.181  1.00  0.00    -0.103 C  
HETATM   11  F   UNL     1     -10.760  15.338  69.777  1.00  0.00    -0.226 F  
HETATM   12  C   UNL     1      -9.213  15.349  67.930  1.00  0.00    -0.180 C  
HETATM   13  C   UNL     1      -8.221  16.233  68.002  1.00  0.00    -0.157 C  
HETATM   14  C   UNL     1      -8.935  17.390  68.627  1.00  0.00    -0.255 C  
HETATM   15  O   UNL     1      -8.313  18.125  69.376  1.00  0.00     0.180 OA 
HETATM   16  C   UNL     1     -10.404  17.634  68.204  1.00  0.00    -0.386 C  
HETATM   17  C   UNL     1     -11.195  16.453  67.430  1.00  0.00     0.041 C  
HETATM   18  C   UNL     1     -10.215  15.432  66.766  1.00  0.00    -0.273 C  
HETATM   19  C   UNL     1      -9.754  16.168  65.482  1.00  0.00    -0.123 C  
HETATM   20  C   UNL     1     -10.445  13.885  66.483  1.00  0.00    -0.282 C  
HETATM   21  C   UNL     1     -10.628  13.204  65.122  1.00  0.00    -0.319 C  
HETATM   22  C   UNL     1      -9.477  12.134  65.114  1.00  0.00     0.049 C  
HETATM   23  O   UNL     1     -10.585  14.038  63.987  1.00  0.00    -0.505 OA 
HETATM   24  C   UNL     1      -9.806  10.976  66.119  1.00  0.00    -0.268 C  
HETATM   25  H   UNL     1     -10.699  13.616  63.143  1.00  0.00     0.000 HD 
HETATM   26  C   UNL     1     -10.390   9.912  65.039  1.00  0.00     0.247 C  
HETATM   27  C   UNL     1      -8.840  10.193  67.301  1.00  0.00    -0.132 C  
HETATM   28  O   UNL     1      -8.812  10.713  68.852  1.00  0.00    -0.147 OA 
ENDROOT
BRANCH  27  29
HETATM   29  C   UNL     1      -7.386  10.671  67.259  1.00  0.00    -0.092 C  
HETATM   30  O   UNL     1      -6.559  10.072  66.552  1.00  0.00    -0.070 OA 
BRANCH  29  31
HETATM   31  C   UNL     1      -6.956  12.028  67.796  1.00  0.00    -0.103 C  
HETATM   32  O   UNL     1      -6.342  12.028  69.060  1.00  0.00    -0.071 OA 
HETATM   33  H   UNL     1      -6.073  12.875  69.395  1.00  0.00     0.000 HD 
ENDBRANCH  29  31
ENDBRANCH  27  29
TORSDOF 2
ENDMDL
MODEL       48
REMARK 921   NORMALIZED FREE ENERGY PREDICTED BY IDOCK:   -4.56 KCAL/MOL
REMARK 922        TOTAL FREE ENERGY PREDICTED BY IDOCK:   -5.56 KCAL/MOL
REMARK 923 INTER-LIGAND FREE ENERGY PREDICTED BY IDOCK:   -5.02 KCAL/MOL
REMARK 924 INTRA-LIGAND FREE ENERGY PREDICTED BY IDOCK:   -0.54 KCAL/MOL
REMARK 927      BINDING AFFINITY PREDICTED BY RF-SCORE:    0.00 PKD
ROOT
HETATM    1  C   UNL     1      -8.609  12.302  66.883  1.00  0.00    -0.182 C  
HETATM    2  C   UNL     1      -8.711  10.775  66.795  1.00  0.00    -0.143 C  
HETATM    3  O   UNL     1      -9.702  10.377  65.877  1.00  0.00    -0.192 OA 
HETATM    4  C   UNL     1      -7.326  10.362  66.214  1.00  0.00    -0.128 C  
HETATM    5  C   UNL     1     -10.125   9.100  66.340  1.00  0.00    -0.274 C  
HETATM    6  C   UNL     1      -8.939   7.919  66.228  1.00  0.00    -0.207 C  
HETATM    7  C   UNL     1      -8.728   7.419  67.727  1.00  0.00    -0.126 C  
HETATM    8  C   UNL     1      -7.579   7.238  68.928  1.00  0.00    -0.103 C  
HETATM    9  C   UNL     1      -7.029   8.646  69.421  1.00  0.00    -0.053 C  
HETATM   10  C   UNL     1      -6.429   8.793  70.802  1.00  0.00    -0.047 C  
HETATM   11  F   UNL     1      -5.125   8.418  70.735  1.00  0.00    -0.023 F  
HETATM   12  C   UNL     1      -7.224   8.024  71.851  1.00  0.00    -0.085 C  
HETATM   13  C   UNL     1      -7.313   8.466  73.103  1.00  0.00    -0.108 C  
HETATM   14  C   UNL     1      -5.929   8.176  73.591  1.00  0.00    -0.082 C  
HETATM   15  O   UNL     1      -5.433   8.923  74.418  1.00  0.00    -0.107 OA 
HETATM   16  C   UNL     1      -5.248   6.882  73.080  1.00  0.00    -0.037 C  
HETATM   17  C   UNL     1      -5.882   6.128  71.796  1.00  0.00    -0.032 C  
HETATM   18  C   UNL     1      -7.378   6.521  71.568  1.00  0.00    -0.087 C  
HETATM   19  C   UNL     1      -8.131   5.672  72.624  1.00  0.00    -0.102 C  
HETATM   20  C   UNL     1      -8.187   6.574  70.201  1.00  0.00    -0.129 C  
HETATM   21  C   UNL     1      -9.312   5.638  69.746  1.00  0.00    -0.143 C  
HETATM   22  C   UNL     1     -10.497   6.632  69.467  1.00  0.00    -0.253 C  
HETATM   23  O   UNL     1      -9.680   4.611  70.639  1.00  0.00    -0.174 OA 
HETATM   24  C   UNL     1     -10.209   7.468  68.172  1.00  0.00    -0.228 C  
HETATM   25  H   UNL     1     -10.377   4.031  70.357  1.00  0.00     0.000 HD 
HETATM   26  C   UNL     1     -11.106   6.588  67.142  1.00  0.00    -0.434 C  
HETATM   27  C   UNL     1     -10.362   9.147  67.849  1.00  0.00    -0.232 C  
HETATM   28  O   UNL     1      -9.101  10.168  68.059  1.00  0.00    -0.130 OA 
ENDROOT
BRANCH  27  29
HETATM   29  C   UNL     1     -10.990   9.899  69.027  1.00  0.00    -0.190 C  
HETATM   30  O   UNL     1     -10.455   9.853  70.146  1.00  0.00    -0.251 OA 
BRANCH  29  31
HETATM   31  C   UNL     1     -12.068  10.957  68.839  1.00  0.00    -0.116 C  
HETATM   32  O   UNL     1     -12.008  11.697  67.646  1.00  0.00    -0.618 OA 
HETATM   33  H   UNL     1     -12.682  12.357  67.529  1.00  0.00     0.000 HD 
ENDBRANCH  29  31
ENDBRANCH  27  29
TORSDOF 2
ENDMDL
MODEL       49
REMARK 921   NORMALIZED FREE ENERGY PREDICTED BY IDOCK:   -4.52 KCAL/MOL
REMARK 922        TOTAL FREE ENERGY PREDICTED BY IDOCK:   -5.51 KCAL/MOL
REMARK 923 INTER-LIGAND FREE ENERGY PREDICTED BY IDOCK:   -5.18 KCAL/MOL
REMARK 924 INTRA-LIGAND FREE ENERGY PREDICTED BY IDOCK:   -0.33 KCAL/MOL
REMARK 927      BINDING AFFINITY PREDICTED BY RF-SCORE:    0.00 PKD
ROOT
HETATM    1  C   UNL     1     -10.666  11.644  64.078  1.00  0.00    -0.442 C  
HETATM    2  C   UNL     1     -10.226  11.786  65.540  1.00  0.00    -0.252 C  
HETATM    3  O   UNL     1      -9.576  13.014  65.766  1.00  0.00    -0.186 OA 
HETATM    4  C   UNL     1     -11.578  11.810  66.313  1.00  0.00    -0.223 C  
HETATM    5  C   UNL     1      -8.709  12.762  66.864  1.00  0.00    -0.168 C  
HETATM    6  C   UNL     1      -9.518  12.437  68.297  1.00  0.00    -0.203 C  
HETATM    7  C   UNL     1      -9.033  10.976  68.710  1.00  0.00    -0.153 C  
HETATM    8  C   UNL     1      -9.576   9.434  69.059  1.00  0.00    -0.164 C  
HETATM    9  C   UNL     1     -10.239   8.750  67.786  1.00  0.00    -0.285 C  
HETATM   10  C   UNL     1     -10.306   7.243  67.673  1.00  0.00    -0.227 C  
HETATM   11  F   UNL     1     -11.406   6.821  68.349  1.00  0.00    -0.235 F  
HETATM   12  C   UNL     1      -9.017   6.581  68.145  1.00  0.00    -0.116 C  
HETATM   13  C   UNL     1      -8.588   5.448  67.595  1.00  0.00    -0.104 C  
HETATM   14  C   UNL     1      -9.577   4.479  68.164  1.00  0.00    -0.146 C  
HETATM   15  O   UNL     1      -9.904   3.516  67.490  1.00  0.00    -0.106 OA 
HETATM   16  C   UNL     1     -10.052   4.716  69.618  1.00  0.00    -0.232 C  
HETATM   17  C   UNL     1      -9.768   6.155  70.303  1.00  0.00    -0.195 C  
HETATM   18  C   UNL     1      -8.609   6.922  69.588  1.00  0.00    -0.134 C  
HETATM   19  C   UNL     1      -7.335   6.238  70.146  1.00  0.00    -0.085 C  
HETATM   20  C   UNL     1      -8.399   8.493  69.456  1.00  0.00    -0.118 C  
HETATM   21  C   UNL     1      -7.324   9.349  70.134  1.00  0.00    -0.110 C  
HETATM   22  C   UNL     1      -6.613  10.039  68.914  1.00  0.00    -0.049 C  
HETATM   23  O   UNL     1      -6.411   8.675  70.969  1.00  0.00    -0.041 OA 
HETATM   24  C   UNL     1      -7.555  11.119  68.277  1.00  0.00    -0.111 C  
HETATM   25  H   UNL     1      -5.745   9.206  71.389  1.00  0.00     0.000 HD 
HETATM   26  C   UNL     1      -6.910  12.423  69.000  1.00  0.00    -0.093 C  
HETATM   27  C   UNL     1      -7.954  11.452  66.641  1.00  0.00    -0.148 C  
HETATM   28  O   UNL     1      -9.261  10.770  65.933  1.00  0.00    -0.176 OA 
ENDROOT
BRANCH  27  29
HETATM   29  C   UNL     1      -7.147  10.586  65.669  1.00  0.00    -0.119 C  
HETATM   30  O   UNL     1      -7.719   9.713  64.997  1.00  0.00    -0.109 OA 
BRANCH  29  31
HETATM   31  C   UNL     1      -5.727  10.937  65.248  1.00  0.00    -0.015 C  
HETATM   32  O   UNL     1      -5.529  11.174  63.877  1.00  0.00    -0.439 OA 
HETATM   33  H   UNL     1      -4.642  11.393  63.614  1.00  0.00     0.000 HD 
ENDBRANCH  29  31
ENDBRANCH  27  29
TORSDOF 2
ENDMDL
MODEL       50
REMARK 921   NORMALIZED FREE ENERGY PREDICTED BY IDOCK:   -4.51 KCAL/MOL
REMARK 922        TOTAL FREE ENERGY PREDICTED BY IDOCK:   -5.50 KCAL/MOL
REMARK 923 INTER-LIGAND FREE ENERGY PREDICTED BY IDOCK:   -4.88 KCAL/MOL
REMARK 924 INTRA-LIGAND FREE ENERGY PREDICTED BY IDOCK:   -0.62 KCAL/MOL
REMARK 927      BINDING AFFINITY PREDICTED BY RF-SCORE:    0.00 PKD
ROOT
HETATM    1  C   UNL     1      -6.516   5.253  72.669  1.00  0.00    -0.055 C  
HETATM    2  C   UNL     1      -7.704   6.221  72.695  1.00  0.00    -0.101 C  
HETATM    3  O   UNL     1      -8.819   5.651  73.340  1.00  0.00    -0.124 OA 
HETATM    4  C   UNL     1      -7.185   7.391  73.582  1.00  0.00    -0.105 C  
HETATM    5  C   UNL     1      -9.940   6.307  72.761  1.00  0.00    -0.172 C  
HETATM    6  C   UNL     1     -10.024   7.942  73.127  1.00  0.00    -0.358 C  
HETATM    7  C   UNL     1      -9.973   8.674  71.711  1.00  0.00    -0.371 C  
HETATM    8  C   UNL     1      -9.120   9.799  70.817  1.00  0.00     0.166 C  
HETATM    9  C   UNL     1      -7.646   9.294  70.501  1.00  0.00    -0.147 C  
HETATM   10  C   UNL     1      -6.889   9.834  69.308  1.00  0.00    -0.055 C  
HETATM   11  F   UNL     1      -6.303  11.002  69.677  1.00  0.00    -0.057 F  
HETATM   12  C   UNL     1      -7.785   9.969  68.082  1.00  0.00    -0.085 C  
HETATM   13  C   UNL     1      -7.298   9.799  66.855  1.00  0.00    -0.091 C  
HETATM   14  C   UNL     1      -6.497  11.054  66.706  1.00  0.00    -0.124 C  
HETATM   15  O   UNL     1      -5.476  11.019  66.040  1.00  0.00    -0.128 OA 
HETATM   16  C   UNL     1      -7.071  12.347  67.337  1.00  0.00    -0.152 C  
HETATM   17  C   UNL     1      -8.271  12.217  68.415  1.00  0.00    -0.146 C  
HETATM   18  C   UNL     1      -9.026  10.854  68.286  1.00  0.00    -0.150 C  
HETATM   19  C   UNL     1      -9.950  11.076  67.061  1.00  0.00    -0.223 C  
HETATM   20  C   UNL     1      -9.775  10.030  69.421  1.00  0.00    -0.240 C  
HETATM   21  C   UNL     1     -11.284   9.810  69.571  1.00  0.00    -0.142 C  
HETATM   22  C   UNL     1     -11.405   8.243  69.581  1.00  0.00     0.206 C  
HETATM   23  O   UNL     1     -12.109  10.400  68.594  1.00  0.00    -0.751 OA 
HETATM   24  C   UNL     1     -10.843   7.664  70.926  1.00  0.00    -0.250 C  
HETATM   25  H   UNL     1     -13.045  10.265  68.687  1.00  0.00     0.000 HD 
HETATM   26  C   UNL     1     -12.264   7.476  71.690  1.00  0.00    -0.352 C  
HETATM   27  C   UNL     1      -9.790   6.346  71.240  1.00  0.00    -0.181 C  
HETATM   28  O   UNL     1      -8.173   6.564  71.362  1.00  0.00    -0.118 OA 
ENDROOT
BRANCH  27  29
HETATM   29  C   UNL     1      -9.451   5.570  69.964  1.00  0.00    -0.159 C  
HETATM   30  O   UNL     1     -10.105   4.558  69.664  1.00  0.00    -0.221 OA 
BRANCH  29  31
HETATM   31  C   UNL     1      -8.554   6.140  68.875  1.00  0.00    -0.121 C  
HETATM   32  O   UNL     1      -7.343   5.462  68.652  1.00  0.00    -0.072 OA 
HETATM   33  H   UNL     1      -6.784   5.817  67.972  1.00  0.00     0.000 HD 
ENDBRANCH  29  31
ENDBRANCH  27  29
TORSDOF 2
ENDMDL
MODEL       51
REMARK 921   NORMALIZED FREE ENERGY PREDICTED BY IDOCK:   -4.36 KCAL/MOL
REMARK 922        TOTAL FREE ENERGY PREDICTED BY IDOCK:   -5.34 KCAL/MOL
REMARK 923 INTER-LIGAND FREE ENERGY PREDICTED BY IDOCK:   -4.84 KCAL/MOL
REMARK 924 INTRA-LIGAND FREE ENERGY PREDICTED BY IDOCK:   -0.50 KCAL/MOL
REMARK 927      BINDING AFFINITY PREDICTED BY RF-SCORE:    0.00 PKD
ROOT
HETATM    1  C   UNL     1      -7.618  12.990  67.092  1.00  0.00    -0.023 C  
HETATM    2  C   UNL     1      -8.814  12.077  67.383  1.00  0.00    -0.178 C  
HETATM    3  O   UNL     1      -9.631  12.606  68.400  1.00  0.00    -0.217 OA 
HETATM    4  C   UNL     1      -9.620  12.118  66.051  1.00  0.00    -0.242 C  
HETATM    5  C   UNL     1     -10.252  11.469  68.988  1.00  0.00    -0.088 C  
HETATM    6  C   UNL     1     -11.311  10.677  67.957  1.00  0.00    -0.350 C  
HETATM    7  C   UNL     1     -10.723   9.199  67.835  1.00  0.00    -0.224 C  
HETATM    8  C   UNL     1     -10.169   8.067  66.738  1.00  0.00    -0.367 C  
HETATM    9  C   UNL     1      -8.835   8.554  66.024  1.00  0.00    -0.208 C  
HETATM   10  C   UNL     1      -7.871   7.549  65.434  1.00  0.00    -0.117 C  
HETATM   11  F   UNL     1      -8.305   7.233  64.186  1.00  0.00    -0.105 F  
HETATM   12  C   UNL     1      -7.695   6.333  66.336  1.00  0.00    -0.099 C  
HETATM   13  C   UNL     1      -6.536   5.681  66.390  1.00  0.00    -0.055 C  
HETATM   14  C   UNL     1      -6.551   4.993  65.062  1.00  0.00    -0.040 C  
HETATM   15  O   UNL     1      -5.490   4.806  64.489  1.00  0.00    -0.013 OA 
HETATM   16  C   UNL     1      -7.914   4.478  64.539  1.00  0.00    -0.092 C  
HETATM   17  C   UNL     1      -9.268   5.020  65.241  1.00  0.00    -0.125 C  
HETATM   18  C   UNL     1      -8.997   5.587  66.672  1.00  0.00    -0.118 C  
HETATM   19  C   UNL     1      -8.880   4.310  67.543  1.00  0.00    -0.122 C  
HETATM   20  C   UNL     1      -9.784   6.732  67.445  1.00  0.00    -0.164 C  
HETATM   21  C   UNL     1     -10.691   6.574  68.671  1.00  0.00    -0.271 C  
HETATM   22  C   UNL     1     -10.028   7.542  69.717  1.00  0.00    -0.186 C  
HETATM   23  O   UNL     1     -10.847   5.270  69.179  1.00  0.00    -0.130 OA 
HETATM   24  C   UNL     1     -10.271   9.035  69.305  1.00  0.00    -0.210 C  
HETATM   25  H   UNL     1     -11.410   5.172  69.938  1.00  0.00     0.000 HD 
HETATM   26  C   UNL     1     -11.531   9.328  70.288  1.00  0.00    -0.198 C  
HETATM   27  C   UNL     1      -9.208  10.381  69.242  1.00  0.00    -0.184 C  
HETATM   28  O   UNL     1      -8.410  10.766  67.867  1.00  0.00    -0.114 OA 
ENDROOT
BRANCH  27  29
HETATM   29  C   UNL     1      -7.820  10.038  69.790  1.00  0.00    -0.177 C  
HETATM   30  O   UNL     1      -7.693   9.677  70.971  1.00  0.00    -0.323 OA 
BRANCH  29  31
HETATM   31  C   UNL     1      -6.616   9.818  68.885  1.00  0.00    -0.046 C  
HETATM   32  O   UNL     1      -6.295   8.481  68.596  1.00  0.00    -0.051 OA 
HETATM   33  H   UNL     1      -5.544   8.344  68.031  1.00  0.00     0.000 HD 
ENDBRANCH  29  31
ENDBRANCH  27  29
TORSDOF 2
ENDMDL
MODEL       52
REMARK 921   NORMALIZED FREE ENERGY PREDICTED BY IDOCK:   -4.36 KCAL/MOL
REMARK 922        TOTAL FREE ENERGY PREDICTED BY IDOCK:   -5.33 KCAL/MOL
REMARK 923 INTER-LIGAND FREE ENERGY PREDICTED BY IDOCK:   -4.92 KCAL/MOL
REMARK 924 INTRA-LIGAND FREE ENERGY PREDICTED BY IDOCK:   -0.41 KCAL/MOL
REMARK 927      BINDING AFFINITY PREDICTED BY RF-SCORE:    0.00 PKD
ROOT
HETATM    1  C   UNL     1      -6.258  12.873  69.214  1.00  0.00    -0.104 C  
HETATM    2  C   UNL     1      -6.665  11.834  68.164  1.00  0.00    -0.064 C  
HETATM    3  O   UNL     1      -6.992  12.442  66.937  1.00  0.00    -0.059 OA 
HETATM    4  C   UNL     1      -5.358  11.011  67.958  1.00  0.00    -0.042 C  
HETATM    5  C   UNL     1      -7.907  11.541  66.325  1.00  0.00     0.046 C  
HETATM    6  C   UNL     1      -7.220  10.070  65.903  1.00  0.00    -0.115 C  
HETATM    7  C   UNL     1      -8.058   8.987  66.720  1.00  0.00    -0.111 C  
HETATM    8  C   UNL     1      -7.918   7.752  67.837  1.00  0.00    -0.125 C  
HETATM    9  C   UNL     1      -7.431   8.299  69.249  1.00  0.00    -0.085 C  
HETATM   10  C   UNL     1      -7.740   7.532  70.516  1.00  0.00    -0.094 C  
HETATM   11  F   UNL     1      -6.787   6.576  70.669  1.00  0.00    -0.055 F  
HETATM   12  C   UNL     1      -9.158   6.974  70.511  1.00  0.00    -0.156 C  
HETATM   13  C   UNL     1      -9.849   6.849  71.641  1.00  0.00    -0.173 C  
HETATM   14  C   UNL     1      -9.138   5.690  72.266  1.00  0.00    -0.139 C  
HETATM   15  O   UNL     1      -9.053   5.644  73.482  1.00  0.00    -0.132 OA 
HETATM   16  C   UNL     1      -8.635   4.569  71.324  1.00  0.00    -0.128 C  
HETATM   17  C   UNL     1      -8.561   4.867  69.735  1.00  0.00    -0.102 C  
HETATM   18  C   UNL     1      -9.485   6.058  69.320  1.00  0.00    -0.152 C  
HETATM   19  C   UNL     1     -10.895   5.415  69.285  1.00  0.00    -0.070 C  
HETATM   20  C   UNL     1      -9.297   7.081  68.118  1.00  0.00    -0.125 C  
HETATM   21  C   UNL     1     -10.133   7.178  66.838  1.00  0.00    -0.238 C  
HETATM   22  C   UNL     1     -10.637   8.667  66.866  1.00  0.00    -0.270 C  
HETATM   23  O   UNL     1     -11.194   6.261  66.703  1.00  0.00    -0.724 OA 
HETATM   24  C   UNL     1      -9.449   9.647  66.571  1.00  0.00    -0.233 C  
HETATM   25  H   UNL     1     -11.712   6.321  65.910  1.00  0.00     0.000 HD 
HETATM   26  C   UNL     1      -9.758   9.892  64.995  1.00  0.00    -0.359 C  
HETATM   27  C   UNL     1      -8.961  11.101  67.341  1.00  0.00    -0.139 C  
HETATM   28  O   UNL     1      -7.856  11.091  68.547  1.00  0.00    -0.113 OA 
ENDROOT
BRANCH  27  29
HETATM   29  C   UNL     1      -9.947  11.527  68.433  1.00  0.00    -0.206 C  
HETATM   30  O   UNL     1     -10.016  10.880  69.490  1.00  0.00    -0.128 OA 
BRANCH  29  31
HETATM   31  C   UNL     1     -10.636  12.884  68.427  1.00  0.00    -0.253 C  
HETATM   32  O   UNL     1     -11.068  13.354  67.175  1.00  0.00    -0.275 OA 
HETATM   33  H   UNL     1     -11.499  14.201  67.172  1.00  0.00     0.000 HD 
ENDBRANCH  29  31
ENDBRANCH  27  29
TORSDOF 2
ENDMDL
MODEL       53
REMARK 921   NORMALIZED FREE ENERGY PREDICTED BY IDOCK:   -4.35 KCAL/MOL
REMARK 922        TOTAL FREE ENERGY PREDICTED BY IDOCK:   -5.33 KCAL/MOL
REMARK 923 INTER-LIGAND FREE ENERGY PREDICTED BY IDOCK:   -4.94 KCAL/MOL
REMARK 924 INTRA-LIGAND FREE ENERGY PREDICTED BY IDOCK:   -0.39 KCAL/MOL
REMARK 927      BINDING AFFINITY PREDICTED BY RF-SCORE:    0.00 PKD
ROOT
HETATM    1  C   UNL     1     -10.016   4.013  68.163  1.00  0.00     0.046 C  
HETATM    2  C   UNL     1      -8.815   4.937  68.390  1.00  0.00    -0.103 C  
HETATM    3  O   UNL     1      -7.926   4.402  69.343  1.00  0.00    -0.061 OA 
HETATM    4  C   UNL     1      -8.097   4.927  67.007  1.00  0.00    -0.107 C  
HETATM    5  C   UNL     1      -7.281   5.537  69.906  1.00  0.00    -0.068 C  
HETATM    6  C   UNL     1      -6.301   6.360  68.821  1.00  0.00    -0.038 C  
HETATM    7  C   UNL     1      -6.913   7.831  68.762  1.00  0.00    -0.067 C  
HETATM    8  C   UNL     1      -7.552   8.974  67.724  1.00  0.00    -0.093 C  
HETATM    9  C   UNL     1      -8.925   8.481  67.091  1.00  0.00    -0.145 C  
HETATM   10  C   UNL     1      -9.938   9.482  66.582  1.00  0.00    -0.247 C  
HETATM   11  F   UNL     1      -9.591   9.823  65.314  1.00  0.00    -0.278 F  
HETATM   12  C   UNL     1     -10.068  10.681  67.514  1.00  0.00    -0.217 C  
HETATM   13  C   UNL     1     -11.228  11.317  67.655  1.00  0.00    -0.357 C  
HETATM   14  C   UNL     1     -11.310  12.026  66.340  1.00  0.00    -0.354 C  
HETATM   15  O   UNL     1     -12.409  12.209  65.842  1.00  0.00    -0.561 OA 
HETATM   16  C   UNL     1      -9.990  12.567  65.738  1.00  0.00    -0.272 C  
HETATM   17  C   UNL     1      -8.586  12.032  66.339  1.00  0.00    -0.037 C  
HETATM   18  C   UNL     1      -8.755  11.438  67.776  1.00  0.00    -0.136 C  
HETATM   19  C   UNL     1      -8.830  12.700  68.673  1.00  0.00     0.050 C  
HETATM   20  C   UNL     1      -7.905  10.292  68.476  1.00  0.00    -0.097 C  
HETATM   21  C   UNL     1      -6.922  10.442  69.642  1.00  0.00    -0.127 C  
HETATM   22  C   UNL     1      -7.503   9.450  70.714  1.00  0.00    -0.132 C  
HETATM   23  O   UNL     1      -6.747  11.740  70.160  1.00  0.00    -0.421 OA 
HETATM   24  C   UNL     1      -7.269   7.967  70.262  1.00  0.00    -0.057 C  
HETATM   25  H   UNL     1      -6.138  11.834  70.882  1.00  0.00     0.000 HD 
HETATM   26  C   UNL     1      -5.944   7.675  71.154  1.00  0.00    -0.035 C  
HETATM   27  C   UNL     1      -8.318   6.608  70.247  1.00  0.00    -0.134 C  
HETATM   28  O   UNL     1      -9.201   6.235  68.921  1.00  0.00    -0.124 OA 
ENDROOT
BRANCH  27  29
HETATM   29  C   UNL     1      -9.671   6.924  70.891  1.00  0.00    -0.178 C  
HETATM   30  O   UNL     1     -10.492   7.635  70.288  1.00  0.00    -0.214 OA 
BRANCH  29  31
HETATM   31  C   UNL     1     -10.198   6.166  72.101  1.00  0.00    -0.186 C  
HETATM   32  O   UNL     1     -10.082   6.820  73.339  1.00  0.00    -0.192 OA 
HETATM   33  H   UNL     1     -10.411   6.347  74.094  1.00  0.00     0.000 HD 
ENDBRANCH  29  31
ENDBRANCH  27  29
TORSDOF 2
ENDMDL
MODEL       54
REMARK 921   NORMALIZED FREE ENERGY PREDICTED BY IDOCK:   -4.34 KCAL/MOL
REMARK 922        TOTAL FREE ENERGY PREDICTED BY IDOCK:   -5.32 KCAL/MOL
REMARK 923 INTER-LIGAND FREE ENERGY PREDICTED BY IDOCK:   -4.84 KCAL/MOL
REMARK 924 INTRA-LIGAND FREE ENERGY PREDICTED BY IDOCK:   -0.48 KCAL/MOL
REMARK 927      BINDING AFFINITY PREDICTED BY RF-SCORE:    0.00 PKD
ROOT
HETATM    1  C   UNL     1      -8.014  12.527  68.327  1.00  0.00    -0.153 C  
HETATM    2  C   UNL     1      -7.337  11.256  67.802  1.00  0.00    -0.094 C  
HETATM    3  O   UNL     1      -6.797  11.453  66.516  1.00  0.00    -0.130 OA 
HETATM    4  C   UNL     1      -6.153  11.052  68.793  1.00  0.00    -0.043 C  
HETATM    5  C   UNL     1      -6.802  10.159  65.925  1.00  0.00    -0.115 C  
HETATM    6  C   UNL     1      -5.756   9.078  66.668  1.00  0.00    -0.047 C  
HETATM    7  C   UNL     1      -6.695   7.891  67.170  1.00  0.00    -0.068 C  
HETATM    8  C   UNL     1      -7.163   7.040  68.529  1.00  0.00    -0.091 C  
HETATM    9  C   UNL     1      -7.949   7.967  69.553  1.00  0.00    -0.116 C  
HETATM   10  C   UNL     1      -8.915   7.362  70.549  1.00  0.00    -0.156 C  
HETATM   11  F   UNL     1      -8.200   6.947  71.627  1.00  0.00    -0.106 F  
HETATM   12  C   UNL     1      -9.757   6.258  69.923  1.00  0.00    -0.191 C  
HETATM   13  C   UNL     1     -11.006   6.036  70.326  1.00  0.00    -0.412 C  
HETATM   14  C   UNL     1     -10.752   5.415  71.664  1.00  0.00    -0.198 C  
HETATM   15  O   UNL     1     -11.555   5.612  72.561  1.00  0.00    -0.300 OA 
HETATM   16  C   UNL     1      -9.525   4.480  71.795  1.00  0.00    -0.206 C  
HETATM   17  C   UNL     1      -8.397   4.514  70.636  1.00  0.00    -0.084 C  
HETATM   18  C   UNL     1      -8.950   5.107  69.300  1.00  0.00    -0.126 C  
HETATM   19  C   UNL     1      -9.750   3.925  68.693  1.00  0.00    -0.114 C  
HETATM   20  C   UNL     1      -8.161   5.898  68.169  1.00  0.00    -0.109 C  
HETATM   21  C   UNL     1      -7.826   5.414  66.754  1.00  0.00    -0.101 C  
HETATM   22  C   UNL     1      -8.472   6.524  65.847  1.00  0.00    -0.147 C  
HETATM   23  O   UNL     1      -8.268   4.122  66.406  1.00  0.00    -0.101 OA 
HETATM   24  C   UNL     1      -7.650   7.856  65.954  1.00  0.00    -0.083 C  
HETATM   25  H   UNL     1      -8.060   3.822  65.529  1.00  0.00     0.000 HD 
HETATM   26  C   UNL     1      -6.779   7.681  64.594  1.00  0.00    -0.050 C  
HETATM   27  C   UNL     1      -8.152   9.484  66.163  1.00  0.00    -0.111 C  
HETATM   28  O   UNL     1      -8.269  10.148  67.654  1.00  0.00    -0.110 OA 
ENDROOT
BRANCH  27  29
HETATM   29  C   UNL     1      -9.677   9.619  66.133  1.00  0.00    -0.252 C  
HETATM   30  O   UNL     1     -10.247   9.962  65.084  1.00  0.00    -0.249 OA 
BRANCH  29  31
HETATM   31  C   UNL     1     -10.570   9.061  67.232  1.00  0.00    -0.231 C  
HETATM   32  O   UNL     1     -11.543   9.936  67.743  1.00  0.00    -0.542 OA 
HETATM   33  H   UNL     1     -12.100   9.588  68.429  1.00  0.00     0.000 HD 
ENDBRANCH  29  31
ENDBRANCH  27  29
TORSDOF 2
ENDMDL
MODEL       55
REMARK 921   NORMALIZED FREE ENERGY PREDICTED BY IDOCK:   -4.27 KCAL/MOL
REMARK 922        TOTAL FREE ENERGY PREDICTED BY IDOCK:   -5.23 KCAL/MOL
REMARK 923 INTER-LIGAND FREE ENERGY PREDICTED BY IDOCK:   -4.71 KCAL/MOL
REMARK 924 INTRA-LIGAND FREE ENERGY PREDICTED BY IDOCK:   -0.53 KCAL/MOL
REMARK 927      BINDING AFFINITY PREDICTED BY RF-SCORE:    0.00 PKD
ROOT
HETATM    1  C   UNL     1     -11.096   8.929  70.986  1.00  0.00    -0.340 C  
HETATM    2  C   UNL     1     -10.778   7.443  71.189  1.00  0.00    -0.231 C  
HETATM    3  O   UNL     1     -10.461   7.164  72.533  1.00  0.00    -0.204 OA 
HETATM    4  C   UNL     1     -12.130   6.744  70.861  1.00  0.00    -0.421 C  
HETATM    5  C   UNL     1      -9.614   6.023  72.470  1.00  0.00    -0.153 C  
HETATM    6  C   UNL     1     -10.388   4.642  71.917  1.00  0.00    -0.220 C  
HETATM    7  C   UNL     1      -9.580   4.225  70.608  1.00  0.00    -0.260 C  
HETATM    8  C   UNL     1      -9.744   3.929  68.971  1.00  0.00    -0.129 C  
HETATM    9  C   UNL     1     -10.155   5.247  68.181  1.00  0.00    -0.211 C  
HETATM   10  C   UNL     1      -9.844   5.385  66.708  1.00  0.00    -0.171 C  
HETATM   11  F   UNL     1     -10.839   4.777  66.010  1.00  0.00    -0.329 F  
HETATM   12  C   UNL     1      -8.457   4.854  66.368  1.00  0.00    -0.111 C  
HETATM   13  C   UNL     1      -7.736   5.396  65.390  1.00  0.00    -0.092 C  
HETATM   14  C   UNL     1      -8.483   4.897  64.194  1.00  0.00    -0.137 C  
HETATM   15  O   UNL     1      -8.531   5.602  63.199  1.00  0.00    -0.097 OA 
HETATM   16  C   UNL     1      -9.074   3.468  64.266  1.00  0.00    -0.126 C  
HETATM   17  C   UNL     1      -9.186   2.747  65.711  1.00  0.00    -0.094 C  
HETATM   18  C   UNL     1      -8.217   3.386  66.758  1.00  0.00    -0.095 C  
HETATM   19  C   UNL     1      -6.843   2.769  66.391  1.00  0.00    -0.044 C  
HETATM   20  C   UNL     1      -8.393   3.483  68.335  1.00  0.00    -0.097 C  
HETATM   21  C   UNL     1      -7.597   2.734  69.409  1.00  0.00    -0.043 C  
HETATM   22  C   UNL     1      -7.017   3.903  70.286  1.00  0.00    -0.038 C  
HETATM   23  O   UNL     1      -6.588   1.861  68.956  1.00  0.00    -0.029 OA 
HETATM   24  C   UNL     1      -8.163   4.574  71.120  1.00  0.00    -0.087 C  
HETATM   25  H   UNL     1      -6.095   1.397  69.622  1.00  0.00     0.000 HD 
HETATM   26  C   UNL     1      -7.894   3.797  72.521  1.00  0.00    -0.072 C  
HETATM   27  C   UNL     1      -8.550   6.224  71.391  1.00  0.00    -0.131 C  
HETATM   28  O   UNL     1      -9.613   7.013  70.430  1.00  0.00    -0.169 OA 
ENDROOT
BRANCH  27  29
HETATM   29  C   UNL     1      -7.508   7.164  70.776  1.00  0.00    -0.080 C  
HETATM   30  O   UNL     1      -7.243   7.086  69.566  1.00  0.00    -0.076 OA 
BRANCH  29  31
HETATM   31  C   UNL     1      -6.995   8.400  71.500  1.00  0.00    -0.075 C  
HETATM   32  O   UNL     1      -7.873   8.982  72.430  1.00  0.00    -0.345 OA 
HETATM   33  H   UNL     1      -7.552   9.754  72.883  1.00  0.00     0.000 HD 
ENDBRANCH  29  31
ENDBRANCH  27  29
TORSDOF 2
ENDMDL
MODEL       56
REMARK 921   NORMALIZED FREE ENERGY PREDICTED BY IDOCK:   -4.20 KCAL/MOL
REMARK 922        TOTAL FREE ENERGY PREDICTED BY IDOCK:   -5.16 KCAL/MOL
REMARK 923 INTER-LIGAND FREE ENERGY PREDICTED BY IDOCK:   -4.55 KCAL/MOL
REMARK 924 INTRA-LIGAND FREE ENERGY PREDICTED BY IDOCK:   -0.61 KCAL/MOL
REMARK 927      BINDING AFFINITY PREDICTED BY RF-SCORE:    0.00 PKD
ROOT
HETATM    1  C   UNL     1      -6.467  10.284  64.972  1.00  0.00    -0.120 C  
HETATM    2  C   UNL     1      -7.844   9.971  65.567  1.00  0.00    -0.134 C  
HETATM    3  O   UNL     1      -8.559  11.150  65.859  1.00  0.00    -0.175 OA 
HETATM    4  C   UNL     1      -8.576   9.245  64.400  1.00  0.00    -0.216 C  
HETATM    5  C   UNL     1      -9.435  10.783  66.917  1.00  0.00    -0.168 C  
HETATM    6  C   UNL     1     -10.608   9.673  66.463  1.00  0.00    -0.142 C  
HETATM    7  C   UNL     1     -10.357   8.414  67.409  1.00  0.00    -0.355 C  
HETATM    8  C   UNL     1     -10.030   6.775  67.395  1.00  0.00    -0.192 C  
HETATM    9  C   UNL     1      -8.597   6.474  66.775  1.00  0.00    -0.117 C  
HETATM   10  C   UNL     1      -7.859   5.203  67.132  1.00  0.00    -0.096 C  
HETATM   11  F   UNL     1      -8.309   4.213  66.318  1.00  0.00    -0.103 F  
HETATM   12  C   UNL     1      -7.987   4.869  68.614  1.00  0.00    -0.084 C  
HETATM   13  C   UNL     1      -7.004   4.254  69.266  1.00  0.00    -0.050 C  
HETATM   14  C   UNL     1      -7.124   2.875  68.698  1.00  0.00    -0.048 C  
HETATM   15  O   UNL     1      -6.112   2.207  68.567  1.00  0.00    -0.024 OA 
HETATM   16  C   UNL     1      -8.549   2.348  68.400  1.00  0.00    -0.109 C  
HETATM   17  C   UNL     1      -9.773   3.406  68.354  1.00  0.00    -0.027 C  
HETATM   18  C   UNL     1      -9.433   4.726  69.118  1.00  0.00    -0.215 C  
HETATM   19  C   UNL     1      -9.631   4.334  70.605  1.00  0.00    -0.260 C  
HETATM   20  C   UNL     1      -9.974   6.195  68.841  1.00  0.00    -0.185 C  
HETATM   21  C   UNL     1     -10.934   7.014  69.710  1.00  0.00    -0.250 C  
HETATM   22  C   UNL     1     -10.110   8.321  69.998  1.00  0.00    -0.196 C  
HETATM   23  O   UNL     1     -11.392   6.403  70.894  1.00  0.00    -0.304 OA 
HETATM   24  C   UNL     1     -10.003   9.191  68.698  1.00  0.00    -0.185 C  
HETATM   25  H   UNL     1     -11.988   6.911  71.433  1.00  0.00     0.000 HD 
HETATM   26  C   UNL     1     -11.200  10.235  69.038  1.00  0.00    -0.260 C  
HETATM   27  C   UNL     1      -8.667   9.993  67.978  1.00  0.00    -0.125 C  
HETATM   28  O   UNL     1      -7.757   9.260  66.833  1.00  0.00    -0.094 OA 
ENDROOT
BRANCH  27  29
HETATM   29  C   UNL     1      -7.408   9.898  68.845  1.00  0.00    -0.078 C  
HETATM   30  O   UNL     1      -7.290  10.625  69.844  1.00  0.00    -0.150 OA 
BRANCH  29  31
HETATM   31  C   UNL     1      -6.423   8.743  68.731  1.00  0.00    -0.053 C  
HETATM   32  O   UNL     1      -6.526   7.742  69.711  1.00  0.00    -0.034 OA 
HETATM   33  H   UNL     1      -5.911   7.021  69.640  1.00  0.00     0.000 HD 
ENDBRANCH  29  31
ENDBRANCH  27  29
TORSDOF 2
ENDMDL
MODEL       57
REMARK 921   NORMALIZED FREE ENERGY PREDICTED BY IDOCK:   -4.18 KCAL/MOL
REMARK 922        TOTAL FREE ENERGY PREDICTED BY IDOCK:   -5.14 KCAL/MOL
REMARK 923 INTER-LIGAND FREE ENERGY PREDICTED BY IDOCK:   -4.68 KCAL/MOL
REMARK 924 INTRA-LIGAND FREE ENERGY PREDICTED BY IDOCK:   -0.46 KCAL/MOL
REMARK 927      BINDING AFFINITY PREDICTED BY RF-SCORE:    0.00 PKD
ROOT
HETATM    1  C   UNL     1     -11.535   7.610  71.209  1.00  0.00    -0.293 C  
HETATM    2  C   UNL     1     -10.094   7.843  70.741  1.00  0.00    -0.192 C  
HETATM    3  O   UNL     1      -9.628   9.116  71.124  1.00  0.00    -0.267 OA 
HETATM    4  C   UNL     1      -9.287   6.777  71.540  1.00  0.00    -0.153 C  
HETATM    5  C   UNL     1      -8.642   9.442  70.153  1.00  0.00    -0.212 C  
HETATM    6  C   UNL     1      -7.288   8.454  70.214  1.00  0.00    -0.055 C  
HETATM    7  C   UNL     1      -7.221   7.774  68.773  1.00  0.00    -0.081 C  
HETATM    8  C   UNL     1      -7.200   6.297  67.990  1.00  0.00    -0.087 C  
HETATM    9  C   UNL     1      -8.567   5.512  68.193  1.00  0.00    -0.100 C  
HETATM   10  C   UNL     1      -9.004   4.464  67.194  1.00  0.00    -0.119 C  
HETATM   11  F   UNL     1      -8.399   3.293  67.522  1.00  0.00    -0.082 F  
HETATM   12  C   UNL     1      -8.734   4.900  65.759  1.00  0.00    -0.131 C  
HETATM   13  C   UNL     1      -9.533   4.520  64.764  1.00  0.00    -0.126 C  
HETATM   14  C   UNL     1      -9.156   3.077  64.651  1.00  0.00    -0.135 C  
HETATM   15  O   UNL     1     -10.012   2.274  64.317  1.00  0.00    -0.110 OA 
HETATM   16  C   UNL     1      -7.669   2.707  64.877  1.00  0.00    -0.077 C  
HETATM   17  C   UNL     1      -6.697   3.797  65.575  1.00  0.00    -0.048 C  
HETATM   18  C   UNL     1      -7.267   5.248  65.457  1.00  0.00    -0.068 C  
HETATM   19  C   UNL     1      -6.916   5.647  64.001  1.00  0.00    -0.050 C  
HETATM   20  C   UNL     1      -7.060   6.473  66.448  1.00  0.00    -0.068 C  
HETATM   21  C   UNL     1      -6.249   7.749  66.195  1.00  0.00    -0.045 C  
HETATM   22  C   UNL     1      -7.312   8.884  66.421  1.00  0.00    -0.088 C  
HETATM   23  O   UNL     1      -5.614   7.857  64.943  1.00  0.00    -0.036 OA 
HETATM   24  C   UNL     1      -7.664   9.003  67.944  1.00  0.00    -0.097 C  
HETATM   25  H   UNL     1      -5.111   8.648  64.786  1.00  0.00     0.000 HD 
HETATM   26  C   UNL     1      -6.696  10.260  68.293  1.00  0.00    -0.057 C  
HETATM   27  C   UNL     1      -9.173   9.139  68.751  1.00  0.00    -0.136 C  
HETATM   28  O   UNL     1      -9.967   7.815  69.292  1.00  0.00    -0.174 OA 
ENDROOT
BRANCH  27  29
HETATM   29  C   UNL     1     -10.338   9.267  67.766  1.00  0.00    -0.237 C  
HETATM   30  O   UNL     1     -10.861   8.246  67.292  1.00  0.00    -0.232 OA 
BRANCH  29  31
HETATM   31  C   UNL     1     -11.099  10.570  67.565  1.00  0.00    -0.290 C  
HETATM   32  O   UNL     1     -12.258  10.736  68.343  1.00  0.00    -0.832 OA 
HETATM   33  H   UNL     1     -12.733  11.549  68.218  1.00  0.00     0.000 HD 
ENDBRANCH  29  31
ENDBRANCH  27  29
TORSDOF 2
ENDMDL
MODEL       58
REMARK 921   NORMALIZED FREE ENERGY PREDICTED BY IDOCK:   -4.18 KCAL/MOL
REMARK 922        TOTAL FREE ENERGY PREDICTED BY IDOCK:   -5.14 KCAL/MOL
REMARK 923 INTER-LIGAND FREE ENERGY PREDICTED BY IDOCK:   -4.42 KCAL/MOL
REMARK 924 INTRA-LIGAND FREE ENERGY PREDICTED BY IDOCK:   -0.71 KCAL/MOL
REMARK 927      BINDING AFFINITY PREDICTED BY RF-SCORE:    0.00 PKD
ROOT
HETATM    1  C   UNL     1      -9.736   8.102  65.995  1.00  0.00    -0.052 C  
HETATM    2  C   UNL     1      -9.327   8.820  67.286  1.00  0.00    -0.147 C  
HETATM    3  O   UNL     1      -8.429   9.874  67.028  1.00  0.00    -0.120 OA 
HETATM    4  C   UNL     1     -10.665   9.442  67.783  1.00  0.00    -0.290 C  
HETATM    5  C   UNL     1      -7.677  10.005  68.228  1.00  0.00    -0.084 C  
HETATM    6  C   UNL     1      -8.588  10.530  69.535  1.00  0.00    -0.047 C  
HETATM    7  C   UNL     1      -8.452   9.364  70.614  1.00  0.00    -0.239 C  
HETATM    8  C   UNL     1      -9.335   8.284  71.535  1.00  0.00    -0.236 C  
HETATM    9  C   UNL     1     -10.089   7.223  70.622  1.00  0.00    -0.198 C  
HETATM   10  C   UNL     1     -10.484   5.874  71.182  1.00  0.00    -0.233 C  
HETATM   11  F   UNL     1     -11.672   6.018  71.823  1.00  0.00    -0.335 F  
HETATM   12  C   UNL     1      -9.390   5.284  72.064  1.00  0.00    -0.159 C  
HETATM   13  C   UNL     1      -9.203   3.968  72.136  1.00  0.00    -0.168 C  
HETATM   14  C   UNL     1     -10.401   3.568  72.939  1.00  0.00    -0.166 C  
HETATM   15  O   UNL     1     -10.910   2.480  72.726  1.00  0.00    -0.118 OA 
HETATM   16  C   UNL     1     -10.863   4.531  74.060  1.00  0.00    -0.316 C  
HETATM   17  C   UNL     1     -10.291   6.045  74.066  1.00  0.00    -0.301 C  
HETATM   18  C   UNL     1      -8.967   6.172  73.245  1.00  0.00    -0.129 C  
HETATM   19  C   UNL     1      -7.896   5.605  74.213  1.00  0.00    -0.102 C  
HETATM   20  C   UNL     1      -8.410   7.437  72.460  1.00  0.00    -0.128 C  
HETATM   21  C   UNL     1      -7.197   8.299  72.823  1.00  0.00    -0.102 C  
HETATM   22  C   UNL     1      -6.308   8.207  71.529  1.00  0.00    -0.043 C  
HETATM   23  O   UNL     1      -6.485   7.934  73.982  1.00  0.00    -0.089 OA 
HETATM   24  C   UNL     1      -6.965   9.021  70.361  1.00  0.00    -0.058 C  
HETATM   25  H   UNL     1      -5.733   8.469  74.208  1.00  0.00     0.000 HD 
HETATM   26  C   UNL     1      -6.073  10.371  70.510  1.00  0.00    -0.116 C  
HETATM   27  C   UNL     1      -7.224   8.628  68.711  1.00  0.00    -0.075 C  
HETATM   28  O   UNL     1      -8.625   7.945  68.213  1.00  0.00    -0.124 OA 
ENDROOT
BRANCH  27  29
HETATM   29  C   UNL     1      -6.595   7.281  68.340  1.00  0.00    -0.049 C  
HETATM   30  O   UNL     1      -5.408   7.231  67.982  1.00  0.00    -0.022 OA 
BRANCH  29  31
HETATM   31  C   UNL     1      -7.253   5.951  68.678  1.00  0.00    -0.083 C  
HETATM   32  O   UNL     1      -7.854   5.268  67.607  1.00  0.00    -0.094 OA 
HETATM   33  H   UNL     1      -8.264   4.437  67.818  1.00  0.00     0.000 HD 
ENDBRANCH  29  31
ENDBRANCH  27  29
TORSDOF 2
ENDMDL
MODEL       59
REMARK 921   NORMALIZED FREE ENERGY PREDICTED BY IDOCK:   -4.18 KCAL/MOL
REMARK 922        TOTAL FREE ENERGY PREDICTED BY IDOCK:   -5.13 KCAL/MOL
REMARK 923 INTER-LIGAND FREE ENERGY PREDICTED BY IDOCK:   -4.64 KCAL/MOL
REMARK 924 INTRA-LIGAND FREE ENERGY PREDICTED BY IDOCK:   -0.50 KCAL/MOL
REMARK 927      BINDING AFFINITY PREDICTED BY RF-SCORE:    0.00 PKD
ROOT
HETATM    1  C   UNL     1     -13.379  14.748  70.171  1.00  0.00     0.326 C  
HETATM    2  C   UNL     1     -11.930  14.724  69.673  1.00  0.00    -0.316 C  
HETATM    3  O   UNL     1     -11.562  15.957  69.099  1.00  0.00    -0.362 OA 
HETATM    4  C   UNL     1     -11.109  14.542  70.983  1.00  0.00     0.256 C  
HETATM    5  C   UNL     1     -10.542  15.626  68.165  1.00  0.00    -0.274 C  
HETATM    6  C   UNL     1      -9.138  15.050  68.880  1.00  0.00    -0.202 C  
HETATM    7  C   UNL     1      -8.950  13.587  68.274  1.00  0.00    -0.180 C  
HETATM    8  C   UNL     1      -8.797  11.976  68.691  1.00  0.00    -0.024 C  
HETATM    9  C   UNL     1     -10.125  11.421  69.365  1.00  0.00     0.147 C  
HETATM   10  C   UNL     1     -10.442   9.943  69.332  1.00  0.00    -0.231 C  
HETATM   11  F   UNL     1      -9.789   9.351  70.366  1.00  0.00    -0.215 F  
HETATM   12  C   UNL     1     -10.116   9.323  67.979  1.00  0.00    -0.234 C  
HETATM   13  C   UNL     1     -10.833   8.310  67.498  1.00  0.00    -0.094 C  
HETATM   14  C   UNL     1     -10.367   7.201  68.389  1.00  0.00    -0.194 C  
HETATM   15  O   UNL     1     -11.153   6.316  68.680  1.00  0.00    -0.334 OA 
HETATM   16  C   UNL     1      -8.876   7.203  68.809  1.00  0.00    -0.130 C  
HETATM   17  C   UNL     1      -8.011   8.554  68.593  1.00  0.00    -0.116 C  
HETATM   18  C   UNL     1      -8.657   9.496  67.526  1.00  0.00    -0.126 C  
HETATM   19  C   UNL     1      -8.247   8.841  66.182  1.00  0.00    -0.117 C  
HETATM   20  C   UNL     1      -8.579  11.081  67.433  1.00  0.00    -0.132 C  
HETATM   21  C   UNL     1      -7.831  11.917  66.389  1.00  0.00     0.170 C  
HETATM   22  C   UNL     1      -8.970  12.818  65.787  1.00  0.00     0.448 C  
HETATM   23  O   UNL     1      -7.132  11.208  65.392  1.00  0.00    -0.349 OA 
HETATM   24  C   UNL     1      -9.416  13.899  66.832  1.00  0.00    -0.263 C  
HETATM   25  H   UNL     1      -6.669  11.726  64.745  1.00  0.00     0.000 HD 
HETATM   26  C   UNL     1      -8.544  15.138  66.245  1.00  0.00    -0.020 C  
HETATM   27  C   UNL     1     -10.973  14.418  67.332  1.00  0.00    -0.299 C  
HETATM   28  O   UNL     1     -11.718  13.741  68.621  1.00  0.00    -0.311 OA 
ENDROOT
BRANCH  27  29
HETATM   29  C   UNL     1     -12.086  13.755  66.514  1.00  0.00    -0.443 C  
HETATM   30  O   UNL     1     -12.657  12.744  66.953  1.00  0.00    -0.142 OA 
BRANCH  29  31
HETATM   31  C   UNL     1     -12.748  14.441  65.328  1.00  0.00    -0.267 C  
HETATM   32  O   UNL     1     -12.033  14.414  64.119  1.00  0.00    -0.607 OA 
HETATM   33  H   UNL     1     -12.446  14.842  63.378  1.00  0.00     0.000 HD 
ENDBRANCH  29  31
ENDBRANCH  27  29
TORSDOF 2
ENDMDL
MODEL       60
REMARK 921   NORMALIZED FREE ENERGY PREDICTED BY IDOCK:   -4.12 KCAL/MOL
REMARK 922        TOTAL FREE ENERGY PREDICTED BY IDOCK:   -5.06 KCAL/MOL
REMARK 923 INTER-LIGAND FREE ENERGY PREDICTED BY IDOCK:   -4.37 KCAL/MOL
REMARK 924 INTRA-LIGAND FREE ENERGY PREDICTED BY IDOCK:   -0.70 KCAL/MOL
REMARK 927      BINDING AFFINITY PREDICTED BY RF-SCORE:    0.00 PKD
ROOT
HETATM    1  C   UNL     1     -11.093  12.507  69.693  1.00  0.00     0.015 C  
HETATM    2  C   UNL     1     -10.978  10.983  69.581  1.00  0.00    -0.225 C  
HETATM    3  O   UNL     1     -11.119  10.362  70.837  1.00  0.00    -0.264 OA 
HETATM    4  C   UNL     1     -12.215  10.599  68.716  1.00  0.00     0.230 C  
HETATM    5  C   UNL     1     -10.392   9.145  70.717  1.00  0.00    -0.258 C  
HETATM    6  C   UNL     1     -11.069   8.064  69.627  1.00  0.00    -0.021 C  
HETATM    7  C   UNL     1      -9.931   7.830  68.535  1.00  0.00    -0.193 C  
HETATM    8  C   UNL     1      -9.603   7.940  66.900  1.00  0.00    -0.263 C  
HETATM    9  C   UNL     1      -9.637   9.449  66.401  1.00  0.00    -0.285 C  
HETATM   10  C   UNL     1      -8.873   9.865  65.164  1.00  0.00    -0.180 C  
HETATM   11  F   UNL     1      -9.649   9.594  64.082  1.00  0.00    -0.317 F  
HETATM   12  C   UNL     1      -7.499   9.210  65.099  1.00  0.00    -0.097 C  
HETATM   13  C   UNL     1      -6.466   9.838  64.540  1.00  0.00    -0.112 C  
HETATM   14  C   UNL     1      -6.844   9.746  63.095  1.00  0.00    -0.115 C  
HETATM   15  O   UNL     1      -6.521  10.654  62.348  1.00  0.00    -0.142 OA 
HETATM   16  C   UNL     1      -7.545   8.448  62.622  1.00  0.00    -0.116 C  
HETATM   17  C   UNL     1      -8.160   7.448  63.736  1.00  0.00    -0.017 C  
HETATM   18  C   UNL     1      -7.515   7.673  65.142  1.00  0.00    -0.088 C  
HETATM   19  C   UNL     1      -6.151   6.945  65.026  1.00  0.00    -0.036 C  
HETATM   20  C   UNL     1      -8.163   7.440  66.574  1.00  0.00    -0.120 C  
HETATM   21  C   UNL     1      -7.805   6.352  67.593  1.00  0.00    -0.106 C  
HETATM   22  C   UNL     1      -7.431   7.187  68.872  1.00  0.00    -0.099 C  
HETATM   23  O   UNL     1      -6.782   5.455  67.228  1.00  0.00    -0.055 OA 
HETATM   24  C   UNL     1      -8.719   7.826  69.497  1.00  0.00    -0.135 C  
HETATM   25  H   UNL     1      -6.560   4.781  67.859  1.00  0.00     0.000 HD 
HETATM   26  C   UNL     1      -8.965   6.721  70.662  1.00  0.00    -0.151 C  
HETATM   27  C   UNL     1      -9.033   9.413  70.071  1.00  0.00    -0.212 C  
HETATM   28  O   UNL     1      -9.675  10.556  69.093  1.00  0.00    -0.203 OA 
ENDROOT
BRANCH  27  29
HETATM   29  C   UNL     1      -7.777  10.289  70.042  1.00  0.00    -0.074 C  
HETATM   30  O   UNL     1      -6.914  10.162  70.925  1.00  0.00    -0.341 OA 
BRANCH  29  31
HETATM   31  C   UNL     1      -7.375  11.099  68.818  1.00  0.00    -0.114 C  
HETATM   32  O   UNL     1      -7.597  12.485  68.892  1.00  0.00    -0.269 OA 
HETATM   33  H   UNL     1      -7.345  12.991  68.129  1.00  0.00     0.000 HD 
ENDBRANCH  29  31
ENDBRANCH  27  29
TORSDOF 2
ENDMDL
MODEL       61
REMARK 921   NORMALIZED FREE ENERGY PREDICTED BY IDOCK:   -4.10 KCAL/MOL
REMARK 922        TOTAL FREE ENERGY PREDICTED BY IDOCK:   -5.05 KCAL/MOL
REMARK 923 INTER-LIGAND FREE ENERGY PREDICTED BY IDOCK:   -4.36 KCAL/MOL
REMARK 924 INTRA-LIGAND FREE ENERGY PREDICTED BY IDOCK:   -0.69 KCAL/MOL
REMARK 927      BINDING AFFINITY PREDICTED BY RF-SCORE:    0.00 PKD
ROOT
HETATM    1  C   UNL     1      -6.039  11.535  70.332  1.00  0.00    -0.091 C  
HETATM    2  C   UNL     1      -6.698  11.008  69.053  1.00  0.00    -0.074 C  
HETATM    3  O   UNL     1      -7.451  12.011  68.411  1.00  0.00    -0.097 OA 
HETATM    4  C   UNL     1      -5.480  10.670  68.143  1.00  0.00    -0.036 C  
HETATM    5  C   UNL     1      -8.454  11.300  67.695  1.00  0.00    -0.124 C  
HETATM    6  C   UNL     1      -7.846  10.358  66.447  1.00  0.00    -0.128 C  
HETATM    7  C   UNL     1      -8.293   8.871  66.812  1.00  0.00    -0.111 C  
HETATM    8  C   UNL     1      -7.709   7.333  67.103  1.00  0.00    -0.112 C  
HETATM    9  C   UNL     1      -6.823   7.287  68.422  1.00  0.00    -0.073 C  
HETATM   10  C   UNL     1      -6.644   5.991  69.181  1.00  0.00    -0.051 C  
HETATM   11  F   UNL     1      -5.632   5.299  68.596  1.00  0.00    -0.011 F  
HETATM   12  C   UNL     1      -7.944   5.200  69.267  1.00  0.00    -0.080 C  
HETATM   13  C   UNL     1      -8.214   4.439  70.325  1.00  0.00    -0.071 C  
HETATM   14  C   UNL     1      -7.260   3.309  70.096  1.00  0.00    -0.041 C  
HETATM   15  O   UNL     1      -6.776   2.748  71.065  1.00  0.00    -0.030 OA 
HETATM   16  C   UNL     1      -7.021   2.862  68.632  1.00  0.00    -0.048 C  
HETATM   17  C   UNL     1      -7.495   3.843  67.435  1.00  0.00    -0.068 C  
HETATM   18  C   UNL     1      -8.582   4.860  67.910  1.00  0.00    -0.103 C  
HETATM   19  C   UNL     1      -9.878   4.010  67.927  1.00  0.00    -0.078 C  
HETATM   20  C   UNL     1      -8.870   6.324  67.361  1.00  0.00    -0.107 C  
HETATM   21  C   UNL     1     -10.085   6.795  66.556  1.00  0.00    -0.066 C  
HETATM   22  C   UNL     1     -10.651   7.967  67.438  1.00  0.00    -0.342 C  
HETATM   23  O   UNL     1     -11.067   5.827  66.267  1.00  0.00    -0.733 OA 
HETATM   24  C   UNL     1      -9.696   9.208  67.367  1.00  0.00    -0.211 C  
HETATM   25  H   UNL     1     -11.820   6.118  65.767  1.00  0.00     0.000 HD 
HETATM   26  C   UNL     1     -10.523  10.054  66.253  1.00  0.00    -0.172 C  
HETATM   27  C   UNL     1      -9.082  10.237  68.596  1.00  0.00    -0.152 C  
HETATM   28  O   UNL     1      -7.643   9.934  69.313  1.00  0.00    -0.083 OA 
ENDROOT
BRANCH  27  29
HETATM   29  C   UNL     1      -9.680   9.908  69.967  1.00  0.00    -0.227 C  
HETATM   30  O   UNL     1     -10.734  10.454  70.329  1.00  0.00    -0.282 OA 
BRANCH  29  31
HETATM   31  C   UNL     1      -9.221   8.716  70.794  1.00  0.00    -0.185 C  
HETATM   32  O   UNL     1      -8.523   9.014  71.977  1.00  0.00    -0.368 OA 
HETATM   33  H   UNL     1      -8.237   8.270  72.493  1.00  0.00     0.000 HD 
ENDBRANCH  29  31
ENDBRANCH  27  29
TORSDOF 2
ENDMDL
MODEL       62
REMARK 921   NORMALIZED FREE ENERGY PREDICTED BY IDOCK:   -4.05 KCAL/MOL
REMARK 922        TOTAL FREE ENERGY PREDICTED BY IDOCK:   -4.99 KCAL/MOL
REMARK 923 INTER-LIGAND FREE ENERGY PREDICTED BY IDOCK:   -4.57 KCAL/MOL
REMARK 924 INTRA-LIGAND FREE ENERGY PREDICTED BY IDOCK:   -0.42 KCAL/MOL
REMARK 927      BINDING AFFINITY PREDICTED BY RF-SCORE:    0.00 PKD
ROOT
HETATM    1  C   UNL     1      -9.743   6.756  69.059  1.00  0.00    -0.145 C  
HETATM    2  C   UNL     1      -9.006   7.748  68.153  1.00  0.00    -0.127 C  
HETATM    3  O   UNL     1      -7.731   7.268  67.794  1.00  0.00    -0.108 OA 
HETATM    4  C   UNL     1      -9.886   7.774  66.868  1.00  0.00    -0.305 C  
HETATM    5  C   UNL     1      -6.965   8.441  67.547  1.00  0.00    -0.075 C  
HETATM    6  C   UNL     1      -7.485   9.314  66.213  1.00  0.00    -0.096 C  
HETATM    7  C   UNL     1      -7.870  10.748  66.795  1.00  0.00    -0.135 C  
HETATM    8  C   UNL     1      -9.121  11.848  66.923  1.00  0.00    -0.196 C  
HETATM    9  C   UNL     1     -10.310  11.275  67.809  1.00  0.00    -0.208 C  
HETATM   10  C   UNL     1     -11.266  12.215  68.509  1.00  0.00    -0.260 C  
HETATM   11  F   UNL     1     -12.231  12.570  67.621  1.00  0.00    -0.389 F  
HETATM   12  C   UNL     1     -10.542  13.408  69.121  1.00  0.00    -0.035 C  
HETATM   13  C   UNL     1     -10.983  13.977  70.241  1.00  0.00     0.331 C  
HETATM   14  C   UNL     1     -12.203  14.675  69.726  1.00  0.00    -0.302 C  
HETATM   15  O   UNL     1     -13.165  14.793  70.467  1.00  0.00    -0.310 OA 
HETATM   16  C   UNL     1     -12.129  15.289  68.306  1.00  0.00    -0.012 C  
HETATM   17  C   UNL     1     -10.921  14.837  67.328  1.00  0.00    -0.318 C  
HETATM   18  C   UNL     1      -9.716  14.240  68.126  1.00  0.00    -0.226 C  
HETATM   19  C   UNL     1      -8.999  15.499  68.676  1.00  0.00    -0.194 C  
HETATM   20  C   UNL     1      -8.664  13.147  67.653  1.00  0.00    -0.192 C  
HETATM   21  C   UNL     1      -7.177  13.357  67.344  1.00  0.00    -0.103 C  
HETATM   22  C   UNL     1      -6.476  12.337  68.313  1.00  0.00    -0.056 C  
HETATM   23  O   UNL     1      -6.678  14.665  67.498  1.00  0.00    -0.180 OA 
HETATM   24  C   UNL     1      -6.719  10.868  67.823  1.00  0.00    -0.064 C  
HETATM   25  H   UNL     1      -5.757  14.796  67.307  1.00  0.00     0.000 HD 
HETATM   26  C   UNL     1      -5.299  10.656  67.063  1.00  0.00    -0.043 C  
HETATM   27  C   UNL     1      -7.185   9.452  68.673  1.00  0.00    -0.074 C  
HETATM   28  O   UNL     1      -8.759   9.024  68.807  1.00  0.00    -0.133 OA 
ENDROOT
BRANCH  27  29
HETATM   29  C   UNL     1      -7.264   9.693  70.183  1.00  0.00    -0.128 C  
HETATM   30  O   UNL     1      -8.366   9.894  70.720  1.00  0.00    -0.147 OA 
BRANCH  29  31
HETATM   31  C   UNL     1      -6.102   9.397  71.120  1.00  0.00    -0.078 C  
HETATM   32  O   UNL     1      -6.441   9.089  72.449  1.00  0.00    -0.261 OA 
HETATM   33  H   UNL     1      -5.715   8.903  73.033  1.00  0.00     0.000 HD 
ENDBRANCH  29  31
ENDBRANCH  27  29
TORSDOF 2
ENDMDL
MODEL       63
REMARK 921   NORMALIZED FREE ENERGY PREDICTED BY IDOCK:   -4.01 KCAL/MOL
REMARK 922        TOTAL FREE ENERGY PREDICTED BY IDOCK:   -4.95 KCAL/MOL
REMARK 923 INTER-LIGAND FREE ENERGY PREDICTED BY IDOCK:   -4.23 KCAL/MOL
REMARK 924 INTRA-LIGAND FREE ENERGY PREDICTED BY IDOCK:   -0.71 KCAL/MOL
REMARK 927      BINDING AFFINITY PREDICTED BY RF-SCORE:    0.00 PKD
ROOT
HETATM    1  C   UNL     1      -5.150  11.310  69.485  1.00  0.00    -0.045 C  
HETATM    2  C   UNL     1      -6.396  11.094  68.620  1.00  0.00    -0.044 C  
HETATM    3  O   UNL     1      -7.387  12.056  68.895  1.00  0.00    -0.110 OA 
HETATM    4  C   UNL     1      -5.871  11.346  67.176  1.00  0.00    -0.094 C  
HETATM    5  C   UNL     1      -8.612  11.412  68.564  1.00  0.00    -0.150 C  
HETATM    6  C   UNL     1      -8.776  11.084  66.927  1.00  0.00    -0.148 C  
HETATM    7  C   UNL     1      -8.937   9.499  66.849  1.00  0.00    -0.148 C  
HETATM    8  C   UNL     1      -8.275   8.119  66.180  1.00  0.00    -0.117 C  
HETATM    9  C   UNL     1      -6.811   7.847  66.737  1.00  0.00    -0.072 C  
HETATM   10  C   UNL     1      -6.234   6.449  66.726  1.00  0.00    -0.040 C  
HETATM   11  F   UNL     1      -5.699   6.226  65.497  1.00  0.00    -0.019 F  
HETATM   12  C   UNL     1      -7.267   5.405  67.132  1.00  0.00    -0.075 C  
HETATM   13  C   UNL     1      -6.908   4.303  67.786  1.00  0.00    -0.052 C  
HETATM   14  C   UNL     1      -6.224   3.549  66.689  1.00  0.00    -0.028 C  
HETATM   15  O   UNL     1      -5.283   2.827  66.976  1.00  0.00    -0.008 OA 
HETATM   16  C   UNL     1      -6.819   3.664  65.265  1.00  0.00    -0.052 C  
HETATM   17  C   UNL     1      -7.880   4.848  64.961  1.00  0.00    -0.092 C  
HETATM   18  C   UNL     1      -8.540   5.390  66.270  1.00  0.00    -0.122 C  
HETATM   19  C   UNL     1      -9.608   4.315  66.598  1.00  0.00    -0.218 C  
HETATM   20  C   UNL     1      -9.095   6.850  66.564  1.00  0.00    -0.179 C  
HETATM   21  C   UNL     1     -10.558   7.275  66.734  1.00  0.00    -0.217 C  
HETATM   22  C   UNL     1     -10.561   7.942  68.158  1.00  0.00    -0.179 C  
HETATM   23  O   UNL     1     -11.528   6.260  66.622  1.00  0.00    -0.693 OA 
HETATM   24  C   UNL     1      -9.811   9.319  68.113  1.00  0.00    -0.185 C  
HETATM   25  H   UNL     1     -12.435   6.522  66.728  1.00  0.00     0.000 HD 
HETATM   26  C   UNL     1     -11.121  10.273  67.997  1.00  0.00    -0.336 C  
HETATM   27  C   UNL     1      -8.635  10.004  69.157  1.00  0.00    -0.158 C  
HETATM   28  O   UNL     1      -7.035   9.812  68.873  1.00  0.00    -0.060 OA 
ENDROOT
BRANCH  27  29
HETATM   29  C   UNL     1      -8.382   9.125  70.386  1.00  0.00    -0.185 C  
HETATM   30  O   UNL     1      -9.119   9.225  71.380  1.00  0.00    -0.299 OA 
BRANCH  29  31
HETATM   31  C   UNL     1      -7.463   7.913  70.349  1.00  0.00    -0.077 C  
HETATM   32  O   UNL     1      -6.191   8.082  70.921  1.00  0.00    -0.033 OA 
HETATM   33  H   UNL     1      -5.617   7.325  70.898  1.00  0.00     0.000 HD 
ENDBRANCH  29  31
ENDBRANCH  27  29
TORSDOF 2
ENDMDL
MODEL       64
REMARK 921   NORMALIZED FREE ENERGY PREDICTED BY IDOCK:   -3.89 KCAL/MOL
REMARK 922        TOTAL FREE ENERGY PREDICTED BY IDOCK:   -4.81 KCAL/MOL
REMARK 923 INTER-LIGAND FREE ENERGY PREDICTED BY IDOCK:   -4.11 KCAL/MOL
REMARK 924 INTRA-LIGAND FREE ENERGY PREDICTED BY IDOCK:   -0.70 KCAL/MOL
REMARK 927      BINDING AFFINITY PREDICTED BY RF-SCORE:    0.00 PKD
ROOT
HETATM    1  C   UNL     1      -9.173   2.481  67.120  1.00  0.00    -0.141 C  
HETATM    2  C   UNL     1      -8.291   3.484  67.872  1.00  0.00    -0.084 C  
HETATM    3  O   UNL     1      -8.189   3.158  69.238  1.00  0.00    -0.058 OA 
HETATM    4  C   UNL     1      -6.891   3.277  67.224  1.00  0.00    -0.046 C  
HETATM    5  C   UNL     1      -7.941   4.400  69.884  1.00  0.00    -0.056 C  
HETATM    6  C   UNL     1      -6.455   5.075  69.493  1.00  0.00    -0.038 C  
HETATM    7  C   UNL     1      -6.814   6.486  68.842  1.00  0.00    -0.069 C  
HETATM    8  C   UNL     1      -6.626   7.408  67.461  1.00  0.00    -0.061 C  
HETATM    9  C   UNL     1      -7.373   6.753  66.219  1.00  0.00    -0.073 C  
HETATM   10  C   UNL     1      -7.811   7.608  65.051  1.00  0.00    -0.126 C  
HETATM   11  F   UNL     1      -6.751   7.748  64.213  1.00  0.00    -0.053 F  
HETATM   12  C   UNL     1      -8.397   8.938  65.509  1.00  0.00    -0.142 C  
HETATM   13  C   UNL     1      -9.366   9.534  64.818  1.00  0.00    -0.235 C  
HETATM   14  C   UNL     1      -8.596  10.009  63.626  1.00  0.00    -0.202 C  
HETATM   15  O   UNL     1      -9.162  10.055  62.547  1.00  0.00    -0.271 OA 
HETATM   16  C   UNL     1      -7.148  10.503  63.863  1.00  0.00     0.125 C  
HETATM   17  C   UNL     1      -6.424  10.141  65.264  1.00  0.00    -0.119 C  
HETATM   18  C   UNL     1      -7.459   9.788  66.381  1.00  0.00    -0.099 C  
HETATM   19  C   UNL     1      -7.976  11.178  66.836  1.00  0.00    -0.151 C  
HETATM   20  C   UNL     1      -7.275   8.816  67.625  1.00  0.00    -0.080 C  
HETATM   21  C   UNL     1      -7.181   9.203  69.105  1.00  0.00    -0.067 C  
HETATM   22  C   UNL     1      -8.351   8.378  69.753  1.00  0.00    -0.125 C  
HETATM   23  O   UNL     1      -7.270  10.577  69.406  1.00  0.00    -0.089 OA 
HETATM   24  C   UNL     1      -7.989   6.853  69.779  1.00  0.00    -0.124 C  
HETATM   25  H   UNL     1      -7.211  10.817  70.324  1.00  0.00     0.000 HD 
HETATM   26  C   UNL     1      -7.486   6.775  71.322  1.00  0.00    -0.084 C  
HETATM   27  C   UNL     1      -8.903   5.463  69.354  1.00  0.00    -0.105 C  
HETATM   28  O   UNL     1      -8.835   4.834  67.846  1.00  0.00    -0.103 OA 
ENDROOT
BRANCH  27  29
HETATM   29  C   UNL     1     -10.348   5.819  68.993  1.00  0.00    -0.245 C  
HETATM   30  O   UNL     1     -11.210   5.884  69.884  1.00  0.00    -0.378 OA 
BRANCH  29  31
HETATM   31  C   UNL     1     -10.732   6.402  67.640  1.00  0.00    -0.311 C  
HETATM   32  O   UNL     1     -11.252   5.495  66.701  1.00  0.00    -0.497 OA 
HETATM   33  H   UNL     1     -11.493   5.859  65.857  1.00  0.00     0.000 HD 
ENDBRANCH  29  31
ENDBRANCH  27  29
TORSDOF 2
ENDMDL
MODEL       65
REMARK 921   NORMALIZED FREE ENERGY PREDICTED BY IDOCK:   -3.87 KCAL/MOL
REMARK 922        TOTAL FREE ENERGY PREDICTED BY IDOCK:   -4.79 KCAL/MOL
REMARK 923 INTER-LIGAND FREE ENERGY PREDICTED BY IDOCK:   -4.42 KCAL/MOL
REMARK 924 INTRA-LIGAND FREE ENERGY PREDICTED BY IDOCK:   -0.37 KCAL/MOL
REMARK 927      BINDING AFFINITY PREDICTED BY RF-SCORE:    0.00 PKD
ROOT
HETATM    1  C   UNL     1      -9.881  11.766  65.208  1.00  0.00    -0.267 C  
HETATM    2  C   UNL     1      -9.661  11.150  66.594  1.00  0.00    -0.190 C  
HETATM    3  O   UNL     1      -9.164  12.101  67.507  1.00  0.00    -0.173 OA 
HETATM    4  C   UNL     1     -11.101  10.764  67.041  1.00  0.00    -0.245 C  
HETATM    5  C   UNL     1      -8.436  11.335  68.459  1.00  0.00    -0.156 C  
HETATM    6  C   UNL     1      -9.401  10.319  69.381  1.00  0.00    -0.217 C  
HETATM    7  C   UNL     1      -8.842   8.855  69.083  1.00  0.00    -0.136 C  
HETATM    8  C   UNL     1      -9.282   7.345  68.520  1.00  0.00    -0.142 C  
HETATM    9  C   UNL     1      -9.698   7.395  66.986  1.00  0.00    -0.248 C  
HETATM   10  C   UNL     1      -9.609   6.153  66.127  1.00  0.00    -0.031 C  
HETATM   11  F   UNL     1     -10.746   5.434  66.309  1.00  0.00    -0.288 F  
HETATM   12  C   UNL     1      -8.341   5.357  66.410  1.00  0.00    -0.110 C  
HETATM   13  C   UNL     1      -7.736   4.665  65.448  1.00  0.00    -0.089 C  
HETATM   14  C   UNL     1      -8.699   3.531  65.284  1.00  0.00    -0.119 C  
HETATM   15  O   UNL     1      -8.840   3.040  64.177  1.00  0.00    -0.096 OA 
HETATM   16  C   UNL     1      -9.389   2.991  66.561  1.00  0.00    -0.093 C  
HETATM   17  C   UNL     1      -9.337   3.886  67.909  1.00  0.00    -0.227 C  
HETATM   18  C   UNL     1      -8.167   4.923  67.875  1.00  0.00    -0.100 C  
HETATM   19  C   UNL     1      -6.923   4.064  68.219  1.00  0.00    -0.048 C  
HETATM   20  C   UNL     1      -8.088   6.345  68.582  1.00  0.00    -0.113 C  
HETATM   21  C   UNL     1      -7.201   6.750  69.764  1.00  0.00    -0.077 C  
HETATM   22  C   UNL     1      -6.396   7.972  69.188  1.00  0.00    -0.039 C  
HETATM   23  O   UNL     1      -6.352   5.755  70.288  1.00  0.00    -0.029 OA 
HETATM   24  C   UNL     1      -7.338   9.215  69.030  1.00  0.00    -0.073 C  
HETATM   25  H   UNL     1      -5.802   6.006  71.021  1.00  0.00     0.000 HD 
HETATM   26  C   UNL     1      -6.923   9.977  70.403  1.00  0.00    -0.137 C  
HETATM   27  C   UNL     1      -7.539  10.328  67.739  1.00  0.00    -0.089 C  
HETATM   28  O   UNL     1      -8.668  10.086  66.580  1.00  0.00    -0.128 OA 
ENDROOT
BRANCH  27  29
HETATM   29  C   UNL     1      -6.529  10.085  66.614  1.00  0.00    -0.072 C  
HETATM   30  O   UNL     1      -6.627   9.071  65.904  1.00  0.00    -0.063 OA 
BRANCH  29  31
HETATM   31  C   UNL     1      -5.588  11.170  66.111  1.00  0.00    -0.141 C  
HETATM   32  O   UNL     1      -5.383  11.217  64.722  1.00  0.00    -0.490 OA 
HETATM   33  H   UNL     1      -4.796  11.895  64.408  1.00  0.00     0.000 HD 
ENDBRANCH  29  31
ENDBRANCH  27  29
TORSDOF 2
ENDMDL
MODEL       66
REMARK 921   NORMALIZED FREE ENERGY PREDICTED BY IDOCK:   -3.87 KCAL/MOL
REMARK 922        TOTAL FREE ENERGY PREDICTED BY IDOCK:   -4.79 KCAL/MOL
REMARK 923 INTER-LIGAND FREE ENERGY PREDICTED BY IDOCK:   -4.09 KCAL/MOL
REMARK 924 INTRA-LIGAND FREE ENERGY PREDICTED BY IDOCK:   -0.71 KCAL/MOL
REMARK 927      BINDING AFFINITY PREDICTED BY RF-SCORE:    0.00 PKD
ROOT
HETATM    1  C   UNL     1     -10.769   4.787  65.484  1.00  0.00    -0.140 C  
HETATM    2  C   UNL     1      -9.773   5.607  66.310  1.00  0.00    -0.135 C  
HETATM    3  O   UNL     1      -8.711   6.082  65.515  1.00  0.00    -0.154 OA 
HETATM    4  C   UNL     1     -10.617   6.835  66.764  1.00  0.00    -0.311 C  
HETATM    5  C   UNL     1      -7.624   6.228  66.421  1.00  0.00    -0.094 C  
HETATM    6  C   UNL     1      -7.866   7.426  67.571  1.00  0.00    -0.112 C  
HETATM    7  C   UNL     1      -7.784   6.663  68.968  1.00  0.00    -0.109 C  
HETATM    8  C   UNL     1      -8.634   6.347  70.372  1.00  0.00    -0.142 C  
HETATM    9  C   UNL     1      -9.932   5.475  70.081  1.00  0.00    -0.287 C  
HETATM   10  C   UNL     1     -10.544   4.625  71.171  1.00  0.00     0.120 C  
HETATM   11  F   UNL     1     -11.363   5.416  71.911  1.00  0.00    -0.283 F  
HETATM   12  C   UNL     1      -9.481   3.915  72.001  1.00  0.00    -0.198 C  
HETATM   13  C   UNL     1      -9.713   2.717  72.533  1.00  0.00    -0.199 C  
HETATM   14  C   UNL     1     -10.665   3.086  73.627  1.00  0.00    -0.204 C  
HETATM   15  O   UNL     1     -11.535   2.289  73.938  1.00  0.00    -0.184 OA 
HETATM   16  C   UNL     1     -10.421   4.427  74.362  1.00  0.00    -0.309 C  
HETATM   17  C   UNL     1      -9.423   5.509  73.691  1.00  0.00    -0.138 C  
HETATM   18  C   UNL     1      -8.451   4.846  72.661  1.00  0.00    -0.119 C  
HETATM   19  C   UNL     1      -7.374   4.190  73.563  1.00  0.00    -0.075 C  
HETATM   20  C   UNL     1      -7.791   5.495  71.368  1.00  0.00    -0.110 C  
HETATM   21  C   UNL     1      -6.316   5.850  71.153  1.00  0.00    -0.040 C  
HETATM   22  C   UNL     1      -5.951   5.041  69.856  1.00  0.00    -0.021 C  
HETATM   23  O   UNL     1      -5.436   5.570  72.218  1.00  0.00    -0.016 OA 
HETATM   24  C   UNL     1      -6.641   5.686  68.604  1.00  0.00    -0.048 C  
HETATM   25  H   UNL     1      -4.522   5.791  72.085  1.00  0.00     0.000 HD 
HETATM   26  C   UNL     1      -5.364   6.535  68.067  1.00  0.00    -0.008 C  
HETATM   27  C   UNL     1      -7.510   4.984  67.301  1.00  0.00    -0.083 C  
HETATM   28  O   UNL     1      -9.137   4.823  67.358  1.00  0.00    -0.111 OA 
ENDROOT
BRANCH  27  29
HETATM   29  C   UNL     1      -7.494   3.454  67.363  1.00  0.00    -0.066 C  
HETATM   30  O   UNL     1      -6.514   2.828  66.929  1.00  0.00    -0.034 OA 
BRANCH  29  31
HETATM   31  C   UNL     1      -8.480   2.660  68.208  1.00  0.00    -0.073 C  
HETATM   32  O   UNL     1      -9.553   2.071  67.517  1.00  0.00    -0.400 OA 
HETATM   33  H   UNL     1     -10.169   1.575  68.044  1.00  0.00     0.000 HD 
ENDBRANCH  29  31
ENDBRANCH  27  29
TORSDOF 2
ENDMDL
MODEL       67
REMARK 921   NORMALIZED FREE ENERGY PREDICTED BY IDOCK:   -3.84 KCAL/MOL
REMARK 922        TOTAL FREE ENERGY PREDICTED BY IDOCK:   -4.75 KCAL/MOL
REMARK 923 INTER-LIGAND FREE ENERGY PREDICTED BY IDOCK:   -4.04 KCAL/MOL
REMARK 924 INTRA-LIGAND FREE ENERGY PREDICTED BY IDOCK:   -0.71 KCAL/MOL
REMARK 927      BINDING AFFINITY PREDICTED BY RF-SCORE:    0.00 PKD
ROOT
HETATM    1  C   UNL     1     -12.959  10.178  69.841  1.00  0.00     0.409 C  
HETATM    2  C   UNL     1     -11.585  10.312  69.176  1.00  0.00    -0.099 C  
HETATM    3  O   UNL     1     -11.702  10.659  67.816  1.00  0.00    -0.503 OA 
HETATM    4  C   UNL     1     -10.947  11.519  69.926  1.00  0.00     0.044 C  
HETATM    5  C   UNL     1     -10.524  10.140  67.212  1.00  0.00    -0.256 C  
HETATM    6  C   UNL     1      -9.117  10.895  67.727  1.00  0.00    -0.149 C  
HETATM    7  C   UNL     1      -8.246   9.725  68.373  1.00  0.00    -0.105 C  
HETATM    8  C   UNL     1      -7.481   9.248  69.780  1.00  0.00    -0.075 C  
HETATM    9  C   UNL     1      -8.525   8.987  70.950  1.00  0.00    -0.253 C  
HETATM   10  C   UNL     1      -8.177   8.064  72.096  1.00  0.00    -0.137 C  
HETATM   11  F   UNL     1      -7.478   8.780  73.014  1.00  0.00    -0.111 F  
HETATM   12  C   UNL     1      -7.441   6.818  71.618  1.00  0.00    -0.087 C  
HETATM   13  C   UNL     1      -7.589   5.652  72.242  1.00  0.00    -0.101 C  
HETATM   14  C   UNL     1      -6.819   5.918  73.497  1.00  0.00    -0.080 C  
HETATM   15  O   UNL     1      -7.187   5.386  74.532  1.00  0.00    -0.081 OA 
HETATM   16  C   UNL     1      -5.541   6.784  73.381  1.00  0.00    -0.046 C  
HETATM   17  C   UNL     1      -5.311   7.649  72.032  1.00  0.00    -0.036 C  
HETATM   18  C   UNL     1      -6.148   7.095  70.834  1.00  0.00    -0.036 C  
HETATM   19  C   UNL     1      -5.324   5.868  70.365  1.00  0.00    -0.012 C  
HETATM   20  C   UNL     1      -6.738   7.891  69.591  1.00  0.00    -0.042 C  
HETATM   21  C   UNL     1      -6.285   7.807  68.129  1.00  0.00    -0.045 C  
HETATM   22  C   UNL     1      -7.607   7.406  67.380  1.00  0.00    -0.112 C  
HETATM   23  O   UNL     1      -5.225   6.922  67.846  1.00  0.00    -0.013 OA 
HETATM   24  C   UNL     1      -8.604   8.616  67.356  1.00  0.00    -0.134 C  
HETATM   25  H   UNL     1      -4.944   6.870  66.940  1.00  0.00     0.000 HD 
HETATM   26  C   UNL     1      -8.272   9.141  65.855  1.00  0.00    -0.113 C  
HETATM   27  C   UNL     1     -10.286   8.706  67.685  1.00  0.00    -0.239 C  
HETATM   28  O   UNL     1     -10.837   9.063  69.184  1.00  0.00    -0.193 OA 
ENDROOT
BRANCH  27  29
HETATM   29  C   UNL     1     -10.892   7.322  67.942  1.00  0.00    -0.114 C  
HETATM   30  O   UNL     1     -11.205   6.598  66.984  1.00  0.00    -0.404 OA 
BRANCH  29  31
HETATM   31  C   UNL     1     -10.851   6.653  69.308  1.00  0.00    -0.289 C  
HETATM   32  O   UNL     1     -12.045   6.685  70.049  1.00  0.00    -0.633 OA 
HETATM   33  H   UNL     1     -12.019   6.266  70.901  1.00  0.00     0.000 HD 
ENDBRANCH  29  31
ENDBRANCH  27  29
TORSDOF 2
ENDMDL
MODEL       68
REMARK 921   NORMALIZED FREE ENERGY PREDICTED BY IDOCK:   -3.72 KCAL/MOL
REMARK 922        TOTAL FREE ENERGY PREDICTED BY IDOCK:   -4.62 KCAL/MOL
REMARK 923 INTER-LIGAND FREE ENERGY PREDICTED BY IDOCK:   -4.05 KCAL/MOL
REMARK 924 INTRA-LIGAND FREE ENERGY PREDICTED BY IDOCK:   -0.57 KCAL/MOL
REMARK 927      BINDING AFFINITY PREDICTED BY RF-SCORE:    0.00 PKD
ROOT
HETATM    1  C   UNL     1      -7.481   8.391  72.063  1.00  0.00    -0.135 C  
HETATM    2  C   UNL     1      -7.097   8.782  70.631  1.00  0.00    -0.063 C  
HETATM    3  O   UNL     1      -7.114  10.179  70.456  1.00  0.00    -0.266 OA 
HETATM    4  C   UNL     1      -5.620   8.303  70.519  1.00  0.00    -0.028 C  
HETATM    5  C   UNL     1      -7.381  10.363  69.072  1.00  0.00    -0.097 C  
HETATM    6  C   UNL     1      -6.147   9.821  68.073  1.00  0.00    -0.054 C  
HETATM    7  C   UNL     1      -6.830   8.707  67.159  1.00  0.00    -0.067 C  
HETATM    8  C   UNL     1      -6.730   7.100  66.710  1.00  0.00    -0.060 C  
HETATM    9  C   UNL     1      -7.021   6.134  67.939  1.00  0.00    -0.076 C  
HETATM   10  C   UNL     1      -7.518   4.725  67.706  1.00  0.00    -0.078 C  
HETATM   11  F   UNL     1      -6.440   3.934  67.468  1.00  0.00    -0.034 F  
HETATM   12  C   UNL     1      -8.563   4.668  66.598  1.00  0.00    -0.108 C  
HETATM   13  C   UNL     1      -9.550   3.776  66.631  1.00  0.00    -0.197 C  
HETATM   14  C   UNL     1      -8.794   2.525  66.312  1.00  0.00    -0.130 C  
HETATM   15  O   UNL     1      -9.165   1.474  66.809  1.00  0.00    -0.088 OA 
HETATM   16  C   UNL     1      -7.636   2.632  65.289  1.00  0.00    -0.076 C  
HETATM   17  C   UNL     1      -7.066   4.100  64.914  1.00  0.00    -0.062 C  
HETATM   18  C   UNL     1      -8.097   5.228  65.244  1.00  0.00    -0.123 C  
HETATM   19  C   UNL     1      -9.096   5.150  64.061  1.00  0.00     0.160 C  
HETATM   20  C   UNL     1      -7.812   6.739  65.648  1.00  0.00    -0.105 C  
HETATM   21  C   UNL     1      -8.082   7.994  64.811  1.00  0.00    -0.143 C  
HETATM   22  C   UNL     1      -9.015   8.841  65.751  1.00  0.00    -0.253 C  
HETATM   23  O   UNL     1      -8.652   7.795  63.538  1.00  0.00    -0.368 OA 
HETATM   24  C   UNL     1      -8.193   9.410  66.960  1.00  0.00    -0.116 C  
HETATM   25  H   UNL     1      -8.820   8.573  63.019  1.00  0.00     0.000 HD 
HETATM   26  C   UNL     1      -7.944  10.902  66.369  1.00  0.00    -0.157 C  
HETATM   27  C   UNL     1      -8.536   9.459  68.641  1.00  0.00    -0.119 C  
HETATM   28  O   UNL     1      -8.032   8.267  69.643  1.00  0.00    -0.106 OA 
ENDROOT
BRANCH  27  29
HETATM   29  C   UNL     1      -9.942   8.938  68.952  1.00  0.00    -0.190 C  
HETATM   30  O   UNL     1     -10.914   9.708  68.889  1.00  0.00    -0.202 OA 
BRANCH  29  31
HETATM   31  C   UNL     1     -10.264   7.453  69.038  1.00  0.00    -0.199 C  
HETATM   32  O   UNL     1     -11.187   6.964  68.098  1.00  0.00    -0.513 OA 
HETATM   33  H   UNL     1     -11.388   6.037  68.151  1.00  0.00     0.000 HD 
ENDBRANCH  29  31
ENDBRANCH  27  29
TORSDOF 2
ENDMDL
MODEL       69
REMARK 921   NORMALIZED FREE ENERGY PREDICTED BY IDOCK:   -3.70 KCAL/MOL
REMARK 922        TOTAL FREE ENERGY PREDICTED BY IDOCK:   -4.60 KCAL/MOL
REMARK 923 INTER-LIGAND FREE ENERGY PREDICTED BY IDOCK:   -4.16 KCAL/MOL
REMARK 924 INTRA-LIGAND FREE ENERGY PREDICTED BY IDOCK:   -0.44 KCAL/MOL
REMARK 927      BINDING AFFINITY PREDICTED BY RF-SCORE:    0.00 PKD
ROOT
HETATM    1  C   UNL     1     -10.278  10.323  64.704  1.00  0.00    -0.204 C  
HETATM    2  C   UNL     1      -8.999  10.042  65.501  1.00  0.00    -0.174 C  
HETATM    3  O   UNL     1      -8.855   8.668  65.776  1.00  0.00    -0.172 OA 
HETATM    4  C   UNL     1      -7.870  10.454  64.512  1.00  0.00    -0.066 C  
HETATM    5  C   UNL     1      -8.083   8.621  66.969  1.00  0.00    -0.100 C  
HETATM    6  C   UNL     1      -6.516   9.186  66.777  1.00  0.00    -0.067 C  
HETATM    7  C   UNL     1      -6.402  10.410  67.792  1.00  0.00    -0.060 C  
HETATM    8  C   UNL     1      -6.060  12.043  67.886  1.00  0.00    -0.062 C  
HETATM    9  C   UNL     1      -7.146  12.910  67.113  1.00  0.00     0.028 C  
HETATM   10  C   UNL     1      -7.378  14.357  67.485  1.00  0.00    -0.186 C  
HETATM   11  F   UNL     1      -6.456  15.111  66.831  1.00  0.00     0.006 F  
HETATM   12  C   UNL     1      -7.364  14.564  68.995  1.00  0.00    -0.132 C  
HETATM   13  C   UNL     1      -8.121  15.499  69.565  1.00  0.00    -0.202 C  
HETATM   14  C   UNL     1      -7.386  16.734  69.147  1.00  0.00    -0.213 C  
HETATM   15  O   UNL     1      -8.024  17.753  68.945  1.00  0.00    -0.261 OA 
HETATM   16  C   UNL     1      -5.840  16.659  69.088  1.00  0.00    -0.152 C  
HETATM   17  C   UNL     1      -5.133  15.203  69.107  1.00  0.00    -0.094 C  
HETATM   18  C   UNL     1      -6.076  14.104  69.696  1.00  0.00    -0.121 C  
HETATM   19  C   UNL     1      -5.977  14.337  71.226  1.00  0.00    -0.129 C  
HETATM   20  C   UNL     1      -6.112  12.551  69.359  1.00  0.00    -0.108 C  
HETATM   21  C   UNL     1      -5.695  11.390  70.268  1.00  0.00    -0.143 C  
HETATM   22  C   UNL     1      -6.997  10.511  70.324  1.00  0.00    -0.046 C  
HETATM   23  O   UNL     1      -5.228  11.729  71.553  1.00  0.00    -0.297 OA 
HETATM   24  C   UNL     1      -7.229   9.797  68.947  1.00  0.00    -0.072 C  
HETATM   25  H   UNL     1      -4.970  11.010  72.117  1.00  0.00     0.000 HD 
HETATM   26  C   UNL     1      -6.601   8.352  69.345  1.00  0.00    -0.041 C  
HETATM   27  C   UNL     1      -8.639   9.617  67.987  1.00  0.00    -0.119 C  
HETATM   28  O   UNL     1      -9.001  10.688  66.804  1.00  0.00    -0.137 OA 
ENDROOT
BRANCH  27  29
HETATM   29  C   UNL     1      -9.881  10.178  68.686  1.00  0.00    -0.162 C  
HETATM   30  O   UNL     1     -10.153  11.386  68.589  1.00  0.00    -0.203 OA 
BRANCH  29  31
HETATM   31  C   UNL     1     -10.979   9.284  69.244  1.00  0.00    -0.085 C  
HETATM   32  O   UNL     1     -11.850   9.879  70.172  1.00  0.00    -0.383 OA 
HETATM   33  H   UNL     1     -12.536   9.321  70.520  1.00  0.00     0.000 HD 
ENDBRANCH  29  31
ENDBRANCH  27  29
TORSDOF 2
ENDMDL
MODEL       70
REMARK 921   NORMALIZED FREE ENERGY PREDICTED BY IDOCK:   -3.69 KCAL/MOL
REMARK 922        TOTAL FREE ENERGY PREDICTED BY IDOCK:   -4.58 KCAL/MOL
REMARK 923 INTER-LIGAND FREE ENERGY PREDICTED BY IDOCK:   -3.95 KCAL/MOL
REMARK 924 INTRA-LIGAND FREE ENERGY PREDICTED BY IDOCK:   -0.63 KCAL/MOL
REMARK 927      BINDING AFFINITY PREDICTED BY RF-SCORE:    0.00 PKD
ROOT
HETATM    1  C   UNL     1      -9.540   2.196  69.064  1.00  0.00    -0.066 C  
HETATM    2  C   UNL     1      -8.502   3.125  69.703  1.00  0.00    -0.061 C  
HETATM    3  O   UNL     1      -8.182   2.716  71.012  1.00  0.00    -0.052 OA 
HETATM    4  C   UNL     1      -7.242   2.910  68.813  1.00  0.00    -0.048 C  
HETATM    5  C   UNL     1      -7.775   3.910  71.669  1.00  0.00    -0.061 C  
HETATM    6  C   UNL     1      -6.351   4.558  71.062  1.00  0.00    -0.019 C  
HETATM    7  C   UNL     1      -6.756   6.015  70.557  1.00  0.00    -0.053 C  
HETATM    8  C   UNL     1      -6.768   7.009  69.214  1.00  0.00    -0.049 C  
HETATM    9  C   UNL     1      -7.742   6.452  68.087  1.00  0.00    -0.104 C  
HETATM   10  C   UNL     1      -8.337   7.387  67.057  1.00  0.00    -0.121 C  
HETATM   11  F   UNL     1      -7.430   7.541  66.057  1.00  0.00    -0.075 F  
HETATM   12  C   UNL     1      -8.780   8.706  67.677  1.00  0.00    -0.136 C  
HETATM   13  C   UNL     1      -9.827   9.373  67.196  1.00  0.00    -0.242 C  
HETATM   14  C   UNL     1      -9.252   9.891  65.915  1.00  0.00    -0.176 C  
HETATM   15  O   UNL     1      -9.991  10.018  64.953  1.00  0.00    -0.325 OA 
HETATM   16  C   UNL     1      -7.765  10.323  65.923  1.00  0.00    -0.137 C  
HETATM   17  C   UNL     1      -6.829   9.857  67.158  1.00  0.00    -0.083 C  
HETATM   18  C   UNL     1      -7.672   9.474  68.418  1.00  0.00    -0.085 C  
HETATM   19  C   UNL     1      -8.045  10.850  69.025  1.00  0.00    -0.126 C  
HETATM   20  C   UNL     1      -7.320   8.426  69.560  1.00  0.00    -0.073 C  
HETATM   21  C   UNL     1      -6.958   8.723  71.019  1.00  0.00    -0.077 C  
HETATM   22  C   UNL     1      -8.034   7.900  71.816  1.00  0.00    -0.118 C  
HETATM   23  O   UNL     1      -6.937  10.079  71.401  1.00  0.00    -0.189 OA 
HETATM   24  C   UNL     1      -7.737   6.365  71.700  1.00  0.00    -0.100 C  
HETATM   25  H   UNL     1      -6.713  10.264  72.306  1.00  0.00     0.000 HD 
HETATM   26  C   UNL     1      -6.983   6.182  73.127  1.00  0.00    -0.080 C  
HETATM   27  C   UNL     1      -8.768   5.033  71.369  1.00  0.00    -0.131 C  
HETATM   28  O   UNL     1      -8.985   4.490  69.841  1.00  0.00    -0.086 OA 
ENDROOT
BRANCH  27  29
HETATM   29  C   UNL     1     -10.237   5.456  71.281  1.00  0.00    -0.223 C  
HETATM   30  O   UNL     1     -10.908   5.580  72.318  1.00  0.00    -0.226 OA 
BRANCH  29  31
HETATM   31  C   UNL     1     -10.847   6.034  70.011  1.00  0.00    -0.359 C  
HETATM   32  O   UNL     1     -11.096   7.417  70.018  1.00  0.00    -0.274 OA 
HETATM   33  H   UNL     1     -11.476   7.778  69.225  1.00  0.00     0.000 HD 
ENDBRANCH  29  31
ENDBRANCH  27  29
TORSDOF 2
ENDMDL
MODEL       71
REMARK 921   NORMALIZED FREE ENERGY PREDICTED BY IDOCK:   -3.67 KCAL/MOL
REMARK 922        TOTAL FREE ENERGY PREDICTED BY IDOCK:   -4.56 KCAL/MOL
REMARK 923 INTER-LIGAND FREE ENERGY PREDICTED BY IDOCK:   -4.03 KCAL/MOL
REMARK 924 INTRA-LIGAND FREE ENERGY PREDICTED BY IDOCK:   -0.53 KCAL/MOL
REMARK 927      BINDING AFFINITY PREDICTED BY RF-SCORE:    0.00 PKD
ROOT
HETATM    1  C   UNL     1      -7.251   8.064  73.179  1.00  0.00    -0.144 C  
HETATM    2  C   UNL     1      -6.885   8.498  71.755  1.00  0.00    -0.086 C  
HETATM    3  O   UNL     1      -6.828   9.901  71.643  1.00  0.00    -0.157 OA 
HETATM    4  C   UNL     1      -5.440   7.945  71.578  1.00  0.00    -0.034 C  
HETATM    5  C   UNL     1      -7.123  10.163  70.277  1.00  0.00    -0.138 C  
HETATM    6  C   UNL     1      -5.949   9.601  69.218  1.00  0.00    -0.034 C  
HETATM    7  C   UNL     1      -6.718   8.569  68.277  1.00  0.00    -0.065 C  
HETATM    8  C   UNL     1      -6.721   6.982  67.754  1.00  0.00    -0.071 C  
HETATM    9  C   UNL     1      -7.032   5.978  68.947  1.00  0.00    -0.068 C  
HETATM   10  C   UNL     1      -7.613   4.610  68.666  1.00  0.00    -0.068 C  
HETATM   11  F   UNL     1      -6.588   3.773  68.361  1.00  0.00    -0.040 F  
HETATM   12  C   UNL     1      -8.690   4.662  67.589  1.00  0.00    -0.108 C  
HETATM   13  C   UNL     1      -9.724   3.824  67.612  1.00  0.00    -0.136 C  
HETATM   14  C   UNL     1      -9.048   2.549  67.214  1.00  0.00    -0.157 C  
HETATM   15  O   UNL     1      -9.464   1.499  67.675  1.00  0.00    -0.126 OA 
HETATM   16  C   UNL     1      -7.914   2.640  66.163  1.00  0.00    -0.082 C  
HETATM   17  C   UNL     1      -7.273   4.091  65.837  1.00  0.00    -0.068 C  
HETATM   18  C   UNL     1      -8.231   5.257  66.247  1.00  0.00    -0.109 C  
HETATM   19  C   UNL     1      -9.264   5.288  65.092  1.00  0.00    -0.013 C  
HETATM   20  C   UNL     1      -7.850   6.729  66.710  1.00  0.00    -0.107 C  
HETATM   21  C   UNL     1      -8.073   8.035  65.938  1.00  0.00    -0.117 C  
HETATM   22  C   UNL     1      -8.930   8.888  66.943  1.00  0.00    -0.150 C  
HETATM   23  O   UNL     1      -8.687   7.926  64.675  1.00  0.00    -0.379 OA 
HETATM   24  C   UNL     1      -8.045   9.354  68.150  1.00  0.00    -0.110 C  
HETATM   25  H   UNL     1      -8.825   8.735  64.197  1.00  0.00     0.000 HD 
HETATM   26  C   UNL     1      -7.728  10.856  67.618  1.00  0.00    -0.108 C  
HETATM   27  C   UNL     1      -8.338   9.344  69.841  1.00  0.00    -0.167 C  
HETATM   28  O   UNL     1      -7.875   8.082  70.773  1.00  0.00    -0.086 OA 
ENDROOT
BRANCH  27  29
HETATM   29  C   UNL     1      -9.762   8.887  70.171  1.00  0.00    -0.179 C  
HETATM   30  O   UNL     1      -9.972   7.711  70.507  1.00  0.00    -0.184 OA 
BRANCH  29  31
HETATM   31  C   UNL     1     -10.901   9.869  70.409  1.00  0.00    -0.319 C  
HETATM   32  O   UNL     1     -10.809  11.098  69.734  1.00  0.00    -0.422 OA 
HETATM   33  H   UNL     1     -11.520  11.711  69.882  1.00  0.00     0.000 HD 
ENDBRANCH  29  31
ENDBRANCH  27  29
TORSDOF 2
ENDMDL
MODEL       72
REMARK 921   NORMALIZED FREE ENERGY PREDICTED BY IDOCK:   -3.66 KCAL/MOL
REMARK 922        TOTAL FREE ENERGY PREDICTED BY IDOCK:   -4.56 KCAL/MOL
REMARK 923 INTER-LIGAND FREE ENERGY PREDICTED BY IDOCK:   -4.34 KCAL/MOL
REMARK 924 INTRA-LIGAND FREE ENERGY PREDICTED BY IDOCK:   -0.22 KCAL/MOL
REMARK 927      BINDING AFFINITY PREDICTED BY RF-SCORE:    0.00 PKD
ROOT
HETATM    1  C   UNL     1     -10.102   5.562  71.546  1.00  0.00    -0.260 C  
HETATM    2  C   UNL     1     -10.249   5.816  70.041  1.00  0.00    -0.238 C  
HETATM    3  O   UNL     1     -10.388   4.611  69.326  1.00  0.00    -0.102 OA 
HETATM    4  C   UNL     1     -11.597   6.589  69.945  1.00  0.00    -0.433 C  
HETATM    5  C   UNL     1      -9.884   4.904  68.029  1.00  0.00    -0.139 C  
HETATM    6  C   UNL     1     -10.814   6.014  67.183  1.00  0.00    -0.414 C  
HETATM    7  C   UNL     1      -9.822   7.226  66.885  1.00  0.00    -0.279 C  
HETATM    8  C   UNL     1      -9.613   8.869  67.107  1.00  0.00    -0.225 C  
HETATM    9  C   UNL     1      -9.439   9.230  68.646  1.00  0.00    -0.148 C  
HETATM   10  C   UNL     1      -8.719  10.495  69.060  1.00  0.00    -0.156 C  
HETATM   11  F   UNL     1      -9.613  11.517  69.024  1.00  0.00    -0.177 F  
HETATM   12  C   UNL     1      -7.480  10.747  68.209  1.00  0.00    -0.092 C  
HETATM   13  C   UNL     1      -6.407  11.346  68.720  1.00  0.00    -0.053 C  
HETATM   14  C   UNL     1      -6.910  12.750  68.834  1.00  0.00    -0.096 C  
HETATM   15  O   UNL     1      -6.503  13.443  69.752  1.00  0.00    -0.109 OA 
HETATM   16  C   UNL     1      -7.850  13.265  67.717  1.00  0.00    -0.157 C  
HETATM   17  C   UNL     1      -8.530  12.188  66.718  1.00  0.00    -0.138 C  
HETATM   18  C   UNL     1      -7.745  10.836  66.697  1.00  0.00    -0.141 C  
HETATM   19  C   UNL     1      -6.534  11.145  65.780  1.00  0.00     0.146 C  
HETATM   20  C   UNL     1      -8.306   9.374  66.424  1.00  0.00    -0.116 C  
HETATM   21  C   UNL     1      -8.051   8.492  65.197  1.00  0.00    -0.142 C  
HETATM   22  C   UNL     1      -7.443   7.187  65.829  1.00  0.00    -0.081 C  
HETATM   23  O   UNL     1      -7.222   9.030  64.192  1.00  0.00    -0.093 OA 
HETATM   24  C   UNL     1      -8.554   6.389  66.596  1.00  0.00    -0.121 C  
HETATM   25  H   UNL     1      -7.064   8.483  63.431  1.00  0.00     0.000 HD 
HETATM   26  C   UNL     1      -8.884   5.305  65.431  1.00  0.00    -0.152 C  
HETATM   27  C   UNL     1      -8.555   5.652  68.146  1.00  0.00    -0.104 C  
HETATM   28  O   UNL     1      -9.078   6.462  69.468  1.00  0.00    -0.138 OA 
ENDROOT
BRANCH  27  29
HETATM   29  C   UNL     1      -7.179   5.726  68.814  1.00  0.00    -0.082 C  
HETATM   30  O   UNL     1      -6.458   4.716  68.857  1.00  0.00    -0.034 OA 
BRANCH  29  31
HETATM   31  C   UNL     1      -6.508   7.047  69.160  1.00  0.00    -0.040 C  
HETATM   32  O   UNL     1      -5.519   7.492  68.267  1.00  0.00    -0.024 OA 
HETATM   33  H   UNL     1      -5.101   8.317  68.483  1.00  0.00     0.000 HD 
ENDBRANCH  29  31
ENDBRANCH  27  29
TORSDOF 2
ENDMDL
MODEL       73
REMARK 921   NORMALIZED FREE ENERGY PREDICTED BY IDOCK:   -3.64 KCAL/MOL
REMARK 922        TOTAL FREE ENERGY PREDICTED BY IDOCK:   -4.53 KCAL/MOL
REMARK 923 INTER-LIGAND FREE ENERGY PREDICTED BY IDOCK:   -3.94 KCAL/MOL
REMARK 924 INTRA-LIGAND FREE ENERGY PREDICTED BY IDOCK:   -0.60 KCAL/MOL
REMARK 927      BINDING AFFINITY PREDICTED BY RF-SCORE:    0.00 PKD
ROOT
HETATM    1  C   UNL     1      -8.113   9.881  69.954  1.00  0.00    -0.200 C  
HETATM    2  C   UNL     1      -8.981   8.617  69.954  1.00  0.00    -0.149 C  
HETATM    3  O   UNL     1      -9.495   8.345  71.236  1.00  0.00    -0.160 OA 
HETATM    4  C   UNL     1     -10.174   9.010  69.033  1.00  0.00    -0.216 C  
HETATM    5  C   UNL     1      -9.694   6.937  71.250  1.00  0.00    -0.172 C  
HETATM    6  C   UNL     1     -10.887   6.418  70.191  1.00  0.00    -0.355 C  
HETATM    7  C   UNL     1     -10.138   5.420  69.199  1.00  0.00    -0.293 C  
HETATM    8  C   UNL     1      -9.795   5.143  67.587  1.00  0.00    -0.197 C  
HETATM    9  C   UNL     1      -8.867   6.286  66.986  1.00  0.00    -0.108 C  
HETATM   10  C   UNL     1      -7.998   6.011  65.779  1.00  0.00    -0.113 C  
HETATM   11  F   UNL     1      -8.759   6.182  64.666  1.00  0.00    -0.085 F  
HETATM   12  C   UNL     1      -7.340   4.639  65.853  1.00  0.00    -0.077 C  
HETATM   13  C   UNL     1      -6.136   4.425  65.326  1.00  0.00    -0.023 C  
HETATM   14  C   UNL     1      -6.472   4.451  63.868  1.00  0.00    -0.034 C  
HETATM   15  O   UNL     1      -5.641   4.881  63.085  1.00  0.00    -0.013 OA 
HETATM   16  C   UNL     1      -7.827   3.839  63.436  1.00  0.00    -0.078 C  
HETATM   17  C   UNL     1      -8.947   3.556  64.570  1.00  0.00    -0.121 C  
HETATM   18  C   UNL     1      -8.319   3.462  65.999  1.00  0.00    -0.103 C  
HETATM   19  C   UNL     1      -7.716   2.034  66.027  1.00  0.00    -0.071 C  
HETATM   20  C   UNL     1      -8.986   3.824  67.396  1.00  0.00    -0.159 C  
HETATM   21  C   UNL     1      -9.404   2.856  68.508  1.00  0.00    -0.187 C  
HETATM   22  C   UNL     1      -8.603   3.392  69.750  1.00  0.00    -0.110 C  
HETATM   23  O   UNL     1      -9.169   1.487  68.276  1.00  0.00    -0.129 OA 
HETATM   24  C   UNL     1      -9.209   4.752  70.240  1.00  0.00    -0.191 C  
HETATM   25  H   UNL     1      -9.427   0.886  68.965  1.00  0.00     0.000 HD 
HETATM   26  C   UNL     1     -10.108   4.162  71.458  1.00  0.00    -0.184 C  
HETATM   27  C   UNL     1      -8.461   6.232  70.683  1.00  0.00    -0.134 C  
HETATM   28  O   UNL     1      -8.231   7.426  69.587  1.00  0.00    -0.126 OA 
ENDROOT
BRANCH  27  29
HETATM   29  C   UNL     1      -6.934   6.123  70.681  1.00  0.00    -0.064 C  
HETATM   30  O   UNL     1      -6.347   5.644  71.664  1.00  0.00    -0.040 OA 
BRANCH  29  31
HETATM   31  C   UNL     1      -6.104   6.286  69.415  1.00  0.00    -0.029 C  
HETATM   32  O   UNL     1      -5.762   5.101  68.743  1.00  0.00    -0.014 OA 
HETATM   33  H   UNL     1      -5.245   5.202  67.952  1.00  0.00     0.000 HD 
ENDBRANCH  29  31
ENDBRANCH  27  29
TORSDOF 2
ENDMDL
MODEL       74
REMARK 921   NORMALIZED FREE ENERGY PREDICTED BY IDOCK:   -3.57 KCAL/MOL
REMARK 922        TOTAL FREE ENERGY PREDICTED BY IDOCK:   -4.45 KCAL/MOL
REMARK 923 INTER-LIGAND FREE ENERGY PREDICTED BY IDOCK:   -4.01 KCAL/MOL
REMARK 924 INTRA-LIGAND FREE ENERGY PREDICTED BY IDOCK:   -0.44 KCAL/MOL
REMARK 927      BINDING AFFINITY PREDICTED BY RF-SCORE:    0.00 PKD
ROOT
HETATM    1  C   UNL     1      -7.650  10.192  69.019  1.00  0.00    -0.096 C  
HETATM    2  C   UNL     1      -7.245   8.863  68.373  1.00  0.00    -0.078 C  
HETATM    3  O   UNL     1      -7.154   8.978  66.972  1.00  0.00    -0.077 OA 
HETATM    4  C   UNL     1      -5.810   8.624  68.927  1.00  0.00    -0.040 C  
HETATM    5  C   UNL     1      -7.414   7.666  66.488  1.00  0.00    -0.092 C  
HETATM    6  C   UNL     1      -6.232   6.551  66.904  1.00  0.00    -0.040 C  
HETATM    7  C   UNL     1      -7.004   5.444  67.753  1.00  0.00    -0.066 C  
HETATM    8  C   UNL     1      -7.032   4.674  69.236  1.00  0.00    -0.051 C  
HETATM    9  C   UNL     1      -7.390   5.686  70.409  1.00  0.00    -0.079 C  
HETATM   10  C   UNL     1      -7.996   5.180  71.699  1.00  0.00    -0.114 C  
HETATM   11  F   UNL     1      -6.984   4.763  72.503  1.00  0.00    -0.062 F  
HETATM   12  C   UNL     1      -9.049   4.107  71.449  1.00  0.00    -0.182 C  
HETATM   13  C   UNL     1     -10.101   3.978  72.253  1.00  0.00    -0.240 C  
HETATM   14  C   UNL     1      -9.446   3.393  73.465  1.00  0.00    -0.102 C  
HETATM   15  O   UNL     1      -9.895   3.673  74.564  1.00  0.00    -0.117 OA 
HETATM   16  C   UNL     1      -8.289   2.390  73.236  1.00  0.00    -0.066 C  
HETATM   17  C   UNL     1      -7.609   2.311  71.769  1.00  0.00    -0.041 C  
HETATM   18  C   UNL     1      -8.548   2.886  70.660  1.00  0.00    -0.107 C  
HETATM   19  C   UNL     1      -9.556   1.733  70.418  1.00  0.00    -0.111 C  
HETATM   20  C   UNL     1      -8.144   3.584  69.290  1.00  0.00    -0.064 C  
HETATM   21  C   UNL     1      -8.321   3.027  67.873  1.00  0.00    -0.080 C  
HETATM   22  C   UNL     1      -9.180   4.140  67.169  1.00  0.00    -0.176 C  
HETATM   23  O   UNL     1      -8.912   1.753  67.762  1.00  0.00    -0.109 OA 
HETATM   24  C   UNL     1      -8.310   5.422  66.924  1.00  0.00    -0.108 C  
HETATM   25  H   UNL     1      -9.021   1.408  66.884  1.00  0.00     0.000 HD 
HETATM   26  C   UNL     1      -7.948   5.142  65.365  1.00  0.00    -0.110 C  
HETATM   27  C   UNL     1      -8.638   7.084  67.196  1.00  0.00    -0.121 C  
HETATM   28  O   UNL     1      -8.223   7.810  68.602  1.00  0.00    -0.125 OA 
ENDROOT
BRANCH  27  29
HETATM   29  C   UNL     1     -10.079   7.312  67.663  1.00  0.00    -0.181 C  
HETATM   30  O   UNL     1     -11.008   7.274  66.840  1.00  0.00    -0.343 OA 
BRANCH  29  31
HETATM   31  C   UNL     1     -10.477   7.281  69.131  1.00  0.00    -0.215 C  
HETATM   32  O   UNL     1     -11.774   6.819  69.411  1.00  0.00    -0.619 OA 
HETATM   33  H   UNL     1     -12.023   6.799  70.328  1.00  0.00     0.000 HD 
ENDBRANCH  29  31
ENDBRANCH  27  29
TORSDOF 2
ENDMDL
MODEL       75
REMARK 921   NORMALIZED FREE ENERGY PREDICTED BY IDOCK:   -3.53 KCAL/MOL
REMARK 922        TOTAL FREE ENERGY PREDICTED BY IDOCK:   -4.41 KCAL/MOL
REMARK 923 INTER-LIGAND FREE ENERGY PREDICTED BY IDOCK:   -3.98 KCAL/MOL
REMARK 924 INTRA-LIGAND FREE ENERGY PREDICTED BY IDOCK:   -0.43 KCAL/MOL
REMARK 927      BINDING AFFINITY PREDICTED BY RF-SCORE:    0.00 PKD
ROOT
HETATM    1  C   UNL     1     -11.407  10.464  69.127  1.00  0.00    -0.286 C  
HETATM    2  C   UNL     1     -10.684   9.314  69.837  1.00  0.00    -0.234 C  
HETATM    3  O   UNL     1     -10.061   9.750  71.022  1.00  0.00    -0.216 OA 
HETATM    4  C   UNL     1     -11.847   8.357  70.232  1.00  0.00     0.198 C  
HETATM    5  C   UNL     1      -8.976   8.850  71.208  1.00  0.00    -0.243 C  
HETATM    6  C   UNL     1      -9.457   7.277  71.532  1.00  0.00    -0.160 C  
HETATM    7  C   UNL     1      -8.827   6.412  70.350  1.00  0.00    -0.151 C  
HETATM    8  C   UNL     1      -9.212   5.359  69.111  1.00  0.00    -0.147 C  
HETATM    9  C   UNL     1     -10.089   6.073  67.993  1.00  0.00    -0.187 C  
HETATM   10  C   UNL     1     -10.104   5.543  66.576  1.00  0.00    -0.204 C  
HETATM   11  F   UNL     1     -11.020   4.541  66.514  1.00  0.00    -0.133 F  
HETATM   12  C   UNL     1      -8.716   5.119  66.113  1.00  0.00    -0.123 C  
HETATM   13  C   UNL     1      -8.354   5.233  64.838  1.00  0.00    -0.144 C  
HETATM   14  C   UNL     1      -9.157   4.127  64.229  1.00  0.00    -0.147 C  
HETATM   15  O   UNL     1      -9.569   4.264  63.089  1.00  0.00    -0.146 OA 
HETATM   16  C   UNL     1      -9.334   2.833  65.060  1.00  0.00    -0.126 C  
HETATM   17  C   UNL     1      -8.986   2.872  66.640  1.00  0.00    -0.168 C  
HETATM   18  C   UNL     1      -8.036   4.061  66.999  1.00  0.00    -0.096 C  
HETATM   19  C   UNL     1      -6.643   3.549  66.552  1.00  0.00    -0.041 C  
HETATM   20  C   UNL     1      -7.934   4.865  68.367  1.00  0.00    -0.085 C  
HETATM   21  C   UNL     1      -6.786   4.835  69.381  1.00  0.00    -0.049 C  
HETATM   22  C   UNL     1      -6.374   6.349  69.481  1.00  0.00    -0.035 C  
HETATM   23  O   UNL     1      -5.690   4.006  69.072  1.00  0.00    -0.016 OA 
HETATM   24  C   UNL     1      -7.478   7.162  70.242  1.00  0.00    -0.085 C  
HETATM   25  H   UNL     1      -4.978   3.988  69.701  1.00  0.00     0.000 HD 
HETATM   26  C   UNL     1      -6.762   7.186  71.700  1.00  0.00    -0.055 C  
HETATM   27  C   UNL     1      -8.220   8.669  69.891  1.00  0.00    -0.121 C  
HETATM   28  O   UNL     1      -9.611   8.749  69.033  1.00  0.00    -0.159 OA 
ENDROOT
BRANCH  27  29
HETATM   29  C   UNL     1      -7.589   9.346  68.671  1.00  0.00    -0.080 C  
HETATM   30  O   UNL     1      -7.468   8.715  67.608  1.00  0.00    -0.088 OA 
BRANCH  29  31
HETATM   31  C   UNL     1      -7.378  10.851  68.589  1.00  0.00    -0.101 C  
HETATM   32  O   UNL     1      -8.312  11.645  69.275  1.00  0.00    -0.355 OA 
HETATM   33  H   UNL     1      -8.180  12.585  69.224  1.00  0.00     0.000 HD 
ENDBRANCH  29  31
ENDBRANCH  27  29
TORSDOF 2
ENDMDL
MODEL       76
REMARK 921   NORMALIZED FREE ENERGY PREDICTED BY IDOCK:   -3.46 KCAL/MOL
REMARK 922        TOTAL FREE ENERGY PREDICTED BY IDOCK:   -4.33 KCAL/MOL
REMARK 923 INTER-LIGAND FREE ENERGY PREDICTED BY IDOCK:   -3.71 KCAL/MOL
REMARK 924 INTRA-LIGAND FREE ENERGY PREDICTED BY IDOCK:   -0.62 KCAL/MOL
REMARK 927      BINDING AFFINITY PREDICTED BY RF-SCORE:    0.00 PKD
ROOT
HETATM    1  C   UNL     1      -7.648  10.581  69.670  1.00  0.00    -0.134 C  
HETATM    2  C   UNL     1      -6.984  10.199  68.342  1.00  0.00    -0.066 C  
HETATM    3  O   UNL     1      -6.735  11.335  67.547  1.00  0.00    -0.066 OA 
HETATM    4  C   UNL     1      -5.611   9.617  68.789  1.00  0.00    -0.036 C  
HETATM    5  C   UNL     1      -6.748  10.844  66.212  1.00  0.00    -0.124 C  
HETATM    6  C   UNL     1      -5.483   9.796  65.870  1.00  0.00    -0.044 C  
HETATM    7  C   UNL     1      -6.195   8.433  65.446  1.00  0.00    -0.045 C  
HETATM    8  C   UNL     1      -6.302   6.808  65.819  1.00  0.00    -0.046 C  
HETATM    9  C   UNL     1      -6.942   6.583  67.257  1.00  0.00    -0.075 C  
HETATM   10  C   UNL     1      -7.629   5.279  67.594  1.00  0.00    -0.088 C  
HETATM   11  F   UNL     1      -6.678   4.393  67.989  1.00  0.00    -0.042 F  
HETATM   12  C   UNL     1      -8.482   4.771  66.438  1.00  0.00    -0.110 C  
HETATM   13  C   UNL     1      -9.600   4.083  66.661  1.00  0.00    -0.228 C  
HETATM   14  C   UNL     1      -9.027   2.781  67.126  1.00  0.00    -0.159 C  
HETATM   15  O   UNL     1      -9.645   2.134  67.955  1.00  0.00    -0.175 OA 
HETATM   16  C   UNL     1      -7.722   2.293  66.449  1.00  0.00    -0.071 C  
HETATM   17  C   UNL     1      -6.860   3.348  65.577  1.00  0.00    -0.052 C  
HETATM   18  C   UNL     1      -7.722   4.569  65.117  1.00  0.00    -0.085 C  
HETATM   19  C   UNL     1      -8.522   4.003  63.916  1.00  0.00    -0.096 C  
HETATM   20  C   UNL     1      -7.250   6.060  64.834  1.00  0.00    -0.066 C  
HETATM   21  C   UNL     1      -7.169   6.770  63.478  1.00  0.00    -0.066 C  
HETATM   22  C   UNL     1      -8.078   8.033  63.694  1.00  0.00    -0.099 C  
HETATM   23  O   UNL     1      -7.558   6.023  62.348  1.00  0.00    -0.059 OA 
HETATM   24  C   UNL     1      -7.370   9.052  64.654  1.00  0.00    -0.098 C  
HETATM   25  H   UNL     1      -7.507   6.463  61.508  1.00  0.00     0.000 HD 
HETATM   26  C   UNL     1      -6.781  10.048  63.514  1.00  0.00    -0.135 C  
HETATM   27  C   UNL     1      -7.958   9.934  66.003  1.00  0.00    -0.114 C  
HETATM   28  O   UNL     1      -7.828   9.342  67.523  1.00  0.00    -0.098 OA 
ENDROOT
BRANCH  27  29
HETATM   29  C   UNL     1      -9.464   9.736  66.203  1.00  0.00    -0.205 C  
HETATM   30  O   UNL     1     -10.267  10.493  65.634  1.00  0.00    -0.262 OA 
BRANCH  29  31
HETATM   31  C   UNL     1     -10.048   8.472  66.816  1.00  0.00    -0.299 C  
HETATM   32  O   UNL     1     -10.884   8.654  67.930  1.00  0.00    -0.466 OA 
HETATM   33  H   UNL     1     -11.250   7.865  68.313  1.00  0.00     0.000 HD 
ENDBRANCH  29  31
ENDBRANCH  27  29
TORSDOF 2
ENDMDL
MODEL       77
REMARK 921   NORMALIZED FREE ENERGY PREDICTED BY IDOCK:   -3.33 KCAL/MOL
REMARK 922        TOTAL FREE ENERGY PREDICTED BY IDOCK:   -4.19 KCAL/MOL
REMARK 923 INTER-LIGAND FREE ENERGY PREDICTED BY IDOCK:   -3.75 KCAL/MOL
REMARK 924 INTRA-LIGAND FREE ENERGY PREDICTED BY IDOCK:   -0.43 KCAL/MOL
REMARK 927      BINDING AFFINITY PREDICTED BY RF-SCORE:    0.00 PKD
ROOT
HETATM    1  C   UNL     1      -7.884   8.150  72.013  1.00  0.00    -0.150 C  
HETATM    2  C   UNL     1      -7.179   8.894  70.873  1.00  0.00    -0.092 C  
HETATM    3  O   UNL     1      -7.022  10.262  71.169  1.00  0.00    -0.210 OA 
HETATM    4  C   UNL     1      -5.763   8.244  70.852  1.00  0.00    -0.032 C  
HETATM    5  C   UNL     1      -6.981  10.900  69.899  1.00  0.00    -0.090 C  
HETATM    6  C   UNL     1      -5.627  10.501  68.992  1.00  0.00    -0.041 C  
HETATM    7  C   UNL     1      -6.213   9.841  67.664  1.00  0.00    -0.056 C  
HETATM    8  C   UNL     1      -6.181   8.454  66.732  1.00  0.00    -0.055 C  
HETATM    9  C   UNL     1      -6.811   7.218  67.509  1.00  0.00    -0.074 C  
HETATM   10  C   UNL     1      -7.385   6.045  66.746  1.00  0.00    -0.079 C  
HETATM   11  F   UNL     1      -6.363   5.204  66.439  1.00  0.00    -0.032 F  
HETATM   12  C   UNL     1      -8.181   6.496  65.527  1.00  0.00    -0.138 C  
HETATM   13  C   UNL     1      -9.236   5.804  65.103  1.00  0.00     0.216 C  
HETATM   14  C   UNL     1      -8.556   4.607  64.516  1.00  0.00    -0.141 C  
HETATM   15  O   UNL     1      -9.122   3.528  64.571  1.00  0.00    -0.120 OA 
HETATM   16  C   UNL     1      -7.208   4.837  63.789  1.00  0.00    -0.050 C  
HETATM   17  C   UNL     1      -6.433   6.239  64.018  1.00  0.00    -0.030 C  
HETATM   18  C   UNL     1      -7.395   7.361  64.528  1.00  0.00    -0.087 C  
HETATM   19  C   UNL     1      -8.132   7.807  63.240  1.00  0.00    -0.069 C  
HETATM   20  C   UNL     1      -7.052   8.611  65.449  1.00  0.00    -0.083 C  
HETATM   21  C   UNL     1      -7.021  10.088  65.041  1.00  0.00    -0.135 C  
HETATM   22  C   UNL     1      -8.039  10.744  66.043  1.00  0.00    -0.158 C  
HETATM   23  O   UNL     1      -7.334  10.380  63.699  1.00  0.00    -0.275 OA 
HETATM   24  C   UNL     1      -7.432  10.778  67.488  1.00  0.00    -0.093 C  
HETATM   25  H   UNL     1      -7.315  11.296  63.446  1.00  0.00     0.000 HD 
HETATM   26  C   UNL     1      -6.922  12.321  67.472  1.00  0.00    -0.142 C  
HETATM   27  C   UNL     1      -8.105  10.365  69.012  1.00  0.00    -0.138 C  
HETATM   28  O   UNL     1      -7.937   8.860  69.632  1.00  0.00    -0.086 OA 
ENDROOT
BRANCH  27  29
HETATM   29  C   UNL     1      -9.590  10.004  68.900  1.00  0.00    -0.181 C  
HETATM   30  O   UNL     1      -9.934   8.812  68.856  1.00  0.00    -0.180 OA 
BRANCH  29  31
HETATM   31  C   UNL     1     -10.698  11.017  69.150  1.00  0.00    -0.234 C  
HETATM   32  O   UNL     1     -11.939  10.736  68.554  1.00  0.00    -0.722 OA 
HETATM   33  H   UNL     1     -12.631  11.368  68.710  1.00  0.00     0.000 HD 
ENDBRANCH  29  31
ENDBRANCH  27  29
TORSDOF 2
ENDMDL
MODEL       78
REMARK 921   NORMALIZED FREE ENERGY PREDICTED BY IDOCK:   -3.32 KCAL/MOL
REMARK 922        TOTAL FREE ENERGY PREDICTED BY IDOCK:   -4.18 KCAL/MOL
REMARK 923 INTER-LIGAND FREE ENERGY PREDICTED BY IDOCK:   -3.68 KCAL/MOL
REMARK 924 INTRA-LIGAND FREE ENERGY PREDICTED BY IDOCK:   -0.50 KCAL/MOL
REMARK 927      BINDING AFFINITY PREDICTED BY RF-SCORE:    0.00 PKD
ROOT
HETATM    1  C   UNL     1      -7.759  19.007  68.007  1.00  0.00    -0.304 C  
HETATM    2  C   UNL     1      -7.813  17.481  67.869  1.00  0.00    -0.218 C  
HETATM    3  O   UNL     1      -7.229  17.052  66.662  1.00  0.00    -0.204 OA 
HETATM    4  C   UNL     1      -6.911  16.989  69.039  1.00  0.00    -0.229 C  
HETATM    5  C   UNL     1      -7.880  15.822  66.367  1.00  0.00     0.093 C  
HETATM    6  C   UNL     1      -7.539  14.602  67.466  1.00  0.00    -0.215 C  
HETATM    7  C   UNL     1      -8.957  14.198  68.071  1.00  0.00    -0.183 C  
HETATM    8  C   UNL     1      -9.813  14.064  69.501  1.00  0.00     0.515 C  
HETATM    9  C   UNL     1     -10.035  15.485  70.179  1.00  0.00    -0.081 C  
HETATM   10  C   UNL     1     -11.188  15.706  71.133  1.00  0.00    -0.355 C  
HETATM   11  F   UNL     1     -10.799  15.289  72.366  1.00  0.00    -0.393 F  
HETATM   12  C   UNL     1     -12.465  15.034  70.645  1.00  0.00    -0.422 C  
HETATM   13  C   UNL     1     -13.660  15.562  70.904  1.00  0.00    -0.270 C  
HETATM   14  C   UNL     1     -13.776  15.264  72.365  1.00  0.00    -0.519 C  
HETATM   15  O   UNL     1     -14.381  16.050  73.075  1.00  0.00    -0.277 OA 
HETATM   16  C   UNL     1     -13.195  13.919  72.868  1.00  0.00    -0.423 C  
HETATM   17  C   UNL     1     -12.188  13.100  71.902  1.00  0.00     0.528 C  
HETATM   18  C   UNL     1     -12.345  13.520  70.404  1.00  0.00    -0.397 C  
HETATM   19  C   UNL     1     -13.625  12.767  69.958  1.00  0.00     2.565 C  
HETATM   20  C   UNL     1     -11.247  13.506  69.255  1.00  0.00    -0.285 C  
HETATM   21  C   UNL     1     -11.183  12.575  68.039  1.00  0.00    -0.270 C  
HETATM   22  C   UNL     1     -11.163  13.583  66.833  1.00  0.00    -0.329 C  
HETATM   23  O   UNL     1     -12.214  11.622  67.917  1.00  0.00    -0.560 OA 
HETATM   24  C   UNL     1      -9.781  14.321  66.768  1.00  0.00    -0.282 C  
HETATM   25  H   UNL     1     -12.175  11.045  67.164  1.00  0.00     0.000 HD 
HETATM   26  C   UNL     1      -9.099  13.401  65.615  1.00  0.00     0.603 C  
HETATM   27  C   UNL     1      -9.390  15.978  66.550  1.00  0.00    -0.268 C  
HETATM   28  O   UNL     1      -9.176  16.973  67.830  1.00  0.00    -0.232 OA 
ENDROOT
BRANCH  27  29
HETATM   29  C   UNL     1     -10.635  16.826  66.273  1.00  0.00    -0.190 C  
HETATM   30  O   UNL     1     -11.255  17.341  67.218  1.00  0.00     0.036 OA 
BRANCH  29  31
HETATM   31  C   UNL     1     -10.986  17.333  64.882  1.00  0.00     0.347 C  
HETATM   32  O   UNL     1     -11.479  16.375  63.980  1.00  0.00    -1.465 OA 
HETATM   33  H   UNL     1     -11.699  16.691  63.112  1.00  0.00     0.000 HD 
ENDBRANCH  29  31
ENDBRANCH  27  29
TORSDOF 2
ENDMDL
MODEL       79
REMARK 921   NORMALIZED FREE ENERGY PREDICTED BY IDOCK:   -3.30 KCAL/MOL
REMARK 922        TOTAL FREE ENERGY PREDICTED BY IDOCK:   -4.15 KCAL/MOL
REMARK 923 INTER-LIGAND FREE ENERGY PREDICTED BY IDOCK:   -3.82 KCAL/MOL
REMARK 924 INTRA-LIGAND FREE ENERGY PREDICTED BY IDOCK:   -0.33 KCAL/MOL
REMARK 927      BINDING AFFINITY PREDICTED BY RF-SCORE:    0.00 PKD
ROOT
HETATM    1  C   UNL     1     -11.854  10.728  69.253  1.00  0.00    -0.359 C  
HETATM    2  C   UNL     1     -10.343  10.626  69.021  1.00  0.00    -0.218 C  
HETATM    3  O   UNL     1      -9.732  11.896  69.043  1.00  0.00    -0.009 OA 
HETATM    4  C   UNL     1      -9.847   9.835  70.267  1.00  0.00    -0.296 C  
HETATM    5  C   UNL     1      -8.576  11.750  68.227  1.00  0.00    -0.162 C  
HETATM    6  C   UNL     1      -7.427  10.711  68.871  1.00  0.00    -0.108 C  
HETATM    7  C   UNL     1      -7.268   9.561  67.778  1.00  0.00    -0.082 C  
HETATM    8  C   UNL     1      -7.379   7.909  67.548  1.00  0.00    -0.092 C  
HETATM    9  C   UNL     1      -8.873   7.396  67.732  1.00  0.00    -0.128 C  
HETATM   10  C   UNL     1      -9.329   6.114  67.072  1.00  0.00    -0.124 C  
HETATM   11  F   UNL     1      -8.980   5.079  67.880  1.00  0.00    -0.106 F  
HETATM   12  C   UNL     1      -8.787   5.981  65.654  1.00  0.00    -0.118 C  
HETATM   13  C   UNL     1      -9.487   5.359  64.708  1.00  0.00     0.390 C  
HETATM   14  C   UNL     1      -9.342   3.938  65.154  1.00  0.00    -0.158 C  
HETATM   15  O   UNL     1     -10.262   3.165  64.947  1.00  0.00     0.036 OA 
HETATM   16  C   UNL     1      -7.985   3.519  65.771  1.00  0.00    -0.093 C  
HETATM   17  C   UNL     1      -6.956   4.676  66.242  1.00  0.00    -0.070 C  
HETATM   18  C   UNL     1      -7.255   6.042  65.542  1.00  0.00    -0.074 C  
HETATM   19  C   UNL     1      -6.637   5.859  64.132  1.00  0.00    -0.037 C  
HETATM   20  C   UNL     1      -6.992   7.510  66.092  1.00  0.00    -0.065 C  
HETATM   21  C   UNL     1      -5.953   8.520  65.592  1.00  0.00    -0.044 C  
HETATM   22  C   UNL     1      -6.835   9.767  65.220  1.00  0.00    -0.103 C  
HETATM   23  O   UNL     1      -5.136   8.109  64.521  1.00  0.00    -0.035 OA 
HETATM   24  C   UNL     1      -7.378  10.455  66.520  1.00  0.00    -0.119 C  
HETATM   25  H   UNL     1      -4.491   8.735  64.211  1.00  0.00     0.000 HD 
HETATM   26  C   UNL     1      -6.275  11.644  66.612  1.00  0.00    -0.079 C  
HETATM   27  C   UNL     1      -8.943  11.027  66.931  1.00  0.00    -0.157 C  
HETATM   28  O   UNL     1     -10.015  10.073  67.716  1.00  0.00    -0.159 OA 
ENDROOT
BRANCH  27  29
HETATM   29  C   UNL     1      -9.917  10.919  65.754  1.00  0.00    -0.247 C  
HETATM   30  O   UNL     1     -10.235   9.802  65.315  1.00  0.00    -0.216 OA 
BRANCH  29  31
HETATM   31  C   UNL     1     -10.763  12.093  65.283  1.00  0.00    -0.288 C  
HETATM   32  O   UNL     1     -10.063  13.174  64.719  1.00  0.00    -0.499 OA 
HETATM   33  H   UNL     1     -10.591  13.906  64.425  1.00  0.00     0.000 HD 
ENDBRANCH  29  31
ENDBRANCH  27  29
TORSDOF 2
ENDMDL
MODEL       80
REMARK 921   NORMALIZED FREE ENERGY PREDICTED BY IDOCK:   -3.18 KCAL/MOL
REMARK 922        TOTAL FREE ENERGY PREDICTED BY IDOCK:   -4.02 KCAL/MOL
REMARK 923 INTER-LIGAND FREE ENERGY PREDICTED BY IDOCK:   -3.52 KCAL/MOL
REMARK 924 INTRA-LIGAND FREE ENERGY PREDICTED BY IDOCK:   -0.50 KCAL/MOL
REMARK 927      BINDING AFFINITY PREDICTED BY RF-SCORE:    0.00 PKD
ROOT
HETATM    1  C   UNL     1      -9.724  16.381  65.279  1.00  0.00     0.385 C  
HETATM    2  C   UNL     1      -9.536  15.048  66.012  1.00  0.00    -0.302 C  
HETATM    3  O   UNL     1      -9.171  14.018  65.124  1.00  0.00     0.550 OA 
HETATM    4  C   UNL     1      -8.321  15.328  66.946  1.00  0.00    -0.278 C  
HETATM    5  C   UNL     1      -9.642  12.828  65.743  1.00  0.00    -0.092 C  
HETATM    6  C   UNL     1      -8.851  12.458  67.175  1.00  0.00    -0.197 C  
HETATM    7  C   UNL     1     -10.003  12.445  68.279  1.00  0.00    -0.224 C  
HETATM    8  C   UNL     1     -10.478  13.134  69.725  1.00  0.00     0.887 C  
HETATM    9  C   UNL     1     -10.791  14.683  69.555  1.00  0.00    -0.238 C  
HETATM   10  C   UNL     1     -11.721  15.387  70.518  1.00  0.00    -0.325 C  
HETATM   11  F   UNL     1     -10.997  15.755  71.607  1.00  0.00    -0.346 F  
HETATM   12  C   UNL     1     -12.935  14.533  70.861  1.00  0.00    -0.424 C  
HETATM   13  C   UNL     1     -14.115  15.091  71.122  1.00  0.00    -0.423 C  
HETATM   14  C   UNL     1     -13.845  15.677  72.471  1.00  0.00    -0.555 C  
HETATM   15  O   UNL     1     -14.405  16.716  72.779  1.00  0.00     0.733 OA 
HETATM   16  C   UNL     1     -12.936  14.871  73.432  1.00  0.00    -0.597 C  
HETATM   17  C   UNL     1     -12.043  13.666  72.824  1.00  0.00     1.029 C  
HETATM   18  C   UNL     1     -12.604  13.155  71.458  1.00  0.00    -0.292 C  
HETATM   19  C   UNL     1     -13.796  12.257  71.879  1.00  0.00     0.182 C  
HETATM   20  C   UNL     1     -11.808  12.508  70.243  1.00  0.00    -0.305 C  
HETATM   21  C   UNL     1     -11.854  11.051  69.769  1.00  0.00    -0.347 C  
HETATM   22  C   UNL     1     -12.284  11.192  68.264  1.00  0.00     0.229 C  
HETATM   23  O   UNL     1     -12.699  10.180  70.483  1.00  0.00    -0.475 OA 
HETATM   24  C   UNL     1     -11.106  11.787  67.417  1.00  0.00    -0.338 C  
HETATM   25  H   UNL     1     -12.728   9.277  70.190  1.00  0.00     0.000 HD 
HETATM   26  C   UNL     1     -10.548  10.387  66.810  1.00  0.00    -0.270 C  
HETATM   27  C   UNL     1     -11.076  13.031  66.235  1.00  0.00    -0.289 C  
HETATM   28  O   UNL     1     -10.760  14.583  66.646  1.00  0.00    -0.295 OA 
ENDROOT
BRANCH  27  29
HETATM   29  C   UNL     1     -12.481  13.547  65.912  1.00  0.00    -0.429 C  
HETATM   30  O   UNL     1     -13.113  14.194  66.763  1.00  0.00     0.408 OA 
BRANCH  29  31
HETATM   31  C   UNL     1     -13.036  13.577  64.495  1.00  0.00     0.195 C  
HETATM   32  O   UNL     1     -12.297  14.318  63.557  1.00  0.00    -1.080 OA 
HETATM   33  H   UNL     1     -12.643  14.336  62.672  1.00  0.00     0.000 HD 
ENDBRANCH  29  31
ENDBRANCH  27  29
TORSDOF 2
ENDMDL
MODEL       81
REMARK 921   NORMALIZED FREE ENERGY PREDICTED BY IDOCK:   -3.13 KCAL/MOL
REMARK 922        TOTAL FREE ENERGY PREDICTED BY IDOCK:   -3.96 KCAL/MOL
REMARK 923 INTER-LIGAND FREE ENERGY PREDICTED BY IDOCK:   -3.51 KCAL/MOL
REMARK 924 INTRA-LIGAND FREE ENERGY PREDICTED BY IDOCK:   -0.45 KCAL/MOL
REMARK 927      BINDING AFFINITY PREDICTED BY RF-SCORE:    0.00 PKD
ROOT
HETATM    1  C   UNL     1      -8.154  11.474  68.699  1.00  0.00    -0.132 C  
HETATM    2  C   UNL     1      -9.125  10.289  68.672  1.00  0.00    -0.152 C  
HETATM    3  O   UNL     1      -9.817  10.161  69.892  1.00  0.00    -0.233 OA 
HETATM    4  C   UNL     1     -10.154  10.702  67.578  1.00  0.00    -0.217 C  
HETATM    5  C   UNL     1     -10.141   8.779  69.975  1.00  0.00    -0.190 C  
HETATM    6  C   UNL     1     -11.236   8.275  68.807  1.00  0.00     0.465 C  
HETATM    7  C   UNL     1     -10.461   7.145  67.992  1.00  0.00    -0.251 C  
HETATM    8  C   UNL     1      -9.947   6.715  66.461  1.00  0.00    -0.148 C  
HETATM    9  C   UNL     1      -8.852   7.728  65.910  1.00  0.00    -0.176 C  
HETATM   10  C   UNL     1      -7.868   7.290  64.848  1.00  0.00    -0.126 C  
HETATM   11  F   UNL     1      -8.467   7.433  63.637  1.00  0.00    -0.033 F  
HETATM   12  C   UNL     1      -7.351   5.880  65.101  1.00  0.00    -0.076 C  
HETATM   13  C   UNL     1      -6.115   5.529  64.752  1.00  0.00    -0.022 C  
HETATM   14  C   UNL     1      -6.263   5.467  63.264  1.00  0.00    -0.022 C  
HETATM   15  O   UNL     1      -5.306   5.765  62.569  1.00  0.00    -0.013 OA 
HETATM   16  C   UNL     1      -7.603   4.933  62.702  1.00  0.00    -0.060 C  
HETATM   17  C   UNL     1      -8.876   4.831  63.696  1.00  0.00    -0.104 C  
HETATM   18  C   UNL     1      -8.442   4.801  65.198  1.00  0.00    -0.135 C  
HETATM   19  C   UNL     1      -7.977   3.336  65.401  1.00  0.00    -0.086 C  
HETATM   20  C   UNL     1      -9.242   5.324  66.467  1.00  0.00    -0.139 C  
HETATM   21  C   UNL     1      -9.880   4.484  67.579  1.00  0.00    -0.140 C  
HETATM   22  C   UNL     1      -9.195   5.050  68.876  1.00  0.00    -0.155 C  
HETATM   23  O   UNL     1      -9.742   3.086  67.473  1.00  0.00    -0.339 OA 
HETATM   24  C   UNL     1      -9.733   6.489  69.188  1.00  0.00    -0.143 C  
HETATM   25  H   UNL     1     -10.137   2.565  68.162  1.00  0.00     0.000 HD 
HETATM   26  C   UNL     1     -10.825   6.072  70.315  1.00  0.00    -0.398 C  
HETATM   27  C   UNL     1      -8.916   7.935  69.623  1.00  0.00    -0.146 C  
HETATM   28  O   UNL     1      -8.445   9.015  68.488  1.00  0.00    -0.126 OA 
ENDROOT
BRANCH  27  29
HETATM   29  C   UNL     1      -7.416   7.704  69.828  1.00  0.00    -0.090 C  
HETATM   30  O   UNL     1      -6.636   7.818  68.869  1.00  0.00    -0.046 OA 
BRANCH  29  31
HETATM   31  C   UNL     1      -6.780   7.641  71.209  1.00  0.00    -0.048 C  
HETATM   32  O   UNL     1      -5.675   6.784  71.343  1.00  0.00    -0.034 OA 
HETATM   33  H   UNL     1      -5.277   6.745  72.206  1.00  0.00     0.000 HD 
ENDBRANCH  29  31
ENDBRANCH  27  29
TORSDOF 2
ENDMDL
MODEL       82
REMARK 921   NORMALIZED FREE ENERGY PREDICTED BY IDOCK:   -3.01 KCAL/MOL
REMARK 922        TOTAL FREE ENERGY PREDICTED BY IDOCK:   -3.83 KCAL/MOL
REMARK 923 INTER-LIGAND FREE ENERGY PREDICTED BY IDOCK:   -3.38 KCAL/MOL
REMARK 924 INTRA-LIGAND FREE ENERGY PREDICTED BY IDOCK:   -0.44 KCAL/MOL
REMARK 927      BINDING AFFINITY PREDICTED BY RF-SCORE:    0.00 PKD
ROOT
HETATM    1  C   UNL     1     -13.869   7.480  70.926  1.00  0.00     0.065 C  
HETATM    2  C   UNL     1     -12.629   7.188  71.779  1.00  0.00    -0.346 C  
HETATM    3  O   UNL     1     -12.464   8.151  72.794  1.00  0.00    -0.213 OA 
HETATM    4  C   UNL     1     -12.980   5.831  72.458  1.00  0.00     0.627 C  
HETATM    5  C   UNL     1     -11.065   8.160  73.053  1.00  0.00    -0.104 C  
HETATM    6  C   UNL     1     -10.497   6.731  73.722  1.00  0.00    -0.383 C  
HETATM    7  C   UNL     1      -9.412   6.203  72.679  1.00  0.00    -0.147 C  
HETATM    8  C   UNL     1      -9.009   4.902  71.711  1.00  0.00    -0.155 C  
HETATM    9  C   UNL     1     -10.083   4.681  70.559  1.00  0.00    -0.263 C  
HETATM   10  C   UNL     1      -9.700   3.968  69.281  1.00  0.00    -0.120 C  
HETATM   11  F   UNL     1      -9.806   2.631  69.499  1.00  0.00    -0.159 F  
HETATM   12  C   UNL     1      -8.322   4.390  68.786  1.00  0.00    -0.091 C  
HETATM   13  C   UNL     1      -8.043   4.429  67.485  1.00  0.00    -0.099 C  
HETATM   14  C   UNL     1      -7.969   2.966  67.181  1.00  0.00    -0.075 C  
HETATM   15  O   UNL     1      -8.321   2.581  66.078  1.00  0.00    -0.085 OA 
HETATM   16  C   UNL     1      -7.358   2.042  68.262  1.00  0.00    -0.047 C  
HETATM   17  C   UNL     1      -7.185   2.616  69.765  1.00  0.00    -0.044 C  
HETATM   18  C   UNL     1      -7.182   4.179  69.796  1.00  0.00    -0.049 C  
HETATM   19  C   UNL     1      -5.747   4.539  69.334  1.00  0.00    -0.017 C  
HETATM   20  C   UNL     1      -7.662   5.144  70.965  1.00  0.00    -0.095 C  
HETATM   21  C   UNL     1      -6.788   6.033  71.857  1.00  0.00    -0.069 C  
HETATM   22  C   UNL     1      -7.395   7.463  71.620  1.00  0.00    -0.075 C  
HETATM   23  O   UNL     1      -5.400   5.999  71.618  1.00  0.00    -0.020 OA 
HETATM   24  C   UNL     1      -8.802   7.574  72.305  1.00  0.00    -0.161 C  
HETATM   25  H   UNL     1      -4.858   6.550  72.171  1.00  0.00     0.000 HD 
HETATM   26  C   UNL     1      -8.324   8.334  73.658  1.00  0.00    -0.259 C  
HETATM   27  C   UNL     1     -10.293   8.204  71.734  1.00  0.00    -0.230 C  
HETATM   28  O   UNL     1     -11.397   7.239  71.007  1.00  0.00    -0.259 OA 
ENDROOT
BRANCH  27  29
HETATM   29  C   UNL     1     -10.150   8.849  70.353  1.00  0.00    -0.196 C  
HETATM   30  O   UNL     1     -10.362   8.176  69.331  1.00  0.00    -0.211 OA 
BRANCH  29  31
HETATM   31  C   UNL     1     -10.058  10.356  70.160  1.00  0.00     0.080 C  
HETATM   32  O   UNL     1     -10.334  10.832  68.867  1.00  0.00    -0.184 OA 
HETATM   33  H   UNL     1     -10.278  11.773  68.747  1.00  0.00     0.000 HD 
ENDBRANCH  29  31
ENDBRANCH  27  29
TORSDOF 2
ENDMDL
MODEL       83
REMARK 921   NORMALIZED FREE ENERGY PREDICTED BY IDOCK:   -2.87 KCAL/MOL
REMARK 922        TOTAL FREE ENERGY PREDICTED BY IDOCK:   -3.67 KCAL/MOL
REMARK 923 INTER-LIGAND FREE ENERGY PREDICTED BY IDOCK:   -3.33 KCAL/MOL
REMARK 924 INTRA-LIGAND FREE ENERGY PREDICTED BY IDOCK:   -0.34 KCAL/MOL
REMARK 927      BINDING AFFINITY PREDICTED BY RF-SCORE:    0.00 PKD
ROOT
HETATM    1  C   UNL     1     -11.477   9.802  70.511  1.00  0.00    -0.370 C  
HETATM    2  C   UNL     1      -9.992   9.669  70.158  1.00  0.00    -0.261 C  
HETATM    3  O   UNL     1      -9.426  10.917  69.831  1.00  0.00     0.332 OA 
HETATM    4  C   UNL     1      -9.353   9.190  71.495  1.00  0.00    -0.195 C  
HETATM    5  C   UNL     1      -8.348  10.603  68.959  1.00  0.00    -0.152 C  
HETATM    6  C   UNL     1      -7.108   9.753  69.703  1.00  0.00    -0.083 C  
HETATM    7  C   UNL     1      -7.013   8.385  68.889  1.00  0.00    -0.062 C  
HETATM    8  C   UNL     1      -7.087   6.724  69.052  1.00  0.00    -0.089 C  
HETATM    9  C   UNL     1      -8.538   6.247  69.495  1.00  0.00    -0.132 C  
HETATM   10  C   UNL     1      -9.010   4.843  69.192  1.00  0.00    -0.098 C  
HETATM   11  F   UNL     1      -8.550   4.025  70.174  1.00  0.00    -0.072 F  
HETATM   12  C   UNL     1      -8.599   4.396  67.794  1.00  0.00    -0.109 C  
HETATM   13  C   UNL     1      -9.363   3.565  67.087  1.00  0.00    -0.229 C  
HETATM   14  C   UNL     1      -9.127   2.286  67.827  1.00  0.00    -0.177 C  
HETATM   15  O   UNL     1     -10.035   1.474  67.893  1.00  0.00     0.085 OA 
HETATM   16  C   UNL     1      -7.704   2.036  68.385  1.00  0.00    -0.053 C  
HETATM   17  C   UNL     1      -6.677   3.283  68.476  1.00  0.00    -0.045 C  
HETATM   18  C   UNL     1      -7.087   4.449  67.519  1.00  0.00    -0.064 C  
HETATM   19  C   UNL     1      -6.599   3.956  66.133  1.00  0.00    -0.038 C  
HETATM   20  C   UNL     1      -6.825   6.007  67.692  1.00  0.00    -0.060 C  
HETATM   21  C   UNL     1      -5.874   6.888  66.876  1.00  0.00    -0.022 C  
HETATM   22  C   UNL     1      -6.829   8.006  66.321  1.00  0.00    -0.058 C  
HETATM   23  O   UNL     1      -5.147   6.253  65.850  1.00  0.00    -0.012 OA 
HETATM   24  C   UNL     1      -7.271   8.966  67.479  1.00  0.00    -0.080 C  
HETATM   25  H   UNL     1      -4.557   6.800  65.344  1.00  0.00     0.000 HD 
HETATM   26  C   UNL     1      -6.207  10.159  67.189  1.00  0.00    -0.062 C  
HETATM   27  C   UNL     1      -8.809   9.598  67.903  1.00  0.00    -0.119 C  
HETATM   28  O   UNL     1      -9.769   8.835  68.987  1.00  0.00    -0.166 OA 
ENDROOT
BRANCH  27  29
HETATM   29  C   UNL     1      -9.886   9.211  66.884  1.00  0.00    -0.217 C  
HETATM   30  O   UNL     1     -10.848   8.510  67.237  1.00  0.00    -0.216 OA 
BRANCH  29  31
HETATM   31  C   UNL     1     -10.010   9.891  65.528  1.00  0.00    -0.292 C  
HETATM   32  O   UNL     1      -9.713  11.264  65.495  1.00  0.00    -0.211 OA 
HETATM   33  H   UNL     1      -9.790  11.689  64.649  1.00  0.00     0.000 HD 
ENDBRANCH  29  31
ENDBRANCH  27  29
TORSDOF 2
ENDMDL
MODEL       84
REMARK 921   NORMALIZED FREE ENERGY PREDICTED BY IDOCK:   -2.62 KCAL/MOL
REMARK 922        TOTAL FREE ENERGY PREDICTED BY IDOCK:   -3.40 KCAL/MOL
REMARK 923 INTER-LIGAND FREE ENERGY PREDICTED BY IDOCK:   -3.07 KCAL/MOL
REMARK 924 INTRA-LIGAND FREE ENERGY PREDICTED BY IDOCK:   -0.32 KCAL/MOL
REMARK 927      BINDING AFFINITY PREDICTED BY RF-SCORE:    0.00 PKD
ROOT
HETATM    1  C   UNL     1      -7.391  15.332  67.443  1.00  0.00    -0.241 C  
HETATM    2  C   UNL     1      -8.538  14.316  67.488  1.00  0.00    -0.196 C  
HETATM    3  O   UNL     1      -9.316  14.469  68.652  1.00  0.00    -0.199 OA 
HETATM    4  C   UNL     1      -9.416  14.722  66.268  1.00  0.00    -0.332 C  
HETATM    5  C   UNL     1      -9.865  13.178  68.886  1.00  0.00     0.135 C  
HETATM    6  C   UNL     1     -10.952  12.687  67.706  1.00  0.00    -0.266 C  
HETATM    7  C   UNL     1     -10.322  11.348  67.112  1.00  0.00    -0.247 C  
HETATM    8  C   UNL     1      -9.790  10.633  65.699  1.00  0.00    -0.307 C  
HETATM    9  C   UNL     1      -8.513  11.379  65.115  1.00  0.00     0.351 C  
HETATM   10  C   UNL     1      -7.549  10.651  64.205  1.00  0.00     0.187 C  
HETATM   11  F   UNL     1      -8.039  10.710  62.940  1.00  0.00    -0.152 F  
HETATM   12  C   UNL     1      -7.284   9.228  64.682  1.00  0.00    -0.100 C  
HETATM   13  C   UNL     1      -6.102   8.648  64.486  1.00  0.00    -0.066 C  
HETATM   14  C   UNL     1      -6.165   8.398  63.012  1.00  0.00    -0.086 C  
HETATM   15  O   UNL     1      -5.131   8.447  62.367  1.00  0.00    -0.066 OA 
HETATM   16  C   UNL     1      -7.537   8.001  62.413  1.00  0.00    -0.113 C  
HETATM   17  C   UNL     1      -8.868   8.236  63.302  1.00  0.00     0.499 C  
HETATM   18  C   UNL     1      -8.540   8.352  64.826  1.00  0.00    -0.077 C  
HETATM   19  C   UNL     1      -8.333   6.878  65.256  1.00  0.00    -0.102 C  
HETATM   20  C   UNL     1      -9.322   9.166  65.945  1.00  0.00    -0.306 C  
HETATM   21  C   UNL     1     -10.155   8.598  67.099  1.00  0.00    -0.261 C  
HETATM   22  C   UNL     1      -9.470   9.231  68.364  1.00  0.00    -0.145 C  
HETATM   23  O   UNL     1     -10.240   7.195  67.187  1.00  0.00    -0.204 OA 
HETATM   24  C   UNL     1      -9.785  10.765  68.441  1.00  0.00    -0.179 C  
HETATM   25  H   UNL     1     -10.757   6.843  67.902  1.00  0.00     0.000 HD 
HETATM   26  C   UNL     1     -11.000  10.682  69.517  1.00  0.00    -0.321 C  
HETATM   27  C   UNL     1      -8.774  12.116  68.751  1.00  0.00     0.114 C  
HETATM   28  O   UNL     1      -8.064  12.941  67.529  1.00  0.00    -0.158 OA 
ENDROOT
BRANCH  27  29
HETATM   29  C   UNL     1      -7.347  11.691  69.110  1.00  0.00    -0.032 C  
HETATM   30  O   UNL     1      -7.133  11.069  70.163  1.00  0.00    -0.125 OA 
BRANCH  29  31
HETATM   31  C   UNL     1      -6.208  11.716  68.100  1.00  0.00    -0.046 C  
HETATM   32  O   UNL     1      -5.145  10.830  68.344  1.00  0.00    -0.035 OA 
HETATM   33  H   UNL     1      -4.435  10.845  67.713  1.00  0.00     0.000 HD 
ENDBRANCH  29  31
ENDBRANCH  27  29
TORSDOF 2
ENDMDL
MODEL       85
REMARK 921   NORMALIZED FREE ENERGY PREDICTED BY IDOCK:   -2.61 KCAL/MOL
REMARK 922        TOTAL FREE ENERGY PREDICTED BY IDOCK:   -3.39 KCAL/MOL
REMARK 923 INTER-LIGAND FREE ENERGY PREDICTED BY IDOCK:   -2.84 KCAL/MOL
REMARK 924 INTRA-LIGAND FREE ENERGY PREDICTED BY IDOCK:   -0.55 KCAL/MOL
REMARK 927      BINDING AFFINITY PREDICTED BY RF-SCORE:    0.00 PKD
ROOT
HETATM    1  C   UNL     1      -9.703   8.597  65.510  1.00  0.00     0.208 C  
HETATM    2  C   UNL     1      -9.201   9.477  66.659  1.00  0.00    -0.152 C  
HETATM    3  O   UNL     1      -8.530  10.619  66.178  1.00  0.00    -0.147 OA 
HETATM    4  C   UNL     1     -10.518   9.949  67.343  1.00  0.00    -0.325 C  
HETATM    5  C   UNL     1      -7.620  10.961  67.216  1.00  0.00    -0.104 C  
HETATM    6  C   UNL     1      -8.371  11.469  68.627  1.00  0.00    -0.123 C  
HETATM    7  C   UNL     1      -7.882  10.435  69.737  1.00  0.00    -0.108 C  
HETATM    8  C   UNL     1      -8.425   9.330  70.867  1.00  0.00    -0.203 C  
HETATM    9  C   UNL     1      -9.147   8.095  70.173  1.00  0.00    -0.147 C  
HETATM   10  C   UNL     1      -9.233   6.761  70.879  1.00  0.00    -0.157 C  
HETATM   11  F   UNL     1     -10.307   6.794  71.710  1.00  0.00    -0.201 F  
HETATM   12  C   UNL     1      -7.932   6.411  71.590  1.00  0.00    -0.102 C  
HETATM   13  C   UNL     1      -7.536   5.146  71.713  1.00  0.00    -0.090 C  
HETATM   14  C   UNL     1      -8.509   4.656  72.738  1.00  0.00    -0.111 C  
HETATM   15  O   UNL     1      -8.873   3.493  72.689  1.00  0.00    -0.085 OA 
HETATM   16  C   UNL     1      -8.920   5.642  73.860  1.00  0.00    -0.126 C  
HETATM   17  C   UNL     1      -8.594   7.215  73.667  1.00  0.00    -0.176 C  
HETATM   18  C   UNL     1      -7.459   7.452  72.618  1.00  0.00    -0.084 C  
HETATM   19  C   UNL     1      -6.169   7.129  73.415  1.00  0.00    -0.061 C  
HETATM   20  C   UNL     1      -7.240   8.706  71.667  1.00  0.00    -0.109 C  
HETATM   21  C   UNL     1      -6.130   9.759  71.753  1.00  0.00     0.216 C  
HETATM   22  C   UNL     1      -5.464   9.676  70.332  1.00  0.00    -0.039 C  
HETATM   23  O   UNL     1      -5.189   9.603  72.790  1.00  0.00    -0.127 OA 
HETATM   24  C   UNL     1      -6.422  10.282  69.248  1.00  0.00    -0.049 C  
HETATM   25  H   UNL     1      -4.501  10.255  72.844  1.00  0.00     0.000 HD 
HETATM   26  C   UNL     1      -5.735  11.751  69.149  1.00  0.00    -0.058 C  
HETATM   27  C   UNL     1      -6.887   9.709  67.699  1.00  0.00    -0.082 C  
HETATM   28  O   UNL     1      -8.230   8.796  67.501  1.00  0.00    -0.109 OA 
ENDROOT
BRANCH  27  29
HETATM   29  C   UNL     1      -6.130   8.436  67.310  1.00  0.00    -0.055 C  
HETATM   30  O   UNL     1      -6.204   7.428  68.031  1.00  0.00    -0.040 OA 
BRANCH  29  31
HETATM   31  C   UNL     1      -5.533   8.231  65.925  1.00  0.00    -0.032 C  
HETATM   32  O   UNL     1      -6.215   8.844  64.860  1.00  0.00    -0.064 OA 
HETATM   33  H   UNL     1      -5.841   8.717  63.995  1.00  0.00     0.000 HD 
ENDBRANCH  29  31
ENDBRANCH  27  29
TORSDOF 2
ENDMDL
MODEL       86
REMARK 921   NORMALIZED FREE ENERGY PREDICTED BY IDOCK:   -2.25 KCAL/MOL
REMARK 922        TOTAL FREE ENERGY PREDICTED BY IDOCK:   -2.98 KCAL/MOL
REMARK 923 INTER-LIGAND FREE ENERGY PREDICTED BY IDOCK:   -3.04 KCAL/MOL
REMARK 924 INTRA-LIGAND FREE ENERGY PREDICTED BY IDOCK:    0.06 KCAL/MOL
REMARK 927      BINDING AFFINITY PREDICTED BY RF-SCORE:    0.00 PKD
ROOT
HETATM    1  C   UNL     1     -10.302   9.807  71.622  1.00  0.00     0.593 C  
HETATM    2  C   UNL     1      -9.860   9.031  70.376  1.00  0.00    -0.202 C  
HETATM    3  O   UNL     1     -10.659   9.349  69.260  1.00  0.00    -0.219 OA 
HETATM    4  C   UNL     1      -8.427   9.578  70.110  1.00  0.00    -0.227 C  
HETATM    5  C   UNL     1     -10.599   8.191  68.436  1.00  0.00    -0.099 C  
HETATM    6  C   UNL     1      -9.074   7.899  67.801  1.00  0.00    -0.138 C  
HETATM    7  C   UNL     1      -8.680   6.454  68.351  1.00  0.00    -0.113 C  
HETATM    8  C   UNL     1      -7.527   5.628  69.232  1.00  0.00    -0.079 C  
HETATM    9  C   UNL     1      -7.501   6.106  70.749  1.00  0.00    -0.091 C  
HETATM   10  C   UNL     1      -6.974   5.191  71.832  1.00  0.00    -0.065 C  
HETATM   11  F   UNL     1      -5.623   5.323  71.871  1.00  0.00    -0.013 F  
HETATM   12  C   UNL     1      -7.433   3.752  71.633  1.00  0.00    -0.055 C  
HETATM   13  C   UNL     1      -7.656   2.953  72.674  1.00  0.00    -0.053 C  
HETATM   14  C   UNL     1      -6.252   2.697  73.123  1.00  0.00    -0.009 C  
HETATM   15  O   UNL     1      -6.040   2.535  74.314  1.00  0.00    -0.004 OA 
HETATM   16  C   UNL     1      -5.166   2.560  72.028  1.00  0.00     0.000 C  
HETATM   17  C   UNL     1      -5.509   3.060  70.528  1.00  0.00    -0.012 C  
HETATM   18  C   UNL     1      -7.050   3.136  70.277  1.00  0.00    -0.034 C  
HETATM   19  C   UNL     1      -7.442   1.656  70.033  1.00  0.00    -0.036 C  
HETATM   20  C   UNL     1      -7.844   4.103  69.296  1.00  0.00    -0.057 C  
HETATM   21  C   UNL     1      -8.572   3.724  68.002  1.00  0.00    -0.097 C  
HETATM   22  C   UNL     1     -10.036   4.234  68.267  1.00  0.00    -0.034 C  
HETATM   23  O   UNL     1      -8.543   2.364  67.634  1.00  0.00    -0.086 OA 
HETATM   24  C   UNL     1     -10.078   5.801  68.233  1.00  0.00    -0.208 C  
HETATM   25  H   UNL     1      -8.994   2.129  66.832  1.00  0.00     0.000 HD 
HETATM   26  C   UNL     1     -10.620   5.970  66.711  1.00  0.00    -0.359 C  
HETATM   27  C   UNL     1     -10.817   6.938  69.284  1.00  0.00    -0.237 C  
HETATM   28  O   UNL     1      -9.995   7.591  70.539  1.00  0.00    -0.184 OA 
ENDROOT
BRANCH  27  29
HETATM   29  C   UNL     1     -11.655   6.253  70.368  1.00  0.00    -0.300 C  
HETATM   30  O   UNL     1     -11.229   5.225  70.921  1.00  0.00     0.038 OA 
BRANCH  29  31
HETATM   31  C   UNL     1     -12.846   6.929  71.030  1.00  0.00    -0.152 C  
HETATM   32  O   UNL     1     -12.879   8.332  70.959  1.00  0.00    -0.505 OA 
HETATM   33  H   UNL     1     -13.624   8.755  71.372  1.00  0.00     0.000 HD 
ENDBRANCH  29  31
ENDBRANCH  27  29
TORSDOF 2
ENDMDL
MODEL       87
REMARK 921   NORMALIZED FREE ENERGY PREDICTED BY IDOCK:   -2.05 KCAL/MOL
REMARK 922        TOTAL FREE ENERGY PREDICTED BY IDOCK:   -2.76 KCAL/MOL
REMARK 923 INTER-LIGAND FREE ENERGY PREDICTED BY IDOCK:   -2.41 KCAL/MOL
REMARK 924 INTRA-LIGAND FREE ENERGY PREDICTED BY IDOCK:   -0.35 KCAL/MOL
REMARK 927      BINDING AFFINITY PREDICTED BY RF-SCORE:    0.00 PKD
ROOT
HETATM    1  C   UNL     1      -9.381  11.341  64.057  1.00  0.00    -0.134 C  
HETATM    2  C   UNL     1     -10.210  12.425  64.754  1.00  0.00    -0.279 C  
HETATM    3  O   UNL     1      -9.946  13.701  64.218  1.00  0.00    -0.233 OA 
HETATM    4  C   UNL     1     -11.673  12.043  64.381  1.00  0.00    -0.399 C  
HETATM    5  C   UNL     1     -10.228  14.601  65.282  1.00  0.00    -0.391 C  
HETATM    6  C   UNL     1     -11.849  14.645  65.711  1.00  0.00    -0.274 C  
HETATM    7  C   UNL     1     -11.871  14.207  67.244  1.00  0.00    -0.452 C  
HETATM    8  C   UNL     1     -12.509  13.085  68.306  1.00  0.00     0.451 C  
HETATM    9  C   UNL     1     -11.975  11.620  67.994  1.00  0.00    -0.187 C  
HETATM   10  C   UNL     1     -11.953  10.566  69.078  1.00  0.00    -0.023 C  
HETATM   11  F   UNL     1     -13.186   9.997  69.134  1.00  0.00     1.008 F  
HETATM   12  C   UNL     1     -11.490  11.134  70.413  1.00  0.00    -0.265 C  
HETATM   13  C   UNL     1     -10.809  10.386  71.278  1.00  0.00     0.778 C  
HETATM   14  C   UNL     1     -11.895   9.480  71.766  1.00  0.00    -0.360 C  
HETATM   15  O   UNL     1     -11.605   8.336  72.077  1.00  0.00    -0.294 OA 
HETATM   16  C   UNL     1     -13.309  10.087  71.935  1.00  0.00    -0.516 C  
HETATM   17  C   UNL     1     -13.628  11.514  71.242  1.00  0.00     0.584 C  
HETATM   18  C   UNL     1     -12.323  12.318  70.933  1.00  0.00    -0.363 C  
HETATM   19  C   UNL     1     -11.937  12.908  72.313  1.00  0.00     2.109 C  
HETATM   20  C   UNL     1     -12.065  13.373  69.772  1.00  0.00    -0.374 C  
HETATM   21  C   UNL     1     -11.877  14.887  69.914  1.00  0.00    -0.311 C  
HETATM   22  C   UNL     1     -10.477  15.125  69.241  1.00  0.00    -0.261 C  
HETATM   23  O   UNL     1     -11.934  15.412  71.220  1.00  0.00    -0.306 OA 
HETATM   24  C   UNL     1     -10.584  14.941  67.687  1.00  0.00    -0.264 C  
HETATM   25  H   UNL     1     -11.818  16.351  71.308  1.00  0.00     0.000 HD 
HETATM   26  C   UNL     1     -10.702  16.512  67.291  1.00  0.00    -0.243 C  
HETATM   27  C   UNL     1      -9.588  14.095  66.575  1.00  0.00    -0.296 C  
HETATM   28  O   UNL     1      -9.901  12.540  66.171  1.00  0.00    -0.251 OA 
ENDROOT
BRANCH  27  29
HETATM   29  C   UNL     1      -8.337  13.524  67.248  1.00  0.00    -0.179 C  
HETATM   30  O   UNL     1      -8.219  12.297  67.394  1.00  0.00    -0.159 OA 
BRANCH  29  31
HETATM   31  C   UNL     1      -7.082  14.353  67.478  1.00  0.00    -0.175 C  
HETATM   32  O   UNL     1      -5.858  13.678  67.330  1.00  0.00    -0.352 OA 
HETATM   33  H   UNL     1      -5.074  14.196  67.473  1.00  0.00     0.000 HD 
ENDBRANCH  29  31
ENDBRANCH  27  29
TORSDOF 2
ENDMDL
MODEL       88
REMARK 921   NORMALIZED FREE ENERGY PREDICTED BY IDOCK:   -1.68 KCAL/MOL
REMARK 922        TOTAL FREE ENERGY PREDICTED BY IDOCK:   -2.35 KCAL/MOL
REMARK 923 INTER-LIGAND FREE ENERGY PREDICTED BY IDOCK:   -1.86 KCAL/MOL
REMARK 924 INTRA-LIGAND FREE ENERGY PREDICTED BY IDOCK:   -0.49 KCAL/MOL
REMARK 927      BINDING AFFINITY PREDICTED BY RF-SCORE:    0.00 PKD
ROOT
HETATM    1  C   UNL     1     -10.427  10.141  67.482  1.00  0.00    -0.304 C  
HETATM    2  C   UNL     1     -11.210  11.418  67.160  1.00  0.00    -0.296 C  
HETATM    3  O   UNL     1     -12.254  11.167  66.248  1.00  0.00     0.793 OA 
HETATM    4  C   UNL     1     -11.851  11.793  68.529  1.00  0.00    -0.365 C  
HETATM    5  C   UNL     1     -12.449  12.406  65.578  1.00  0.00    -0.009 C  
HETATM    6  C   UNL     1     -13.034  13.623  66.574  1.00  0.00     0.556 C  
HETATM    7  C   UNL     1     -11.923  14.765  66.509  1.00  0.00    -0.193 C  
HETATM    8  C   UNL     1     -10.887  15.678  67.449  1.00  0.00    -0.315 C  
HETATM    9  C   UNL     1      -9.778  14.772  68.139  1.00  0.00    -0.217 C  
HETATM   10  C   UNL     1      -8.457  15.371  68.569  1.00  0.00    -0.163 C  
HETATM   11  F   UNL     1      -8.627  15.925  69.797  1.00  0.00    -0.229 F  
HETATM   12  C   UNL     1      -7.916  16.352  67.535  1.00  0.00    -0.172 C  
HETATM   13  C   UNL     1      -6.607  16.502  67.352  1.00  0.00    -0.195 C  
HETATM   14  C   UNL     1      -6.242  17.243  68.599  1.00  0.00    -0.169 C  
HETATM   15  O   UNL     1      -5.142  17.051  69.092  1.00  0.00    -0.128 OA 
HETATM   16  C   UNL     1      -7.257  18.282  69.135  1.00  0.00    -0.174 C  
HETATM   17  C   UNL     1      -8.772  18.250  68.567  1.00  0.00    -0.325 C  
HETATM   18  C   UNL     1      -8.864  17.513  67.192  1.00  0.00    -0.246 C  
HETATM   19  C   UNL     1      -8.351  18.576  66.187  1.00  0.00    -0.166 C  
HETATM   20  C   UNL     1     -10.091  16.704  66.586  1.00  0.00    -0.305 C  
HETATM   21  C   UNL     1     -10.976  17.102  65.400  1.00  0.00     0.035 C  
HETATM   22  C   UNL     1     -10.824  15.877  64.428  1.00  0.00     0.137 C  
HETATM   23  O   UNL     1     -10.672  18.323  64.766  1.00  0.00    -0.184 OA 
HETATM   24  C   UNL     1     -11.575  14.628  65.008  1.00  0.00    -0.385 C  
HETATM   25  H   UNL     1     -11.221  18.571  64.032  1.00  0.00     0.000 HD 
HETATM   26  C   UNL     1     -12.935  14.768  64.129  1.00  0.00     0.836 C  
HETATM   27  C   UNL     1     -11.099  12.986  65.156  1.00  0.00    -0.292 C  
HETATM   28  O   UNL     1     -10.386  12.432  66.520  1.00  0.00    -0.224 OA 
ENDROOT
BRANCH  27  29
HETATM   29  C   UNL     1      -9.738  12.725  64.502  1.00  0.00     0.117 C  
HETATM   30  O   UNL     1      -8.704  12.782  65.186  1.00  0.00     1.191 OA 
BRANCH  29  31
HETATM   31  C   UNL     1      -9.602  12.096  63.123  1.00  0.00     0.284 C  
HETATM   32  O   UNL     1     -10.544  11.106  62.798  1.00  0.00    -0.754 OA 
HETATM   33  H   UNL     1     -10.459  10.714  61.937  1.00  0.00     0.000 HD 
ENDBRANCH  29  31
ENDBRANCH  27  29
TORSDOF 2
ENDMDL
MODEL       89
REMARK 921   NORMALIZED FREE ENERGY PREDICTED BY IDOCK:   -1.24 KCAL/MOL
REMARK 922        TOTAL FREE ENERGY PREDICTED BY IDOCK:   -1.85 KCAL/MOL
REMARK 923 INTER-LIGAND FREE ENERGY PREDICTED BY IDOCK:   -2.38 KCAL/MOL
REMARK 924 INTRA-LIGAND FREE ENERGY PREDICTED BY IDOCK:    0.53 KCAL/MOL
REMARK 927      BINDING AFFINITY PREDICTED BY RF-SCORE:    0.00 PKD
ROOT
HETATM    1  C   UNL     1      -8.534   8.798  63.600  1.00  0.00    -0.110 C  
HETATM    2  C   UNL     1      -7.436   7.954  64.257  1.00  0.00    -0.103 C  
HETATM    3  O   UNL     1      -6.920   6.995  63.364  1.00  0.00    -0.052 OA 
HETATM    4  C   UNL     1      -6.315   8.996  64.543  1.00  0.00    -0.071 C  
HETATM    5  C   UNL     1      -6.449   5.945  64.199  1.00  0.00    -0.033 C  
HETATM    6  C   UNL     1      -5.145   6.384  65.158  1.00  0.00    -0.014 C  
HETATM    7  C   UNL     1      -5.653   6.163  66.653  1.00  0.00    -0.013 C  
HETATM    8  C   UNL     1      -5.883   6.938  68.116  1.00  0.00    -0.021 C  
HETATM    9  C   UNL     1      -6.998   8.067  68.006  1.00  0.00    -0.074 C  
HETATM   10  C   UNL     1      -7.758   8.516  69.234  1.00  0.00    -0.093 C  
HETATM   11  F   UNL     1      -7.010   9.455  69.870  1.00  0.00    -0.051 F  
HETATM   12  C   UNL     1      -8.136   7.341  70.128  1.00  0.00    -0.129 C  
HETATM   13  C   UNL     1      -9.257   7.359  70.845  1.00  0.00    -0.154 C  
HETATM   14  C   UNL     1      -8.888   8.353  71.900  1.00  0.00    -0.203 C  
HETATM   15  O   UNL     1      -9.761   9.071  72.358  1.00  0.00    -0.210 OA 
HETATM   16  C   UNL     1      -7.426   8.342  72.411  1.00  0.00    -0.129 C  
HETATM   17  C   UNL     1      -6.309   7.550  71.548  1.00  0.00    -0.035 C  
HETATM   18  C   UNL     1      -6.951   6.484  70.602  1.00  0.00    -0.064 C  
HETATM   19  C   UNL     1      -7.264   5.305  71.558  1.00  0.00    -0.075 C  
HETATM   20  C   UNL     1      -6.412   5.954  69.203  1.00  0.00    -0.042 C  
HETATM   21  C   UNL     1      -5.849   4.564  68.888  1.00  0.00    -0.021 C  
HETATM   22  C   UNL     1      -6.778   4.072  67.719  1.00  0.00    -0.047 C  
HETATM   23  O   UNL     1      -5.804   3.643  69.953  1.00  0.00    -0.017 OA 
HETATM   24  C   UNL     1      -6.465   4.870  66.406  1.00  0.00    -0.041 C  
HETATM   25  H   UNL     1      -5.455   2.781  69.758  1.00  0.00     0.000 HD 
HETATM   26  C   UNL     1      -5.507   3.762  65.703  1.00  0.00    -0.013 C  
HETATM   27  C   UNL     1      -7.502   5.612  65.257  1.00  0.00    -0.074 C  
HETATM   28  O   UNL     1      -7.926   7.186  65.392  1.00  0.00    -0.111 OA 
ENDROOT
BRANCH  27  29
HETATM   29  C   UNL     1      -8.978   5.331  65.554  1.00  0.00    -0.155 C  
HETATM   30  O   UNL     1      -9.767   5.119  64.619  1.00  0.00     0.211 OA 
BRANCH  29  31
HETATM   31  C   UNL     1      -9.480   4.990  66.950  1.00  0.00    -0.142 C  
HETATM   32  O   UNL     1     -10.846   5.219  67.189  1.00  0.00    -0.289 OA 
HETATM   33  H   UNL     1     -11.160   5.006  68.060  1.00  0.00     0.000 HD 
ENDBRANCH  29  31
ENDBRANCH  27  29
TORSDOF 2
ENDMDL
MODEL       90
REMARK 921   NORMALIZED FREE ENERGY PREDICTED BY IDOCK:   -0.83 KCAL/MOL
REMARK 922        TOTAL FREE ENERGY PREDICTED BY IDOCK:   -1.39 KCAL/MOL
REMARK 923 INTER-LIGAND FREE ENERGY PREDICTED BY IDOCK:   -0.97 KCAL/MOL
REMARK 924 INTRA-LIGAND FREE ENERGY PREDICTED BY IDOCK:   -0.43 KCAL/MOL
REMARK 927      BINDING AFFINITY PREDICTED BY RF-SCORE:    0.00 PKD
ROOT
HETATM    1  C   UNL     1     -10.652   1.469  70.845  1.00  0.00     0.891 C  
HETATM    2  C   UNL     1      -9.425   2.344  70.561  1.00  0.00    -0.114 C  
HETATM    3  O   UNL     1      -8.238   1.723  70.997  1.00  0.00    -0.045 OA 
HETATM    4  C   UNL     1      -9.390   2.406  69.005  1.00  0.00    -0.203 C  
HETATM    5  C   UNL     1      -7.352   2.801  71.271  1.00  0.00    -0.033 C  
HETATM    6  C   UNL     1      -6.906   3.667  69.906  1.00  0.00    -0.034 C  
HETATM    7  C   UNL     1      -7.402   5.155  70.193  1.00  0.00    -0.062 C  
HETATM    8  C   UNL     1      -8.370   6.380  69.599  1.00  0.00    -0.126 C  
HETATM    9  C   UNL     1      -9.905   5.968  69.614  1.00  0.00    -0.205 C  
HETATM   10  C   UNL     1     -10.984   7.027  69.654  1.00  0.00    -0.236 C  
HETATM   11  F   UNL     1     -11.211   7.442  68.380  1.00  0.00    -0.085 F  
HETATM   12  C   UNL     1     -10.627   8.165  70.603  1.00  0.00    -0.229 C  
HETATM   13  C   UNL     1     -11.572   8.822  71.272  1.00  0.00    -0.353 C  
HETATM   14  C   UNL     1     -12.185   9.618  70.163  1.00  0.00     0.184 C  
HETATM   15  O   UNL     1     -13.379   9.863  70.211  1.00  0.00     0.049 OA 
HETATM   16  C   UNL     1     -11.236  10.162  69.066  1.00  0.00    -0.223 C  
HETATM   17  C   UNL     1      -9.742   9.550  68.960  1.00  0.00    -0.170 C  
HETATM   18  C   UNL     1      -9.295   8.868  70.294  1.00  0.00    -0.208 C  
HETATM   19  C   UNL     1      -8.900  10.069  71.190  1.00  0.00     1.560 C  
HETATM   20  C   UNL     1      -8.286   7.655  70.492  1.00  0.00    -0.121 C  
HETATM   21  C   UNL     1      -6.884   7.701  71.109  1.00  0.00    -0.049 C  
HETATM   22  C   UNL     1      -6.987   6.656  72.279  1.00  0.00    -0.068 C  
HETATM   23  O   UNL     1      -6.431   8.957  71.558  1.00  0.00    -0.069 OA 
HETATM   24  C   UNL     1      -7.056   5.200  71.700  1.00  0.00    -0.066 C  
HETATM   25  H   UNL     1      -5.561   8.986  71.940  1.00  0.00     0.000 HD 
HETATM   26  C   UNL     1      -5.491   4.814  71.901  1.00  0.00    -0.004 C  
HETATM   27  C   UNL     1      -8.075   3.874  72.085  1.00  0.00    -0.084 C  
HETATM   28  O   UNL     1      -9.470   3.614  71.270  1.00  0.00    -0.136 OA 
ENDROOT
BRANCH  27  29
HETATM   29  C   UNL     1      -8.989   4.184  73.275  1.00  0.00    -0.104 C  
HETATM   30  O   UNL     1      -8.628   3.888  74.425  1.00  0.00    -0.094 OA 
BRANCH  29  31
HETATM   31  C   UNL     1     -10.189   5.114  73.163  1.00  0.00    -0.183 C  
HETATM   32  O   UNL     1     -10.753   5.544  74.376  1.00  0.00    -0.346 OA 
HETATM   33  H   UNL     1     -11.502   6.125  74.307  1.00  0.00     0.000 HD 
ENDBRANCH  29  31
ENDBRANCH  27  29
TORSDOF 2
ENDMDL
MODEL       91
REMARK 921   NORMALIZED FREE ENERGY PREDICTED BY IDOCK:   -0.64 KCAL/MOL
REMARK 922        TOTAL FREE ENERGY PREDICTED BY IDOCK:   -1.18 KCAL/MOL
REMARK 923 INTER-LIGAND FREE ENERGY PREDICTED BY IDOCK:   -0.90 KCAL/MOL
REMARK 924 INTRA-LIGAND FREE ENERGY PREDICTED BY IDOCK:   -0.28 KCAL/MOL
REMARK 927      BINDING AFFINITY PREDICTED BY RF-SCORE:    0.00 PKD
ROOT
HETATM    1  C   UNL     1      -6.221  10.575  69.040  1.00  0.00    -0.044 C  
HETATM    2  C   UNL     1      -6.516   9.598  67.897  1.00  0.00    -0.061 C  
HETATM    3  O   UNL     1      -6.882  10.279  66.719  1.00  0.00    -0.082 OA 
HETATM    4  C   UNL     1      -5.137   8.919  67.649  1.00  0.00    -0.034 C  
HETATM    5  C   UNL     1      -7.702   9.356  66.013  1.00  0.00    -0.099 C  
HETATM    6  C   UNL     1      -6.876   7.996  65.482  1.00  0.00    -0.059 C  
HETATM    7  C   UNL     1      -7.622   6.774  66.185  1.00  0.00    -0.086 C  
HETATM    8  C   UNL     1      -7.385   5.464  67.195  1.00  0.00    -0.083 C  
HETATM    9  C   UNL     1      -6.969   5.927  68.659  1.00  0.00    -0.072 C  
HETATM   10  C   UNL     1      -7.222   5.028  69.848  1.00  0.00    -0.055 C  
HETATM   11  F   UNL     1      -6.188   4.152  69.939  1.00  0.00    -0.023 F  
HETATM   12  C   UNL     1      -8.583   4.347  69.765  1.00  0.00    -0.098 C  
HETATM   13  C   UNL     1      -9.275   4.062  70.865  1.00  0.00    -0.203 C  
HETATM   14  C   UNL     1      -8.469   2.922  71.404  1.00  0.00    -0.064 C  
HETATM   15  O   UNL     1      -8.396   2.778  72.613  1.00  0.00    -0.068 OA 
HETATM   16  C   UNL     1      -7.852   1.937  70.380  1.00  0.00    -0.047 C  
HETATM   17  C   UNL     1      -7.784   2.378  68.824  1.00  0.00    -0.051 C  
HETATM   18  C   UNL     1      -8.809   3.512  68.494  1.00  0.00    -0.160 C  
HETATM   19  C   UNL     1     -10.153   2.750  68.373  1.00  0.00     1.024 C  
HETATM   20  C   UNL     1      -8.699   4.649  67.388  1.00  0.00    -0.105 C  
HETATM   21  C   UNL     1      -9.523   4.781  66.103  1.00  0.00    -0.163 C  
HETATM   22  C   UNL     1     -10.162   6.210  66.248  1.00  0.00    -0.013 C  
HETATM   23  O   UNL     1     -10.493   3.787  65.868  1.00  0.00    -0.361 OA 
HETATM   24  C   UNL     1      -9.066   7.316  66.063  1.00  0.00    -0.117 C  
HETATM   25  H   UNL     1     -11.004   3.869  65.071  1.00  0.00     0.000 HD 
HETATM   26  C   UNL     1      -9.375   7.669  64.508  1.00  0.00     1.705 C  
HETATM   27  C   UNL     1      -8.724   8.735  66.965  1.00  0.00    -0.123 C  
HETATM   28  O   UNL     1      -7.639   8.721  68.189  1.00  0.00    -0.094 OA 
ENDROOT
BRANCH  27  29
HETATM   29  C   UNL     1      -9.760   8.974  68.068  1.00  0.00    -0.155 C  
HETATM   30  O   UNL     1      -9.901   8.138  68.974  1.00  0.00    -0.168 OA 
BRANCH  29  31
HETATM   31  C   UNL     1     -10.418  10.328  68.292  1.00  0.00    -0.199 C  
HETATM   32  O   UNL     1     -11.823  10.345  68.265  1.00  0.00    -0.747 OA 
HETATM   33  H   UNL     1     -12.234  11.190  68.406  1.00  0.00     0.000 HD 
ENDBRANCH  29  31
ENDBRANCH  27  29
TORSDOF 2
ENDMDL
MODEL       92
REMARK 921   NORMALIZED FREE ENERGY PREDICTED BY IDOCK:    0.43 KCAL/MOL
REMARK 922        TOTAL FREE ENERGY PREDICTED BY IDOCK:    0.01 KCAL/MOL
REMARK 923 INTER-LIGAND FREE ENERGY PREDICTED BY IDOCK:    0.44 KCAL/MOL
REMARK 924 INTRA-LIGAND FREE ENERGY PREDICTED BY IDOCK:   -0.44 KCAL/MOL
REMARK 927      BINDING AFFINITY PREDICTED BY RF-SCORE:    0.00 PKD
ROOT
HETATM    1  C   UNL     1      -9.117  18.014  69.166  1.00  0.00     0.084 C  
HETATM    2  C   UNL     1      -8.634  16.572  69.357  1.00  0.00     0.080 C  
HETATM    3  O   UNL     1      -7.422  16.525  70.073  1.00  0.00     0.471 OA 
HETATM    4  C   UNL     1      -9.744  15.945  70.252  1.00  0.00     0.485 C  
HETATM    5  C   UNL     1      -6.797  15.324  69.639  1.00  0.00    -0.187 C  
HETATM    6  C   UNL     1      -7.620  13.936  70.098  1.00  0.00     1.156 C  
HETATM    7  C   UNL     1      -7.981  13.210  68.726  1.00  0.00     0.050 C  
HETATM    8  C   UNL     1      -9.255  12.626  67.816  1.00  0.00    -0.195 C  
HETATM    9  C   UNL     1     -10.213  13.801  67.335  1.00  0.00    -0.252 C  
HETATM   10  C   UNL     1     -11.077  13.631  66.106  1.00  0.00    -0.295 C  
HETATM   11  F   UNL     1     -12.216  12.991  66.480  1.00  0.00    -0.432 F  
HETATM   12  C   UNL     1     -10.331  12.926  64.980  1.00  0.00    -0.334 C  
HETATM   13  C   UNL     1     -10.587  13.208  63.705  1.00  0.00    -0.040 C  
HETATM   14  C   UNL     1     -11.926  12.559  63.548  1.00  0.00    -0.543 C  
HETATM   15  O   UNL     1     -12.734  13.065  62.787  1.00  0.00    -0.147 OA 
HETATM   16  C   UNL     1     -12.166  11.226  64.299  1.00  0.00     0.648 C  
HETATM   17  C   UNL     1     -11.140  10.805  65.477  1.00  0.00     0.164 C  
HETATM   18  C   UNL     1      -9.768  11.543  65.348  1.00  0.00    -0.262 C  
HETATM   19  C   UNL     1      -9.044  10.750  64.230  1.00  0.00    -0.216 C  
HETATM   20  C   UNL     1      -8.754  11.951  66.503  1.00  0.00    -0.158 C  
HETATM   21  C   UNL     1      -7.372  11.353  66.784  1.00  0.00    -0.135 C  
HETATM   22  C   UNL     1      -6.432  12.611  66.721  1.00  0.00     0.654 C  
HETATM   23  O   UNL     1      -6.941  10.324  65.923  1.00  0.00    -0.112 OA 
HETATM   24  C   UNL     1      -6.666  13.525  67.974  1.00  0.00    -0.138 C  
HETATM   25  H   UNL     1      -6.084   9.953  66.097  1.00  0.00     0.000 HD 
HETATM   26  C   UNL     1      -5.407  13.006  68.859  1.00  0.00    -0.071 C  
HETATM   27  C   UNL     1      -6.865  15.224  68.115  1.00  0.00    -0.129 C  
HETATM   28  O   UNL     1      -8.352  15.907  68.095  1.00  0.00    -0.157 OA 
ENDROOT
BRANCH  27  29
HETATM   29  C   UNL     1      -6.670  15.935  66.773  1.00  0.00     0.258 C  
HETATM   30  O   UNL     1      -7.620  16.029  65.979  1.00  0.00     0.254 OA 
BRANCH  29  31
HETATM   31  C   UNL     1      -5.459  16.808  66.479  1.00  0.00     0.121 C  
HETATM   32  O   UNL     1      -5.707  17.991  65.762  1.00  0.00    -0.177 OA 
HETATM   33  H   UNL     1      -4.951  18.536  65.579  1.00  0.00     0.000 HD 
ENDBRANCH  29  31
ENDBRANCH  27  29
TORSDOF 2
ENDMDL
MODEL       93
REMARK 921   NORMALIZED FREE ENERGY PREDICTED BY IDOCK:    0.58 KCAL/MOL
REMARK 922        TOTAL FREE ENERGY PREDICTED BY IDOCK:    0.18 KCAL/MOL
REMARK 923 INTER-LIGAND FREE ENERGY PREDICTED BY IDOCK:    0.79 KCAL/MOL
REMARK 924 INTRA-LIGAND FREE ENERGY PREDICTED BY IDOCK:   -0.61 KCAL/MOL
REMARK 927      BINDING AFFINITY PREDICTED BY RF-SCORE:    0.00 PKD
ROOT
HETATM    1  C   UNL     1     -10.397   5.584  63.949  1.00  0.00     2.613 C  
HETATM    2  C   UNL     1      -9.077   6.326  64.190  1.00  0.00     1.024 C  
HETATM    3  O   UNL     1      -8.005   5.428  64.359  1.00  0.00    -0.103 OA 
HETATM    4  C   UNL     1      -8.854   7.091  62.852  1.00  0.00     0.766 C  
HETATM    5  C   UNL     1      -7.071   6.135  65.165  1.00  0.00    -0.064 C  
HETATM    6  C   UNL     1      -6.397   7.467  64.399  1.00  0.00    -0.041 C  
HETATM    7  C   UNL     1      -6.799   8.705  65.319  1.00  0.00    -0.071 C  
HETATM    8  C   UNL     1      -7.585  10.180  65.309  1.00  0.00    -0.144 C  
HETATM    9  C   UNL     1      -9.141  10.007  65.029  1.00  0.00    -0.255 C  
HETATM   10  C   UNL     1     -10.124  11.058  65.492  1.00  0.00    -0.261 C  
HETATM   11  F   UNL     1     -10.165  12.037  64.551  1.00  0.00    -0.269 F  
HETATM   12  C   UNL     1      -9.789  11.575  66.886  1.00  0.00    -0.220 C  
HETATM   13  C   UNL     1     -10.748  11.966  67.722  1.00  0.00    -0.243 C  
HETATM   14  C   UNL     1     -11.158  13.254  67.081  1.00  0.00    -0.286 C  
HETATM   15  O   UNL     1     -12.325  13.600  67.160  1.00  0.00    -0.336 OA 
HETATM   16  C   UNL     1     -10.046  14.115  66.433  1.00  0.00    -0.299 C  
HETATM   17  C   UNL     1      -8.605  13.435  66.149  1.00  0.00     0.709 C  
HETATM   18  C   UNL     1      -8.375  12.164  67.031  1.00  0.00    -0.173 C  
HETATM   19  C   UNL     1      -7.990  12.757  68.410  1.00  0.00    -0.137 C  
HETATM   20  C   UNL     1      -7.501  10.879  66.700  1.00  0.00    -0.139 C  
HETATM   21  C   UNL     1      -6.182  10.455  67.356  1.00  0.00    -0.057 C  
HETATM   22  C   UNL     1      -6.508   9.012  67.888  1.00  0.00    -0.057 C  
HETATM   23  O   UNL     1      -5.682  11.294  68.371  1.00  0.00    -0.043 OA 
HETATM   24  C   UNL     1      -6.629   8.008  66.690  1.00  0.00    -0.056 C  
HETATM   25  H   UNL     1      -4.865  11.032  68.778  1.00  0.00     0.000 HD 
HETATM   26  C   UNL     1      -5.136   7.376  66.786  1.00  0.00    -0.023 C  
HETATM   27  C   UNL     1      -7.793   6.797  66.339  1.00  0.00    -0.104 C  
HETATM   28  O   UNL     1      -9.099   7.121  65.408  1.00  0.00     0.106 OA 
ENDROOT
BRANCH  27  29
HETATM   29  C   UNL     1      -8.812   6.638  67.472  1.00  0.00    -0.116 C  
HETATM   30  O   UNL     1      -8.460   6.142  68.554  1.00  0.00    -0.113 OA 
BRANCH  29  31
HETATM   31  C   UNL     1     -10.164   7.337  67.459  1.00  0.00    -0.221 C  
HETATM   32  O   UNL     1     -11.273   6.532  67.151  1.00  0.00    -0.596 OA 
HETATM   33  H   UNL     1     -12.118   6.968  67.144  1.00  0.00     0.000 HD 
ENDBRANCH  29  31
ENDBRANCH  27  29
TORSDOF 2
ENDMDL
MODEL       94
REMARK 921   NORMALIZED FREE ENERGY PREDICTED BY IDOCK:    0.93 KCAL/MOL
REMARK 922        TOTAL FREE ENERGY PREDICTED BY IDOCK:    0.57 KCAL/MOL
REMARK 923 INTER-LIGAND FREE ENERGY PREDICTED BY IDOCK:    0.06 KCAL/MOL
REMARK 924 INTRA-LIGAND FREE ENERGY PREDICTED BY IDOCK:    0.51 KCAL/MOL
REMARK 927      BINDING AFFINITY PREDICTED BY RF-SCORE:    0.00 PKD
ROOT
HETATM    1  C   UNL     1      -5.324  14.603  69.463  1.00  0.00    -0.091 C  
HETATM    2  C   UNL     1      -6.095  13.282  69.550  1.00  0.00    -0.112 C  
HETATM    3  O   UNL     1      -5.267  12.231  69.992  1.00  0.00    -0.076 OA 
HETATM    4  C   UNL     1      -7.148  13.562  70.663  1.00  0.00     1.691 C  
HETATM    5  C   UNL     1      -5.852  11.059  69.438  1.00  0.00    -0.046 C  
HETATM    6  C   UNL     1      -7.367  10.704  70.066  1.00  0.00     0.013 C  
HETATM    7  C   UNL     1      -8.341  10.726  68.804  1.00  0.00    -0.147 C  
HETATM    8  C   UNL     1      -9.716  11.448  68.188  1.00  0.00    -0.194 C  
HETATM    9  C   UNL     1      -9.489  12.998  67.919  1.00  0.00    -0.219 C  
HETATM   10  C   UNL     1     -10.335  13.732  66.903  1.00  0.00    -0.266 C  
HETATM   11  F   UNL     1     -11.489  14.109  67.512  1.00  0.00    -0.291 F  
HETATM   12  C   UNL     1     -10.561  12.901  65.646  1.00  0.00    -0.295 C  
HETATM   13  C   UNL     1     -10.684  13.480  64.454  1.00  0.00    -0.402 C  
HETATM   14  C   UNL     1     -12.045  14.087  64.588  1.00  0.00    -0.440 C  
HETATM   15  O   UNL     1     -12.275  15.139  64.015  1.00  0.00    -0.621 OA 
HETATM   16  C   UNL     1     -13.110  13.285  65.376  1.00  0.00     0.038 C  
HETATM   17  C   UNL     1     -12.622  12.057  66.310  1.00  0.00     1.622 C  
HETATM   18  C   UNL     1     -11.211  11.529  65.890  1.00  0.00    -0.239 C  
HETATM   19  C   UNL     1     -11.517  10.656  64.645  1.00  0.00     1.368 C  
HETATM   20  C   UNL     1     -10.100  10.850  66.801  1.00  0.00    -0.259 C  
HETATM   21  C   UNL     1      -9.647   9.386  66.782  1.00  0.00    -0.179 C  
HETATM   22  C   UNL     1      -8.102   9.505  66.517  1.00  0.00    -0.112 C  
HETATM   23  O   UNL     1     -10.281   8.539  65.852  1.00  0.00    -0.367 OA 
HETATM   24  C   UNL     1      -7.377  10.069  67.788  1.00  0.00    -0.089 C  
HETATM   25  H   UNL     1     -10.001   7.631  65.840  1.00  0.00     0.000 HD 
HETATM   26  C   UNL     1      -6.856   8.651  68.386  1.00  0.00    -0.065 C  
HETATM   27  C   UNL     1      -6.185  11.291  67.964  1.00  0.00    -0.049 C  
HETATM   28  O   UNL     1      -6.602  12.845  68.259  1.00  0.00    -0.075 OA 
ENDROOT
BRANCH  27  29
HETATM   29  C   UNL     1      -5.705  11.820  66.609  1.00  0.00    -0.057 C  
HETATM   30  O   UNL     1      -5.209  12.955  66.530  1.00  0.00     0.360 OA 
BRANCH  29  31
HETATM   31  C   UNL     1      -5.519  10.917  65.398  1.00  0.00    -0.094 C  
HETATM   32  O   UNL     1      -5.235  11.562  64.183  1.00  0.00    -0.245 OA 
HETATM   33  H   UNL     1      -5.118  10.999  63.427  1.00  0.00     0.000 HD 
ENDBRANCH  29  31
ENDBRANCH  27  29
TORSDOF 2
ENDMDL
MODEL       95
REMARK 921   NORMALIZED FREE ENERGY PREDICTED BY IDOCK:    1.26 KCAL/MOL
REMARK 922        TOTAL FREE ENERGY PREDICTED BY IDOCK:    0.94 KCAL/MOL
REMARK 923 INTER-LIGAND FREE ENERGY PREDICTED BY IDOCK:    0.51 KCAL/MOL
REMARK 924 INTRA-LIGAND FREE ENERGY PREDICTED BY IDOCK:    0.44 KCAL/MOL
REMARK 927      BINDING AFFINITY PREDICTED BY RF-SCORE:    0.00 PKD
ROOT
HETATM    1  C   UNL     1      -8.117   8.087  68.119  1.00  0.00    -0.129 C  
HETATM    2  C   UNL     1      -7.749   9.430  67.478  1.00  0.00    -0.091 C  
HETATM    3  O   UNL     1      -6.400   9.454  67.072  1.00  0.00    -0.064 OA 
HETATM    4  C   UNL     1      -8.635   9.464  66.198  1.00  0.00    -0.147 C  
HETATM    5  C   UNL     1      -6.039  10.829  67.114  1.00  0.00    -0.063 C  
HETATM    6  C   UNL     1      -6.844  11.769  65.982  1.00  0.00     0.741 C  
HETATM    7  C   UNL     1      -7.631  12.853  66.847  1.00  0.00     0.198 C  
HETATM    8  C   UNL     1      -9.155  13.462  67.163  1.00  0.00    -0.235 C  
HETATM    9  C   UNL     1     -10.083  12.374  67.858  1.00  0.00    -0.208 C  
HETATM   10  C   UNL     1     -11.258  12.800  68.710  1.00  0.00    -0.283 C  
HETATM   11  F   UNL     1     -12.313  13.027  67.885  1.00  0.00    -0.323 F  
HETATM   12  C   UNL     1     -10.916  13.994  69.593  1.00  0.00    -0.087 C  
HETATM   13  C   UNL     1     -11.475  14.143  70.791  1.00  0.00    -0.005 C  
HETATM   14  C   UNL     1     -12.866  14.528  70.395  1.00  0.00    -0.262 C  
HETATM   15  O   UNL     1     -13.793  14.182  71.108  1.00  0.00    -0.251 OA 
HETATM   16  C   UNL     1     -13.028  15.429  69.146  1.00  0.00     0.887 C  
HETATM   17  C   UNL     1     -11.772  15.593  68.139  1.00  0.00    -0.209 C  
HETATM   18  C   UNL     1     -10.417  15.235  68.833  1.00  0.00    -0.241 C  
HETATM   19  C   UNL     1     -10.103  16.501  69.670  1.00  0.00    -0.100 C  
HETATM   20  C   UNL     1      -9.096  14.647  68.174  1.00  0.00    -0.187 C  
HETATM   21  C   UNL     1      -7.756  15.364  67.974  1.00  0.00    -0.125 C  
HETATM   22  C   UNL     1      -6.745  14.423  68.725  1.00  0.00    -0.093 C  
HETATM   23  O   UNL     1      -7.677  16.696  68.427  1.00  0.00    -0.182 OA 
HETATM   24  C   UNL     1      -6.542  13.093  67.918  1.00  0.00    -0.137 C  
HETATM   25  H   UNL     1      -6.847  17.141  68.303  1.00  0.00     0.000 HD 
HETATM   26  C   UNL     1      -5.150  13.497  67.184  1.00  0.00     0.622 C  
HETATM   27  C   UNL     1      -6.523  11.453  68.423  1.00  0.00    -0.050 C  
HETATM   28  O   UNL     1      -7.885  10.546  68.402  1.00  0.00    -0.101 OA 
ENDROOT
BRANCH  27  29
HETATM   29  C   UNL     1      -6.625  11.323  69.946  1.00  0.00    -0.108 C  
HETATM   30  O   UNL     1      -7.106  10.295  70.448  1.00  0.00    -0.241 OA 
BRANCH  29  31
HETATM   31  C   UNL     1      -5.887  12.255  70.896  1.00  0.00     0.099 C  
HETATM   32  O   UNL     1      -6.510  12.498  72.132  1.00  0.00     1.882 OA 
HETATM   33  H   UNL     1      -6.049  13.079  72.726  1.00  0.00     0.000 HD 
ENDBRANCH  29  31
ENDBRANCH  27  29
TORSDOF 2
ENDMDL
MODEL       96
REMARK 921   NORMALIZED FREE ENERGY PREDICTED BY IDOCK:    2.24 KCAL/MOL
REMARK 922        TOTAL FREE ENERGY PREDICTED BY IDOCK:    2.03 KCAL/MOL
REMARK 923 INTER-LIGAND FREE ENERGY PREDICTED BY IDOCK:    1.42 KCAL/MOL
REMARK 924 INTRA-LIGAND FREE ENERGY PREDICTED BY IDOCK:    0.61 KCAL/MOL
REMARK 927      BINDING AFFINITY PREDICTED BY RF-SCORE:    0.00 PKD
ROOT
HETATM    1  C   UNL     1      -9.334  20.782  66.064  1.00  0.00     0.413 C  
HETATM    2  C   UNL     1      -8.425  19.736  66.718  1.00  0.00    -0.321 C  
HETATM    3  O   UNL     1      -7.238  19.552  65.981  1.00  0.00    -0.257 OA 
HETATM    4  C   UNL     1      -8.047  20.397  68.076  1.00  0.00    -0.085 C  
HETATM    5  C   UNL     1      -6.837  18.220  66.277  1.00  0.00    -0.240 C  
HETATM    6  C   UNL     1      -6.387  17.994  67.877  1.00  0.00    -0.181 C  
HETATM    7  C   UNL     1      -7.389  16.881  68.423  1.00  0.00    -0.202 C  
HETATM    8  C   UNL     1      -8.532  16.573  69.602  1.00  0.00     0.499 C  
HETATM    9  C   UNL     1      -9.811  17.502  69.429  1.00  0.00     0.060 C  
HETATM   10  C   UNL     1     -11.151  17.074  69.985  1.00  0.00     0.427 C  
HETATM   11  F   UNL     1     -11.194  17.430  71.295  1.00  0.00     0.148 F  
HETATM   12  C   UNL     1     -11.413  15.591  69.754  1.00  0.00    -0.339 C  
HETATM   13  C   UNL     1     -12.648  15.135  69.558  1.00  0.00    -0.024 C  
HETATM   14  C   UNL     1     -13.207  15.266  70.940  1.00  0.00    -0.450 C  
HETATM   15  O   UNL     1     -14.392  15.524  71.069  1.00  0.00    -0.462 OA 
HETATM   16  C   UNL     1     -12.255  14.969  72.126  1.00  0.00    -0.446 C  
HETATM   17  C   UNL     1     -10.663  14.909  71.845  1.00  0.00     1.002 C  
HETATM   18  C   UNL     1     -10.345  14.650  70.337  1.00  0.00     0.459 C  
HETATM   19  C   UNL     1     -10.581  13.125  70.183  1.00  0.00     1.497 C  
HETATM   20  C   UNL     1      -9.076  15.116  69.501  1.00  0.00    -0.131 C  
HETATM   21  C   UNL     1      -7.950  14.235  68.949  1.00  0.00    -0.080 C  
HETATM   22  C   UNL     1      -7.982  14.558  67.410  1.00  0.00    -0.221 C  
HETATM   23  O   UNL     1      -8.044  12.853  69.203  1.00  0.00    -0.305 OA 
HETATM   24  C   UNL     1      -7.440  16.006  67.149  1.00  0.00    -0.253 C  
HETATM   25  H   UNL     1      -7.346  12.307  68.861  1.00  0.00     0.000 HD 
HETATM   26  C   UNL     1      -5.927  15.596  66.721  1.00  0.00     0.930 C  
HETATM   27  C   UNL     1      -8.038  17.280  66.167  1.00  0.00    -0.237 C  
HETATM   28  O   UNL     1      -9.041  18.419  66.776  1.00  0.00    -0.275 OA 
ENDROOT
BRANCH  27  29
HETATM   29  C   UNL     1      -9.255  16.844  65.345  1.00  0.00     0.901 C  
HETATM   30  O   UNL     1      -9.360  15.664  64.974  1.00  0.00     0.045 OA 
BRANCH  29  31
HETATM   31  C   UNL     1     -10.503  17.705  65.214  1.00  0.00     0.263 C  
HETATM   32  O   UNL     1     -11.583  17.129  64.524  1.00  0.00    -0.713 OA 
HETATM   33  H   UNL     1     -12.362  17.666  64.442  1.00  0.00     0.000 HD 
ENDBRANCH  29  31
ENDBRANCH  27  29
TORSDOF 2
ENDMDL
MODEL       97
REMARK 921   NORMALIZED FREE ENERGY PREDICTED BY IDOCK:    3.08 KCAL/MOL
REMARK 922        TOTAL FREE ENERGY PREDICTED BY IDOCK:    2.98 KCAL/MOL
REMARK 923 INTER-LIGAND FREE ENERGY PREDICTED BY IDOCK:    3.47 KCAL/MOL
REMARK 924 INTRA-LIGAND FREE ENERGY PREDICTED BY IDOCK:   -0.49 KCAL/MOL
REMARK 927      BINDING AFFINITY PREDICTED BY RF-SCORE:    0.00 PKD
ROOT
HETATM    1  C   UNL     1      -7.099   7.601  71.180  1.00  0.00    -0.054 C  
HETATM    2  C   UNL     1      -6.817   8.921  70.453  1.00  0.00    -0.049 C  
HETATM    3  O   UNL     1      -6.888  10.019  71.332  1.00  0.00    -0.272 OA 
HETATM    4  C   UNL     1      -5.335   8.764  70.001  1.00  0.00    -0.028 C  
HETATM    5  C   UNL     1      -7.246  11.118  70.503  1.00  0.00     1.435 C  
HETATM    6  C   UNL     1      -6.060  11.535  69.393  1.00  0.00    -0.085 C  
HETATM    7  C   UNL     1      -6.763  11.365  67.971  1.00  0.00    -0.059 C  
HETATM    8  C   UNL     1      -6.642  10.572  66.506  1.00  0.00    -0.100 C  
HETATM    9  C   UNL     1      -6.826   9.002  66.677  1.00  0.00    -0.080 C  
HETATM   10  C   UNL     1      -7.293   8.153  65.516  1.00  0.00    -0.072 C  
HETATM   11  F   UNL     1      -6.207   7.843  64.761  1.00  0.00    -0.046 F  
HETATM   12  C   UNL     1      -8.402   8.835  64.724  1.00  0.00    -0.177 C  
HETATM   13  C   UNL     1      -9.356   8.124  64.128  1.00  0.00     1.690 C  
HETATM   14  C   UNL     1      -8.583   7.530  62.994  1.00  0.00     0.380 C  
HETATM   15  O   UNL     1      -8.890   6.418  62.596  1.00  0.00     0.230 OA 
HETATM   16  C   UNL     1      -7.494   8.411  62.333  1.00  0.00    -0.103 C  
HETATM   17  C   UNL     1      -6.995   9.740  63.111  1.00  0.00    -0.114 C  
HETATM   18  C   UNL     1      -8.038  10.223  64.170  1.00  0.00    -0.138 C  
HETATM   19  C   UNL     1      -9.105  10.947  63.310  1.00  0.00    -0.252 C  
HETATM   20  C   UNL     1      -7.776  11.006  65.528  1.00  0.00     0.153 C  
HETATM   21  C   UNL     1      -8.136  12.461  65.849  1.00  0.00     1.153 C  
HETATM   22  C   UNL     1      -9.034  12.319  67.132  1.00  0.00    -0.192 C  
HETATM   23  O   UNL     1      -8.777  13.194  64.831  1.00  0.00     1.288 OA 
HETATM   24  C   UNL     1      -8.157  11.907  68.365  1.00  0.00    -0.155 C  
HETATM   25  H   UNL     1      -9.000  14.095  65.030  1.00  0.00     0.000 HD 
HETATM   26  C   UNL     1      -7.992  13.386  69.016  1.00  0.00     0.231 C  
HETATM   27  C   UNL     1      -8.397  10.719  69.579  1.00  0.00     0.082 C  
HETATM   28  O   UNL     1      -7.795   9.206  69.414  1.00  0.00    -0.089 OA 
ENDROOT
BRANCH  27  29
HETATM   29  C   UNL     1      -9.765  10.041  69.453  1.00  0.00    -0.225 C  
HETATM   30  O   UNL     1     -10.773  10.590  69.925  1.00  0.00    -0.267 OA 
BRANCH  29  31
HETATM   31  C   UNL     1     -10.014   8.872  68.510  1.00  0.00    -0.177 C  
HETATM   32  O   UNL     1     -11.189   8.936  67.743  1.00  0.00    -0.442 OA 
HETATM   33  H   UNL     1     -11.344   8.207  67.153  1.00  0.00     0.000 HD 
ENDBRANCH  29  31
ENDBRANCH  27  29
TORSDOF 2
ENDMDL
MODEL       98
REMARK 921   NORMALIZED FREE ENERGY PREDICTED BY IDOCK:    4.37 KCAL/MOL
REMARK 922        TOTAL FREE ENERGY PREDICTED BY IDOCK:    4.41 KCAL/MOL
REMARK 923 INTER-LIGAND FREE ENERGY PREDICTED BY IDOCK:    4.89 KCAL/MOL
REMARK 924 INTRA-LIGAND FREE ENERGY PREDICTED BY IDOCK:   -0.48 KCAL/MOL
REMARK 927      BINDING AFFINITY PREDICTED BY RF-SCORE:    0.00 PKD
ROOT
HETATM    1  C   UNL     1     -10.123   6.997  68.591  1.00  0.00    -0.168 C  
HETATM    2  C   UNL     1      -9.959   7.939  67.393  1.00  0.00    -0.198 C  
HETATM    3  O   UNL     1      -9.116   7.382  66.412  1.00  0.00    -0.152 OA 
HETATM    4  C   UNL     1     -11.399   8.011  66.803  1.00  0.00     1.662 C  
HETATM    5  C   UNL     1      -8.557   8.506  65.743  1.00  0.00    -0.168 C  
HETATM    6  C   UNL     1      -9.683   9.402  64.881  1.00  0.00     0.068 C  
HETATM    7  C   UNL     1      -9.617  10.859  65.526  1.00  0.00    -0.266 C  
HETATM    8  C   UNL     1     -10.538  12.032  66.278  1.00  0.00    -0.287 C  
HETATM    9  C   UNL     1     -11.070  11.536  67.692  1.00  0.00    -0.324 C  
HETATM   10  C   UNL     1     -11.438  12.534  68.766  1.00  0.00    -0.310 C  
HETATM   11  F   UNL     1     -12.714  12.942  68.541  1.00  0.00     0.149 F  
HETATM   12  C   UNL     1     -10.442  13.685  68.837  1.00  0.00    -0.167 C  
HETATM   13  C   UNL     1     -10.168  14.285  69.993  1.00  0.00     0.649 C  
HETATM   14  C   UNL     1     -11.435  15.052  70.206  1.00  0.00    -0.269 C  
HETATM   15  O   UNL     1     -11.824  15.230  71.348  1.00  0.00    -0.308 OA 
HETATM   16  C   UNL     1     -12.124  15.653  68.957  1.00  0.00    -0.227 C  
HETATM   17  C   UNL     1     -11.676  15.125  67.494  1.00  0.00    -0.214 C  
HETATM   18  C   UNL     1     -10.261  14.461  67.522  1.00  0.00    -0.240 C  
HETATM   19  C   UNL     1      -9.300  15.678  67.541  1.00  0.00    -0.206 C  
HETATM   20  C   UNL     1      -9.694  13.305  66.589  1.00  0.00    -0.270 C  
HETATM   21  C   UNL     1      -8.614  13.425  65.509  1.00  0.00     1.997 C  
HETATM   22  C   UNL     1      -7.545  12.370  65.971  1.00  0.00     1.457 C  
HETATM   23  O   UNL     1      -8.051  14.702  65.315  1.00  0.00     3.076 OA 
HETATM   24  C   UNL     1      -8.087  10.916  65.749  1.00  0.00    -0.094 C  
HETATM   25  H   UNL     1      -7.382  14.776  64.645  1.00  0.00     0.000 HD 
HETATM   26  C   UNL     1      -7.330  10.615  64.343  1.00  0.00     0.213 C  
HETATM   27  C   UNL     1      -8.075   9.534  66.767  1.00  0.00    -0.109 C  
HETATM   28  O   UNL     1      -9.334   9.201  67.757  1.00  0.00    -0.136 OA 
ENDROOT
BRANCH  27  29
HETATM   29  C   UNL     1      -7.299   9.786  68.063  1.00  0.00    -0.081 C  
HETATM   30  O   UNL     1      -7.852  10.366  69.011  1.00  0.00    -0.100 OA 
BRANCH  29  31
HETATM   31  C   UNL     1      -5.979   9.095  68.374  1.00  0.00    -0.045 C  
HETATM   32  O   UNL     1      -5.293   8.550  67.275  1.00  0.00    -0.036 OA 
HETATM   33  H   UNL     1      -4.468   8.119  67.469  1.00  0.00     0.000 HD 
ENDBRANCH  29  31
ENDBRANCH  27  29
TORSDOF 2
ENDMDL
MODEL       99
REMARK 921   NORMALIZED FREE ENERGY PREDICTED BY IDOCK:    4.97 KCAL/MOL
REMARK 922        TOTAL FREE ENERGY PREDICTED BY IDOCK:    5.08 KCAL/MOL
REMARK 923 INTER-LIGAND FREE ENERGY PREDICTED BY IDOCK:    5.50 KCAL/MOL
REMARK 924 INTRA-LIGAND FREE ENERGY PREDICTED BY IDOCK:   -0.42 KCAL/MOL
REMARK 927      BINDING AFFINITY PREDICTED BY RF-SCORE:    0.00 PKD
ROOT
HETATM    1  C   UNL     1      -9.187  18.289  69.846  1.00  0.00     1.339 C  
HETATM    2  C   UNL     1     -10.182  17.301  69.228  1.00  0.00    -0.218 C  
HETATM    3  O   UNL     1     -11.513  17.702  69.452  1.00  0.00     1.301 OA 
HETATM    4  C   UNL     1      -9.896  17.421  67.702  1.00  0.00    -0.282 C  
HETATM    5  C   UNL     1     -12.259  16.492  69.432  1.00  0.00     0.939 C  
HETATM    6  C   UNL     1     -12.285  15.745  67.930  1.00  0.00     0.696 C  
HETATM    7  C   UNL     1     -11.633  14.312  68.183  1.00  0.00    -0.365 C  
HETATM    8  C   UNL     1     -10.388  13.305  67.703  1.00  0.00    -0.230 C  
HETATM    9  C   UNL     1      -8.969  13.912  68.086  1.00  0.00    -0.185 C  
HETATM   10  C   UNL     1      -7.770  13.007  68.261  1.00  0.00    -0.141 C  
HETATM   11  F   UNL     1      -7.232  12.782  67.034  1.00  0.00    -0.134 F  
HETATM   12  C   UNL     1      -8.129  11.727  69.005  1.00  0.00     0.125 C  
HETATM   13  C   UNL     1      -7.247  11.125  69.800  1.00  0.00     0.053 C  
HETATM   14  C   UNL     1      -6.310  10.556  68.782  1.00  0.00    -0.047 C  
HETATM   15  O   UNL     1      -5.126  10.467  69.063  1.00  0.00    -0.042 OA 
HETATM   16  C   UNL     1      -6.925  10.027  67.463  1.00  0.00    -0.086 C  
HETATM   17  C   UNL     1      -8.444  10.444  67.093  1.00  0.00    -0.126 C  
HETATM   18  C   UNL     1      -9.248  10.896  68.355  1.00  0.00    -0.168 C  
HETATM   19  C   UNL     1      -9.624   9.555  69.034  1.00  0.00    -0.166 C  
HETATM   20  C   UNL     1     -10.451  11.932  68.439  1.00  0.00    -0.231 C  
HETATM   21  C   UNL     1     -11.924  11.628  68.734  1.00  0.00    -0.264 C  
HETATM   22  C   UNL     1     -12.219  12.530  69.987  1.00  0.00    -0.262 C  
HETATM   23  O   UNL     1     -12.258  10.278  68.961  1.00  0.00    -0.643 OA 
HETATM   24  C   UNL     1     -12.262  14.040  69.570  1.00  0.00    -0.355 C  
HETATM   25  H   UNL     1     -13.171  10.089  69.143  1.00  0.00     0.000 HD 
HETATM   26  C   UNL     1     -13.876  14.189  69.463  1.00  0.00     3.926 C  
HETATM   27  C   UNL     1     -11.557  15.433  70.283  1.00  0.00    -0.320 C  
HETATM   28  O   UNL     1     -10.085  15.972  69.813  1.00  0.00    -0.266 OA 
ENDROOT
BRANCH  27  29
HETATM   29  C   UNL     1     -10.862  15.107  71.608  1.00  0.00     0.235 C  
HETATM   30  O   UNL     1      -9.623  15.052  71.659  1.00  0.00     2.132 OA 
BRANCH  29  31
HETATM   31  C   UNL     1     -11.590  15.147  72.944  1.00  0.00    -0.235 C  
HETATM   32  O   UNL     1     -12.304  16.324  73.225  1.00  0.00    -0.481 OA 
HETATM   33  H   UNL     1     -12.759  16.349  74.059  1.00  0.00     0.000 HD 
ENDBRANCH  29  31
ENDBRANCH  27  29
TORSDOF 2
ENDMDL
MODEL      100
REMARK 921   NORMALIZED FREE ENERGY PREDICTED BY IDOCK:    5.36 KCAL/MOL
REMARK 922        TOTAL FREE ENERGY PREDICTED BY IDOCK:    5.52 KCAL/MOL
REMARK 923 INTER-LIGAND FREE ENERGY PREDICTED BY IDOCK:    5.62 KCAL/MOL
REMARK 924 INTRA-LIGAND FREE ENERGY PREDICTED BY IDOCK:   -0.10 KCAL/MOL
REMARK 927      BINDING AFFINITY PREDICTED BY RF-SCORE:    0.00 PKD
ROOT
HETATM    1  C   UNL     1     -12.179  15.499  63.781  1.00  0.00     0.442 C  
HETATM    2  C   UNL     1     -11.480  14.165  64.070  1.00  0.00    -0.040 C  
HETATM    3  O   UNL     1     -12.296  13.070  63.724  1.00  0.00    -0.584 OA 
HETATM    4  C   UNL     1     -10.266  14.185  63.096  1.00  0.00     5.849 C  
HETATM    5  C   UNL     1     -11.863  12.019  64.578  1.00  0.00    -0.285 C  
HETATM    6  C   UNL     1     -10.298  11.502  64.266  1.00  0.00    -0.376 C  
HETATM    7  C   UNL     1      -9.513  11.752  65.632  1.00  0.00    -0.209 C  
HETATM    8  C   UNL     1      -8.199  12.545  66.294  1.00  0.00     0.497 C  
HETATM    9  C   UNL     1      -8.374  14.123  66.216  1.00  0.00     0.833 C  
HETATM   10  C   UNL     1      -7.639  15.024  67.184  1.00  0.00    -0.139 C  
HETATM   11  F   UNL     1      -6.391  15.237  66.694  1.00  0.00     0.367 F  
HETATM   12  C   UNL     1      -7.641  14.458  68.599  1.00  0.00    -0.132 C  
HETATM   13  C   UNL     1      -7.655  15.262  69.660  1.00  0.00    -0.176 C  
HETATM   14  C   UNL     1      -6.256  15.791  69.616  1.00  0.00    -0.169 C  
HETATM   15  O   UNL     1      -6.051  16.931  70.000  1.00  0.00    -0.228 OA 
HETATM   16  C   UNL     1      -5.138  14.817  69.169  1.00  0.00    -0.086 C  
HETATM   17  C   UNL     1      -5.559  13.440  68.431  1.00  0.00    -0.088 C  
HETATM   18  C   UNL     1      -7.043  13.047  68.730  1.00  0.00    -0.097 C  
HETATM   19  C   UNL     1      -6.967  12.436  70.152  1.00  0.00     0.950 C  
HETATM   20  C   UNL     1      -8.051  12.229  67.813  1.00  0.00    -0.155 C  
HETATM   21  C   UNL     1      -8.585  10.812  68.049  1.00  0.00    -0.128 C  
HETATM   22  C   UNL     1     -10.142  11.026  68.051  1.00  0.00    -0.198 C  
HETATM   23  O   UNL     1      -8.139  10.154  69.212  1.00  0.00    -0.123 OA 
HETATM   24  C   UNL     1     -10.647  11.341  66.600  1.00  0.00    -0.309 C  
HETATM   25  H   UNL     1      -8.469   9.275  69.359  1.00  0.00     0.000 HD 
HETATM   26  C   UNL     1     -11.158   9.846  66.220  1.00  0.00     0.547 C  
HETATM   27  C   UNL     1     -11.730  12.534  66.011  1.00  0.00    -0.417 C  
HETATM   28  O   UNL     1     -11.187  13.985  65.484  1.00  0.00    -0.303 OA 
ENDROOT
BRANCH  27  29
HETATM   29  C   UNL     1     -12.366  13.340  67.148  1.00  0.00    -0.107 C  
HETATM   30  O   UNL     1     -12.979  12.753  68.054  1.00  0.00     1.239 OA 
BRANCH  29  31
HETATM   31  C   UNL     1     -12.028  14.802  67.402  1.00  0.00    -0.209 C  
HETATM   32  O   UNL     1     -12.044  15.218  68.744  1.00  0.00    -0.544 OA 
HETATM   33  H   UNL     1     -11.833  16.131  68.902  1.00  0.00     0.000 HD 
ENDBRANCH  29  31
ENDBRANCH  27  29
TORSDOF 2
ENDMDL
MODEL      101
REMARK 921   NORMALIZED FREE ENERGY PREDICTED BY IDOCK:    6.81 KCAL/MOL
REMARK 922        TOTAL FREE ENERGY PREDICTED BY IDOCK:    7.13 KCAL/MOL
REMARK 923 INTER-LIGAND FREE ENERGY PREDICTED BY IDOCK:    6.95 KCAL/MOL
REMARK 924 INTRA-LIGAND FREE ENERGY PREDICTED BY IDOCK:    0.19 KCAL/MOL
REMARK 927      BINDING AFFINITY PREDICTED BY RF-SCORE:    0.00 PKD
ROOT
HETATM    1  C   UNL     1      -6.178  16.677  66.572  1.00  0.00     0.099 C  
HETATM    2  C   UNL     1      -7.632  16.276  66.847  1.00  0.00    -0.244 C  
HETATM    3  O   UNL     1      -8.284  17.225  67.658  1.00  0.00    -0.189 OA 
HETATM    4  C   UNL     1      -8.284  16.324  65.434  1.00  0.00     2.154 C  
HETATM    5  C   UNL     1      -9.295  16.486  68.331  1.00  0.00    -0.221 C  
HETATM    6  C   UNL     1     -10.490  15.900  67.310  1.00  0.00    -0.310 C  
HETATM    7  C   UNL     1     -10.438  14.318  67.496  1.00  0.00    -0.252 C  
HETATM    8  C   UNL     1     -10.234  12.880  66.669  1.00  0.00    -0.251 C  
HETATM    9  C   UNL     1      -8.769  12.761  66.064  1.00  0.00     0.489 C  
HETATM   10  C   UNL     1      -8.170  11.404  65.765  1.00  0.00     0.153 C  
HETATM   11  F   UNL     1      -8.602  11.017  64.537  1.00  0.00    -0.143 F  
HETATM   12  C   UNL     1      -8.483  10.393  66.861  1.00  0.00    -0.124 C  
HETATM   13  C   UNL     1      -7.625   9.422  67.163  1.00  0.00    -0.091 C  
HETATM   14  C   UNL     1      -7.785   8.537  65.967  1.00  0.00    -0.093 C  
HETATM   15  O   UNL     1      -6.817   7.909  65.571  1.00  0.00    -0.054 OA 
HETATM   16  C   UNL     1      -9.204   8.404  65.363  1.00  0.00     0.023 C  
HETATM   17  C   UNL     1     -10.334   9.480  65.793  1.00  0.00     0.047 C  
HETATM   18  C   UNL     1      -9.981  10.189  67.141  1.00  0.00    -0.243 C  
HETATM   19  C   UNL     1     -10.369   9.133  68.207  1.00  0.00    -0.256 C  
HETATM   20  C   UNL     1     -10.378  11.652  67.619  1.00  0.00    -0.210 C  
HETATM   21  C   UNL     1     -11.364  12.034  68.729  1.00  0.00    -0.278 C  
HETATM   22  C   UNL     1     -10.481  12.913  69.687  1.00  0.00     0.721 C  
HETATM   23  O   UNL     1     -11.992  10.973  69.410  1.00  0.00    -0.306 OA 
HETATM   24  C   UNL     1     -10.169  14.297  69.019  1.00  0.00    -0.156 C  
HETATM   25  H   UNL     1     -12.603  11.210  70.098  1.00  0.00     0.000 HD 
HETATM   26  C   UNL     1     -11.316  15.165  69.776  1.00  0.00    -0.307 C  
HETATM   27  C   UNL     1      -8.708  15.186  68.883  1.00  0.00    -0.205 C  
HETATM   28  O   UNL     1      -7.735  15.022  67.578  1.00  0.00    -0.152 OA 
ENDROOT
BRANCH  27  29
HETATM   29  C   UNL     1      -7.561  14.521  69.650  1.00  0.00     0.088 C  
HETATM   30  O   UNL     1      -6.404  14.577  69.204  1.00  0.00    -0.091 OA 
BRANCH  29  31
HETATM   31  C   UNL     1      -7.705  14.053  71.091  1.00  0.00     3.930 C  
HETATM   32  O   UNL     1      -8.392  14.920  71.958  1.00  0.00     3.418 OA 
HETATM   33  H   UNL     1      -8.482  14.628  72.857  1.00  0.00     0.000 HD 
ENDBRANCH  29  31
ENDBRANCH  27  29
TORSDOF 2
ENDMDL
MODEL      102
REMARK 921   NORMALIZED FREE ENERGY PREDICTED BY IDOCK:    7.04 KCAL/MOL
REMARK 922        TOTAL FREE ENERGY PREDICTED BY IDOCK:    7.39 KCAL/MOL
REMARK 923 INTER-LIGAND FREE ENERGY PREDICTED BY IDOCK:    6.49 KCAL/MOL
REMARK 924 INTRA-LIGAND FREE ENERGY PREDICTED BY IDOCK:    0.90 KCAL/MOL
REMARK 927      BINDING AFFINITY PREDICTED BY RF-SCORE:    0.00 PKD
ROOT
HETATM    1  C   UNL     1     -10.707   9.459  65.141  1.00  0.00     2.326 C  
HETATM    2  C   UNL     1      -9.288   9.904  65.511  1.00  0.00    -0.223 C  
HETATM    3  O   UNL     1      -8.479   8.807  65.864  1.00  0.00    -0.127 OA 
HETATM    4  C   UNL     1      -8.743  10.490  64.174  1.00  0.00    -0.180 C  
HETATM    5  C   UNL     1      -7.504   9.351  66.745  1.00  0.00    -0.094 C  
HETATM    6  C   UNL     1      -6.458  10.432  66.003  1.00  0.00    -0.119 C  
HETATM    7  C   UNL     1      -6.664  11.799  66.797  1.00  0.00    -0.048 C  
HETATM    8  C   UNL     1      -7.081  13.406  66.607  1.00  0.00     1.484 C  
HETATM    9  C   UNL     1      -8.592  13.562  66.138  1.00  0.00     0.729 C  
HETATM   10  C   UNL     1      -9.352  14.841  66.414  1.00  0.00    -0.291 C  
HETATM   11  F   UNL     1      -9.058  15.725  65.425  1.00  0.00    -0.244 F  
HETATM   12  C   UNL     1      -9.066  15.382  67.809  1.00  0.00    -0.178 C  
HETATM   13  C   UNL     1      -9.997  16.043  68.493  1.00  0.00    -0.222 C  
HETATM   14  C   UNL     1     -10.023  17.333  67.736  1.00  0.00    -0.301 C  
HETATM   15  O   UNL     1     -11.079  17.937  67.646  1.00  0.00    -0.211 OA 
HETATM   16  C   UNL     1      -8.676  17.869  67.193  1.00  0.00    -0.248 C  
HETATM   17  C   UNL     1      -7.409  16.864  67.134  1.00  0.00    -0.213 C  
HETATM   18  C   UNL     1      -7.581  15.650  68.104  1.00  0.00    -0.124 C  
HETATM   19  C   UNL     1      -7.228  16.252  69.488  1.00  0.00    -0.109 C  
HETATM   20  C   UNL     1      -6.996  14.179  67.958  1.00  0.00    -0.149 C  
HETATM   21  C   UNL     1      -5.894  13.527  68.800  1.00  0.00    -0.083 C  
HETATM   22  C   UNL     1      -6.604  12.241  69.361  1.00  0.00    -0.081 C  
HETATM   23  O   UNL     1      -5.332  14.313  69.825  1.00  0.00    -0.092 OA 
HETATM   24  C   UNL     1      -6.817  11.195  68.213  1.00  0.00    -0.068 C  
HETATM   25  H   UNL     1      -4.649  13.909  70.347  1.00  0.00     0.000 HD 
HETATM   26  C   UNL     1      -5.531  10.256  68.535  1.00  0.00    -0.038 C  
HETATM   27  C   UNL     1      -8.182  10.250  67.779  1.00  0.00    -0.110 C  
HETATM   28  O   UNL     1      -9.263  10.781  66.672  1.00  0.00    -0.162 OA 
ENDROOT
BRANCH  27  29
HETATM   29  C   UNL     1      -9.331  10.416  68.778  1.00  0.00    -0.175 C  
HETATM   30  O   UNL     1     -10.466  10.003  68.489  1.00  0.00    -0.184 OA 
BRANCH  29  31
HETATM   31  C   UNL     1      -9.100  10.783  70.237  1.00  0.00     1.480 C  
HETATM   32  O   UNL     1      -9.395  12.109  70.596  1.00  0.00     4.543 OA 
HETATM   33  H   UNL     1      -9.251  12.338  71.507  1.00  0.00     0.000 HD 
ENDBRANCH  29  31
ENDBRANCH  27  29
TORSDOF 2
ENDMDL
MODEL      103
REMARK 921   NORMALIZED FREE ENERGY PREDICTED BY IDOCK:    8.62 KCAL/MOL
REMARK 922        TOTAL FREE ENERGY PREDICTED BY IDOCK:    9.16 KCAL/MOL
REMARK 923 INTER-LIGAND FREE ENERGY PREDICTED BY IDOCK:    8.21 KCAL/MOL
REMARK 924 INTRA-LIGAND FREE ENERGY PREDICTED BY IDOCK:    0.95 KCAL/MOL
REMARK 927      BINDING AFFINITY PREDICTED BY RF-SCORE:    0.00 PKD
ROOT
HETATM    1  C   UNL     1     -12.187  10.198  72.771  1.00  0.00     2.035 C  
HETATM    2  C   UNL     1     -11.524  10.183  71.389  1.00  0.00    -0.157 C  
HETATM    3  O   UNL     1     -12.365  10.745  70.408  1.00  0.00    -0.306 OA 
HETATM    4  C   UNL     1     -10.303  11.131  71.573  1.00  0.00     5.865 C  
HETATM    5  C   UNL     1     -11.965  10.121  69.195  1.00  0.00     0.237 C  
HETATM    6  C   UNL     1     -10.411  10.528  68.711  1.00  0.00    -0.216 C  
HETATM    7  C   UNL     1      -9.630   9.139  68.658  1.00  0.00    -0.157 C  
HETATM    8  C   UNL     1      -8.301   8.328  69.266  1.00  0.00    -0.122 C  
HETATM    9  C   UNL     1      -8.435   8.084  70.831  1.00  0.00    -0.126 C  
HETATM   10  C   UNL     1      -7.684   6.953  71.498  1.00  0.00    -0.095 C  
HETATM   11  F   UNL     1      -6.427   7.388  71.773  1.00  0.00    -0.042 F  
HETATM   12  C   UNL     1      -7.711   5.682  70.657  1.00  0.00    -0.092 C  
HETATM   13  C   UNL     1      -7.712   4.480  71.231  1.00  0.00    -0.077 C  
HETATM   14  C   UNL     1      -6.299   4.414  71.721  1.00  0.00    -0.018 C  
HETATM   15  O   UNL     1      -6.068   3.807  72.753  1.00  0.00    -0.011 OA 
HETATM   16  C   UNL     1      -5.204   5.047  70.828  1.00  0.00    -0.004 C  
HETATM   17  C   UNL     1      -5.654   6.049  69.640  1.00  0.00    -0.012 C  
HETATM   18  C   UNL     1      -7.149   5.839  69.235  1.00  0.00    -0.065 C  
HETATM   19  C   UNL     1      -7.099   4.569  68.346  1.00  0.00    -0.056 C  
HETATM   20  C   UNL     1      -8.172   6.904  68.645  1.00  0.00    -0.121 C  
HETATM   21  C   UNL     1      -8.743   6.960  67.225  1.00  0.00    -0.119 C  
HETATM   22  C   UNL     1     -10.294   6.918  67.475  1.00  0.00    -0.277 C  
HETATM   23  O   UNL     1      -8.322   5.954  66.333  1.00  0.00    -0.110 OA 
HETATM   24  C   UNL     1     -10.781   8.276  68.090  1.00  0.00    -0.093 C  
HETATM   25  H   UNL     1      -8.676   5.989  65.452  1.00  0.00     0.000 HD 
HETATM   26  C   UNL     1     -11.327   8.952  66.717  1.00  0.00     1.657 C  
HETATM   27  C   UNL     1     -11.829   8.613  69.406  1.00  0.00     1.154 C  
HETATM   28  O   UNL     1     -11.245   8.835  70.918  1.00  0.00    -0.253 OA 
ENDROOT
BRANCH  27  29
HETATM   29  C   UNL     1     -12.452   7.337  69.981  1.00  0.00     0.664 C  
HETATM   30  O   UNL     1     -11.871   6.249  69.842  1.00  0.00    -0.340 OA 
BRANCH  29  31
HETATM   31  C   UNL     1     -13.596   7.367  70.985  1.00  0.00    -0.030 C  
HETATM   32  O   UNL     1     -13.248   7.676  72.310  1.00  0.00    -0.504 OA 
HETATM   33  H   UNL     1     -13.963   7.695  72.937  1.00  0.00     0.000 HD 
ENDBRANCH  29  31
ENDBRANCH  27  29
TORSDOF 2
ENDMDL
MODEL      104
REMARK 921   NORMALIZED FREE ENERGY PREDICTED BY IDOCK:    9.19 KCAL/MOL
REMARK 922        TOTAL FREE ENERGY PREDICTED BY IDOCK:    9.79 KCAL/MOL
REMARK 923 INTER-LIGAND FREE ENERGY PREDICTED BY IDOCK:    8.84 KCAL/MOL
REMARK 924 INTRA-LIGAND FREE ENERGY PREDICTED BY IDOCK:    0.95 KCAL/MOL
REMARK 927      BINDING AFFINITY PREDICTED BY RF-SCORE:    0.00 PKD
ROOT
HETATM    1  C   UNL     1     -11.067  14.629  64.396  1.00  0.00    -0.153 C  
HETATM    2  C   UNL     1     -10.621  13.173  64.566  1.00  0.00    -0.406 C  
HETATM    3  O   UNL     1     -11.520  12.283  63.947  1.00  0.00    -0.363 OA 
HETATM    4  C   UNL     1      -9.278  13.121  63.780  1.00  0.00     2.914 C  
HETATM    5  C   UNL     1     -11.383  11.071  64.677  1.00  0.00     0.301 C  
HETATM    6  C   UNL     1      -9.879  10.349  64.503  1.00  0.00    -0.405 C  
HETATM    7  C   UNL     1      -9.291  10.282  65.984  1.00  0.00    -0.224 C  
HETATM    8  C   UNL     1      -7.998  10.753  66.932  1.00  0.00    -0.133 C  
HETATM    9  C   UNL     1      -7.930  12.334  67.079  1.00  0.00    -0.123 C  
HETATM   10  C   UNL     1      -7.235  12.965  68.265  1.00  0.00    -0.112 C  
HETATM   11  F   UNL     1      -5.907  13.033  67.987  1.00  0.00    -0.070 F  
HETATM   12  C   UNL     1      -7.541  12.224  69.561  1.00  0.00     0.639 C  
HETATM   13  C   UNL     1      -7.606  12.872  70.722  1.00  0.00     4.757 C  
HETATM   14  C   UNL     1      -6.157  13.164  70.950  1.00  0.00     0.234 C  
HETATM   15  O   UNL     1      -5.853  14.193  71.531  1.00  0.00    -0.228 OA 
HETATM   16  C   UNL     1      -5.134  12.087  70.512  1.00  0.00    -0.111 C  
HETATM   17  C   UNL     1      -5.627  10.908  69.519  1.00  0.00    -0.039 C  
HETATM   18  C   UNL     1      -7.179  10.730  69.550  1.00  0.00    -0.132 C  
HETATM   19  C   UNL     1      -7.417   9.931  70.858  1.00  0.00     0.316 C  
HETATM   20  C   UNL     1      -8.138  10.218  68.390  1.00  0.00    -0.109 C  
HETATM   21  C   UNL     1      -8.900   8.890  68.329  1.00  0.00    -0.134 C  
HETATM   22  C   UNL     1     -10.391   9.355  68.153  1.00  0.00    -0.255 C  
HETATM   23  O   UNL     1      -8.742   8.018  69.424  1.00  0.00    -0.135 OA 
HETATM   24  C   UNL     1     -10.611   9.939  66.715  1.00  0.00    -0.214 C  
HETATM   25  H   UNL     1      -9.214   7.195  69.387  1.00  0.00     0.000 HD 
HETATM   26  C   UNL     1     -11.265   8.613  66.041  1.00  0.00     3.258 C  
HETATM   27  C   UNL     1     -11.405  11.362  66.178  1.00  0.00    -0.043 C  
HETATM   28  O   UNL     1     -10.583  12.760  65.961  1.00  0.00    -0.262 OA 
ENDROOT
BRANCH  27  29
HETATM   29  C   UNL     1     -12.089  12.104  67.331  1.00  0.00     0.106 C  
HETATM   30  O   UNL     1     -12.674  13.177  67.115  1.00  0.00     0.050 OA 
BRANCH  29  31
HETATM   31  C   UNL     1     -12.359  11.449  68.678  1.00  0.00     0.278 C  
HETATM   32  O   UNL     1     -11.468  11.774  69.714  1.00  0.00    -0.365 OA 
HETATM   33  H   UNL     1     -11.637  11.366  70.555  1.00  0.00     0.000 HD 
ENDBRANCH  29  31
ENDBRANCH  27  29
TORSDOF 2
ENDMDL
MODEL      105
REMARK 921   NORMALIZED FREE ENERGY PREDICTED BY IDOCK:    9.39 KCAL/MOL
REMARK 922        TOTAL FREE ENERGY PREDICTED BY IDOCK:   10.02 KCAL/MOL
REMARK 923 INTER-LIGAND FREE ENERGY PREDICTED BY IDOCK:   10.23 KCAL/MOL
REMARK 924 INTRA-LIGAND FREE ENERGY PREDICTED BY IDOCK:   -0.20 KCAL/MOL
REMARK 927      BINDING AFFINITY PREDICTED BY RF-SCORE:    0.00 PKD
ROOT
HETATM    1  C   UNL     1     -11.411  18.684  65.559  1.00  0.00     1.813 C  
HETATM    2  C   UNL     1     -10.462  18.309  66.703  1.00  0.00    -0.360 C  
HETATM    3  O   UNL     1      -9.443  19.268  66.861  1.00  0.00    -0.303 OA 
HETATM    4  C   UNL     1     -11.381  18.375  67.958  1.00  0.00     0.749 C  
HETATM    5  C   UNL     1      -8.359  18.545  67.431  1.00  0.00    -0.256 C  
HETATM    6  C   UNL     1      -8.666  17.987  68.983  1.00  0.00    -0.011 C  
HETATM    7  C   UNL     1      -8.520  16.403  68.876  1.00  0.00    -0.247 C  
HETATM    8  C   UNL     1      -9.333  14.964  69.125  1.00  0.00    -0.145 C  
HETATM    9  C   UNL     1     -10.574  14.820  68.142  1.00  0.00    -0.241 C  
HETATM   10  C   UNL     1     -11.117  13.453  67.789  1.00  0.00    -0.268 C  
HETATM   11  F   UNL     1     -11.979  13.078  68.770  1.00  0.00    -0.323 F  
HETATM   12  C   UNL     1     -10.002  12.444  67.548  1.00  0.00    -0.196 C  
HETATM   13  C   UNL     1     -10.149  11.455  66.669  1.00  0.00    -0.247 C  
HETATM   14  C   UNL     1     -11.111  10.578  67.406  1.00  0.00    -0.252 C  
HETATM   15  O   UNL     1     -11.924   9.934  66.764  1.00  0.00     1.900 OA 
HETATM   16  C   UNL     1     -10.949  10.474  68.943  1.00  0.00    -0.291 C  
HETATM   17  C   UNL     1     -10.030  11.570  69.701  1.00  0.00     0.689 C  
HETATM   18  C   UNL     1      -9.028  12.268  68.725  1.00  0.00     0.132 C  
HETATM   19  C   UNL     1      -7.901  11.215  68.564  1.00  0.00    -0.136 C  
HETATM   20  C   UNL     1      -8.425  13.736  68.813  1.00  0.00     0.026 C  
HETATM   21  C   UNL     1      -6.979  14.133  69.128  1.00  0.00    -0.111 C  
HETATM   22  C   UNL     1      -6.576  14.991  67.875  1.00  0.00    -0.174 C  
HETATM   23  O   UNL     1      -6.072  13.081  69.365  1.00  0.00    -0.095 OA 
HETATM   24  C   UNL     1      -7.319  16.372  67.901  1.00  0.00    -0.146 C  
HETATM   25  H   UNL     1      -5.175  13.327  69.561  1.00  0.00     0.000 HD 
HETATM   26  C   UNL     1      -6.106  17.258  68.519  1.00  0.00    -0.155 C  
HETATM   27  C   UNL     1      -8.154  17.233  66.674  1.00  0.00    -0.265 C  
HETATM   28  O   UNL     1      -9.766  17.055  66.461  1.00  0.00    -0.257 OA 
ENDROOT
BRANCH  27  29
HETATM   29  C   UNL     1      -8.037  16.543  65.311  1.00  0.00     2.777 C  
HETATM   30  O   UNL     1      -7.034  16.736  64.605  1.00  0.00     4.134 OA 
BRANCH  29  31
HETATM   31  C   UNL     1      -8.939  15.389  64.900  1.00  0.00     2.929 C  
HETATM   32  O   UNL     1     -10.242  15.733  64.502  1.00  0.00    -0.446 OA 
HETATM   33  H   UNL     1     -10.805  15.013  64.244  1.00  0.00     0.000 HD 
ENDBRANCH  29  31
ENDBRANCH  27  29
TORSDOF 2
ENDMDL
MODEL      106
REMARK 921   NORMALIZED FREE ENERGY PREDICTED BY IDOCK:   10.22 KCAL/MOL
REMARK 922        TOTAL FREE ENERGY PREDICTED BY IDOCK:   10.95 KCAL/MOL
REMARK 923 INTER-LIGAND FREE ENERGY PREDICTED BY IDOCK:   11.44 KCAL/MOL
REMARK 924 INTRA-LIGAND FREE ENERGY PREDICTED BY IDOCK:   -0.49 KCAL/MOL
REMARK 927      BINDING AFFINITY PREDICTED BY RF-SCORE:    0.00 PKD
ROOT
HETATM    1  C   UNL     1     -12.382   8.854  73.468  1.00  0.00     2.769 C  
HETATM    2  C   UNL     1     -11.623   7.678  72.843  1.00  0.00    -0.228 C  
HETATM    3  O   UNL     1     -10.933   6.934  73.819  1.00  0.00    -0.192 OA 
HETATM    4  C   UNL     1     -12.764   6.783  72.276  1.00  0.00    -0.003 C  
HETATM    5  C   UNL     1      -9.841   6.352  73.118  1.00  0.00    -0.168 C  
HETATM    6  C   UNL     1     -10.307   5.223  71.969  1.00  0.00    -0.273 C  
HETATM    7  C   UNL     1      -9.747   5.798  70.591  1.00  0.00    -0.224 C  
HETATM    8  C   UNL     1     -10.204   6.273  69.056  1.00  0.00    -0.224 C  
HETATM    9  C   UNL     1     -11.141   7.557  69.100  1.00  0.00     0.071 C  
HETATM   10  C   UNL     1     -11.239   8.476  67.903  1.00  0.00     0.645 C  
HETATM   11  F   UNL     1     -12.159   7.957  67.049  1.00  0.00     2.095 F  
HETATM   12  C   UNL     1      -9.880   8.710  67.255  1.00  0.00    -0.256 C  
HETATM   13  C   UNL     1      -9.590   9.869  66.667  1.00  0.00    -0.235 C  
HETATM   14  C   UNL     1     -10.429   9.762  65.433  1.00  0.00     0.421 C  
HETATM   15  O   UNL     1     -10.905  10.782  64.960  1.00  0.00    -0.169 OA 
HETATM   16  C   UNL     1     -10.563   8.365  64.778  1.00  0.00     5.925 C  
HETATM   17  C   UNL     1     -10.124   7.063  65.634  1.00  0.00     1.304 C  
HETATM   18  C   UNL     1      -9.154   7.433  66.802  1.00  0.00    -0.178 C  
HETATM   19  C   UNL     1      -7.789   7.606  66.087  1.00  0.00    -0.096 C  
HETATM   20  C   UNL     1      -8.972   6.702  68.203  1.00  0.00    -0.121 C  
HETATM   21  C   UNL     1      -7.768   5.881  68.676  1.00  0.00    -0.094 C  
HETATM   22  C   UNL     1      -7.348   6.616  70.000  1.00  0.00    -0.089 C  
HETATM   23  O   UNL     1      -6.693   5.757  67.774  1.00  0.00    -0.054 OA 
HETATM   24  C   UNL     1      -8.404   6.348  71.127  1.00  0.00    -0.123 C  
HETATM   25  H   UNL     1      -5.946   5.247  68.067  1.00  0.00     0.000 HD 
HETATM   26  C   UNL     1      -7.607   5.159  71.894  1.00  0.00    -0.096 C  
HETATM   27  C   UNL     1      -9.162   7.407  72.245  1.00  0.00    -0.132 C  
HETATM   28  O   UNL     1     -10.599   8.112  71.905  1.00  0.00    -0.228 OA 
ENDROOT
BRANCH  27  29
HETATM   29  C   UNL     1      -8.599   8.829  72.156  1.00  0.00    -0.029 C  
HETATM   30  O   UNL     1      -9.059   9.624  71.321  1.00  0.00    -0.142 OA 
BRANCH  29  31
HETATM   31  C   UNL     1      -7.714   9.428  73.240  1.00  0.00     1.829 C  
HETATM   32  O   UNL     1      -7.210   8.528  74.193  1.00  0.00    -0.262 OA 
HETATM   33  H   UNL     1      -6.657   8.902  74.870  1.00  0.00     0.000 HD 
ENDBRANCH  29  31
ENDBRANCH  27  29
TORSDOF 2
ENDMDL
MODEL      107
REMARK 921   NORMALIZED FREE ENERGY PREDICTED BY IDOCK:   16.70 KCAL/MOL
REMARK 922        TOTAL FREE ENERGY PREDICTED BY IDOCK:   18.19 KCAL/MOL
REMARK 923 INTER-LIGAND FREE ENERGY PREDICTED BY IDOCK:   18.21 KCAL/MOL
REMARK 924 INTRA-LIGAND FREE ENERGY PREDICTED BY IDOCK:   -0.02 KCAL/MOL
REMARK 927      BINDING AFFINITY PREDICTED BY RF-SCORE:    0.00 PKD
ROOT
HETATM    1  C   UNL     1      -5.560   9.079  64.632  1.00  0.00    -0.062 C  
HETATM    2  C   UNL     1      -6.318  10.063  65.530  1.00  0.00    -0.094 C  
HETATM    3  O   UNL     1      -5.538  11.197  65.825  1.00  0.00    -0.136 OA 
HETATM    4  C   UNL     1      -7.504  10.519  64.629  1.00  0.00     0.049 C  
HETATM    5  C   UNL     1      -6.035  11.657  67.076  1.00  0.00    -0.138 C  
HETATM    6  C   UNL     1      -7.610  12.229  67.003  1.00  0.00    -0.071 C  
HETATM    7  C   UNL     1      -8.422  11.301  68.014  1.00  0.00    -0.138 C  
HETATM    8  C   UNL     1      -9.721  10.256  68.121  1.00  0.00    -0.158 C  
HETATM    9  C   UNL     1      -9.483   8.942  67.259  1.00  0.00    -0.195 C  
HETATM   10  C   UNL     1     -10.208   7.659  67.600  1.00  0.00    -0.214 C  
HETATM   11  F   UNL     1     -11.433   7.701  67.014  1.00  0.00    -0.066 F  
HETATM   12  C   UNL     1     -10.267   7.423  69.104  1.00  0.00    -0.196 C  
HETATM   13  C   UNL     1     -10.251   6.191  69.606  1.00  0.00    -0.255 C  
HETATM   14  C   UNL     1     -11.626   5.731  69.237  1.00  0.00     0.903 C  
HETATM   15  O   UNL     1     -11.797   4.551  68.978  1.00  0.00     6.250 OA 
HETATM   16  C   UNL     1     -12.769   6.774  69.300  1.00  0.00     3.422 C  
HETATM   17  C   UNL     1     -12.382   8.343  69.386  1.00  0.00     2.435 C  
HETATM   18  C   UNL     1     -10.924   8.557  69.908  1.00  0.00    -0.165 C  
HETATM   19  C   UNL     1     -11.064   8.355  71.439  1.00  0.00    -0.312 C  
HETATM   20  C   UNL     1      -9.924   9.749  69.582  1.00  0.00    -0.244 C  
HETATM   21  C   UNL     1      -9.453  10.856  70.530  1.00  0.00     2.386 C  
HETATM   22  C   UNL     1      -7.889  10.703  70.491  1.00  0.00     1.347 C  
HETATM   23  O   UNL     1      -9.957  10.820  71.845  1.00  0.00     4.173 OA 
HETATM   24  C   UNL     1      -7.332  11.183  69.106  1.00  0.00    -0.115 C  
HETATM   25  H   UNL     1      -9.666  11.507  72.433  1.00  0.00     0.000 HD 
HETATM   26  C   UNL     1      -6.870  12.672  69.563  1.00  0.00     0.099 C  
HETATM   27  C   UNL     1      -6.187  10.479  68.039  1.00  0.00    -0.054 C  
HETATM   28  O   UNL     1      -6.658   9.491  66.823  1.00  0.00    -0.066 OA 
ENDROOT
BRANCH  27  29
HETATM   29  C   UNL     1      -5.552   9.218  68.634  1.00  0.00    -0.040 C  
HETATM   30  O   UNL     1      -5.168   9.218  69.815  1.00  0.00    -0.033 OA 
BRANCH  29  31
HETATM   31  C   UNL     1      -5.641   7.860  67.954  1.00  0.00    -0.033 C  
HETATM   32  O   UNL     1      -6.820   7.130  68.182  1.00  0.00    -0.068 OA 
HETATM   33  H   UNL     1      -6.876   6.282  67.757  1.00  0.00     0.000 HD 
ENDBRANCH  29  31
ENDBRANCH  27  29
TORSDOF 2
ENDMDL
MODEL      108
REMARK 921   NORMALIZED FREE ENERGY PREDICTED BY IDOCK:   17.41 KCAL/MOL
REMARK 922        TOTAL FREE ENERGY PREDICTED BY IDOCK:   18.98 KCAL/MOL
REMARK 923 INTER-LIGAND FREE ENERGY PREDICTED BY IDOCK:   19.41 KCAL/MOL
REMARK 924 INTRA-LIGAND FREE ENERGY PREDICTED BY IDOCK:   -0.43 KCAL/MOL
REMARK 927      BINDING AFFINITY PREDICTED BY RF-SCORE:    0.00 PKD
ROOT
HETATM    1  C   UNL     1      -5.353   9.187  70.687  1.00  0.00    -0.028 C  
HETATM    2  C   UNL     1      -6.123   8.568  69.516  1.00  0.00    -0.036 C  
HETATM    3  O   UNL     1      -6.300   9.494  68.469  1.00  0.00    -0.048 OA 
HETATM    4  C   UNL     1      -5.161   7.453  69.011  1.00  0.00    -0.015 C  
HETATM    5  C   UNL     1      -7.484   9.065  67.809  1.00  0.00    -0.085 C  
HETATM    6  C   UNL     1      -7.325   7.580  67.044  1.00  0.00    -0.094 C  
HETATM    7  C   UNL     1      -8.424   6.653  67.735  1.00  0.00    -0.122 C  
HETATM    8  C   UNL     1      -8.630   5.226  68.579  1.00  0.00    -0.094 C  
HETATM    9  C   UNL     1      -7.924   5.285  70.002  1.00  0.00    -0.080 C  
HETATM   10  C   UNL     1      -8.398   4.396  71.130  1.00  0.00    -0.089 C  
HETATM   11  F   UNL     1      -7.794   3.187  70.992  1.00  0.00    -0.047 F  
HETATM   12  C   UNL     1      -9.918   4.308  71.184  1.00  0.00    -0.226 C  
HETATM   13  C   UNL     1     -10.556   4.159  72.342  1.00  0.00    -0.116 C  
HETATM   14  C   UNL     1     -10.222   2.735  72.654  1.00  0.00    -0.160 C  
HETATM   15  O   UNL     1     -10.095   2.407  73.822  1.00  0.00    -0.098 OA 
HETATM   16  C   UNL     1     -10.152   1.742  71.468  1.00  0.00    -0.116 C  
HETATM   17  C   UNL     1     -10.066   2.335  69.965  1.00  0.00     0.703 C  
HETATM   18  C   UNL     1     -10.580   3.809  69.889  1.00  0.00     1.863 C  
HETATM   19  C   UNL     1     -12.122   3.646  69.895  1.00  0.00    14.539 C  
HETATM   20  C   UNL     1     -10.135   4.959  68.885  1.00  0.00    -0.185 C  
HETATM   21  C   UNL     1     -10.959   5.575  67.750  1.00  0.00     0.214 C  
HETATM   22  C   UNL     1     -10.959   7.105  68.113  1.00  0.00    -0.114 C  
HETATM   23  O   UNL     1     -12.263   5.073  67.569  1.00  0.00     5.478 OA 
HETATM   24  C   UNL     1      -9.537   7.719  67.872  1.00  0.00    -0.167 C  
HETATM   25  H   UNL     1     -12.774   5.455  66.865  1.00  0.00     0.000 HD 
HETATM   26  C   UNL     1      -9.829   8.376  66.415  1.00  0.00    -0.310 C  
HETATM   27  C   UNL     1      -8.572   8.758  68.838  1.00  0.00    -0.136 C  
HETATM   28  O   UNL     1      -7.469   8.157  69.887  1.00  0.00    -0.067 OA 
ENDROOT
BRANCH  27  29
HETATM   29  C   UNL     1      -9.314   9.219  70.097  1.00  0.00    -0.228 C  
HETATM   30  O   UNL     1     -10.212  10.071  70.007  1.00  0.00    -0.249 OA 
BRANCH  29  31
HETATM   31  C   UNL     1      -9.225   8.470  71.418  1.00  0.00    -0.210 C  
HETATM   32  O   UNL     1     -10.401   8.432  72.188  1.00  0.00    -0.271 OA 
HETATM   33  H   UNL     1     -10.346   7.963  73.013  1.00  0.00     0.000 HD 
ENDBRANCH  29  31
ENDBRANCH  27  29
TORSDOF 2
ENDMDL
MODEL      109
REMARK 921   NORMALIZED FREE ENERGY PREDICTED BY IDOCK:   18.49 KCAL/MOL
REMARK 922        TOTAL FREE ENERGY PREDICTED BY IDOCK:   20.19 KCAL/MOL
REMARK 923 INTER-LIGAND FREE ENERGY PREDICTED BY IDOCK:   19.96 KCAL/MOL
REMARK 924 INTRA-LIGAND FREE ENERGY PREDICTED BY IDOCK:    0.23 KCAL/MOL
REMARK 927      BINDING AFFINITY PREDICTED BY RF-SCORE:    0.00 PKD
ROOT
HETATM    1  C   UNL     1      -7.595  18.000  67.441  1.00  0.00    -0.213 C  
HETATM    2  C   UNL     1      -7.009  16.672  67.935  1.00  0.00    -0.144 C  
HETATM    3  O   UNL     1      -5.748  16.420  67.360  1.00  0.00    -0.139 OA 
HETATM    4  C   UNL     1      -6.800  16.924  69.457  1.00  0.00    -0.125 C  
HETATM    5  C   UNL     1      -5.631  15.003  67.363  1.00  0.00     0.280 C  
HETATM    6  C   UNL     1      -5.541  14.340  68.901  1.00  0.00    -0.083 C  
HETATM    7  C   UNL     1      -6.795  13.360  68.990  1.00  0.00    -0.103 C  
HETATM    8  C   UNL     1      -8.180  13.036  69.869  1.00  0.00     2.380 C  
HETATM    9  C   UNL     1      -9.234  14.220  69.749  1.00  0.00     0.893 C  
HETATM   10  C   UNL     1     -10.707  13.959  69.972  1.00  0.00     0.516 C  
HETATM   11  F   UNL     1     -10.945  14.016  71.308  1.00  0.00     0.469 F  
HETATM   12  C   UNL     1     -11.155  12.650  69.335  1.00  0.00    -0.130 C  
HETATM   13  C   UNL     1     -12.386  12.509  68.848  1.00  0.00     0.208 C  
HETATM   14  C   UNL     1     -13.173  12.439  70.119  1.00  0.00     1.213 C  
HETATM   15  O   UNL     1     -14.303  12.897  70.132  1.00  0.00     4.410 OA 
HETATM   16  C   UNL     1     -12.529  11.700  71.317  1.00  0.00    -0.371 C  
HETATM   17  C   UNL     1     -10.943  11.381  71.271  1.00  0.00     2.987 C  
HETATM   18  C   UNL     1     -10.386  11.406  69.810  1.00  0.00     0.438 C  
HETATM   19  C   UNL     1     -10.829  10.035  69.240  1.00  0.00    -0.261 C  
HETATM   20  C   UNL     1      -8.920  11.779  69.319  1.00  0.00     0.598 C  
HETATM   21  C   UNL     1      -7.865  10.834  68.735  1.00  0.00    -0.129 C  
HETATM   22  C   UNL     1      -7.547  11.490  67.343  1.00  0.00    -0.135 C  
HETATM   23  O   UNL     1      -8.228   9.478  68.612  1.00  0.00    -0.109 OA 
HETATM   24  C   UNL     1      -6.739  12.819  67.542  1.00  0.00    -0.154 C  
HETATM   25  H   UNL     1      -7.574   8.892  68.249  1.00  0.00     0.000 HD 
HETATM   26  C   UNL     1      -5.258  12.217  67.254  1.00  0.00    -0.106 C  
HETATM   27  C   UNL     1      -6.923  14.374  66.839  1.00  0.00     0.990 C  
HETATM   28  O   UNL     1      -7.828  15.529  67.563  1.00  0.00    -0.139 OA 
ENDROOT
BRANCH  27  29
HETATM   29  C   UNL     1      -8.012  14.389  65.762  1.00  0.00     3.509 C  
HETATM   30  O   UNL     1      -8.184  13.391  65.044  1.00  0.00     3.691 OA 
BRANCH  29  31
HETATM   31  C   UNL     1      -9.105  15.446  65.720  1.00  0.00    -0.018 C  
HETATM   32  O   UNL     1     -10.294  15.134  66.402  1.00  0.00    -0.269 OA 
HETATM   33  H   UNL     1     -10.977  15.795  66.376  1.00  0.00     0.000 HD 
ENDBRANCH  29  31
ENDBRANCH  27  29
TORSDOF 2
ENDMDL
MODEL      110
REMARK 921   NORMALIZED FREE ENERGY PREDICTED BY IDOCK:   19.64 KCAL/MOL
REMARK 922        TOTAL FREE ENERGY PREDICTED BY IDOCK:   21.47 KCAL/MOL
REMARK 923 INTER-LIGAND FREE ENERGY PREDICTED BY IDOCK:   22.06 KCAL/MOL
REMARK 924 INTRA-LIGAND FREE ENERGY PREDICTED BY IDOCK:   -0.59 KCAL/MOL
REMARK 927      BINDING AFFINITY PREDICTED BY RF-SCORE:    0.00 PKD
ROOT
HETATM    1  C   UNL     1      -6.202  12.754  67.562  1.00  0.00    -0.159 C  
HETATM    2  C   UNL     1      -7.564  13.457  67.562  1.00  0.00    -0.169 C  
HETATM    3  O   UNL     1      -8.408  12.946  66.557  1.00  0.00     0.059 OA 
HETATM    4  C   UNL     1      -8.166  13.059  68.942  1.00  0.00     0.234 C  
HETATM    5  C   UNL     1      -9.286  14.021  66.247  1.00  0.00    -0.102 C  
HETATM    6  C   UNL     1     -10.317  14.429  67.505  1.00  0.00    -0.251 C  
HETATM    7  C   UNL     1      -9.978  15.954  67.824  1.00  0.00    -0.229 C  
HETATM    8  C   UNL     1      -9.483  16.989  69.039  1.00  0.00    -0.177 C  
HETATM    9  C   UNL     1      -8.001  16.660  69.515  1.00  0.00     0.259 C  
HETATM   10  C   UNL     1      -7.152  17.726  70.169  1.00  0.00     1.239 C  
HETATM   11  F   UNL     1      -7.463  17.757  71.491  1.00  0.00     4.816 F  
HETATM   12  C   UNL     1      -7.308  19.077  69.482  1.00  0.00    -0.023 C  
HETATM   13  C   UNL     1      -6.294  19.938  69.423  1.00  0.00    -0.374 C  
HETATM   14  C   UNL     1      -6.248  20.397  70.847  1.00  0.00    -0.091 C  
HETATM   15  O   UNL     1      -5.167  20.693  71.330  1.00  0.00    -0.395 OA 
HETATM   16  C   UNL     1      -7.597  20.558  71.590  1.00  0.00     1.932 C  
HETATM   17  C   UNL     1      -8.920  19.883  70.948  1.00  0.00     2.039 C  
HETATM   18  C   UNL     1      -8.751  19.605  69.419  1.00  0.00     0.182 C  
HETATM   19  C   UNL     1      -8.970  21.000  68.780  1.00  0.00     1.551 C  
HETATM   20  C   UNL     1      -9.428  18.465  68.542  1.00  0.00    -0.355 C  
HETATM   21  C   UNL     1     -10.504  18.635  67.465  1.00  0.00    -0.428 C  
HETATM   22  C   UNL     1      -9.833  17.984  66.201  1.00  0.00    -0.255 C  
HETATM   23  O   UNL     1     -10.947  19.948  67.213  1.00  0.00    -0.354 OA 
HETATM   24  C   UNL     1      -9.761  16.426  66.367  1.00  0.00    -0.308 C  
HETATM   25  H   UNL     1     -11.614  20.053  66.545  1.00  0.00     0.000 HD 
HETATM   26  C   UNL     1     -11.073  16.055  65.484  1.00  0.00    -0.108 C  
HETATM   27  C   UNL     1      -8.486  15.313  66.081  1.00  0.00     0.266 C  
HETATM   28  O   UNL     1      -7.457  14.880  67.277  1.00  0.00    -0.197 OA 
ENDROOT
BRANCH  27  29
HETATM   29  C   UNL     1      -7.262  15.994  65.461  1.00  0.00     4.081 C  
HETATM   30  O   UNL     1      -7.183  16.120  64.229  1.00  0.00     9.201 OA 
BRANCH  29  31
HETATM   31  C   UNL     1      -6.272  16.804  66.286  1.00  0.00     0.355 C  
HETATM   32  O   UNL     1      -6.479  18.193  66.312  1.00  0.00    -0.181 OA 
HETATM   33  H   UNL     1      -5.861  18.699  66.827  1.00  0.00     0.000 HD 
ENDBRANCH  29  31
ENDBRANCH  27  29
TORSDOF 2
ENDMDL
MODEL      111
REMARK 921   NORMALIZED FREE ENERGY PREDICTED BY IDOCK:   22.30 KCAL/MOL
REMARK 922        TOTAL FREE ENERGY PREDICTED BY IDOCK:   24.44 KCAL/MOL
REMARK 923 INTER-LIGAND FREE ENERGY PREDICTED BY IDOCK:   24.25 KCAL/MOL
REMARK 924 INTRA-LIGAND FREE ENERGY PREDICTED BY IDOCK:    0.20 KCAL/MOL
REMARK 927      BINDING AFFINITY PREDICTED BY RF-SCORE:    0.00 PKD
ROOT
HETATM    1  C   UNL     1     -10.976   8.982  65.192  1.00  0.00     4.717 C  
HETATM    2  C   UNL     1      -9.883   9.326  66.210  1.00  0.00    -0.291 C  
HETATM    3  O   UNL     1      -9.674   8.271  67.119  1.00  0.00    -0.164 OA 
HETATM    4  C   UNL     1      -8.607   9.456  65.326  1.00  0.00    -0.182 C  
HETATM    5  C   UNL     1      -9.182   8.903  68.294  1.00  0.00    -0.140 C  
HETATM    6  C   UNL     1      -7.670   9.602  68.096  1.00  0.00    -0.086 C  
HETATM    7  C   UNL     1      -7.897  11.148  68.417  1.00  0.00    -0.133 C  
HETATM    8  C   UNL     1      -7.738  12.684  67.779  1.00  0.00    -0.145 C  
HETATM    9  C   UNL     1      -8.704  12.899  66.535  1.00  0.00     0.039 C  
HETATM   10  C   UNL     1      -9.147  14.290  66.139  1.00  0.00     0.023 C  
HETATM   11  F   UNL     1      -8.179  14.831  65.355  1.00  0.00     1.635 F  
HETATM   12  C   UNL     1      -9.484  15.146  67.355  1.00  0.00    -0.204 C  
HETATM   13  C   UNL     1     -10.431  16.079  67.295  1.00  0.00    -0.308 C  
HETATM   14  C   UNL     1      -9.741  17.111  66.460  1.00  0.00    -0.287 C  
HETATM   15  O   UNL     1     -10.412  17.797  65.707  1.00  0.00    -0.556 OA 
HETATM   16  C   UNL     1      -8.220  17.305  66.677  1.00  0.00    -0.296 C  
HETATM   17  C   UNL     1      -7.401  16.168  67.487  1.00  0.00    -0.185 C  
HETATM   18  C   UNL     1      -8.344  15.292  68.376  1.00  0.00    -0.149 C  
HETATM   19  C   UNL     1      -8.605  16.194  69.609  1.00  0.00     0.219 C  
HETATM   20  C   UNL     1      -8.160  13.774  68.811  1.00  0.00    -0.022 C  
HETATM   21  C   UNL     1      -7.846  13.238  70.211  1.00  0.00     2.887 C  
HETATM   22  C   UNL     1      -9.040  12.251  70.479  1.00  0.00     6.532 C  
HETATM   23  O   UNL     1      -7.706  14.192  71.238  1.00  0.00     1.891 OA 
HETATM   24  C   UNL     1      -8.896  10.971  69.585  1.00  0.00     0.542 C  
HETATM   25  H   UNL     1      -7.511  13.860  72.106  1.00  0.00     0.000 HD 
HETATM   26  C   UNL     1      -8.239   9.997  70.708  1.00  0.00     0.726 C  
HETATM   27  C   UNL     1     -10.038  10.125  68.624  1.00  0.00    -0.172 C  
HETATM   28  O   UNL     1     -10.231  10.472  67.036  1.00  0.00    -0.207 OA 
ENDROOT
BRANCH  27  29
HETATM   29  C   UNL     1     -11.450  10.698  68.779  1.00  0.00    -0.262 C  
HETATM   30  O   UNL     1     -11.864  11.027  69.902  1.00  0.00    -0.289 OA 
BRANCH  29  31
HETATM   31  C   UNL     1     -12.273  11.177  67.591  1.00  0.00     0.979 C  
HETATM   32  O   UNL     1     -13.228  10.274  67.095  1.00  0.00     8.135 OA 
HETATM   33  H   UNL     1     -13.743  10.573  66.354  1.00  0.00     0.000 HD 
ENDBRANCH  29  31
ENDBRANCH  27  29
TORSDOF 2
ENDMDL
MODEL      112
REMARK 921   NORMALIZED FREE ENERGY PREDICTED BY IDOCK:   28.75 KCAL/MOL
REMARK 922        TOTAL FREE ENERGY PREDICTED BY IDOCK:   31.65 KCAL/MOL
REMARK 923 INTER-LIGAND FREE ENERGY PREDICTED BY IDOCK:   31.97 KCAL/MOL
REMARK 924 INTRA-LIGAND FREE ENERGY PREDICTED BY IDOCK:   -0.32 KCAL/MOL
REMARK 927      BINDING AFFINITY PREDICTED BY RF-SCORE:    0.00 PKD
ROOT
HETATM    1  C   UNL     1      -5.955   6.321  73.640  1.00  0.00    -0.062 C  
HETATM    2  C   UNL     1      -6.120   7.133  72.351  1.00  0.00    -0.041 C  
HETATM    3  O   UNL     1      -5.129   8.128  72.238  1.00  0.00    -0.035 OA 
HETATM    4  C   UNL     1      -5.869   6.077  71.235  1.00  0.00    -0.026 C  
HETATM    5  C   UNL     1      -5.729   9.140  71.439  1.00  0.00    -0.063 C  
HETATM    6  C   UNL     1      -6.034   8.657  69.862  1.00  0.00    -0.031 C  
HETATM    7  C   UNL     1      -7.611   8.815  69.691  1.00  0.00    -0.076 C  
HETATM    8  C   UNL     1      -9.005   7.979  69.302  1.00  0.00    -0.148 C  
HETATM    9  C   UNL     1      -9.331   6.859  70.382  1.00  0.00    -0.159 C  
HETATM   10  C   UNL     1     -10.747   6.360  70.565  1.00  0.00    -0.257 C  
HETATM   11  F   UNL     1     -10.973   5.392  69.639  1.00  0.00    -0.390 F  
HETATM   12  C   UNL     1     -11.760   7.496  70.510  1.00  0.00    -0.183 C  
HETATM   13  C   UNL     1     -12.881   7.451  71.226  1.00  0.00    -0.365 C  
HETATM   14  C   UNL     1     -13.645   6.411  70.468  1.00  0.00     2.732 C  
HETATM   15  O   UNL     1     -14.400   5.677  71.083  1.00  0.00     2.989 OA 
HETATM   16  C   UNL     1     -13.494   6.396  68.927  1.00  0.00    11.202 C  
HETATM   17  C   UNL     1     -12.272   7.222  68.259  1.00  0.00     3.300 C  
HETATM   18  C   UNL     1     -11.724   8.329  69.218  1.00  0.00     1.082 C  
HETATM   19  C   UNL     1     -12.767   9.467  69.076  1.00  0.00     3.218 C  
HETATM   20  C   UNL     1     -10.250   8.917  69.305  1.00  0.00    -0.214 C  
HETATM   21  C   UNL     1      -9.780  10.318  68.898  1.00  0.00    -0.189 C  
HETATM   22  C   UNL     1      -9.129  10.862  70.222  1.00  0.00     1.727 C  
HETATM   23  O   UNL     1     -10.761  11.192  68.391  1.00  0.00    -0.176 OA 
HETATM   24  C   UNL     1      -7.777  10.120  70.506  1.00  0.00     0.307 C  
HETATM   25  H   UNL     1     -10.470  12.061  68.139  1.00  0.00     0.000 HD 
HETATM   26  C   UNL     1      -6.779  11.254  69.909  1.00  0.00    -0.067 C  
HETATM   27  C   UNL     1      -7.143   9.430  71.943  1.00  0.00     0.510 C  
HETATM   28  O   UNL     1      -7.384   7.853  72.304  1.00  0.00    -0.076 OA 
ENDROOT
BRANCH  27  29
HETATM   29  C   UNL     1      -8.043   9.702  73.152  1.00  0.00     3.407 C  
HETATM   30  O   UNL     1      -9.208   9.273  73.165  1.00  0.00     0.765 OA 
BRANCH  29  31
HETATM   31  C   UNL     1      -7.498  10.209  74.480  1.00  0.00     3.252 C  
HETATM   32  O   UNL     1      -6.116  10.461  74.525  1.00  0.00     0.040 OA 
HETATM   33  H   UNL     1      -5.775  10.778  75.354  1.00  0.00     0.000 HD 
ENDBRANCH  29  31
ENDBRANCH  27  29
TORSDOF 2
ENDMDL
MODEL      113
REMARK 921   NORMALIZED FREE ENERGY PREDICTED BY IDOCK:   29.33 KCAL/MOL
REMARK 922        TOTAL FREE ENERGY PREDICTED BY IDOCK:   32.29 KCAL/MOL
REMARK 923 INTER-LIGAND FREE ENERGY PREDICTED BY IDOCK:   29.90 KCAL/MOL
REMARK 924 INTRA-LIGAND FREE ENERGY PREDICTED BY IDOCK:    2.40 KCAL/MOL
REMARK 927      BINDING AFFINITY PREDICTED BY RF-SCORE:    0.00 PKD
ROOT
HETATM    1  C   UNL     1      -9.260  19.147  65.922  1.00  0.00     0.068 C  
HETATM    2  C   UNL     1      -9.582  17.814  65.237  1.00  0.00     1.438 C  
HETATM    3  O   UNL     1     -10.591  17.963  64.266  1.00  0.00     1.469 OA 
HETATM    4  C   UNL     1      -8.255  17.468  64.498  1.00  0.00     7.059 C  
HETATM    5  C   UNL     1     -11.211  16.685  64.195  1.00  0.00     0.717 C  
HETATM    6  C   UNL     1     -10.207  15.486  63.588  1.00  0.00     5.266 C  
HETATM    7  C   UNL     1     -10.118  14.406  64.757  1.00  0.00    -0.138 C  
HETATM    8  C   UNL     1      -9.046  13.597  65.752  1.00  0.00     0.468 C  
HETATM    9  C   UNL     1      -8.311  14.595  66.748  1.00  0.00    -0.078 C  
HETATM   10  C   UNL     1      -7.740  14.091  68.055  1.00  0.00    -0.149 C  
HETATM   11  F   UNL     1      -6.504  13.587  67.805  1.00  0.00    -0.109 F  
HETATM   12  C   UNL     1      -8.671  13.094  68.734  1.00  0.00     0.159 C  
HETATM   13  C   UNL     1      -8.734  13.009  70.061  1.00  0.00     3.380 C  
HETATM   14  C   UNL     1      -7.423  12.349  70.352  1.00  0.00     2.964 C  
HETATM   15  O   UNL     1      -6.849  12.624  71.392  1.00  0.00     2.377 OA 
HETATM   16  C   UNL     1      -6.923  11.281  69.348  1.00  0.00    -0.109 C  
HETATM   17  C   UNL     1      -7.620  11.202  67.889  1.00  0.00    -0.099 C  
HETATM   18  C   UNL     1      -9.034  11.867  67.881  1.00  0.00    -0.179 C  
HETATM   19  C   UNL     1      -9.936  10.788  68.534  1.00  0.00    -0.186 C  
HETATM   20  C   UNL     1      -9.784  12.578  66.673  1.00  0.00    -0.244 C  
HETATM   21  C   UNL     1     -11.019  12.075  65.917  1.00  0.00    -0.298 C  
HETATM   22  C   UNL     1     -12.037  13.260  66.092  1.00  0.00    -0.477 C  
HETATM   23  O   UNL     1     -11.560  10.845  66.338  1.00  0.00    -0.055 OA 
HETATM   24  C   UNL     1     -11.589  14.491  65.229  1.00  0.00    -0.359 C  
HETATM   25  H   UNL     1     -12.326  10.533  65.869  1.00  0.00     0.000 HD 
HETATM   26  C   UNL     1     -12.572  14.235  63.961  1.00  0.00    -0.007 C  
HETATM   27  C   UNL     1     -11.485  16.162  65.605  1.00  0.00     0.422 C  
HETATM   28  O   UNL     1     -10.096  16.819  66.166  1.00  0.00    -0.318 OA 
ENDROOT
BRANCH  27  29
HETATM   29  C   UNL     1     -12.033  16.467  67.003  1.00  0.00     1.537 C  
HETATM   30  O   UNL     1     -11.661  17.488  67.603  1.00  0.00     0.458 OA 
BRANCH  29  31
HETATM   31  C   UNL     1     -13.244  15.750  67.581  1.00  0.00     4.216 C  
HETATM   32  O   UNL     1     -13.138  14.354  67.701  1.00  0.00     0.701 OA 
HETATM   33  H   UNL     1     -13.894  13.906  68.062  1.00  0.00     0.000 HD 
ENDBRANCH  29  31
ENDBRANCH  27  29
TORSDOF 2
ENDMDL
MODEL      114
REMARK 921   NORMALIZED FREE ENERGY PREDICTED BY IDOCK:   37.67 KCAL/MOL
REMARK 922        TOTAL FREE ENERGY PREDICTED BY IDOCK:   41.61 KCAL/MOL
REMARK 923 INTER-LIGAND FREE ENERGY PREDICTED BY IDOCK:   41.19 KCAL/MOL
REMARK 924 INTRA-LIGAND FREE ENERGY PREDICTED BY IDOCK:    0.41 KCAL/MOL
REMARK 927      BINDING AFFINITY PREDICTED BY RF-SCORE:    0.00 PKD
ROOT
HETATM    1  C   UNL     1      -5.806  14.600  67.321  1.00  0.00     0.503 C  
HETATM    2  C   UNL     1      -7.249  15.025  67.029  1.00  0.00     0.165 C  
HETATM    3  O   UNL     1      -7.605  14.756  65.693  1.00  0.00     3.276 OA 
HETATM    4  C   UNL     1      -8.085  14.084  67.946  1.00  0.00    -0.156 C  
HETATM    5  C   UNL     1      -8.616  15.711  65.394  1.00  0.00     1.849 C  
HETATM    6  C   UNL     1     -10.030  15.487  66.267  1.00  0.00    -0.313 C  
HETATM    7  C   UNL     1     -10.219  16.844  67.082  1.00  0.00    -0.297 C  
HETATM    8  C   UNL     1     -10.384  17.466  68.624  1.00  0.00    -0.364 C  
HETATM    9  C   UNL     1      -9.066  17.245  69.485  1.00  0.00     0.530 C  
HETATM   10  C   UNL     1      -8.756  18.148  70.658  1.00  0.00     4.730 C  
HETATM   11  F   UNL     1      -9.423  17.672  71.741  1.00  0.00     6.196 F  
HETATM   12  C   UNL     1      -9.069  19.607  70.350  1.00  0.00     1.446 C  
HETATM   13  C   UNL     1      -8.352  20.591  70.886  1.00  0.00     2.176 C  
HETATM   14  C   UNL     1      -8.834  20.536  72.302  1.00  0.00     2.642 C  
HETATM   15  O   UNL     1      -8.054  20.822  73.196  1.00  0.00     3.148 OA 
HETATM   16  C   UNL     1     -10.329  20.206  72.535  1.00  0.00     4.256 C  
HETATM   17  C   UNL     1     -11.185  19.583  71.311  1.00  0.00     5.896 C  
HETATM   18  C   UNL     1     -10.523  19.877  69.926  1.00  0.00     0.555 C  
HETATM   19  C   UNL     1     -10.921  21.350  69.650  1.00  0.00     1.956 C  
HETATM   20  C   UNL     1     -10.592  19.011  68.594  1.00  0.00     0.051 C  
HETATM   21  C   UNL     1     -11.325  19.359  67.294  1.00  0.00     0.313 C  
HETATM   22  C   UNL     1     -10.174  19.301  66.224  1.00  0.00    -0.546 C  
HETATM   23  O   UNL     1     -12.015  20.586  67.265  1.00  0.00     2.332 OA 
HETATM   24  C   UNL     1      -9.736  17.816  65.979  1.00  0.00    -0.145 C  
HETATM   25  H   UNL     1     -12.469  20.802  66.459  1.00  0.00     0.000 HD 
HETATM   26  C   UNL     1     -10.595  17.557  64.625  1.00  0.00     1.696 C  
HETATM   27  C   UNL     1      -8.181  17.096  65.875  1.00  0.00     0.014 C  
HETATM   28  O   UNL     1      -7.454  16.456  67.193  1.00  0.00    -0.153 OA 
ENDROOT
BRANCH  27  29
HETATM   29  C   UNL     1      -7.063  18.140  65.934  1.00  0.00    -0.265 C  
HETATM   30  O   UNL     1      -5.945  17.824  66.371  1.00  0.00    -0.158 OA 
BRANCH  29  31
HETATM   31  C   UNL     1      -7.149  19.472  65.203  1.00  0.00     0.077 C  
HETATM   32  O   UNL     1      -6.544  20.569  65.840  1.00  0.00    -0.219 OA 
HETATM   33  H   UNL     1      -6.597  21.400  65.383  1.00  0.00     0.000 HD 
ENDBRANCH  29  31
ENDBRANCH  27  29
TORSDOF 2
ENDMDL
MODEL      115
REMARK 921   NORMALIZED FREE ENERGY PREDICTED BY IDOCK:   46.20 KCAL/MOL
REMARK 922        TOTAL FREE ENERGY PREDICTED BY IDOCK:   51.14 KCAL/MOL
REMARK 923 INTER-LIGAND FREE ENERGY PREDICTED BY IDOCK:   51.58 KCAL/MOL
REMARK 924 INTRA-LIGAND FREE ENERGY PREDICTED BY IDOCK:   -0.44 KCAL/MOL
REMARK 927      BINDING AFFINITY PREDICTED BY RF-SCORE:    0.00 PKD
ROOT
HETATM    1  C   UNL     1     -11.667   6.626  65.858  1.00  0.00     4.000 C  
HETATM    2  C   UNL     1     -10.307   6.843  66.530  1.00  0.00    -0.045 C  
HETATM    3  O   UNL     1      -9.348   5.923  66.063  1.00  0.00    -0.158 OA 
HETATM    4  C   UNL     1      -9.892   8.260  66.036  1.00  0.00    -0.025 C  
HETATM    5  C   UNL     1      -8.423   5.795  67.135  1.00  0.00    -0.107 C  
HETATM    6  C   UNL     1      -7.556   7.197  67.444  1.00  0.00    -0.109 C  
HETATM    7  C   UNL     1      -7.912   7.565  68.954  1.00  0.00    -0.126 C  
HETATM    8  C   UNL     1      -8.544   8.771  69.923  1.00  0.00    -0.133 C  
HETATM    9  C   UNL     1     -10.079   9.033  69.598  1.00  0.00    -0.202 C  
HETATM   10  C   UNL     1     -10.990   9.640  70.641  1.00  0.00    -0.320 C  
HETATM   11  F   UNL     1     -10.850  10.990  70.585  1.00  0.00    -0.110 F  
HETATM   12  C   UNL     1     -10.729   9.065  72.027  1.00  0.00    -0.333 C  
HETATM   13  C   UNL     1     -11.715   8.933  72.912  1.00  0.00     0.593 C  
HETATM   14  C   UNL     1     -11.937  10.365  73.285  1.00  0.00     6.838 C  
HETATM   15  O   UNL     1     -13.066  10.725  73.573  1.00  0.00     3.883 OA 
HETATM   16  C   UNL     1     -10.692  11.282  73.371  1.00  0.00    17.098 C  
HETATM   17  C   UNL     1      -9.306  10.772  72.708  1.00  0.00    13.694 C  
HETATM   18  C   UNL     1      -9.283   9.219  72.527  1.00  0.00     1.332 C  
HETATM   19  C   UNL     1      -8.964   8.702  73.953  1.00  0.00     0.686 C  
HETATM   20  C   UNL     1      -8.514   8.365  71.428  1.00  0.00    -0.195 C  
HETATM   21  C   UNL     1      -7.307   7.445  71.639  1.00  0.00    -0.075 C  
HETATM   22  C   UNL     1      -7.821   6.068  71.081  1.00  0.00    -0.111 C  
HETATM   23  O   UNL     1      -6.818   7.335  72.956  1.00  0.00    -0.064 OA 
HETATM   24  C   UNL     1      -7.934   6.125  69.518  1.00  0.00    -0.107 C  
HETATM   25  H   UNL     1      -6.070   6.764  73.087  1.00  0.00     0.000 HD 
HETATM   26  C   UNL     1      -6.525   5.394  69.172  1.00  0.00    -0.042 C  
HETATM   27  C   UNL     1      -9.177   5.611  68.452  1.00  0.00    -0.118 C  
HETATM   28  O   UNL     1     -10.357   6.637  67.970  1.00  0.00    -0.160 OA 
ENDROOT
BRANCH  27  29
HETATM   29  C   UNL     1     -10.303   4.885  69.196  1.00  0.00    -0.033 C  
HETATM   30  O   UNL     1     -10.324   3.644  69.226  1.00  0.00     0.692 OA 
BRANCH  29  31
HETATM   31  C   UNL     1     -11.235   5.598  70.165  1.00  0.00     0.014 C  
HETATM   32  O   UNL     1     -12.603   5.304  70.037  1.00  0.00     5.321 OA 
HETATM   33  H   UNL     1     -13.185   5.749  70.643  1.00  0.00     0.000 HD 
ENDBRANCH  29  31
ENDBRANCH  27  29
TORSDOF 2
ENDMDL
MODEL      116
REMARK 921   NORMALIZED FREE ENERGY PREDICTED BY IDOCK:   47.29 KCAL/MOL
REMARK 922        TOTAL FREE ENERGY PREDICTED BY IDOCK:   52.35 KCAL/MOL
REMARK 923 INTER-LIGAND FREE ENERGY PREDICTED BY IDOCK:   52.66 KCAL/MOL
REMARK 924 INTRA-LIGAND FREE ENERGY PREDICTED BY IDOCK:   -0.31 KCAL/MOL
REMARK 927      BINDING AFFINITY PREDICTED BY RF-SCORE:    0.00 PKD
ROOT
HETATM    1  C   UNL     1      -5.339   6.634  62.933  1.00  0.00    -0.030 C  
HETATM    2  C   UNL     1      -6.140   7.646  63.761  1.00  0.00    -0.053 C  
HETATM    3  O   UNL     1      -5.340   8.737  64.155  1.00  0.00    -0.054 OA 
HETATM    4  C   UNL     1      -7.200   8.170  62.748  1.00  0.00    -0.097 C  
HETATM    5  C   UNL     1      -5.944   9.207  65.353  1.00  0.00    -0.058 C  
HETATM    6  C   UNL     1      -7.473   9.858  65.124  1.00  0.00    -0.133 C  
HETATM    7  C   UNL     1      -8.431   8.961  66.031  1.00  0.00    -0.138 C  
HETATM    8  C   UNL     1      -9.783   7.981  65.985  1.00  0.00    -0.002 C  
HETATM    9  C   UNL     1      -9.519   6.666  65.131  1.00  0.00     0.974 C  
HETATM   10  C   UNL     1     -10.337   5.417  65.374  1.00  0.00     0.505 C  
HETATM   11  F   UNL     1     -11.490   5.526  64.664  1.00  0.00     1.484 F  
HETATM   12  C   UNL     1     -10.566   5.169  66.860  1.00  0.00    -0.234 C  
HETATM   13  C   UNL     1     -10.663   3.932  67.342  1.00  0.00     2.074 C  
HETATM   14  C   UNL     1     -12.012   3.544  66.824  1.00  0.00    11.936 C  
HETATM   15  O   UNL     1     -12.212   2.378  66.529  1.00  0.00    14.018 OA 
HETATM   16  C   UNL     1     -13.103   4.642  66.783  1.00  0.00    16.745 C  
HETATM   17  C   UNL     1     -12.652   6.190  66.933  1.00  0.00     7.010 C  
HETATM   18  C   UNL     1     -11.249   6.325  67.609  1.00  0.00    -0.225 C  
HETATM   19  C   UNL     1     -11.559   6.114  69.113  1.00  0.00     0.117 C  
HETATM   20  C   UNL     1     -10.163   7.469  67.407  1.00  0.00    -0.318 C  
HETATM   21  C   UNL     1      -9.742   8.542  68.417  1.00  0.00    -0.155 C  
HETATM   22  C   UNL     1      -8.192   8.312  68.540  1.00  0.00    -0.131 C  
HETATM   23  O   UNL     1     -10.383   8.517  69.671  1.00  0.00    -0.208 OA 
HETATM   24  C   UNL     1      -7.469   8.778  67.228  1.00  0.00    -0.089 C  
HETATM   25  H   UNL     1     -10.122   9.182  70.297  1.00  0.00     0.000 HD 
HETATM   26  C   UNL     1      -6.987  10.237  67.755  1.00  0.00    -0.083 C  
HETATM   27  C   UNL     1      -6.253   8.029  66.277  1.00  0.00    -0.046 C  
HETATM   28  O   UNL     1      -6.641   7.078  65.003  1.00  0.00    -0.045 OA 
ENDROOT
BRANCH  27  29
HETATM   29  C   UNL     1      -5.747   6.732  66.915  1.00  0.00    -0.014 C  
HETATM   30  O   UNL     1      -5.257   6.755  68.056  1.00  0.00    -0.007 OA 
BRANCH  29  31
HETATM   31  C   UNL     1      -6.088   5.358  66.356  1.00  0.00    -0.030 C  
HETATM   32  O   UNL     1      -6.884   4.538  67.173  1.00  0.00    -0.053 OA 
HETATM   33  H   UNL     1      -7.097   3.680  66.824  1.00  0.00     0.000 HD 
ENDBRANCH  29  31
ENDBRANCH  27  29
TORSDOF 2
ENDMDL
MODEL      117
REMARK 921   NORMALIZED FREE ENERGY PREDICTED BY IDOCK:   48.39 KCAL/MOL
REMARK 922        TOTAL FREE ENERGY PREDICTED BY IDOCK:   53.58 KCAL/MOL
REMARK 923 INTER-LIGAND FREE ENERGY PREDICTED BY IDOCK:   48.41 KCAL/MOL
REMARK 924 INTRA-LIGAND FREE ENERGY PREDICTED BY IDOCK:    5.18 KCAL/MOL
REMARK 927      BINDING AFFINITY PREDICTED BY RF-SCORE:    0.00 PKD
ROOT
HETATM    1  C   UNL     1      -8.335  12.135  72.226  1.00  0.00    19.439 C  
HETATM    2  C   UNL     1      -9.197  12.428  70.993  1.00  0.00    11.084 C  
HETATM    3  O   UNL     1      -9.283  11.307  70.146  1.00  0.00     1.460 OA 
HETATM    4  C   UNL     1     -10.609  12.678  71.602  1.00  0.00     8.301 C  
HETATM    5  C   UNL     1      -9.512  11.852  68.853  1.00  0.00     0.110 C  
HETATM    6  C   UNL     1     -10.996  12.619  68.701  1.00  0.00    -0.292 C  
HETATM    7  C   UNL     1     -10.635  14.122  68.310  1.00  0.00    -0.254 C  
HETATM    8  C   UNL     1     -10.833  15.712  68.784  1.00  0.00    -0.262 C  
HETATM    9  C   UNL     1     -10.110  15.999  70.171  1.00  0.00     0.076 C  
HETATM   10  C   UNL     1      -9.681  17.403  70.535  1.00  0.00     2.692 C  
HETATM   11  F   UNL     1     -10.751  18.042  71.074  1.00  0.00     0.803 F  
HETATM   12  C   UNL     1      -9.077  18.138  69.345  1.00  0.00     0.400 C  
HETATM   13  C   UNL     1      -8.112  19.040  69.513  1.00  0.00     0.277 C  
HETATM   14  C   UNL     1      -8.895  20.163  70.117  1.00  0.00     1.338 C  
HETATM   15  O   UNL     1      -8.344  20.888  70.930  1.00  0.00     1.697 OA 
HETATM   16  C   UNL     1     -10.335  20.391  69.597  1.00  0.00     0.280 C  
HETATM   17  C   UNL     1     -11.043  19.218  68.735  1.00  0.00     1.278 C  
HETATM   18  C   UNL     1      -9.995  18.236  68.115  1.00  0.00    -0.377 C  
HETATM   19  C   UNL     1      -9.460  19.019  66.889  1.00  0.00    -0.355 C  
HETATM   20  C   UNL     1     -10.170  16.694  67.772  1.00  0.00    -0.292 C  
HETATM   21  C   UNL     1     -10.240  16.051  66.383  1.00  0.00    -0.305 C  
HETATM   22  C   UNL     1      -9.068  15.004  66.428  1.00  0.00    -0.312 C  
HETATM   23  O   UNL     1     -10.135  16.918  65.278  1.00  0.00    -0.577 OA 
HETATM   24  C   UNL     1      -9.443  13.811  67.373  1.00  0.00    -0.224 C  
HETATM   25  H   UNL     1     -10.179  16.519  64.417  1.00  0.00     0.000 HD 
HETATM   26  C   UNL     1      -9.925  12.768  66.225  1.00  0.00    -0.269 C  
HETATM   27  C   UNL     1      -8.547  13.012  68.600  1.00  0.00     0.045 C  
HETATM   28  O   UNL     1      -8.642  13.486  70.163  1.00  0.00     2.373 OA 
ENDROOT
BRANCH  27  29
HETATM   29  C   UNL     1      -7.104  13.520  68.676  1.00  0.00    -0.106 C  
HETATM   30  O   UNL     1      -6.656  14.244  67.773  1.00  0.00    -0.154 OA 
BRANCH  29  31
HETATM   31  C   UNL     1      -6.276  13.441  69.950  1.00  0.00    -0.102 C  
HETATM   32  O   UNL     1      -6.901  12.844  71.058  1.00  0.00     0.631 OA 
HETATM   33  H   UNL     1      -6.384  12.794  71.854  1.00  0.00     0.000 HD 
ENDBRANCH  29  31
ENDBRANCH  27  29
TORSDOF 2
ENDMDL
MODEL      118
REMARK 921   NORMALIZED FREE ENERGY PREDICTED BY IDOCK:   56.10 KCAL/MOL
REMARK 922        TOTAL FREE ENERGY PREDICTED BY IDOCK:   62.19 KCAL/MOL
REMARK 923 INTER-LIGAND FREE ENERGY PREDICTED BY IDOCK:   61.27 KCAL/MOL
REMARK 924 INTRA-LIGAND FREE ENERGY PREDICTED BY IDOCK:    0.92 KCAL/MOL
REMARK 927      BINDING AFFINITY PREDICTED BY RF-SCORE:    0.00 PKD
ROOT
HETATM    1  C   UNL     1      -6.341   7.947  70.337  1.00  0.00    -0.037 C  
HETATM    2  C   UNL     1      -6.244   9.098  69.329  1.00  0.00    -0.041 C  
HETATM    3  O   UNL     1      -5.613  10.224  69.893  1.00  0.00    -0.040 OA 
HETATM    4  C   UNL     1      -5.304   8.524  68.228  1.00  0.00    -0.034 C  
HETATM    5  C   UNL     1      -6.138  11.329  69.167  1.00  0.00    -0.053 C  
HETATM    6  C   UNL     1      -5.684  11.347  67.552  1.00  0.00    -0.056 C  
HETATM    7  C   UNL     1      -7.059  11.289  66.747  1.00  0.00    -0.143 C  
HETATM    8  C   UNL     1      -7.905  10.408  65.606  1.00  0.00    -0.154 C  
HETATM    9  C   UNL     1      -8.270   8.958  66.146  1.00  0.00    -0.116 C  
HETATM   10  C   UNL     1      -9.445   8.199  65.569  1.00  0.00     0.342 C  
HETATM   11  F   UNL     1      -9.023   7.566  64.444  1.00  0.00     0.254 F  
HETATM   12  C   UNL     1     -10.647   9.106  65.336  1.00  0.00     1.867 C  
HETATM   13  C   UNL     1     -11.889   8.644  65.456  1.00  0.00     9.807 C  
HETATM   14  C   UNL     1     -11.983   7.799  64.224  1.00  0.00    20.545 C  
HETATM   15  O   UNL     1     -12.667   6.789  64.259  1.00  0.00    12.180 OA 
HETATM   16  C   UNL     1     -11.275   8.316  62.948  1.00  0.00    14.729 C  
HETATM   17  C   UNL     1     -10.186   9.505  63.093  1.00  0.00     2.468 C  
HETATM   18  C   UNL     1     -10.376  10.311  64.419  1.00  0.00     0.070 C  
HETATM   19  C   UNL     1     -11.572  11.243  64.098  1.00  0.00     0.079 C  
HETATM   20  C   UNL     1      -9.275  11.074  65.276  1.00  0.00    -0.229 C  
HETATM   21  C   UNL     1      -9.113  12.587  65.449  1.00  0.00     0.512 C  
HETATM   22  C   UNL     1      -9.185  12.767  67.009  1.00  0.00    -0.221 C  
HETATM   23  O   UNL     1     -10.044  13.405  64.778  1.00  0.00    -0.544 OA 
HETATM   24  C   UNL     1      -7.883  12.207  67.680  1.00  0.00    -0.153 C  
HETATM   25  H   UNL     1      -9.943  14.343  64.884  1.00  0.00     0.000 HD 
HETATM   26  C   UNL     1      -7.107  13.623  67.859  1.00  0.00    -0.151 C  
HETATM   27  C   UNL     1      -7.657  11.199  69.050  1.00  0.00    -0.119 C  
HETATM   28  O   UNL     1      -7.549   9.574  68.897  1.00  0.00    -0.073 OA 
ENDROOT
BRANCH  27  29
HETATM   29  C   UNL     1      -8.978  10.907  69.768  1.00  0.00     0.625 C  
HETATM   30  O   UNL     1     -10.034  11.403  69.345  1.00  0.00     0.019 OA 
BRANCH  29  31
HETATM   31  C   UNL     1      -9.121   9.792  70.794  1.00  0.00     0.235 C  
HETATM   32  O   UNL     1     -10.435   9.434  71.140  1.00  0.00    -0.299 OA 
HETATM   33  H   UNL     1     -10.525   8.738  71.781  1.00  0.00     0.000 HD 
ENDBRANCH  29  31
ENDBRANCH  27  29
TORSDOF 2
ENDMDL
MODEL      119
REMARK 921   NORMALIZED FREE ENERGY PREDICTED BY IDOCK:   70.63 KCAL/MOL
REMARK 922        TOTAL FREE ENERGY PREDICTED BY IDOCK:   78.43 KCAL/MOL
REMARK 923 INTER-LIGAND FREE ENERGY PREDICTED BY IDOCK:   78.64 KCAL/MOL
REMARK 924 INTRA-LIGAND FREE ENERGY PREDICTED BY IDOCK:   -0.21 KCAL/MOL
REMARK 927      BINDING AFFINITY PREDICTED BY RF-SCORE:    0.00 PKD
ROOT
HETATM    1  C   UNL     1      -6.010   6.021  71.795  1.00  0.00    -0.035 C  
HETATM    2  C   UNL     1      -6.131   6.572  70.370  1.00  0.00    -0.031 C  
HETATM    3  O   UNL     1      -5.129   7.524  70.099  1.00  0.00    -0.022 OA 
HETATM    4  C   UNL     1      -5.856   5.321  69.484  1.00  0.00    -0.016 C  
HETATM    5  C   UNL     1      -5.696   8.366  69.103  1.00  0.00    -0.038 C  
HETATM    6  C   UNL     1      -5.959   7.592  67.639  1.00  0.00    -0.039 C  
HETATM    7  C   UNL     1      -7.529   7.719  67.393  1.00  0.00    -0.093 C  
HETATM    8  C   UNL     1      -8.918   6.828  67.129  1.00  0.00    -0.116 C  
HETATM    9  C   UNL     1      -9.285   5.936  68.393  1.00  0.00    -0.118 C  
HETATM   10  C   UNL     1     -10.710   5.485  68.625  1.00  0.00    -0.106 C  
HETATM   11  F   UNL     1     -10.918   4.359  67.895  1.00  0.00     0.462 F  
HETATM   12  C   UNL     1     -11.712   6.592  68.323  1.00  0.00     0.736 C  
HETATM   13  C   UNL     1     -12.854   6.688  69.000  1.00  0.00     5.295 C  
HETATM   14  C   UNL     1     -13.603   5.525  68.432  1.00  0.00    20.201 C  
HETATM   15  O   UNL     1     -14.383   4.924  69.153  1.00  0.00    19.408 OA 
HETATM   16  C   UNL     1     -13.408   5.215  66.927  1.00  0.00    17.774 C  
HETATM   17  C   UNL     1     -12.160   5.894  66.152  1.00  0.00     3.191 C  
HETATM   18  C   UNL     1     -11.631   7.163  66.897  1.00  0.00     1.308 C  
HETATM   19  C   UNL     1     -12.659   8.256  66.509  1.00  0.00    12.126 C  
HETATM   20  C   UNL     1     -10.154   7.752  66.915  1.00  0.00    -0.356 C  
HETATM   21  C   UNL     1      -9.661   9.048  66.262  1.00  0.00    -0.260 C  
HETATM   22  C   UNL     1      -9.044   9.833  67.477  1.00  0.00    -0.142 C  
HETATM   23  O   UNL     1     -10.619   9.812  65.568  1.00  0.00     0.003 OA 
HETATM   24  C   UNL     1      -7.708   9.155  67.938  1.00  0.00    -0.093 C  
HETATM   25  H   UNL     1     -10.314  10.615  65.163  1.00  0.00     0.000 HD 
HETATM   26  C   UNL     1      -6.683  10.151  67.166  1.00  0.00    -0.074 C  
HETATM   27  C   UNL     1      -7.122   8.752  69.500  1.00  0.00    -0.055 C  
HETATM   28  O   UNL     1      -7.387   7.273  70.148  1.00  0.00    -0.076 OA 
ENDROOT
BRANCH  27  29
HETATM   29  C   UNL     1      -8.054   9.253  70.606  1.00  0.00    -0.176 C  
HETATM   30  O   UNL     1      -8.407  10.443  70.626  1.00  0.00     0.416 OA 
BRANCH  29  31
HETATM   31  C   UNL     1      -8.825   8.307  71.516  1.00  0.00    -0.168 C  
HETATM   32  O   UNL     1      -8.488   8.347  72.880  1.00  0.00    -0.268 OA 
HETATM   33  H   UNL     1      -8.969   7.757  73.448  1.00  0.00     0.000 HD 
ENDBRANCH  29  31
ENDBRANCH  27  29
TORSDOF 2
ENDMDL
