MODEL        1
REMARK 921   NORMALIZED FREE ENERGY PREDICTED BY IDOCK:   -7.06 KCAL/MOL
REMARK 922        TOTAL FREE ENERGY PREDICTED BY IDOCK:   -7.87 KCAL/MOL
REMARK 923 INTER-LIGAND FREE ENERGY PREDICTED BY IDOCK:   -7.47 KCAL/MOL
REMARK 924 INTRA-LIGAND FREE ENERGY PREDICTED BY IDOCK:   -0.39 KCAL/MOL
REMARK 927      BINDING AFFINITY PREDICTED BY RF-SCORE:    0.00 PKD
ROOT
HETATM    1  C   UNL     1      -9.987  15.032  66.754  1.00  0.00    -0.254 C  
HETATM    2  C   UNL     1     -11.467  14.638  66.771  1.00  0.00    -0.371 C  
HETATM    3  C   UNL     1     -11.681  13.508  67.768  1.00  0.00    -0.394 A  
HETATM    4  C   UNL     1     -11.955  14.340  65.352  1.00  0.00    -0.383 C  
HETATM    5  C   UNL     1     -11.922  13.803  69.117  1.00  0.00    -0.403 A  
HETATM    6  O   UNL     1     -13.258  13.971  65.291  1.00  0.00    -0.782 OA 
HETATM    7  O   UNL     1     -11.277  14.451  64.341  1.00  0.00    -0.326 OA 
HETATM    8  C   UNL     1     -11.993  12.783  70.075  1.00  0.00    -0.301 A  
HETATM    9  F   UNL     1     -12.170  13.163  71.350  1.00  0.00    -0.373 F  
HETATM   10  C   UNL     1     -11.847  11.426  69.743  1.00  0.00    -0.435 A  
HETATM   11  C   UNL     1     -11.650  11.147  68.375  1.00  0.00    -0.376 A  
HETATM   12  C   UNL     1     -11.551  12.163  67.410  1.00  0.00    -0.410 A  
ENDROOT
BRANCH  10  13
HETATM   13  C   UNL     1     -11.856  10.335  70.757  1.00  0.00    -0.459 A  
HETATM   14  C   UNL     1     -10.706   9.585  71.066  1.00  0.00    -0.411 A  
HETATM   15  C   UNL     1     -10.732   8.550  72.011  1.00  0.00    -0.410 A  
HETATM   16  C   UNL     1     -11.910   8.244  72.684  1.00  0.00    -0.382 A  
HETATM   17  C   UNL     1     -13.062   8.968  72.407  1.00  0.00    -0.487 A  
HETATM   18  C   UNL     1     -13.035   9.992  71.450  1.00  0.00    -0.517 A  
ENDBRANCH  10  13
TORSDOF 1
ENDMDL
MODEL        2
REMARK 921   NORMALIZED FREE ENERGY PREDICTED BY IDOCK:   -7.03 KCAL/MOL
REMARK 922        TOTAL FREE ENERGY PREDICTED BY IDOCK:   -7.83 KCAL/MOL
REMARK 923 INTER-LIGAND FREE ENERGY PREDICTED BY IDOCK:   -7.44 KCAL/MOL
REMARK 924 INTRA-LIGAND FREE ENERGY PREDICTED BY IDOCK:   -0.39 KCAL/MOL
REMARK 927      BINDING AFFINITY PREDICTED BY RF-SCORE:    0.00 PKD
ROOT
HETATM    1  C   UNL     1     -10.200  15.182  66.961  1.00  0.00    -0.262 C  
HETATM    2  C   UNL     1     -11.629  14.636  66.879  1.00  0.00    -0.374 C  
HETATM    3  C   UNL     1     -11.778  13.457  67.830  1.00  0.00    -0.394 A  
HETATM    4  C   UNL     1     -12.003  14.338  65.426  1.00  0.00    -0.383 C  
HETATM    5  C   UNL     1     -12.124  13.679  69.169  1.00  0.00    -0.361 A  
HETATM    6  O   UNL     1     -13.253  13.837  65.278  1.00  0.00    -0.755 OA 
HETATM    7  O   UNL     1     -11.284  14.553  64.460  1.00  0.00    -0.360 OA 
HETATM    8  C   UNL     1     -12.140  12.626  70.093  1.00  0.00    -0.294 A  
HETATM    9  F   UNL     1     -12.428  12.941  71.366  1.00  0.00    -0.421 F  
HETATM   10  C   UNL     1     -11.832  11.303  69.732  1.00  0.00    -0.437 A  
HETATM   11  C   UNL     1     -11.531  11.093  68.371  1.00  0.00    -0.377 A  
HETATM   12  C   UNL     1     -11.486  12.145  67.442  1.00  0.00    -0.415 A  
ENDROOT
BRANCH  10  13
HETATM   13  C   UNL     1     -11.783  10.183  70.713  1.00  0.00    -0.446 A  
HETATM   14  C   UNL     1     -12.935   9.694  71.356  1.00  0.00    -0.474 A  
HETATM   15  C   UNL     1     -12.872   8.649  72.289  1.00  0.00    -0.438 A  
HETATM   16  C   UNL     1     -11.654   8.055  72.595  1.00  0.00    -0.448 A  
HETATM   17  C   UNL     1     -10.497   8.509  71.975  1.00  0.00    -0.407 A  
HETATM   18  C   UNL     1     -10.562   9.564  71.055  1.00  0.00    -0.392 A  
ENDBRANCH  10  13
TORSDOF 1
ENDMDL
MODEL        3
REMARK 921   NORMALIZED FREE ENERGY PREDICTED BY IDOCK:   -6.59 KCAL/MOL
REMARK 922        TOTAL FREE ENERGY PREDICTED BY IDOCK:   -7.36 KCAL/MOL
REMARK 923 INTER-LIGAND FREE ENERGY PREDICTED BY IDOCK:   -7.02 KCAL/MOL
REMARK 924 INTRA-LIGAND FREE ENERGY PREDICTED BY IDOCK:   -0.34 KCAL/MOL
REMARK 927      BINDING AFFINITY PREDICTED BY RF-SCORE:    0.00 PKD
ROOT
HETATM    1  C   UNL     1     -12.399  14.291  64.476  1.00  0.00    -0.432 C  
HETATM    2  C   UNL     1     -10.999  14.166  65.083  1.00  0.00    -0.361 C  
HETATM    3  C   UNL     1     -11.066  13.324  66.349  1.00  0.00    -0.313 A  
HETATM    4  C   UNL     1     -10.372  15.549  65.267  1.00  0.00    -0.386 C  
HETATM    5  C   UNL     1     -10.966  11.928  66.266  1.00  0.00    -0.345 A  
HETATM    6  O   UNL     1      -9.133  15.517  65.813  1.00  0.00    -0.286 OA 
HETATM    7  O   UNL     1     -10.893  16.603  64.930  1.00  0.00    -0.697 OA 
HETATM    8  C   UNL     1     -11.155  11.124  67.398  1.00  0.00    -0.307 A  
HETATM    9  F   UNL     1     -11.097   9.796  67.213  1.00  0.00    -0.332 F  
HETATM   10  C   UNL     1     -11.433  11.663  68.665  1.00  0.00    -0.349 A  
HETATM   11  C   UNL     1     -11.484  13.069  68.736  1.00  0.00    -0.340 A  
HETATM   12  C   UNL     1     -11.323  13.884  67.604  1.00  0.00    -0.335 A  
ENDROOT
BRANCH  10  13
HETATM   13  C   UNL     1     -11.699  10.821  69.866  1.00  0.00    -0.412 A  
HETATM   14  C   UNL     1     -12.895  10.914  70.600  1.00  0.00    -0.340 A  
HETATM   15  C   UNL     1     -13.126  10.128  71.737  1.00  0.00    -0.568 A  
HETATM   16  C   UNL     1     -12.169   9.215  72.164  1.00  0.00    -0.408 A  
HETATM   17  C   UNL     1     -10.978   9.093  71.460  1.00  0.00    -0.434 A  
HETATM   18  C   UNL     1     -10.746   9.892  70.333  1.00  0.00    -0.379 A  
ENDBRANCH  10  13
TORSDOF 1
ENDMDL
MODEL        4
REMARK 921   NORMALIZED FREE ENERGY PREDICTED BY IDOCK:   -6.48 KCAL/MOL
REMARK 922        TOTAL FREE ENERGY PREDICTED BY IDOCK:   -7.25 KCAL/MOL
REMARK 923 INTER-LIGAND FREE ENERGY PREDICTED BY IDOCK:   -6.89 KCAL/MOL
REMARK 924 INTRA-LIGAND FREE ENERGY PREDICTED BY IDOCK:   -0.35 KCAL/MOL
REMARK 927      BINDING AFFINITY PREDICTED BY RF-SCORE:    0.00 PKD
ROOT
HETATM    1  C   UNL     1     -10.608  19.161  65.985  1.00  0.00    -0.524 C  
HETATM    2  C   UNL     1      -9.572  18.139  66.462  1.00  0.00    -0.318 C  
HETATM    3  C   UNL     1     -10.194  17.241  67.522  1.00  0.00    -0.328 A  
HETATM    4  C   UNL     1      -8.287  18.846  66.896  1.00  0.00    -0.280 C  
HETATM    5  C   UNL     1     -10.896  16.091  67.138  1.00  0.00    -0.239 A  
HETATM    6  O   UNL     1      -7.326  18.002  67.344  1.00  0.00    -0.200 OA 
HETATM    7  O   UNL     1      -8.093  20.052  66.825  1.00  0.00    -0.296 OA 
HETATM    8  C   UNL     1     -11.587  15.320  68.082  1.00  0.00    -0.330 A  
HETATM    9  F   UNL     1     -12.279  14.269  67.616  1.00  0.00    -0.397 F  
HETATM   10  C   UNL     1     -11.600  15.640  69.450  1.00  0.00    -0.378 A  
HETATM   11  C   UNL     1     -10.850  16.774  69.822  1.00  0.00    -0.156 A  
HETATM   12  C   UNL     1     -10.176  17.569  68.881  1.00  0.00    -0.353 A  
ENDROOT
BRANCH  10  13
HETATM   13  C   UNL     1     -12.380  14.869  70.458  1.00  0.00    -0.400 A  
HETATM   14  C   UNL     1     -12.163  13.498  70.690  1.00  0.00    -0.434 A  
HETATM   15  C   UNL     1     -12.914  12.780  71.631  1.00  0.00    -0.402 A  
HETATM   16  C   UNL     1     -13.897  13.419  72.377  1.00  0.00    -0.665 A  
HETATM   17  C   UNL     1     -14.135  14.773  72.178  1.00  0.00    -0.604 A  
HETATM   18  C   UNL     1     -13.391  15.483  71.226  1.00  0.00    -0.588 A  
ENDBRANCH  10  13
TORSDOF 1
ENDMDL
MODEL        5
REMARK 921   NORMALIZED FREE ENERGY PREDICTED BY IDOCK:   -6.46 KCAL/MOL
REMARK 922        TOTAL FREE ENERGY PREDICTED BY IDOCK:   -7.23 KCAL/MOL
REMARK 923 INTER-LIGAND FREE ENERGY PREDICTED BY IDOCK:   -6.92 KCAL/MOL
REMARK 924 INTRA-LIGAND FREE ENERGY PREDICTED BY IDOCK:   -0.31 KCAL/MOL
REMARK 927      BINDING AFFINITY PREDICTED BY RF-SCORE:    0.00 PKD
ROOT
HETATM    1  C   UNL     1     -12.650  12.270  64.308  1.00  0.00    -0.470 C  
HETATM    2  C   UNL     1     -11.415  12.148  65.205  1.00  0.00    -0.388 C  
HETATM    3  C   UNL     1     -11.028  13.524  65.729  1.00  0.00    -0.285 A  
HETATM    4  C   UNL     1     -10.296  11.404  64.474  1.00  0.00    -0.313 C  
HETATM    5  C   UNL     1     -11.617  14.016  66.902  1.00  0.00    -0.407 A  
HETATM    6  O   UNL     1      -9.163  11.270  65.205  1.00  0.00    -0.210 OA 
HETATM    7  O   UNL     1     -10.390  10.928  63.351  1.00  0.00    -0.337 OA 
HETATM    8  C   UNL     1     -11.378  15.328  67.332  1.00  0.00    -0.284 A  
HETATM    9  F   UNL     1     -12.029  15.731  68.434  1.00  0.00    -0.363 F  
HETATM   10  C   UNL     1     -10.531  16.206  66.635  1.00  0.00    -0.300 A  
HETATM   11  C   UNL     1      -9.913  15.677  65.484  1.00  0.00    -0.364 A  
HETATM   12  C   UNL     1     -10.166  14.373  65.028  1.00  0.00    -0.406 A  
ENDROOT
BRANCH  10  13
HETATM   13  C   UNL     1     -10.314  17.622  67.043  1.00  0.00    -0.330 A  
HETATM   14  C   UNL     1      -9.924  17.978  68.347  1.00  0.00    -0.382 A  
HETATM   15  C   UNL     1      -9.738  19.316  68.723  1.00  0.00    -0.510 A  
HETATM   16  C   UNL     1      -9.926  20.336  67.798  1.00  0.00    -0.529 A  
HETATM   17  C   UNL     1     -10.307  20.021  66.500  1.00  0.00    -0.572 A  
HETATM   18  C   UNL     1     -10.506  18.683  66.134  1.00  0.00    -0.473 A  
ENDBRANCH  10  13
TORSDOF 1
ENDMDL
MODEL        6
REMARK 921   NORMALIZED FREE ENERGY PREDICTED BY IDOCK:   -6.38 KCAL/MOL
REMARK 922        TOTAL FREE ENERGY PREDICTED BY IDOCK:   -7.14 KCAL/MOL
REMARK 923 INTER-LIGAND FREE ENERGY PREDICTED BY IDOCK:   -6.87 KCAL/MOL
REMARK 924 INTRA-LIGAND FREE ENERGY PREDICTED BY IDOCK:   -0.27 KCAL/MOL
REMARK 927      BINDING AFFINITY PREDICTED BY RF-SCORE:    0.00 PKD
ROOT
HETATM    1  C   UNL     1     -14.201   7.811  71.511  1.00  0.00    -0.540 C  
HETATM    2  C   UNL     1     -13.018   8.404  72.281  1.00  0.00    -0.338 C  
HETATM    3  C   UNL     1     -12.622   9.735  71.659  1.00  0.00    -0.509 A  
HETATM    4  C   UNL     1     -11.883   7.383  72.384  1.00  0.00    -0.232 C  
HETATM    5  C   UNL     1     -13.257  10.915  72.069  1.00  0.00    -0.456 A  
HETATM    6  O   UNL     1     -10.794   7.845  73.044  1.00  0.00    -0.383 OA 
HETATM    7  O   UNL     1     -11.932   6.238  71.958  1.00  0.00    -0.330 OA 
HETATM    8  C   UNL     1     -13.005  12.132  71.422  1.00  0.00    -0.257 A  
HETATM    9  F   UNL     1     -13.701  13.198  71.846  1.00  0.00    -0.468 F  
HETATM   10  C   UNL     1     -12.100  12.242  70.353  1.00  0.00    -0.385 A  
HETATM   11  C   UNL     1     -11.438  11.053  69.985  1.00  0.00    -0.398 A  
HETATM   12  C   UNL     1     -11.703   9.823  70.609  1.00  0.00    -0.377 A  
ENDROOT
BRANCH  10  13
HETATM   13  C   UNL     1     -11.867  13.514  69.613  1.00  0.00    -0.398 A  
HETATM   14  C   UNL     1     -11.897  13.584  68.208  1.00  0.00    -0.401 A  
HETATM   15  C   UNL     1     -11.660  14.783  67.523  1.00  0.00    -0.379 A  
HETATM   16  C   UNL     1     -11.398  15.953  68.228  1.00  0.00    -0.342 A  
HETATM   17  C   UNL     1     -11.366  15.921  69.616  1.00  0.00    -0.342 A  
HETATM   18  C   UNL     1     -11.588  14.716  70.295  1.00  0.00    -0.335 A  
ENDBRANCH  10  13
TORSDOF 1
ENDMDL
MODEL        7
REMARK 921   NORMALIZED FREE ENERGY PREDICTED BY IDOCK:   -6.36 KCAL/MOL
REMARK 922        TOTAL FREE ENERGY PREDICTED BY IDOCK:   -7.12 KCAL/MOL
REMARK 923 INTER-LIGAND FREE ENERGY PREDICTED BY IDOCK:   -6.74 KCAL/MOL
REMARK 924 INTRA-LIGAND FREE ENERGY PREDICTED BY IDOCK:   -0.38 KCAL/MOL
REMARK 927      BINDING AFFINITY PREDICTED BY RF-SCORE:    0.00 PKD
ROOT
HETATM    1  C   UNL     1     -13.770   9.796  71.470  1.00  0.00    -0.264 C  
HETATM    2  C   UNL     1     -12.296  10.207  71.529  1.00  0.00    -0.505 C  
HETATM    3  C   UNL     1     -11.976  11.120  70.354  1.00  0.00    -0.469 A  
HETATM    4  C   UNL     1     -11.401   8.972  71.642  1.00  0.00    -0.360 C  
HETATM    5  C   UNL     1     -12.187  12.501  70.464  1.00  0.00    -0.382 A  
HETATM    6  O   UNL     1     -10.078   9.260  71.686  1.00  0.00    -0.311 OA 
HETATM    7  O   UNL     1     -11.806   7.821  71.727  1.00  0.00    -0.270 OA 
HETATM    8  C   UNL     1     -12.024  13.345  69.358  1.00  0.00    -0.315 A  
HETATM    9  F   UNL     1     -12.303  14.645  69.542  1.00  0.00    -0.339 F  
HETATM   10  C   UNL     1     -11.628  12.866  68.098  1.00  0.00    -0.378 A  
HETATM   11  C   UNL     1     -11.376  11.482  68.019  1.00  0.00    -0.368 A  
HETATM   12  C   UNL     1     -11.562  10.623  69.115  1.00  0.00    -0.342 A  
ENDROOT
BRANCH  10  13
HETATM   13  C   UNL     1     -11.511  13.739  66.896  1.00  0.00    -0.368 A  
HETATM   14  C   UNL     1     -12.362  13.607  65.784  1.00  0.00    -0.524 A  
HETATM   15  C   UNL     1     -12.231  14.424  64.653  1.00  0.00    -0.479 A  
HETATM   16  C   UNL     1     -11.250  15.408  64.609  1.00  0.00    -0.374 A  
HETATM   17  C   UNL     1     -10.395  15.570  65.691  1.00  0.00    -0.407 A  
HETATM   18  C   UNL     1     -10.520  14.740  66.813  1.00  0.00    -0.282 A  
ENDBRANCH  10  13
TORSDOF 1
ENDMDL
MODEL        8
REMARK 921   NORMALIZED FREE ENERGY PREDICTED BY IDOCK:   -6.35 KCAL/MOL
REMARK 922        TOTAL FREE ENERGY PREDICTED BY IDOCK:   -7.12 KCAL/MOL
REMARK 923 INTER-LIGAND FREE ENERGY PREDICTED BY IDOCK:   -6.93 KCAL/MOL
REMARK 924 INTRA-LIGAND FREE ENERGY PREDICTED BY IDOCK:   -0.18 KCAL/MOL
REMARK 927      BINDING AFFINITY PREDICTED BY RF-SCORE:    0.00 PKD
ROOT
HETATM    1  C   UNL     1     -12.660  12.139  63.800  1.00  0.00    -0.585 C  
HETATM    2  C   UNL     1     -11.470  12.826  64.477  1.00  0.00    -0.389 C  
HETATM    3  C   UNL     1     -11.240  12.209  65.849  1.00  0.00    -0.384 A  
HETATM    4  C   UNL     1     -11.663  14.343  64.482  1.00  0.00    -0.419 C  
HETATM    5  C   UNL     1     -10.433  11.070  65.976  1.00  0.00    -0.304 A  
HETATM    6  O   UNL     1     -10.650  15.018  65.078  1.00  0.00    -0.384 OA 
HETATM    7  O   UNL     1     -12.607  14.930  63.972  1.00  0.00    -0.832 OA 
HETATM    8  C   UNL     1     -10.310  10.407  67.205  1.00  0.00    -0.238 A  
HETATM    9  F   UNL     1      -9.563   9.293  67.220  1.00  0.00    -0.158 F  
HETATM   10  C   UNL     1     -10.964  10.851  68.367  1.00  0.00    -0.288 A  
HETATM   11  C   UNL     1     -11.734  12.023  68.228  1.00  0.00    -0.396 A  
HETATM   12  C   UNL     1     -11.885  12.680  66.996  1.00  0.00    -0.415 A  
ENDROOT
BRANCH  10  13
HETATM   13  C   UNL     1     -10.896  10.124  69.666  1.00  0.00    -0.299 A  
HETATM   14  C   UNL     1     -12.009   9.997  70.517  1.00  0.00    -0.357 A  
HETATM   15  C   UNL     1     -11.927   9.324  71.743  1.00  0.00    -0.455 A  
HETATM   16  C   UNL     1     -10.729   8.747  72.148  1.00  0.00    -0.383 A  
HETATM   17  C   UNL     1      -9.611   8.850  71.331  1.00  0.00    -0.359 A  
HETATM   18  C   UNL     1      -9.694   9.536  70.112  1.00  0.00    -0.289 A  
ENDBRANCH  10  13
TORSDOF 1
ENDMDL
MODEL        9
REMARK 921   NORMALIZED FREE ENERGY PREDICTED BY IDOCK:   -6.13 KCAL/MOL
REMARK 922        TOTAL FREE ENERGY PREDICTED BY IDOCK:   -6.88 KCAL/MOL
REMARK 923 INTER-LIGAND FREE ENERGY PREDICTED BY IDOCK:   -6.50 KCAL/MOL
REMARK 924 INTRA-LIGAND FREE ENERGY PREDICTED BY IDOCK:   -0.37 KCAL/MOL
REMARK 927      BINDING AFFINITY PREDICTED BY RF-SCORE:    0.00 PKD
ROOT
HETATM    1  C   UNL     1      -8.682  12.247  66.387  1.00  0.00    -0.019 C  
HETATM    2  C   UNL     1     -10.037  12.830  65.977  1.00  0.00    -0.277 C  
HETATM    3  C   UNL     1     -10.735  13.404  67.202  1.00  0.00    -0.268 A  
HETATM    4  C   UNL     1     -10.852  11.792  65.203  1.00  0.00    -0.297 C  
HETATM    5  C   UNL     1     -10.482  14.725  67.596  1.00  0.00    -0.254 A  
HETATM    6  O   UNL     1     -12.073  12.235  64.818  1.00  0.00    -0.395 OA 
HETATM    7  O   UNL     1     -10.458  10.672  64.908  1.00  0.00    -0.312 OA 
HETATM    8  C   UNL     1     -11.009  15.234  68.790  1.00  0.00    -0.260 A  
HETATM    9  F   UNL     1     -10.667  16.490  69.116  1.00  0.00    -0.254 F  
HETATM   10  C   UNL     1     -11.826  14.468  69.639  1.00  0.00    -0.367 A  
HETATM   11  C   UNL     1     -12.106  13.157  69.202  1.00  0.00    -0.261 A  
HETATM   12  C   UNL     1     -11.561  12.628  68.020  1.00  0.00    -0.394 A  
ENDROOT
BRANCH  10  13
HETATM   13  C   UNL     1     -12.343  14.971  70.942  1.00  0.00    -0.393 A  
HETATM   14  C   UNL     1     -11.492  15.314  72.008  1.00  0.00    -0.500 A  
HETATM   15  C   UNL     1     -11.993  15.772  73.235  1.00  0.00    -0.560 A  
HETATM   16  C   UNL     1     -13.363  15.913  73.424  1.00  0.00    -0.609 A  
HETATM   17  C   UNL     1     -14.232  15.589  72.391  1.00  0.00    -0.571 A  
HETATM   18  C   UNL     1     -13.727  15.117  71.171  1.00  0.00    -0.510 A  
ENDBRANCH  10  13
TORSDOF 1
ENDMDL
MODEL       10
REMARK 921   NORMALIZED FREE ENERGY PREDICTED BY IDOCK:   -6.10 KCAL/MOL
REMARK 922        TOTAL FREE ENERGY PREDICTED BY IDOCK:   -6.85 KCAL/MOL
REMARK 923 INTER-LIGAND FREE ENERGY PREDICTED BY IDOCK:   -6.44 KCAL/MOL
REMARK 924 INTRA-LIGAND FREE ENERGY PREDICTED BY IDOCK:   -0.41 KCAL/MOL
REMARK 927      BINDING AFFINITY PREDICTED BY RF-SCORE:    0.00 PKD
ROOT
HETATM    1  C   UNL     1     -11.164  14.083  69.821  1.00  0.00    -0.175 C  
HETATM    2  C   UNL     1     -11.895  13.024  68.991  1.00  0.00    -0.362 C  
HETATM    3  C   UNL     1     -11.762  11.666  69.667  1.00  0.00    -0.418 A  
HETATM    4  C   UNL     1     -11.420  13.064  67.537  1.00  0.00    -0.328 C  
HETATM    5  C   UNL     1     -12.684  11.283  70.650  1.00  0.00    -0.314 A  
HETATM    6  O   UNL     1     -12.017  12.142  66.743  1.00  0.00    -0.606 OA 
HETATM    7  O   UNL     1     -10.609  13.862  67.088  1.00  0.00    -0.274 OA 
HETATM    8  C   UNL     1     -12.509  10.098  71.378  1.00  0.00    -0.423 A  
HETATM    9  F   UNL     1     -13.409   9.840  72.339  1.00  0.00    -0.471 F  
HETATM   10  C   UNL     1     -11.426   9.231  71.154  1.00  0.00    -0.403 A  
HETATM   11  C   UNL     1     -10.536   9.612  70.130  1.00  0.00    -0.321 A  
HETATM   12  C   UNL     1     -10.687  10.810  69.413  1.00  0.00    -0.272 A  
ENDROOT
BRANCH  10  13
HETATM   13  C   UNL     1     -11.190   8.000  71.961  1.00  0.00    -0.356 A  
HETATM   14  C   UNL     1     -11.869   6.794  71.709  1.00  0.00    -0.371 A  
HETATM   15  C   UNL     1     -11.649   5.647  72.486  1.00  0.00    -0.303 A  
HETATM   16  C   UNL     1     -10.732   5.674  73.530  1.00  0.00    -0.311 A  
HETATM   17  C   UNL     1     -10.040   6.846  73.803  1.00  0.00    -0.373 A  
HETATM   18  C   UNL     1     -10.275   7.994  73.034  1.00  0.00    -0.357 A  
ENDBRANCH  10  13
TORSDOF 1
ENDMDL
MODEL       11
REMARK 921   NORMALIZED FREE ENERGY PREDICTED BY IDOCK:   -6.07 KCAL/MOL
REMARK 922        TOTAL FREE ENERGY PREDICTED BY IDOCK:   -6.82 KCAL/MOL
REMARK 923 INTER-LIGAND FREE ENERGY PREDICTED BY IDOCK:   -6.41 KCAL/MOL
REMARK 924 INTRA-LIGAND FREE ENERGY PREDICTED BY IDOCK:   -0.40 KCAL/MOL
REMARK 927      BINDING AFFINITY PREDICTED BY RF-SCORE:    0.00 PKD
ROOT
HETATM    1  C   UNL     1      -9.788  11.369  64.962  1.00  0.00    -0.304 C  
HETATM    2  C   UNL     1     -10.913  11.936  65.832  1.00  0.00    -0.354 C  
HETATM    3  C   UNL     1     -10.652  13.412  66.102  1.00  0.00    -0.294 A  
HETATM    4  C   UNL     1     -11.101  11.080  67.085  1.00  0.00    -0.267 C  
HETATM    5  C   UNL     1     -11.102  14.378  65.192  1.00  0.00    -0.365 A  
HETATM    6  O   UNL     1     -12.075  11.532  67.912  1.00  0.00    -0.630 OA 
HETATM    7  O   UNL     1     -10.478  10.057  67.334  1.00  0.00    -0.225 OA 
HETATM    8  C   UNL     1     -10.763  15.729  65.350  1.00  0.00    -0.404 A  
HETATM    9  F   UNL     1     -11.191  16.575  64.400  1.00  0.00    -0.510 F  
HETATM   10  C   UNL     1      -9.980  16.187  66.422  1.00  0.00    -0.315 A  
HETATM   11  C   UNL     1      -9.575  15.206  67.350  1.00  0.00    -0.208 A  
HETATM   12  C   UNL     1      -9.887  13.847  67.188  1.00  0.00    -0.241 A  
ENDROOT
BRANCH  10  13
HETATM   13  C   UNL     1      -9.557  17.608  66.571  1.00  0.00    -0.301 A  
HETATM   14  C   UNL     1      -8.233  18.027  66.347  1.00  0.00    -0.285 A  
HETATM   15  C   UNL     1      -7.845  19.365  66.506  1.00  0.00    -0.300 A  
HETATM   16  C   UNL     1      -8.777  20.325  66.882  1.00  0.00    -0.385 A  
HETATM   17  C   UNL     1     -10.094  19.948  67.106  1.00  0.00    -0.573 A  
HETATM   18  C   UNL     1     -10.474  18.607  66.961  1.00  0.00    -0.453 A  
ENDBRANCH  10  13
TORSDOF 1
ENDMDL
MODEL       12
REMARK 921   NORMALIZED FREE ENERGY PREDICTED BY IDOCK:   -6.01 KCAL/MOL
REMARK 922        TOTAL FREE ENERGY PREDICTED BY IDOCK:   -6.76 KCAL/MOL
REMARK 923 INTER-LIGAND FREE ENERGY PREDICTED BY IDOCK:   -6.66 KCAL/MOL
REMARK 924 INTRA-LIGAND FREE ENERGY PREDICTED BY IDOCK:   -0.10 KCAL/MOL
REMARK 927      BINDING AFFINITY PREDICTED BY RF-SCORE:    0.00 PKD
ROOT
HETATM    1  C   UNL     1     -13.216   9.088  71.757  1.00  0.00    -0.445 C  
HETATM    2  C   UNL     1     -11.789   9.642  71.701  1.00  0.00    -0.457 C  
HETATM    3  C   UNL     1     -11.518  10.209  70.314  1.00  0.00    -0.381 A  
HETATM    4  C   UNL     1     -10.787   8.584  72.166  1.00  0.00    -0.357 C  
HETATM    5  C   UNL     1     -11.860  11.537  70.024  1.00  0.00    -0.435 A  
HETATM    6  O   UNL     1      -9.499   9.001  72.130  1.00  0.00    -0.340 OA 
HETATM    7  O   UNL     1     -11.085   7.471  72.576  1.00  0.00    -0.272 OA 
HETATM    8  C   UNL     1     -11.742  12.042  68.722  1.00  0.00    -0.321 A  
HETATM    9  F   UNL     1     -12.146  13.307  68.525  1.00  0.00    -0.365 F  
HETATM   10  C   UNL     1     -11.264  11.265  67.654  1.00  0.00    -0.357 A  
HETATM   11  C   UNL     1     -10.882   9.947  67.976  1.00  0.00    -0.294 A  
HETATM   12  C   UNL     1     -11.021   9.422  69.271  1.00  0.00    -0.137 A  
ENDROOT
BRANCH  10  13
HETATM   13  C   UNL     1     -11.191  11.766  66.252  1.00  0.00    -0.370 A  
HETATM   14  C   UNL     1     -12.051  12.767  65.765  1.00  0.00    -0.505 A  
HETATM   15  C   UNL     1     -11.983  13.218  64.440  1.00  0.00    -0.459 A  
HETATM   16  C   UNL     1     -11.039  12.688  63.567  1.00  0.00    -0.449 A  
HETATM   17  C   UNL     1     -10.170  11.703  64.016  1.00  0.00    -0.391 A  
HETATM   18  C   UNL     1     -10.253  11.244  65.337  1.00  0.00    -0.323 A  
ENDBRANCH  10  13
TORSDOF 1
ENDMDL
MODEL       13
REMARK 921   NORMALIZED FREE ENERGY PREDICTED BY IDOCK:   -5.96 KCAL/MOL
REMARK 922        TOTAL FREE ENERGY PREDICTED BY IDOCK:   -6.70 KCAL/MOL
REMARK 923 INTER-LIGAND FREE ENERGY PREDICTED BY IDOCK:   -6.34 KCAL/MOL
REMARK 924 INTRA-LIGAND FREE ENERGY PREDICTED BY IDOCK:   -0.36 KCAL/MOL
REMARK 927      BINDING AFFINITY PREDICTED BY RF-SCORE:    0.00 PKD
ROOT
HETATM    1  C   UNL     1     -11.805   6.197  72.178  1.00  0.00    -0.339 C  
HETATM    2  C   UNL     1     -11.126   7.368  72.895  1.00  0.00    -0.397 C  
HETATM    3  C   UNL     1     -11.170   8.603  72.006  1.00  0.00    -0.434 A  
HETATM    4  C   UNL     1      -9.726   6.966  73.362  1.00  0.00    -0.200 C  
HETATM    5  C   UNL     1     -12.284   9.452  72.045  1.00  0.00    -0.396 A  
HETATM    6  O   UNL     1      -9.057   7.960  73.995  1.00  0.00    -0.255 OA 
HETATM    7  O   UNL     1      -9.237   5.853  73.230  1.00  0.00    -0.133 OA 
HETATM    8  C   UNL     1     -12.408  10.520  71.146  1.00  0.00    -0.405 A  
HETATM    9  F   UNL     1     -13.535  11.245  71.219  1.00  0.00    -0.327 F  
HETATM   10  C   UNL     1     -11.428  10.808  70.181  1.00  0.00    -0.415 A  
HETATM   11  C   UNL     1     -10.295   9.970  70.188  1.00  0.00    -0.321 A  
HETATM   12  C   UNL     1     -10.173   8.881  71.066  1.00  0.00    -0.322 A  
ENDROOT
BRANCH  10  13
HETATM   13  C   UNL     1     -11.572  11.899  69.177  1.00  0.00    -0.373 A  
HETATM   14  C   UNL     1     -11.613  11.649  67.793  1.00  0.00    -0.359 A  
HETATM   15  C   UNL     1     -11.733  12.686  66.858  1.00  0.00    -0.453 A  
HETATM   16  C   UNL     1     -11.829  14.006  67.285  1.00  0.00    -0.445 A  
HETATM   17  C   UNL     1     -11.797  14.290  68.643  1.00  0.00    -0.379 A  
HETATM   18  C   UNL     1     -11.662  13.250  69.574  1.00  0.00    -0.384 A  
ENDBRANCH  10  13
TORSDOF 1
ENDMDL
MODEL       14
REMARK 921   NORMALIZED FREE ENERGY PREDICTED BY IDOCK:   -5.94 KCAL/MOL
REMARK 922        TOTAL FREE ENERGY PREDICTED BY IDOCK:   -6.68 KCAL/MOL
REMARK 923 INTER-LIGAND FREE ENERGY PREDICTED BY IDOCK:   -6.27 KCAL/MOL
REMARK 924 INTRA-LIGAND FREE ENERGY PREDICTED BY IDOCK:   -0.41 KCAL/MOL
REMARK 927      BINDING AFFINITY PREDICTED BY RF-SCORE:    0.00 PKD
ROOT
HETATM    1  C   UNL     1     -10.547  15.290  69.489  1.00  0.00    -0.272 C  
HETATM    2  C   UNL     1     -11.703  14.526  68.837  1.00  0.00    -0.354 C  
HETATM    3  C   UNL     1     -11.754  13.110  69.393  1.00  0.00    -0.386 A  
HETATM    4  C   UNL     1     -11.607  14.612  67.313  1.00  0.00    -0.387 C  
HETATM    5  C   UNL     1     -12.470  12.846  70.568  1.00  0.00    -0.294 A  
HETATM    6  O   UNL     1     -12.593  13.945  66.666  1.00  0.00    -0.351 OA 
HETATM    7  O   UNL     1     -10.758  15.245  66.700  1.00  0.00    -0.301 OA 
HETATM    8  C   UNL     1     -12.425  11.581  71.170  1.00  0.00    -0.337 A  
HETATM    9  F   UNL     1     -13.096  11.436  72.323  1.00  0.00    -0.584 F  
HETATM   10  C   UNL     1     -11.686  10.516  70.629  1.00  0.00    -0.453 A  
HETATM   11  C   UNL     1     -11.009  10.789  69.423  1.00  0.00    -0.305 A  
HETATM   12  C   UNL     1     -11.026  12.060  68.825  1.00  0.00    -0.282 A  
ENDROOT
BRANCH  10  13
HETATM   13  C   UNL     1     -11.576   9.185  71.288  1.00  0.00    -0.401 A  
HETATM   14  C   UNL     1     -10.451   8.811  72.046  1.00  0.00    -0.414 A  
HETATM   15  C   UNL     1     -10.354   7.549  72.649  1.00  0.00    -0.311 A  
HETATM   16  C   UNL     1     -11.388   6.629  72.520  1.00  0.00    -0.290 A  
HETATM   17  C   UNL     1     -12.515   6.966  71.783  1.00  0.00    -0.397 A  
HETATM   18  C   UNL     1     -12.602   8.224  71.170  1.00  0.00    -0.152 A  
ENDBRANCH  10  13
TORSDOF 1
ENDMDL
MODEL       15
REMARK 921   NORMALIZED FREE ENERGY PREDICTED BY IDOCK:   -5.86 KCAL/MOL
REMARK 922        TOTAL FREE ENERGY PREDICTED BY IDOCK:   -6.59 KCAL/MOL
REMARK 923 INTER-LIGAND FREE ENERGY PREDICTED BY IDOCK:   -6.39 KCAL/MOL
REMARK 924 INTRA-LIGAND FREE ENERGY PREDICTED BY IDOCK:   -0.20 KCAL/MOL
REMARK 927      BINDING AFFINITY PREDICTED BY RF-SCORE:    0.00 PKD
ROOT
HETATM    1  C   UNL     1     -12.418  11.990  63.384  1.00  0.00    -0.625 C  
HETATM    2  C   UNL     1     -11.269  12.659  64.143  1.00  0.00    -0.437 C  
HETATM    3  C   UNL     1     -10.978  11.878  65.418  1.00  0.00    -0.352 A  
HETATM    4  C   UNL     1     -11.563  14.144  64.357  1.00  0.00    -0.362 C  
HETATM    5  C   UNL     1     -10.095  10.791  65.385  1.00  0.00    -0.347 A  
HETATM    6  O   UNL     1     -10.592  14.800  65.036  1.00  0.00    -0.386 OA 
HETATM    7  O   UNL     1     -12.552  14.729  63.936  1.00  0.00    -0.834 OA 
HETATM    8  C   UNL     1      -9.911   9.977  66.511  1.00  0.00    -0.225 A  
HETATM    9  F   UNL     1      -9.090   8.925  66.370  1.00  0.00    -0.153 F  
HETATM   10  C   UNL     1     -10.578  10.212  67.725  1.00  0.00    -0.304 A  
HETATM   11  C   UNL     1     -11.428  11.336  67.751  1.00  0.00    -0.350 A  
HETATM   12  C   UNL     1     -11.639  12.143  66.621  1.00  0.00    -0.416 A  
ENDROOT
BRANCH  10  13
HETATM   13  C   UNL     1     -10.443   9.322  68.912  1.00  0.00    -0.235 A  
HETATM   14  C   UNL     1     -10.312   9.825  70.219  1.00  0.00    -0.348 A  
HETATM   15  C   UNL     1     -10.170   8.976  71.326  1.00  0.00    -0.384 A  
HETATM   16  C   UNL     1     -10.169   7.597  71.156  1.00  0.00    -0.207 A  
HETATM   17  C   UNL     1     -10.302   7.065  69.880  1.00  0.00    -0.225 A  
HETATM   18  C   UNL     1     -10.428   7.918  68.775  1.00  0.00    -0.198 A  
ENDBRANCH  10  13
TORSDOF 1
ENDMDL
MODEL       16
REMARK 921   NORMALIZED FREE ENERGY PREDICTED BY IDOCK:   -5.84 KCAL/MOL
REMARK 922        TOTAL FREE ENERGY PREDICTED BY IDOCK:   -6.58 KCAL/MOL
REMARK 923 INTER-LIGAND FREE ENERGY PREDICTED BY IDOCK:   -6.60 KCAL/MOL
REMARK 924 INTRA-LIGAND FREE ENERGY PREDICTED BY IDOCK:    0.02 KCAL/MOL
REMARK 927      BINDING AFFINITY PREDICTED BY RF-SCORE:    0.00 PKD
ROOT
HETATM    1  C   UNL     1      -9.042  17.447  68.500  1.00  0.00    -0.273 C  
HETATM    2  C   UNL     1     -10.183  16.922  67.624  1.00  0.00    -0.306 C  
HETATM    3  C   UNL     1     -10.700  15.609  68.195  1.00  0.00    -0.287 A  
HETATM    4  C   UNL     1      -9.744  16.854  66.160  1.00  0.00    -0.272 C  
HETATM    5  C   UNL     1     -11.694  15.620  69.182  1.00  0.00    -0.402 A  
HETATM    6  O   UNL     1     -10.702  16.384  65.325  1.00  0.00    -0.501 OA 
HETATM    7  O   UNL     1      -8.654  17.217  65.739  1.00  0.00    -0.525 OA 
HETATM    8  C   UNL     1     -12.093  14.435  69.816  1.00  0.00    -0.334 A  
HETATM    9  F   UNL     1     -13.010  14.549  70.789  1.00  0.00    -0.375 F  
HETATM   10  C   UNL     1     -11.541  13.185  69.490  1.00  0.00    -0.347 A  
HETATM   11  C   UNL     1     -10.575  13.189  68.463  1.00  0.00    -0.274 A  
HETATM   12  C   UNL     1     -10.149  14.374  67.840  1.00  0.00    -0.228 A  
ENDROOT
BRANCH  10  13
HETATM   13  C   UNL     1     -11.907  11.925  70.196  1.00  0.00    -0.390 A  
HETATM   14  C   UNL     1     -12.863  11.891  71.228  1.00  0.00    -0.391 A  
HETATM   15  C   UNL     1     -13.187  10.702  71.896  1.00  0.00    -0.528 A  
HETATM   16  C   UNL     1     -12.571   9.508  71.539  1.00  0.00    -0.462 A  
HETATM   17  C   UNL     1     -11.626   9.504  70.521  1.00  0.00    -0.316 A  
HETATM   18  C   UNL     1     -11.294  10.698  69.867  1.00  0.00    -0.386 A  
ENDBRANCH  10  13
TORSDOF 1
ENDMDL
MODEL       17
REMARK 921   NORMALIZED FREE ENERGY PREDICTED BY IDOCK:   -5.83 KCAL/MOL
REMARK 922        TOTAL FREE ENERGY PREDICTED BY IDOCK:   -6.57 KCAL/MOL
REMARK 923 INTER-LIGAND FREE ENERGY PREDICTED BY IDOCK:   -6.19 KCAL/MOL
REMARK 924 INTRA-LIGAND FREE ENERGY PREDICTED BY IDOCK:   -0.38 KCAL/MOL
REMARK 927      BINDING AFFINITY PREDICTED BY RF-SCORE:    0.00 PKD
ROOT
HETATM    1  C   UNL     1     -11.950  12.847  67.233  1.00  0.00    -0.371 C  
HETATM    2  C   UNL     1     -11.095  12.964  65.969  1.00  0.00    -0.308 C  
HETATM    3  C   UNL     1     -10.338  14.285  65.986  1.00  0.00    -0.318 A  
HETATM    4  C   UNL     1     -11.952  12.734  64.723  1.00  0.00    -0.402 C  
HETATM    5  C   UNL     1      -9.094  14.369  66.626  1.00  0.00    -0.265 A  
HETATM    6  O   UNL     1     -11.262  12.835  63.561  1.00  0.00    -0.450 OA 
HETATM    7  O   UNL     1     -13.141  12.446  64.734  1.00  0.00    -0.806 OA 
HETATM    8  C   UNL     1      -8.440  15.599  66.769  1.00  0.00    -0.272 A  
HETATM    9  F   UNL     1      -7.281  15.593  67.446  1.00  0.00    -0.155 F  
HETATM   10  C   UNL     1      -8.975  16.799  66.271  1.00  0.00    -0.325 A  
HETATM   11  C   UNL     1     -10.205  16.686  65.591  1.00  0.00    -0.285 A  
HETATM   12  C   UNL     1     -10.882  15.462  65.465  1.00  0.00    -0.384 A  
ENDROOT
BRANCH  10  13
HETATM   13  C   UNL     1      -8.325  18.124  66.469  1.00  0.00    -0.288 A  
HETATM   14  C   UNL     1      -7.071  18.438  65.914  1.00  0.00    -0.290 A  
HETATM   15  C   UNL     1      -6.462  19.683  66.121  1.00  0.00    -0.209 A  
HETATM   16  C   UNL     1      -7.099  20.657  66.881  1.00  0.00    -0.353 A  
HETATM   17  C   UNL     1      -8.340  20.384  67.440  1.00  0.00    -0.380 A  
HETATM   18  C   UNL     1      -8.938  19.132  67.243  1.00  0.00    -0.329 A  
ENDBRANCH  10  13
TORSDOF 1
ENDMDL
MODEL       18
REMARK 921   NORMALIZED FREE ENERGY PREDICTED BY IDOCK:   -5.83 KCAL/MOL
REMARK 922        TOTAL FREE ENERGY PREDICTED BY IDOCK:   -6.56 KCAL/MOL
REMARK 923 INTER-LIGAND FREE ENERGY PREDICTED BY IDOCK:   -6.39 KCAL/MOL
REMARK 924 INTRA-LIGAND FREE ENERGY PREDICTED BY IDOCK:   -0.17 KCAL/MOL
REMARK 927      BINDING AFFINITY PREDICTED BY RF-SCORE:    0.00 PKD
ROOT
HETATM    1  C   UNL     1      -8.556   8.200  69.252  1.00  0.00    -0.135 C  
HETATM    2  C   UNL     1     -10.057   7.911  69.178  1.00  0.00    -0.197 C  
HETATM    3  C   UNL     1     -10.836   9.146  69.609  1.00  0.00    -0.210 A  
HETATM    4  C   UNL     1     -10.395   6.638  69.956  1.00  0.00    -0.199 C  
HETATM    5  C   UNL     1     -11.155  10.134  68.668  1.00  0.00    -0.254 A  
HETATM    6  O   UNL     1     -11.713   6.326  69.945  1.00  0.00    -0.408 OA 
HETATM    7  O   UNL     1      -9.576   5.923  70.516  1.00  0.00    -0.167 OA 
HETATM    8  C   UNL     1     -11.754  11.338  69.062  1.00  0.00    -0.342 A  
HETATM    9  F   UNL     1     -11.971  12.249  68.101  1.00  0.00    -0.370 F  
HETATM   10  C   UNL     1     -12.081  11.612  70.401  1.00  0.00    -0.462 A  
HETATM   11  C   UNL     1     -11.794  10.587  71.325  1.00  0.00    -0.323 A  
HETATM   12  C   UNL     1     -11.169   9.388  70.945  1.00  0.00    -0.393 A  
ENDROOT
BRANCH  10  13
HETATM   13  C   UNL     1     -12.661  12.910  70.847  1.00  0.00    -0.355 A  
HETATM   14  C   UNL     1     -12.288  14.138  70.271  1.00  0.00    -0.421 A  
HETATM   15  C   UNL     1     -12.828  15.354  70.711  1.00  0.00    -0.524 A  
HETATM   16  C   UNL     1     -13.770  15.374  71.733  1.00  0.00    -0.610 A  
HETATM   17  C   UNL     1     -14.165  14.179  72.321  1.00  0.00    -0.598 A  
HETATM   18  C   UNL     1     -13.610  12.967  71.888  1.00  0.00    -0.419 A  
ENDBRANCH  10  13
TORSDOF 1
ENDMDL
MODEL       19
REMARK 921   NORMALIZED FREE ENERGY PREDICTED BY IDOCK:   -5.81 KCAL/MOL
REMARK 922        TOTAL FREE ENERGY PREDICTED BY IDOCK:   -6.54 KCAL/MOL
REMARK 923 INTER-LIGAND FREE ENERGY PREDICTED BY IDOCK:   -6.27 KCAL/MOL
REMARK 924 INTRA-LIGAND FREE ENERGY PREDICTED BY IDOCK:   -0.27 KCAL/MOL
REMARK 927      BINDING AFFINITY PREDICTED BY RF-SCORE:    0.00 PKD
ROOT
HETATM    1  C   UNL     1      -8.457   9.627  66.390  1.00  0.00    -0.128 C  
HETATM    2  C   UNL     1      -9.908   9.168  66.559  1.00  0.00    -0.333 C  
HETATM    3  C   UNL     1     -10.614  10.071  67.560  1.00  0.00    -0.336 A  
HETATM    4  C   UNL     1      -9.959   7.676  66.895  1.00  0.00    -0.255 C  
HETATM    5  C   UNL     1     -11.222  11.256  67.125  1.00  0.00    -0.344 A  
HETATM    6  O   UNL     1     -11.216   7.201  67.072  1.00  0.00    -0.277 OA 
HETATM    7  O   UNL     1      -8.984   6.941  66.967  1.00  0.00    -0.116 OA 
HETATM    8  C   UNL     1     -11.764  12.167  68.042  1.00  0.00    -0.344 A  
HETATM    9  F   UNL     1     -12.274  13.301  67.538  1.00  0.00    -0.383 F  
HETATM   10  C   UNL     1     -11.746  11.939  69.428  1.00  0.00    -0.401 A  
HETATM   11  C   UNL     1     -11.171  10.721  69.842  1.00  0.00    -0.371 A  
HETATM   12  C   UNL     1     -10.602   9.813  68.934  1.00  0.00    -0.240 A  
ENDROOT
BRANCH  10  13
HETATM   13  C   UNL     1     -12.260  12.924  70.420  1.00  0.00    -0.381 A  
HETATM   14  C   UNL     1     -11.920  14.289  70.373  1.00  0.00    -0.402 A  
HETATM   15  C   UNL     1     -12.398  15.202  71.322  1.00  0.00    -0.401 A  
HETATM   16  C   UNL     1     -13.243  14.777  72.341  1.00  0.00    -0.479 A  
HETATM   17  C   UNL     1     -13.603  13.438  72.415  1.00  0.00    -0.708 A  
HETATM   18  C   UNL     1     -13.111  12.526  71.472  1.00  0.00    -0.373 A  
ENDBRANCH  10  13
TORSDOF 1
ENDMDL
MODEL       20
REMARK 921   NORMALIZED FREE ENERGY PREDICTED BY IDOCK:   -5.75 KCAL/MOL
REMARK 922        TOTAL FREE ENERGY PREDICTED BY IDOCK:   -6.48 KCAL/MOL
REMARK 923 INTER-LIGAND FREE ENERGY PREDICTED BY IDOCK:   -6.07 KCAL/MOL
REMARK 924 INTRA-LIGAND FREE ENERGY PREDICTED BY IDOCK:   -0.40 KCAL/MOL
REMARK 927      BINDING AFFINITY PREDICTED BY RF-SCORE:    0.00 PKD
ROOT
HETATM    1  C   UNL     1      -9.960   9.107  71.149  1.00  0.00    -0.377 C  
HETATM    2  C   UNL     1     -11.349   9.094  70.505  1.00  0.00    -0.300 C  
HETATM    3  C   UNL     1     -11.446  10.219  69.484  1.00  0.00    -0.273 A  
HETATM    4  C   UNL     1     -12.436   9.111  71.581  1.00  0.00    -0.359 C  
HETATM    5  C   UNL     1     -11.023  10.004  68.165  1.00  0.00    -0.289 A  
HETATM    6  O   UNL     1     -13.696   9.114  71.082  1.00  0.00    -0.279 OA 
HETATM    7  O   UNL     1     -12.228   9.085  72.786  1.00  0.00    -0.150 OA 
HETATM    8  C   UNL     1     -10.980  11.057  67.242  1.00  0.00    -0.297 A  
HETATM    9  F   UNL     1     -10.507  10.771  66.019  1.00  0.00    -0.292 F  
HETATM   10  C   UNL     1     -11.371  12.365  67.574  1.00  0.00    -0.375 A  
HETATM   11  C   UNL     1     -11.837  12.550  68.891  1.00  0.00    -0.346 A  
HETATM   12  C   UNL     1     -11.859  11.508  69.832  1.00  0.00    -0.430 A  
ENDROOT
BRANCH  10  13
HETATM   13  C   UNL     1     -11.273  13.509  66.624  1.00  0.00    -0.328 A  
HETATM   14  C   UNL     1     -12.128  13.642  65.515  1.00  0.00    -0.440 A  
HETATM   15  C   UNL     1     -12.015  14.714  64.620  1.00  0.00    -0.472 A  
HETATM   16  C   UNL     1     -11.048  15.694  64.819  1.00  0.00    -0.426 A  
HETATM   17  C   UNL     1     -10.191  15.597  65.906  1.00  0.00    -0.372 A  
HETATM   18  C   UNL     1     -10.298  14.515  66.790  1.00  0.00    -0.269 A  
ENDBRANCH  10  13
TORSDOF 1
ENDMDL
MODEL       21
REMARK 921   NORMALIZED FREE ENERGY PREDICTED BY IDOCK:   -5.74 KCAL/MOL
REMARK 922        TOTAL FREE ENERGY PREDICTED BY IDOCK:   -6.47 KCAL/MOL
REMARK 923 INTER-LIGAND FREE ENERGY PREDICTED BY IDOCK:   -6.06 KCAL/MOL
REMARK 924 INTRA-LIGAND FREE ENERGY PREDICTED BY IDOCK:   -0.41 KCAL/MOL
REMARK 927      BINDING AFFINITY PREDICTED BY RF-SCORE:    0.00 PKD
ROOT
HETATM    1  C   UNL     1     -10.046   9.006  71.455  1.00  0.00    -0.409 C  
HETATM    2  C   UNL     1     -11.384   8.921  70.715  1.00  0.00    -0.325 C  
HETATM    3  C   UNL     1     -11.454  10.020  69.664  1.00  0.00    -0.210 A  
HETATM    4  C   UNL     1     -12.545   8.912  71.711  1.00  0.00    -0.361 C  
HETATM    5  C   UNL     1     -10.929   9.798  68.384  1.00  0.00    -0.200 A  
HETATM    6  O   UNL     1     -13.765   8.852  71.124  1.00  0.00    -0.229 OA 
HETATM    7  O   UNL     1     -12.422   8.919  72.928  1.00  0.00    -0.233 OA 
HETATM    8  C   UNL     1     -10.864  10.833  67.442  1.00  0.00    -0.290 A  
HETATM    9  F   UNL     1     -10.294  10.543  66.263  1.00  0.00    -0.270 F  
HETATM   10  C   UNL     1     -11.332  12.130  67.716  1.00  0.00    -0.371 A  
HETATM   11  C   UNL     1     -11.897  12.321  68.993  1.00  0.00    -0.358 A  
HETATM   12  C   UNL     1     -11.944  11.297  69.954  1.00  0.00    -0.440 A  
ENDROOT
BRANCH  10  13
HETATM   13  C   UNL     1     -11.213  13.258  66.750  1.00  0.00    -0.331 A  
HETATM   14  C   UNL     1     -10.149  14.177  66.793  1.00  0.00    -0.262 A  
HETATM   15  C   UNL     1     -10.058  15.243  65.888  1.00  0.00    -0.359 A  
HETATM   16  C   UNL     1     -11.025  15.412  64.904  1.00  0.00    -0.453 A  
HETATM   17  C   UNL     1     -12.087  14.521  64.830  1.00  0.00    -0.454 A  
HETATM   18  C   UNL     1     -12.182  13.465  65.746  1.00  0.00    -0.507 A  
ENDBRANCH  10  13
TORSDOF 1
ENDMDL
MODEL       22
REMARK 921   NORMALIZED FREE ENERGY PREDICTED BY IDOCK:   -5.66 KCAL/MOL
REMARK 922        TOTAL FREE ENERGY PREDICTED BY IDOCK:   -6.38 KCAL/MOL
REMARK 923 INTER-LIGAND FREE ENERGY PREDICTED BY IDOCK:   -6.02 KCAL/MOL
REMARK 924 INTRA-LIGAND FREE ENERGY PREDICTED BY IDOCK:   -0.36 KCAL/MOL
REMARK 927      BINDING AFFINITY PREDICTED BY RF-SCORE:    0.00 PKD
ROOT
HETATM    1  C   UNL     1     -10.535   5.352  69.788  1.00  0.00    -0.378 C  
HETATM    2  C   UNL     1     -10.714   5.730  71.261  1.00  0.00    -0.323 C  
HETATM    3  C   UNL     1     -11.126   7.192  71.364  1.00  0.00    -0.267 A  
HETATM    4  C   UNL     1      -9.465   5.359  72.062  1.00  0.00    -0.148 C  
HETATM    5  C   UNL     1     -12.481   7.543  71.289  1.00  0.00    -0.354 A  
HETATM    6  O   UNL     1      -9.547   5.677  73.377  1.00  0.00    -0.142 OA 
HETATM    7  O   UNL     1      -8.483   4.792  71.604  1.00  0.00    -0.113 OA 
HETATM    8  C   UNL     1     -12.875   8.887  71.250  1.00  0.00    -0.229 A  
HETATM    9  F   UNL     1     -14.189   9.129  71.120  1.00  0.00    -0.403 F  
HETATM   10  C   UNL     1     -11.951   9.944  71.303  1.00  0.00    -0.489 A  
HETATM   11  C   UNL     1     -10.597   9.570  71.425  1.00  0.00    -0.307 A  
HETATM   12  C   UNL     1     -10.189   8.226  71.438  1.00  0.00    -0.263 A  
ENDROOT
BRANCH  10  13
HETATM   13  C   UNL     1     -12.347  11.376  71.200  1.00  0.00    -0.404 A  
HETATM   14  C   UNL     1     -11.911  12.205  70.150  1.00  0.00    -0.394 A  
HETATM   15  C   UNL     1     -12.278  13.555  70.073  1.00  0.00    -0.381 A  
HETATM   16  C   UNL     1     -13.105  14.112  71.041  1.00  0.00    -0.370 A  
HETATM   17  C   UNL     1     -13.559  13.323  72.090  1.00  0.00    -0.655 A  
HETATM   18  C   UNL     1     -13.177  11.977  72.170  1.00  0.00    -0.400 A  
ENDBRANCH  10  13
TORSDOF 1
ENDMDL
MODEL       23
REMARK 921   NORMALIZED FREE ENERGY PREDICTED BY IDOCK:   -5.60 KCAL/MOL
REMARK 922        TOTAL FREE ENERGY PREDICTED BY IDOCK:   -6.32 KCAL/MOL
REMARK 923 INTER-LIGAND FREE ENERGY PREDICTED BY IDOCK:   -5.95 KCAL/MOL
REMARK 924 INTRA-LIGAND FREE ENERGY PREDICTED BY IDOCK:   -0.37 KCAL/MOL
REMARK 927      BINDING AFFINITY PREDICTED BY RF-SCORE:    0.00 PKD
ROOT
HETATM    1  C   UNL     1      -9.604   8.835  71.578  1.00  0.00    -0.354 C  
HETATM    2  C   UNL     1     -10.919   8.535  70.855  1.00  0.00    -0.292 C  
HETATM    3  C   UNL     1     -11.165   9.593  69.788  1.00  0.00    -0.208 A  
HETATM    4  C   UNL     1     -12.057   8.367  71.863  1.00  0.00    -0.342 C  
HETATM    5  C   UNL     1     -10.624   9.431  68.505  1.00  0.00    -0.234 A  
HETATM    6  O   UNL     1     -13.258   8.112  71.292  1.00  0.00    -0.245 OA 
HETATM    7  O   UNL     1     -11.926   8.414  73.079  1.00  0.00    -0.236 OA 
HETATM    8  C   UNL     1     -10.725  10.448  67.547  1.00  0.00    -0.287 A  
HETATM    9  F   UNL     1     -10.127  10.228  66.366  1.00  0.00    -0.246 F  
HETATM   10  C   UNL     1     -11.381  11.663  67.806  1.00  0.00    -0.356 A  
HETATM   11  C   UNL     1     -11.959  11.788  69.086  1.00  0.00    -0.356 A  
HETATM   12  C   UNL     1     -11.840  10.786  70.063  1.00  0.00    -0.424 A  
ENDROOT
BRANCH  10  13
HETATM   13  C   UNL     1     -11.444  12.780  66.822  1.00  0.00    -0.399 A  
HETATM   14  C   UNL     1     -10.841  14.028  67.059  1.00  0.00    -0.291 A  
HETATM   15  C   UNL     1     -10.921  15.075  66.132  1.00  0.00    -0.334 A  
HETATM   16  C   UNL     1     -11.598  14.898  64.931  1.00  0.00    -0.395 A  
HETATM   17  C   UNL     1     -12.202  13.677  64.661  1.00  0.00    -0.448 A  
HETATM   18  C   UNL     1     -12.132  12.637  65.598  1.00  0.00    -0.502 A  
ENDBRANCH  10  13
TORSDOF 1
ENDMDL
MODEL       24
REMARK 921   NORMALIZED FREE ENERGY PREDICTED BY IDOCK:   -5.60 KCAL/MOL
REMARK 922        TOTAL FREE ENERGY PREDICTED BY IDOCK:   -6.31 KCAL/MOL
REMARK 923 INTER-LIGAND FREE ENERGY PREDICTED BY IDOCK:   -5.94 KCAL/MOL
REMARK 924 INTRA-LIGAND FREE ENERGY PREDICTED BY IDOCK:   -0.38 KCAL/MOL
REMARK 927      BINDING AFFINITY PREDICTED BY RF-SCORE:    0.00 PKD
ROOT
HETATM    1  C   UNL     1      -7.560  18.213  68.798  1.00  0.00    -0.285 C  
HETATM    2  C   UNL     1      -8.980  18.653  68.430  1.00  0.00    -0.356 C  
HETATM    3  C   UNL     1      -9.652  17.565  67.604  1.00  0.00    -0.266 A  
HETATM    4  C   UNL     1      -8.958  20.033  67.772  1.00  0.00    -0.310 C  
HETATM    5  C   UNL     1     -10.328  16.518  68.245  1.00  0.00    -0.293 A  
HETATM    6  O   UNL     1     -10.183  20.483  67.407  1.00  0.00    -0.366 OA 
HETATM    7  O   UNL     1      -7.954  20.714  67.609  1.00  0.00    -0.270 OA 
HETATM    8  C   UNL     1     -10.841  15.438  67.514  1.00  0.00    -0.305 A  
HETATM    9  F   UNL     1     -11.423  14.453  68.217  1.00  0.00    -0.266 F  
HETATM   10  C   UNL     1     -10.726  15.352  66.116  1.00  0.00    -0.316 A  
HETATM   11  C   UNL     1     -10.082  16.437  65.486  1.00  0.00    -0.238 A  
HETATM   12  C   UNL     1      -9.541  17.511  66.211  1.00  0.00    -0.253 A  
ENDROOT
BRANCH  10  13
HETATM   13  C   UNL     1     -11.209  14.182  65.331  1.00  0.00    -0.325 A  
HETATM   14  C   UNL     1     -12.570  13.832  65.261  1.00  0.00    -0.510 A  
HETATM   15  C   UNL     1     -13.010  12.720  64.531  1.00  0.00    -0.210 A  
HETATM   16  C   UNL     1     -12.098  11.932  63.837  1.00  0.00    -0.505 A  
HETATM   17  C   UNL     1     -10.748  12.251  63.880  1.00  0.00    -0.463 A  
HETATM   18  C   UNL     1     -10.311  13.356  64.623  1.00  0.00    -0.400 A  
ENDBRANCH  10  13
TORSDOF 1
ENDMDL
MODEL       25
REMARK 921   NORMALIZED FREE ENERGY PREDICTED BY IDOCK:   -5.57 KCAL/MOL
REMARK 922        TOTAL FREE ENERGY PREDICTED BY IDOCK:   -6.28 KCAL/MOL
REMARK 923 INTER-LIGAND FREE ENERGY PREDICTED BY IDOCK:   -5.89 KCAL/MOL
REMARK 924 INTRA-LIGAND FREE ENERGY PREDICTED BY IDOCK:   -0.39 KCAL/MOL
REMARK 927      BINDING AFFINITY PREDICTED BY RF-SCORE:    0.00 PKD
ROOT
HETATM    1  C   UNL     1      -9.644  18.560  68.917  1.00  0.00    -0.307 C  
HETATM    2  C   UNL     1     -10.562  18.464  67.694  1.00  0.00    -0.437 C  
HETATM    3  C   UNL     1     -10.533  17.044  67.147  1.00  0.00    -0.291 A  
HETATM    4  C   UNL     1     -10.209  19.549  66.676  1.00  0.00    -0.449 C  
HETATM    5  C   UNL     1     -11.408  16.078  67.664  1.00  0.00    -0.109 A  
HETATM    6  O   UNL     1     -10.974  19.517  65.558  1.00  0.00    -0.416 OA 
HETATM    7  O   UNL     1      -9.350  20.406  66.836  1.00  0.00    -0.368 OA 
HETATM    8  C   UNL     1     -11.313  14.737  67.271  1.00  0.00    -0.357 A  
HETATM    9  F   UNL     1     -12.155  13.873  67.860  1.00  0.00    -0.372 F  
HETATM   10  C   UNL     1     -10.363  14.292  66.337  1.00  0.00    -0.287 A  
HETATM   11  C   UNL     1      -9.522  15.285  65.796  1.00  0.00    -0.310 A  
HETATM   12  C   UNL     1      -9.591  16.628  66.202  1.00  0.00    -0.323 A  
ENDROOT
BRANCH  10  13
HETATM   13  C   UNL     1     -10.206  12.860  65.956  1.00  0.00    -0.293 A  
HETATM   14  C   UNL     1     -10.564  12.376  64.684  1.00  0.00    -0.339 A  
HETATM   15  C   UNL     1     -10.427  11.024  64.342  1.00  0.00    -0.422 A  
HETATM   16  C   UNL     1      -9.913  10.118  65.263  1.00  0.00    -0.381 A  
HETATM   17  C   UNL     1      -9.545  10.561  66.526  1.00  0.00    -0.216 A  
HETATM   18  C   UNL     1      -9.698  11.911  66.868  1.00  0.00    -0.212 A  
ENDBRANCH  10  13
TORSDOF 1
ENDMDL
MODEL       26
REMARK 921   NORMALIZED FREE ENERGY PREDICTED BY IDOCK:   -5.49 KCAL/MOL
REMARK 922        TOTAL FREE ENERGY PREDICTED BY IDOCK:   -6.20 KCAL/MOL
REMARK 923 INTER-LIGAND FREE ENERGY PREDICTED BY IDOCK:   -5.79 KCAL/MOL
REMARK 924 INTRA-LIGAND FREE ENERGY PREDICTED BY IDOCK:   -0.41 KCAL/MOL
REMARK 927      BINDING AFFINITY PREDICTED BY RF-SCORE:    0.00 PKD
ROOT
HETATM    1  C   UNL     1     -10.849  19.415  67.118  1.00  0.00    -0.561 C  
HETATM    2  C   UNL     1      -9.808  18.807  66.174  1.00  0.00    -0.327 C  
HETATM    3  C   UNL     1      -9.880  17.288  66.248  1.00  0.00    -0.299 A  
HETATM    4  C   UNL     1      -8.425  19.396  66.456  1.00  0.00    -0.337 C  
HETATM    5  C   UNL     1     -10.777  16.591  65.428  1.00  0.00    -0.273 A  
HETATM    6  O   UNL     1      -7.446  18.893  65.664  1.00  0.00    -0.479 OA 
HETATM    7  O   UNL     1      -8.190  20.268  67.282  1.00  0.00    -0.323 OA 
HETATM    8  C   UNL     1     -10.955  15.208  65.568  1.00  0.00    -0.365 A  
HETATM    9  F   UNL     1     -11.876  14.634  64.779  1.00  0.00    -0.367 F  
HETATM   10  C   UNL     1     -10.243  14.450  66.512  1.00  0.00    -0.276 A  
HETATM   11  C   UNL     1      -9.313  15.162  67.297  1.00  0.00    -0.210 A  
HETATM   12  C   UNL     1      -9.145  16.552  67.182  1.00  0.00    -0.227 A  
ENDROOT
BRANCH  10  13
HETATM   13  C   UNL     1     -10.466  12.991  66.719  1.00  0.00    -0.264 A  
HETATM   14  C   UNL     1     -11.360  12.495  67.685  1.00  0.00    -0.362 A  
HETATM   15  C   UNL     1     -11.548  11.120  67.880  1.00  0.00    -0.328 A  
HETATM   16  C   UNL     1     -10.855  10.200  67.101  1.00  0.00    -0.257 A  
HETATM   17  C   UNL     1      -9.968  10.655  66.134  1.00  0.00    -0.283 A  
HETATM   18  C   UNL     1      -9.771  12.030  65.954  1.00  0.00    -0.256 A  
ENDBRANCH  10  13
TORSDOF 1
ENDMDL
MODEL       27
REMARK 921   NORMALIZED FREE ENERGY PREDICTED BY IDOCK:   -5.47 KCAL/MOL
REMARK 922        TOTAL FREE ENERGY PREDICTED BY IDOCK:   -6.18 KCAL/MOL
REMARK 923 INTER-LIGAND FREE ENERGY PREDICTED BY IDOCK:   -5.83 KCAL/MOL
REMARK 924 INTRA-LIGAND FREE ENERGY PREDICTED BY IDOCK:   -0.36 KCAL/MOL
REMARK 927      BINDING AFFINITY PREDICTED BY RF-SCORE:    0.00 PKD
ROOT
HETATM    1  C   UNL     1      -6.550  18.565  66.210  1.00  0.00    -0.249 C  
HETATM    2  C   UNL     1      -7.619  18.285  67.271  1.00  0.00    -0.226 C  
HETATM    3  C   UNL     1      -8.543  17.178  66.783  1.00  0.00    -0.270 A  
HETATM    4  C   UNL     1      -8.328  19.581  67.667  1.00  0.00    -0.305 C  
HETATM    5  C   UNL     1      -8.209  15.837  67.016  1.00  0.00    -0.262 A  
HETATM    6  O   UNL     1      -9.300  19.409  68.596  1.00  0.00    -0.364 OA 
HETATM    7  O   UNL     1      -8.048  20.692  67.238  1.00  0.00    -0.337 OA 
HETATM    8  C   UNL     1      -8.972  14.799  66.465  1.00  0.00    -0.233 A  
HETATM    9  F   UNL     1      -8.545  13.547  66.693  1.00  0.00    -0.192 F  
HETATM   10  C   UNL     1     -10.109  15.038  65.676  1.00  0.00    -0.390 A  
HETATM   11  C   UNL     1     -10.454  16.392  65.491  1.00  0.00    -0.349 A  
HETATM   12  C   UNL     1      -9.682  17.441  66.016  1.00  0.00    -0.172 A  
ENDROOT
BRANCH  10  13
HETATM   13  C   UNL     1     -10.896  13.949  65.031  1.00  0.00    -0.389 A  
HETATM   14  C   UNL     1     -10.327  13.059  64.101  1.00  0.00    -0.345 A  
HETATM   15  C   UNL     1     -11.082  12.049  63.490  1.00  0.00    -0.519 A  
HETATM   16  C   UNL     1     -12.427  11.892  63.803  1.00  0.00    -0.537 A  
HETATM   17  C   UNL     1     -13.020  12.750  64.720  1.00  0.00    -0.228 A  
HETATM   18  C   UNL     1     -12.265  13.768  65.318  1.00  0.00    -0.461 A  
ENDBRANCH  10  13
TORSDOF 1
ENDMDL
MODEL       28
REMARK 921   NORMALIZED FREE ENERGY PREDICTED BY IDOCK:   -5.45 KCAL/MOL
REMARK 922        TOTAL FREE ENERGY PREDICTED BY IDOCK:   -6.17 KCAL/MOL
REMARK 923 INTER-LIGAND FREE ENERGY PREDICTED BY IDOCK:   -6.16 KCAL/MOL
REMARK 924 INTRA-LIGAND FREE ENERGY PREDICTED BY IDOCK:   -0.00 KCAL/MOL
REMARK 927      BINDING AFFINITY PREDICTED BY RF-SCORE:    0.00 PKD
ROOT
HETATM    1  C   UNL     1     -11.508   6.442  69.346  1.00  0.00    -0.374 C  
HETATM    2  C   UNL     1     -10.683   7.011  70.504  1.00  0.00    -0.262 C  
HETATM    3  C   UNL     1     -11.103   8.449  70.770  1.00  0.00    -0.286 A  
HETATM    4  C   UNL     1      -9.189   6.819  70.238  1.00  0.00    -0.156 C  
HETATM    5  C   UNL     1     -12.175   8.716  71.632  1.00  0.00    -0.388 A  
HETATM    6  O   UNL     1      -8.393   7.312  71.218  1.00  0.00    -0.110 OA 
HETATM    7  O   UNL     1      -8.719   6.247  69.264  1.00  0.00    -0.123 OA 
HETATM    8  C   UNL     1     -12.664  10.020  71.791  1.00  0.00    -0.428 A  
HETATM    9  F   UNL     1     -13.730  10.172  72.592  1.00  0.00    -0.353 F  
HETATM   10  C   UNL     1     -12.104  11.120  71.121  1.00  0.00    -0.302 A  
HETATM   11  C   UNL     1     -10.998  10.838  70.295  1.00  0.00    -0.160 A  
HETATM   12  C   UNL     1     -10.516   9.532  70.107  1.00  0.00    -0.299 A  
ENDROOT
BRANCH  10  13
HETATM   13  C   UNL     1     -12.650  12.502  71.230  1.00  0.00    -0.332 A  
HETATM   14  C   UNL     1     -13.600  12.862  72.203  1.00  0.00    -0.589 A  
HETATM   15  C   UNL     1     -14.117  14.162  72.285  1.00  0.00    -0.630 A  
HETATM   16  C   UNL     1     -13.687  15.144  71.401  1.00  0.00    -0.577 A  
HETATM   17  C   UNL     1     -12.746  14.826  70.430  1.00  0.00    -0.368 A  
HETATM   18  C   UNL     1     -12.243  13.521  70.343  1.00  0.00    -0.426 A  
ENDBRANCH  10  13
TORSDOF 1
ENDMDL
MODEL       29
REMARK 921   NORMALIZED FREE ENERGY PREDICTED BY IDOCK:   -5.43 KCAL/MOL
REMARK 922        TOTAL FREE ENERGY PREDICTED BY IDOCK:   -6.14 KCAL/MOL
REMARK 923 INTER-LIGAND FREE ENERGY PREDICTED BY IDOCK:   -5.77 KCAL/MOL
REMARK 924 INTRA-LIGAND FREE ENERGY PREDICTED BY IDOCK:   -0.37 KCAL/MOL
REMARK 927      BINDING AFFINITY PREDICTED BY RF-SCORE:    0.00 PKD
ROOT
HETATM    1  C   UNL     1     -10.696  19.487  66.776  1.00  0.00    -0.569 C  
HETATM    2  C   UNL     1      -9.560  18.507  66.469  1.00  0.00    -0.335 C  
HETATM    3  C   UNL     1      -9.877  17.151  67.085  1.00  0.00    -0.271 A  
HETATM    4  C   UNL     1      -8.215  19.101  66.889  1.00  0.00    -0.272 C  
HETATM    5  C   UNL     1     -10.642  16.221  66.369  1.00  0.00    -0.253 A  
HETATM    6  O   UNL     1      -7.161  18.281  66.659  1.00  0.00    -0.193 OA 
HETATM    7  O   UNL     1      -8.060  20.221  67.356  1.00  0.00    -0.319 OA 
HETATM    8  C   UNL     1     -11.057  15.021  66.962  1.00  0.00    -0.334 A  
HETATM    9  F   UNL     1     -11.834  14.216  66.220  1.00  0.00    -0.346 F  
HETATM   10  C   UNL     1     -10.721  14.679  68.283  1.00  0.00    -0.240 A  
HETATM   11  C   UNL     1      -9.914  15.607  68.970  1.00  0.00    -0.233 A  
HETATM   12  C   UNL     1      -9.514  16.825  68.395  1.00  0.00    -0.241 A  
ENDROOT
BRANCH  10  13
HETATM   13  C   UNL     1     -11.206  13.438  68.950  1.00  0.00    -0.320 A  
HETATM   14  C   UNL     1     -10.876  12.153  68.481  1.00  0.00    -0.267 A  
HETATM   15  C   UNL     1     -11.351  10.994  69.109  1.00  0.00    -0.348 A  
HETATM   16  C   UNL     1     -12.162  11.089  70.234  1.00  0.00    -0.447 A  
HETATM   17  C   UNL     1     -12.504  12.341  70.727  1.00  0.00    -0.356 A  
HETATM   18  C   UNL     1     -12.038  13.497  70.087  1.00  0.00    -0.425 A  
ENDBRANCH  10  13
TORSDOF 1
ENDMDL
MODEL       30
REMARK 921   NORMALIZED FREE ENERGY PREDICTED BY IDOCK:   -5.41 KCAL/MOL
REMARK 922        TOTAL FREE ENERGY PREDICTED BY IDOCK:   -6.12 KCAL/MOL
REMARK 923 INTER-LIGAND FREE ENERGY PREDICTED BY IDOCK:   -6.09 KCAL/MOL
REMARK 924 INTRA-LIGAND FREE ENERGY PREDICTED BY IDOCK:   -0.03 KCAL/MOL
REMARK 927      BINDING AFFINITY PREDICTED BY RF-SCORE:    0.00 PKD
ROOT
HETATM    1  C   UNL     1     -10.900   7.271  67.142  1.00  0.00    -0.378 C  
HETATM    2  C   UNL     1      -9.746   8.125  67.673  1.00  0.00    -0.200 C  
HETATM    3  C   UNL     1     -10.305   9.312  68.446  1.00  0.00    -0.244 A  
HETATM    4  C   UNL     1      -8.790   8.495  66.538  1.00  0.00    -0.140 C  
HETATM    5  C   UNL     1     -10.605   9.180  69.809  1.00  0.00    -0.240 A  
HETATM    6  O   UNL     1      -7.747   9.265  66.933  1.00  0.00    -0.094 OA 
HETATM    7  O   UNL     1      -8.901   8.118  65.379  1.00  0.00    -0.142 OA 
HETATM    8  C   UNL     1     -11.240  10.213  70.510  1.00  0.00    -0.336 A  
HETATM    9  F   UNL     1     -11.540   9.976  71.796  1.00  0.00    -0.425 F  
HETATM   10  C   UNL     1     -11.592  11.430  69.902  1.00  0.00    -0.402 A  
HETATM   11  C   UNL     1     -11.241  11.561  68.543  1.00  0.00    -0.315 A  
HETATM   12  C   UNL     1     -10.628  10.522  67.824  1.00  0.00    -0.285 A  
ENDROOT
BRANCH  10  13
HETATM   13  C   UNL     1     -12.323  12.514  70.615  1.00  0.00    -0.369 A  
HETATM   14  C   UNL     1     -12.282  13.855  70.192  1.00  0.00    -0.425 A  
HETATM   15  C   UNL     1     -12.962  14.868  70.881  1.00  0.00    -0.436 A  
HETATM   16  C   UNL     1     -13.716  14.564  72.009  1.00  0.00    -0.528 A  
HETATM   17  C   UNL     1     -13.783  13.250  72.452  1.00  0.00    -0.678 A  
HETATM   18  C   UNL     1     -13.089  12.243  71.768  1.00  0.00    -0.449 A  
ENDBRANCH  10  13
TORSDOF 1
ENDMDL
MODEL       31
REMARK 921   NORMALIZED FREE ENERGY PREDICTED BY IDOCK:   -5.40 KCAL/MOL
REMARK 922        TOTAL FREE ENERGY PREDICTED BY IDOCK:   -6.11 KCAL/MOL
REMARK 923 INTER-LIGAND FREE ENERGY PREDICTED BY IDOCK:   -5.70 KCAL/MOL
REMARK 924 INTRA-LIGAND FREE ENERGY PREDICTED BY IDOCK:   -0.41 KCAL/MOL
REMARK 927      BINDING AFFINITY PREDICTED BY RF-SCORE:    0.00 PKD
ROOT
HETATM    1  C   UNL     1     -12.990  13.698  65.234  1.00  0.00    -0.315 C  
HETATM    2  C   UNL     1     -11.841  13.187  66.108  1.00  0.00    -0.453 C  
HETATM    3  C   UNL     1     -10.953  14.355  66.514  1.00  0.00    -0.316 A  
HETATM    4  C   UNL     1     -11.110  12.039  65.411  1.00  0.00    -0.320 C  
HETATM    5  C   UNL     1     -11.262  15.103  67.658  1.00  0.00    -0.329 A  
HETATM    6  O   UNL     1     -10.068  11.544  66.123  1.00  0.00    -0.215 OA 
HETATM    7  O   UNL     1     -11.428  11.561  64.331  1.00  0.00    -0.271 OA 
HETATM    8  C   UNL     1     -10.538  16.259  67.979  1.00  0.00    -0.308 A  
HETATM    9  F   UNL     1     -10.940  16.944  69.062  1.00  0.00    -0.304 F  
HETATM   10  C   UNL     1      -9.466  16.718  67.196  1.00  0.00    -0.237 A  
HETATM   11  C   UNL     1      -9.142  15.927  66.075  1.00  0.00    -0.363 A  
HETATM   12  C   UNL     1      -9.877  14.781  65.729  1.00  0.00    -0.373 A  
ENDROOT
BRANCH  10  13
HETATM   13  C   UNL     1      -8.727  17.978  67.487  1.00  0.00    -0.248 A  
HETATM   14  C   UNL     1      -8.995  19.182  66.810  1.00  0.00    -0.335 A  
HETATM   15  C   UNL     1      -8.281  20.357  67.083  1.00  0.00    -0.374 A  
HETATM   16  C   UNL     1      -7.285  20.363  68.052  1.00  0.00    -0.274 A  
HETATM   17  C   UNL     1      -6.997  19.194  68.744  1.00  0.00    -0.356 A  
HETATM   18  C   UNL     1      -7.703  18.018  68.457  1.00  0.00    -0.308 A  
ENDBRANCH  10  13
TORSDOF 1
ENDMDL
MODEL       32
REMARK 921   NORMALIZED FREE ENERGY PREDICTED BY IDOCK:   -5.38 KCAL/MOL
REMARK 922        TOTAL FREE ENERGY PREDICTED BY IDOCK:   -6.08 KCAL/MOL
REMARK 923 INTER-LIGAND FREE ENERGY PREDICTED BY IDOCK:   -5.68 KCAL/MOL
REMARK 924 INTRA-LIGAND FREE ENERGY PREDICTED BY IDOCK:   -0.41 KCAL/MOL
REMARK 927      BINDING AFFINITY PREDICTED BY RF-SCORE:    0.00 PKD
ROOT
HETATM    1  C   UNL     1     -12.514  13.986  70.023  1.00  0.00    -0.339 C  
HETATM    2  C   UNL     1     -12.136  14.929  68.877  1.00  0.00    -0.229 C  
HETATM    3  C   UNL     1     -11.514  14.127  67.743  1.00  0.00    -0.352 A  
HETATM    4  C   UNL     1     -11.271  16.079  69.396  1.00  0.00    -0.349 C  
HETATM    5  C   UNL     1     -12.334  13.548  66.765  1.00  0.00    -0.326 A  
HETATM    6  O   UNL     1     -10.886  16.949  68.431  1.00  0.00    -0.356 OA 
HETATM    7  O   UNL     1     -10.967  16.252  70.568  1.00  0.00    -0.316 OA 
HETATM    8  C   UNL     1     -11.800  12.698  65.787  1.00  0.00    -0.444 A  
HETATM    9  F   UNL     1     -12.668  12.144  64.927  1.00  0.00    -0.466 F  
HETATM   10  C   UNL     1     -10.429  12.398  65.719  1.00  0.00    -0.288 A  
HETATM   11  C   UNL     1      -9.615  13.026  66.683  1.00  0.00    -0.259 A  
HETATM   12  C   UNL     1     -10.143  13.857  67.684  1.00  0.00    -0.241 A  
ENDROOT
BRANCH  10  13
HETATM   13  C   UNL     1      -9.853  11.448  64.726  1.00  0.00    -0.302 A  
HETATM   14  C   UNL     1      -9.435  10.152  65.079  1.00  0.00    -0.330 A  
HETATM   15  C   UNL     1      -8.880   9.274  64.138  1.00  0.00    -0.178 A  
HETATM   16  C   UNL     1      -8.740   9.665  62.811  1.00  0.00    -0.225 A  
HETATM   17  C   UNL     1      -9.147  10.936  62.427  1.00  0.00    -0.336 A  
HETATM   18  C   UNL     1      -9.687  11.816  63.375  1.00  0.00    -0.341 A  
ENDBRANCH  10  13
TORSDOF 1
ENDMDL
MODEL       33
REMARK 921   NORMALIZED FREE ENERGY PREDICTED BY IDOCK:   -5.30 KCAL/MOL
REMARK 922        TOTAL FREE ENERGY PREDICTED BY IDOCK:   -6.01 KCAL/MOL
REMARK 923 INTER-LIGAND FREE ENERGY PREDICTED BY IDOCK:   -6.04 KCAL/MOL
REMARK 924 INTRA-LIGAND FREE ENERGY PREDICTED BY IDOCK:    0.03 KCAL/MOL
REMARK 927      BINDING AFFINITY PREDICTED BY RF-SCORE:    0.00 PKD
ROOT
HETATM    1  C   UNL     1     -11.234  11.943  65.278  1.00  0.00    -0.351 C  
HETATM    2  C   UNL     1     -10.969  12.875  66.464  1.00  0.00    -0.300 C  
HETATM    3  C   UNL     1     -10.841  12.053  67.739  1.00  0.00    -0.256 A  
HETATM    4  C   UNL     1     -12.023  13.982  66.519  1.00  0.00    -0.444 C  
HETATM    5  C   UNL     1      -9.599  11.518  68.104  1.00  0.00    -0.187 A  
HETATM    6  O   UNL     1     -11.859  14.840  67.555  1.00  0.00    -0.375 OA 
HETATM    7  O   UNL     1     -12.921  14.133  65.703  1.00  0.00    -0.586 OA 
HETATM    8  C   UNL     1      -9.481  10.652  69.199  1.00  0.00    -0.170 A  
HETATM    9  F   UNL     1      -8.263  10.143  69.440  1.00  0.00    -0.114 F  
HETATM   10  C   UNL     1     -10.582  10.290  69.993  1.00  0.00    -0.321 A  
HETATM   11  C   UNL     1     -11.814  10.874  69.637  1.00  0.00    -0.416 A  
HETATM   12  C   UNL     1     -11.949  11.723  68.526  1.00  0.00    -0.279 A  
ENDROOT
BRANCH  10  13
HETATM   13  C   UNL     1     -10.487   9.322  71.122  1.00  0.00    -0.401 A  
HETATM   14  C   UNL     1     -11.626   8.788  71.754  1.00  0.00    -0.416 A  
HETATM   15  C   UNL     1     -11.523   7.890  72.825  1.00  0.00    -0.428 A  
HETATM   16  C   UNL     1     -10.274   7.490  73.286  1.00  0.00    -0.398 A  
HETATM   17  C   UNL     1      -9.129   7.992  72.683  1.00  0.00    -0.290 A  
HETATM   18  C   UNL     1      -9.237   8.902  71.622  1.00  0.00    -0.302 A  
ENDBRANCH  10  13
TORSDOF 1
ENDMDL
MODEL       34
REMARK 921   NORMALIZED FREE ENERGY PREDICTED BY IDOCK:   -5.29 KCAL/MOL
REMARK 922        TOTAL FREE ENERGY PREDICTED BY IDOCK:   -5.99 KCAL/MOL
REMARK 923 INTER-LIGAND FREE ENERGY PREDICTED BY IDOCK:   -5.90 KCAL/MOL
REMARK 924 INTRA-LIGAND FREE ENERGY PREDICTED BY IDOCK:   -0.09 KCAL/MOL
REMARK 927      BINDING AFFINITY PREDICTED BY RF-SCORE:    0.00 PKD
ROOT
HETATM    1  C   UNL     1     -10.591  17.222  65.760  1.00  0.00    -0.198 C  
HETATM    2  C   UNL     1      -9.997  17.347  67.166  1.00  0.00    -0.291 C  
HETATM    3  C   UNL     1     -10.464  16.177  68.021  1.00  0.00    -0.281 A  
HETATM    4  C   UNL     1     -10.299  18.727  67.752  1.00  0.00    -0.411 C  
HETATM    5  C   UNL     1      -9.744  14.975  68.012  1.00  0.00    -0.213 A  
HETATM    6  O   UNL     1      -9.814  18.906  69.004  1.00  0.00    -0.382 OA 
HETATM    7  O   UNL     1     -10.886  19.624  67.162  1.00  0.00    -0.484 OA 
HETATM    8  C   UNL     1     -10.223  13.843  68.687  1.00  0.00    -0.218 A  
HETATM    9  F   UNL     1      -9.497  12.720  68.576  1.00  0.00    -0.209 F  
HETATM   10  C   UNL     1     -11.425  13.854  69.415  1.00  0.00    -0.334 A  
HETATM   11  C   UNL     1     -12.110  15.085  69.449  1.00  0.00    -0.290 A  
HETATM   12  C   UNL     1     -11.653  16.218  68.755  1.00  0.00    -0.223 A  
ENDROOT
BRANCH  10  13
HETATM   13  C   UNL     1     -11.980  12.645  70.085  1.00  0.00    -0.375 A  
HETATM   14  C   UNL     1     -12.758  12.723  71.254  1.00  0.00    -0.364 A  
HETATM   15  C   UNL     1     -13.262  11.577  71.884  1.00  0.00    -0.479 A  
HETATM   16  C   UNL     1     -13.012  10.318  71.351  1.00  0.00    -0.540 A  
HETATM   17  C   UNL     1     -12.252  10.203  70.195  1.00  0.00    -0.188 A  
HETATM   18  C   UNL     1     -11.738  11.352  69.577  1.00  0.00    -0.417 A  
ENDBRANCH  10  13
TORSDOF 1
ENDMDL
MODEL       35
REMARK 921   NORMALIZED FREE ENERGY PREDICTED BY IDOCK:   -5.27 KCAL/MOL
REMARK 922        TOTAL FREE ENERGY PREDICTED BY IDOCK:   -5.97 KCAL/MOL
REMARK 923 INTER-LIGAND FREE ENERGY PREDICTED BY IDOCK:   -5.58 KCAL/MOL
REMARK 924 INTRA-LIGAND FREE ENERGY PREDICTED BY IDOCK:   -0.38 KCAL/MOL
REMARK 927      BINDING AFFINITY PREDICTED BY RF-SCORE:    0.00 PKD
ROOT
HETATM    1  C   UNL     1     -11.138  16.555  69.640  1.00  0.00    -0.235 C  
HETATM    2  C   UNL     1     -11.245  15.109  70.132  1.00  0.00    -0.299 C  
HETATM    3  C   UNL     1     -10.972  14.156  68.977  1.00  0.00    -0.286 A  
HETATM    4  C   UNL     1     -12.581  14.885  70.843  1.00  0.00    -0.341 C  
HETATM    5  C   UNL     1      -9.655  13.776  68.682  1.00  0.00    -0.121 A  
HETATM    6  O   UNL     1     -12.752  13.620  71.296  1.00  0.00    -0.342 OA 
HETATM    7  O   UNL     1     -13.423  15.751  71.038  1.00  0.00    -0.581 OA 
HETATM    8  C   UNL     1      -9.365  13.007  67.547  1.00  0.00    -0.200 A  
HETATM    9  F   UNL     1      -8.071  12.738  67.313  1.00  0.00    -0.158 F  
HETATM   10  C   UNL     1     -10.363  12.563  66.663  1.00  0.00    -0.244 A  
HETATM   11  C   UNL     1     -11.685  12.918  67.002  1.00  0.00    -0.447 A  
HETATM   12  C   UNL     1     -11.985  13.711  68.122  1.00  0.00    -0.390 A  
ENDROOT
BRANCH  10  13
HETATM   13  C   UNL     1     -10.067  11.799  65.419  1.00  0.00    -0.291 A  
HETATM   14  C   UNL     1     -10.303  12.327  64.137  1.00  0.00    -0.396 A  
HETATM   15  C   UNL     1     -10.035  11.592  62.974  1.00  0.00    -0.352 A  
HETATM   16  C   UNL     1      -9.509  10.308  63.064  1.00  0.00    -0.331 A  
HETATM   17  C   UNL     1      -9.259   9.757  64.313  1.00  0.00    -0.286 A  
HETATM   18  C   UNL     1      -9.543  10.491  65.473  1.00  0.00    -0.282 A  
ENDBRANCH  10  13
TORSDOF 1
ENDMDL
MODEL       36
REMARK 921   NORMALIZED FREE ENERGY PREDICTED BY IDOCK:   -5.21 KCAL/MOL
REMARK 922        TOTAL FREE ENERGY PREDICTED BY IDOCK:   -5.90 KCAL/MOL
REMARK 923 INTER-LIGAND FREE ENERGY PREDICTED BY IDOCK:   -5.56 KCAL/MOL
REMARK 924 INTRA-LIGAND FREE ENERGY PREDICTED BY IDOCK:   -0.34 KCAL/MOL
REMARK 927      BINDING AFFINITY PREDICTED BY RF-SCORE:    0.00 PKD
ROOT
HETATM    1  C   UNL     1      -8.669   8.310  72.914  1.00  0.00    -0.291 C  
HETATM    2  C   UNL     1      -9.593   7.629  71.900  1.00  0.00    -0.191 C  
HETATM    3  C   UNL     1     -10.100   8.660  70.902  1.00  0.00    -0.262 A  
HETATM    4  C   UNL     1     -10.689   6.843  72.622  1.00  0.00    -0.244 C  
HETATM    5  C   UNL     1      -9.347   8.954  69.757  1.00  0.00    -0.169 A  
HETATM    6  O   UNL     1     -11.556   6.223  71.784  1.00  0.00    -0.293 OA 
HETATM    7  O   UNL     1     -10.785   6.731  73.836  1.00  0.00    -0.310 OA 
HETATM    8  C   UNL     1      -9.726   9.989  68.892  1.00  0.00    -0.181 A  
HETATM    9  F   UNL     1      -8.913  10.236  67.853  1.00  0.00    -0.128 F  
HETATM   10  C   UNL     1     -10.875  10.768  69.108  1.00  0.00    -0.281 A  
HETATM   11  C   UNL     1     -11.643  10.427  70.240  1.00  0.00    -0.410 A  
HETATM   12  C   UNL     1     -11.259   9.409  71.128  1.00  0.00    -0.427 A  
ENDROOT
BRANCH  10  13
HETATM   13  C   UNL     1     -11.258  11.912  68.235  1.00  0.00    -0.317 A  
HETATM   14  C   UNL     1     -11.465  11.766  66.851  1.00  0.00    -0.364 A  
HETATM   15  C   UNL     1     -11.809  12.854  66.037  1.00  0.00    -0.485 A  
HETATM   16  C   UNL     1     -11.970  14.120  66.590  1.00  0.00    -0.470 A  
HETATM   17  C   UNL     1     -11.779  14.299  67.953  1.00  0.00    -0.394 A  
HETATM   18  C   UNL     1     -11.419  13.211  68.760  1.00  0.00    -0.348 A  
ENDBRANCH  10  13
TORSDOF 1
ENDMDL
MODEL       37
REMARK 921   NORMALIZED FREE ENERGY PREDICTED BY IDOCK:   -5.19 KCAL/MOL
REMARK 922        TOTAL FREE ENERGY PREDICTED BY IDOCK:   -5.89 KCAL/MOL
REMARK 923 INTER-LIGAND FREE ENERGY PREDICTED BY IDOCK:   -5.52 KCAL/MOL
REMARK 924 INTRA-LIGAND FREE ENERGY PREDICTED BY IDOCK:   -0.37 KCAL/MOL
REMARK 927      BINDING AFFINITY PREDICTED BY RF-SCORE:    0.00 PKD
ROOT
HETATM    1  C   UNL     1     -10.172  17.460  68.251  1.00  0.00    -0.362 C  
HETATM    2  C   UNL     1     -10.930  16.912  67.039  1.00  0.00     0.066 C  
HETATM    3  C   UNL     1     -10.776  15.398  66.986  1.00  0.00    -0.321 A  
HETATM    4  C   UNL     1     -10.501  17.643  65.766  1.00  0.00    -0.205 C  
HETATM    5  C   UNL     1     -11.667  14.580  67.695  1.00  0.00    -0.410 A  
HETATM    6  O   UNL     1     -11.123  17.199  64.647  1.00  0.00    -1.036 OA 
HETATM    7  O   UNL     1      -9.704  18.570  65.727  1.00  0.00    -0.468 OA 
HETATM    8  C   UNL     1     -11.470  13.195  67.768  1.00  0.00    -0.313 A  
HETATM    9  F   UNL     1     -12.340  12.499  68.516  1.00  0.00    -0.275 F  
HETATM   10  C   UNL     1     -10.396  12.553  67.129  1.00  0.00    -0.230 A  
HETATM   11  C   UNL     1      -9.538  13.387  66.384  1.00  0.00    -0.265 A  
HETATM   12  C   UNL     1      -9.710  14.779  66.326  1.00  0.00    -0.326 A  
ENDROOT
BRANCH  10  13
HETATM   13  C   UNL     1     -10.135  11.091  67.248  1.00  0.00    -0.222 A  
HETATM   14  C   UNL     1     -10.207  10.221  66.145  1.00  0.00    -0.285 A  
HETATM   15  C   UNL     1      -9.975   8.845  66.273  1.00  0.00    -0.337 A  
HETATM   16  C   UNL     1      -9.651   8.301  67.511  1.00  0.00    -0.194 A  
HETATM   17  C   UNL     1      -9.567   9.131  68.621  1.00  0.00    -0.157 A  
HETATM   18  C   UNL     1      -9.815  10.504  68.490  1.00  0.00    -0.175 A  
ENDBRANCH  10  13
TORSDOF 1
ENDMDL
MODEL       38
REMARK 921   NORMALIZED FREE ENERGY PREDICTED BY IDOCK:   -5.19 KCAL/MOL
REMARK 922        TOTAL FREE ENERGY PREDICTED BY IDOCK:   -5.88 KCAL/MOL
REMARK 923 INTER-LIGAND FREE ENERGY PREDICTED BY IDOCK:   -5.47 KCAL/MOL
REMARK 924 INTRA-LIGAND FREE ENERGY PREDICTED BY IDOCK:   -0.41 KCAL/MOL
REMARK 927      BINDING AFFINITY PREDICTED BY RF-SCORE:    0.00 PKD
ROOT
HETATM    1  C   UNL     1     -11.145   6.641  67.016  1.00  0.00    -0.395 C  
HETATM    2  C   UNL     1      -9.985   7.473  67.570  1.00  0.00    -0.228 C  
HETATM    3  C   UNL     1     -10.125   8.915  67.104  1.00  0.00    -0.316 A  
HETATM    4  C   UNL     1      -8.647   6.817  67.225  1.00  0.00    -0.120 C  
HETATM    5  C   UNL     1     -10.898   9.817  67.847  1.00  0.00    -0.298 A  
HETATM    6  O   UNL     1      -7.570   7.507  67.673  1.00  0.00    -0.107 OA 
HETATM    7  O   UNL     1      -8.521   5.752  66.636  1.00  0.00    -0.112 OA 
HETATM    8  C   UNL     1     -11.150  11.112  67.373  1.00  0.00    -0.307 A  
HETATM    9  F   UNL     1     -11.948  11.887  68.124  1.00  0.00    -0.373 F  
HETATM   10  C   UNL     1     -10.634  11.579  66.153  1.00  0.00    -0.314 A  
HETATM   11  C   UNL     1      -9.821  10.672  65.442  1.00  0.00    -0.325 A  
HETATM   12  C   UNL     1      -9.585   9.364  65.895  1.00  0.00    -0.338 A  
ENDROOT
BRANCH  10  13
HETATM   13  C   UNL     1     -10.942  12.929  65.603  1.00  0.00    -0.297 A  
HETATM   14  C   UNL     1     -12.137  13.207  64.914  1.00  0.00    -0.448 A  
HETATM   15  C   UNL     1     -12.408  14.477  64.388  1.00  0.00    -0.437 A  
HETATM   16  C   UNL     1     -11.494  15.512  64.549  1.00  0.00    -0.311 A  
HETATM   17  C   UNL     1     -10.306  15.275  65.229  1.00  0.00    -0.430 A  
HETATM   18  C   UNL     1     -10.033  13.999  65.740  1.00  0.00    -0.319 A  
ENDBRANCH  10  13
TORSDOF 1
ENDMDL
MODEL       39
REMARK 921   NORMALIZED FREE ENERGY PREDICTED BY IDOCK:   -5.19 KCAL/MOL
REMARK 922        TOTAL FREE ENERGY PREDICTED BY IDOCK:   -5.88 KCAL/MOL
REMARK 923 INTER-LIGAND FREE ENERGY PREDICTED BY IDOCK:   -5.60 KCAL/MOL
REMARK 924 INTRA-LIGAND FREE ENERGY PREDICTED BY IDOCK:   -0.28 KCAL/MOL
REMARK 927      BINDING AFFINITY PREDICTED BY RF-SCORE:    0.00 PKD
ROOT
HETATM    1  C   UNL     1      -9.674  16.060  66.152  1.00  0.00    -0.353 C  
HETATM    2  C   UNL     1     -11.002  15.328  65.937  1.00  0.00    -0.325 C  
HETATM    3  C   UNL     1     -10.760  13.826  65.933  1.00  0.00    -0.285 A  
HETATM    4  C   UNL     1     -11.711  15.865  64.693  1.00  0.00    -0.117 C  
HETATM    5  C   UNL     1     -10.762  13.115  67.141  1.00  0.00    -0.263 A  
HETATM    6  O   UNL     1     -12.891  15.252  64.431  1.00  0.00    -0.363 OA 
HETATM    7  O   UNL     1     -11.303  16.784  63.996  1.00  0.00    -1.153 OA 
HETATM    8  C   UNL     1     -10.414  11.758  67.179  1.00  0.00    -0.220 A  
HETATM    9  F   UNL     1     -10.389  11.173  68.386  1.00  0.00    -0.163 F  
HETATM   10  C   UNL     1     -10.065  11.038  66.023  1.00  0.00    -0.297 A  
HETATM   11  C   UNL     1     -10.113  11.760  64.813  1.00  0.00    -0.302 A  
HETATM   12  C   UNL     1     -10.435  13.126  64.767  1.00  0.00    -0.390 A  
ENDROOT
BRANCH  10  13
HETATM   13  C   UNL     1      -9.631   9.613  66.053  1.00  0.00    -0.305 A  
HETATM   14  C   UNL     1     -10.358   8.619  66.734  1.00  0.00    -0.336 A  
HETATM   15  C   UNL     1      -9.930   7.285  66.768  1.00  0.00    -0.287 A  
HETATM   16  C   UNL     1      -8.768   6.905  66.107  1.00  0.00    -0.153 A  
HETATM   17  C   UNL     1      -8.029   7.859  65.420  1.00  0.00    -0.123 A  
HETATM   18  C   UNL     1      -8.452   9.195  65.402  1.00  0.00    -0.163 A  
ENDBRANCH  10  13
TORSDOF 1
ENDMDL
MODEL       40
REMARK 921   NORMALIZED FREE ENERGY PREDICTED BY IDOCK:   -5.13 KCAL/MOL
REMARK 922        TOTAL FREE ENERGY PREDICTED BY IDOCK:   -5.82 KCAL/MOL
REMARK 923 INTER-LIGAND FREE ENERGY PREDICTED BY IDOCK:   -5.41 KCAL/MOL
REMARK 924 INTRA-LIGAND FREE ENERGY PREDICTED BY IDOCK:   -0.41 KCAL/MOL
REMARK 927      BINDING AFFINITY PREDICTED BY RF-SCORE:    0.00 PKD
ROOT
HETATM    1  C   UNL     1     -10.978  14.025  66.453  1.00  0.00    -0.308 C  
HETATM    2  C   UNL     1     -11.952  12.910  66.062  1.00  0.00    -0.505 C  
HETATM    3  C   UNL     1     -11.267  11.559  66.214  1.00  0.00    -0.286 A  
HETATM    4  C   UNL     1     -12.538  13.177  64.675  1.00  0.00    -0.322 C  
HETATM    5  C   UNL     1     -11.284  10.903  67.452  1.00  0.00    -0.345 A  
HETATM    6  O   UNL     1     -13.402  12.221  64.255  1.00  0.00    -0.777 OA 
HETATM    7  O   UNL     1     -12.304  14.167  63.995  1.00  0.00    -0.647 OA 
HETATM    8  C   UNL     1     -10.553   9.725  67.653  1.00  0.00    -0.276 A  
HETATM    9  F   UNL     1     -10.583   9.197  68.887  1.00  0.00    -0.222 F  
HETATM   10  C   UNL     1      -9.786   9.133  66.636  1.00  0.00    -0.307 A  
HETATM   11  C   UNL     1      -9.818   9.783  65.386  1.00  0.00    -0.365 A  
HETATM   12  C   UNL     1     -10.526  10.978  65.180  1.00  0.00    -0.329 A  
ENDROOT
BRANCH  10  13
HETATM   13  C   UNL     1      -8.953   7.916  66.849  1.00  0.00    -0.157 A  
HETATM   14  C   UNL     1      -9.384   6.632  66.469  1.00  0.00    -0.191 A  
HETATM   15  C   UNL     1      -8.597   5.494  66.689  1.00  0.00    -0.116 A  
HETATM   16  C   UNL     1      -7.347   5.611  67.286  1.00  0.00    -0.077 A  
HETATM   17  C   UNL     1      -6.887   6.864  67.670  1.00  0.00    -0.077 A  
HETATM   18  C   UNL     1      -7.685   7.997  67.461  1.00  0.00    -0.106 A  
ENDBRANCH  10  13
TORSDOF 1
ENDMDL
MODEL       41
REMARK 921   NORMALIZED FREE ENERGY PREDICTED BY IDOCK:   -5.09 KCAL/MOL
REMARK 922        TOTAL FREE ENERGY PREDICTED BY IDOCK:   -5.78 KCAL/MOL
REMARK 923 INTER-LIGAND FREE ENERGY PREDICTED BY IDOCK:   -5.37 KCAL/MOL
REMARK 924 INTRA-LIGAND FREE ENERGY PREDICTED BY IDOCK:   -0.41 KCAL/MOL
REMARK 927      BINDING AFFINITY PREDICTED BY RF-SCORE:    0.00 PKD
ROOT
HETATM    1  C   UNL     1     -13.025  13.890  65.865  1.00  0.00    -0.252 C  
HETATM    2  C   UNL     1     -11.645  13.337  65.501  1.00  0.00    -0.351 C  
HETATM    3  C   UNL     1     -10.566  14.269  66.036  1.00  0.00    -0.302 A  
HETATM    4  C   UNL     1     -11.561  13.058  63.999  1.00  0.00    -0.430 C  
HETATM    5  C   UNL     1     -10.093  14.110  67.345  1.00  0.00    -0.240 A  
HETATM    6  O   UNL     1     -10.358  12.577  63.601  1.00  0.00    -0.422 OA 
HETATM    7  O   UNL     1     -12.482  13.205  63.208  1.00  0.00    -0.720 OA 
HETATM    8  C   UNL     1      -9.198  15.033  67.904  1.00  0.00    -0.182 A  
HETATM    9  F   UNL     1      -8.844  14.833  69.183  1.00  0.00    -0.177 F  
HETATM   10  C   UNL     1      -8.716  16.142  67.189  1.00  0.00    -0.216 A  
HETATM   11  C   UNL     1      -9.169  16.258  65.859  1.00  0.00    -0.268 A  
HETATM   12  C   UNL     1     -10.086  15.355  65.298  1.00  0.00    -0.354 A  
ENDROOT
BRANCH  10  13
HETATM   13  C   UNL     1      -7.815  17.166  67.788  1.00  0.00    -0.189 A  
HETATM   14  C   UNL     1      -6.448  16.924  68.017  1.00  0.00    -0.151 A  
HETATM   15  C   UNL     1      -5.614  17.890  68.595  1.00  0.00    -0.166 A  
HETATM   16  C   UNL     1      -6.123  19.134  68.949  1.00  0.00    -0.257 A  
HETATM   17  C   UNL     1      -7.467  19.410  68.732  1.00  0.00    -0.393 A  
HETATM   18  C   UNL     1      -8.300  18.435  68.167  1.00  0.00    -0.301 A  
ENDBRANCH  10  13
TORSDOF 1
ENDMDL
MODEL       42
REMARK 921   NORMALIZED FREE ENERGY PREDICTED BY IDOCK:   -5.08 KCAL/MOL
REMARK 922        TOTAL FREE ENERGY PREDICTED BY IDOCK:   -5.77 KCAL/MOL
REMARK 923 INTER-LIGAND FREE ENERGY PREDICTED BY IDOCK:   -5.53 KCAL/MOL
REMARK 924 INTRA-LIGAND FREE ENERGY PREDICTED BY IDOCK:   -0.24 KCAL/MOL
REMARK 927      BINDING AFFINITY PREDICTED BY RF-SCORE:    0.00 PKD
ROOT
HETATM    1  C   UNL     1      -6.919  18.763  65.832  1.00  0.00    -0.303 C  
HETATM    2  C   UNL     1      -6.712  18.961  67.336  1.00  0.00    -0.205 C  
HETATM    3  C   UNL     1      -7.737  18.137  68.104  1.00  0.00    -0.280 A  
HETATM    4  C   UNL     1      -6.699  20.451  67.682  1.00  0.00    -0.275 C  
HETATM    5  C   UNL     1      -7.465  16.799  68.417  1.00  0.00    -0.202 A  
HETATM    6  O   UNL     1      -6.533  20.702  69.003  1.00  0.00    -0.244 OA 
HETATM    7  O   UNL     1      -6.790  21.359  66.867  1.00  0.00    -0.478 OA 
HETATM    8  C   UNL     1      -8.441  15.984  69.006  1.00  0.00    -0.244 A  
HETATM    9  F   UNL     1      -8.110  14.701  69.218  1.00  0.00    -0.151 F  
HETATM   10  C   UNL     1      -9.723  16.460  69.328  1.00  0.00    -0.221 A  
HETATM   11  C   UNL     1      -9.962  17.820  69.047  1.00  0.00    -0.264 A  
HETATM   12  C   UNL     1      -9.000  18.639  68.433  1.00  0.00    -0.356 A  
ENDROOT
BRANCH  10  13
HETATM   13  C   UNL     1     -10.793  15.592  69.896  1.00  0.00    -0.324 A  
HETATM   14  C   UNL     1     -11.568  15.981  71.004  1.00  0.00    -0.472 A  
HETATM   15  C   UNL     1     -12.562  15.149  71.538  1.00  0.00    -0.425 A  
HETATM   16  C   UNL     1     -12.816  13.906  70.969  1.00  0.00    -0.394 A  
HETATM   17  C   UNL     1     -12.073  13.493  69.871  1.00  0.00    -0.408 A  
HETATM   18  C   UNL     1     -11.071  14.322  69.349  1.00  0.00    -0.283 A  
ENDBRANCH  10  13
TORSDOF 1
ENDMDL
MODEL       43
REMARK 921   NORMALIZED FREE ENERGY PREDICTED BY IDOCK:   -5.08 KCAL/MOL
REMARK 922        TOTAL FREE ENERGY PREDICTED BY IDOCK:   -5.77 KCAL/MOL
REMARK 923 INTER-LIGAND FREE ENERGY PREDICTED BY IDOCK:   -5.36 KCAL/MOL
REMARK 924 INTRA-LIGAND FREE ENERGY PREDICTED BY IDOCK:   -0.41 KCAL/MOL
REMARK 927      BINDING AFFINITY PREDICTED BY RF-SCORE:    0.00 PKD
ROOT
HETATM    1  C   UNL     1     -12.677  11.892  63.479  1.00  0.00    -0.530 C  
HETATM    2  C   UNL     1     -11.381  12.441  64.083  1.00  0.00    -0.442 C  
HETATM    3  C   UNL     1     -10.826  11.442  65.089  1.00  0.00    -0.302 A  
HETATM    4  C   UNL     1     -11.606  13.849  64.637  1.00  0.00    -0.385 C  
HETATM    5  C   UNL     1      -9.983  10.410  64.656  1.00  0.00    -0.408 A  
HETATM    6  O   UNL     1     -10.502  14.395  65.201  1.00  0.00    -0.363 OA 
HETATM    7  O   UNL     1     -12.657  14.471  64.562  1.00  0.00    -0.644 OA 
HETATM    8  C   UNL     1      -9.564   9.404  65.538  1.00  0.00    -0.258 A  
HETATM    9  F   UNL     1      -8.805   8.425  65.022  1.00  0.00    -0.193 F  
HETATM   10  C   UNL     1      -9.945   9.383  66.890  1.00  0.00    -0.293 A  
HETATM   11  C   UNL     1     -10.756  10.454  67.316  1.00  0.00    -0.331 A  
HETATM   12  C   UNL     1     -11.202  11.453  66.436  1.00  0.00    -0.250 A  
ENDROOT
BRANCH  10  13
HETATM   13  C   UNL     1      -9.562   8.289  67.826  1.00  0.00    -0.178 A  
HETATM   14  C   UNL     1     -10.226   7.048  67.846  1.00  0.00    -0.224 A  
HETATM   15  C   UNL     1      -9.865   6.033  68.742  1.00  0.00    -0.170 A  
HETATM   16  C   UNL     1      -8.819   6.226  69.636  1.00  0.00    -0.136 A  
HETATM   17  C   UNL     1      -8.138   7.436  69.641  1.00  0.00    -0.128 A  
HETATM   18  C   UNL     1      -8.512   8.454  68.753  1.00  0.00    -0.124 A  
ENDBRANCH  10  13
TORSDOF 1
ENDMDL
MODEL       44
REMARK 921   NORMALIZED FREE ENERGY PREDICTED BY IDOCK:   -5.08 KCAL/MOL
REMARK 922        TOTAL FREE ENERGY PREDICTED BY IDOCK:   -5.77 KCAL/MOL
REMARK 923 INTER-LIGAND FREE ENERGY PREDICTED BY IDOCK:   -5.36 KCAL/MOL
REMARK 924 INTRA-LIGAND FREE ENERGY PREDICTED BY IDOCK:   -0.41 KCAL/MOL
REMARK 927      BINDING AFFINITY PREDICTED BY RF-SCORE:    0.00 PKD
ROOT
HETATM    1  C   UNL     1      -8.042  18.851  66.337  1.00  0.00    -0.306 C  
HETATM    2  C   UNL     1      -8.585  18.769  67.766  1.00  0.00    -0.305 C  
HETATM    3  C   UNL     1      -9.162  17.382  68.013  1.00  0.00    -0.266 A  
HETATM    4  C   UNL     1      -9.553  19.922  68.035  1.00  0.00    -0.370 C  
HETATM    5  C   UNL     1      -8.328  16.347  68.455  1.00  0.00    -0.202 A  
HETATM    6  O   UNL     1     -10.086  19.907  69.281  1.00  0.00    -0.389 OA 
HETATM    7  O   UNL     1      -9.818  20.814  67.240  1.00  0.00    -0.474 OA 
HETATM    8  C   UNL     1      -8.805  15.034  68.564  1.00  0.00    -0.181 A  
HETATM    9  F   UNL     1      -7.920  14.098  68.941  1.00  0.00    -0.134 F  
HETATM   10  C   UNL     1     -10.132  14.688  68.259  1.00  0.00    -0.228 A  
HETATM   11  C   UNL     1     -10.967  15.752  67.859  1.00  0.00    -0.324 A  
HETATM   12  C   UNL     1     -10.492  17.066  67.721  1.00  0.00    -0.349 A  
ENDROOT
BRANCH  10  13
HETATM   13  C   UNL     1     -10.640  13.289  68.308  1.00  0.00    -0.262 A  
HETATM   14  C   UNL     1     -11.434  12.813  69.368  1.00  0.00    -0.321 A  
HETATM   15  C   UNL     1     -11.892  11.489  69.410  1.00  0.00    -0.417 A  
HETATM   16  C   UNL     1     -11.578  10.605  68.384  1.00  0.00    -0.269 A  
HETATM   17  C   UNL     1     -10.800  11.042  67.320  1.00  0.00    -0.335 A  
HETATM   18  C   UNL     1     -10.332  12.363  67.290  1.00  0.00    -0.227 A  
ENDBRANCH  10  13
TORSDOF 1
ENDMDL
MODEL       45
REMARK 921   NORMALIZED FREE ENERGY PREDICTED BY IDOCK:   -5.06 KCAL/MOL
REMARK 922        TOTAL FREE ENERGY PREDICTED BY IDOCK:   -5.74 KCAL/MOL
REMARK 923 INTER-LIGAND FREE ENERGY PREDICTED BY IDOCK:   -5.33 KCAL/MOL
REMARK 924 INTRA-LIGAND FREE ENERGY PREDICTED BY IDOCK:   -0.41 KCAL/MOL
REMARK 927      BINDING AFFINITY PREDICTED BY RF-SCORE:    0.00 PKD
ROOT
HETATM    1  C   UNL     1     -12.166  13.081  65.778  1.00  0.00    -0.511 C  
HETATM    2  C   UNL     1     -12.006  13.445  67.257  1.00  0.00    -0.393 C  
HETATM    3  C   UNL     1     -10.926  14.507  67.406  1.00  0.00    -0.306 A  
HETATM    4  C   UNL     1     -11.784  12.185  68.095  1.00  0.00    -0.341 C  
HETATM    5  C   UNL     1     -11.259  15.863  67.287  1.00  0.00    -0.094 A  
HETATM    6  O   UNL     1     -11.621  12.432  69.417  1.00  0.00    -0.282 OA 
HETATM    7  O   UNL     1     -11.786  11.043  67.656  1.00  0.00    -0.599 OA 
HETATM    8  C   UNL     1     -10.265  16.851  67.289  1.00  0.00    -0.297 A  
HETATM    9  F   UNL     1     -10.671  18.118  67.113  1.00  0.00    -0.383 F  
HETATM   10  C   UNL     1      -8.901  16.546  67.428  1.00  0.00    -0.201 A  
HETATM   11  C   UNL     1      -8.591  15.180  67.592  1.00  0.00    -0.180 A  
HETATM   12  C   UNL     1      -9.576  14.180  67.564  1.00  0.00    -0.223 A  
ENDROOT
BRANCH  10  13
HETATM   13  C   UNL     1      -7.827  17.577  67.370  1.00  0.00    -0.217 A  
HETATM   14  C   UNL     1      -7.376  18.260  68.514  1.00  0.00    -0.297 A  
HETATM   15  C   UNL     1      -6.376  19.239  68.444  1.00  0.00    -0.259 A  
HETATM   16  C   UNL     1      -5.787  19.553  67.224  1.00  0.00    -0.183 A  
HETATM   17  C   UNL     1      -6.204  18.894  66.075  1.00  0.00    -0.228 A  
HETATM   18  C   UNL     1      -7.215  17.927  66.148  1.00  0.00    -0.339 A  
ENDBRANCH  10  13
TORSDOF 1
ENDMDL
MODEL       46
REMARK 921   NORMALIZED FREE ENERGY PREDICTED BY IDOCK:   -5.01 KCAL/MOL
REMARK 922        TOTAL FREE ENERGY PREDICTED BY IDOCK:   -5.69 KCAL/MOL
REMARK 923 INTER-LIGAND FREE ENERGY PREDICTED BY IDOCK:   -5.34 KCAL/MOL
REMARK 924 INTRA-LIGAND FREE ENERGY PREDICTED BY IDOCK:   -0.35 KCAL/MOL
REMARK 927      BINDING AFFINITY PREDICTED BY RF-SCORE:    0.00 PKD
ROOT
HETATM    1  C   UNL     1     -11.946  13.440  67.059  1.00  0.00    -0.429 C  
HETATM    2  C   UNL     1     -11.025  13.645  68.265  1.00  0.00    -0.275 C  
HETATM    3  C   UNL     1     -10.958  12.360  69.078  1.00  0.00    -0.247 A  
HETATM    4  C   UNL     1     -11.452  14.882  69.057  1.00  0.00    -0.301 C  
HETATM    5  C   UNL     1     -10.019  11.373  68.748  1.00  0.00    -0.188 A  
HETATM    6  O   UNL     1     -10.687  15.119  70.151  1.00  0.00    -0.260 OA 
HETATM    7  O   UNL     1     -12.366  15.632  68.744  1.00  0.00    -0.107 OA 
HETATM    8  C   UNL     1     -10.023  10.130  69.396  1.00  0.00    -0.228 A  
HETATM    9  F   UNL     1      -9.125   9.226  68.975  1.00  0.00    -0.138 F  
HETATM   10  C   UNL     1     -10.942   9.813  70.410  1.00  0.00    -0.371 A  
HETATM   11  C   UNL     1     -11.849  10.835  70.758  1.00  0.00    -0.443 A  
HETATM   12  C   UNL     1     -11.871  12.075  70.098  1.00  0.00    -0.383 A  
ENDROOT
BRANCH  10  13
HETATM   13  C   UNL     1     -11.002   8.476  71.064  1.00  0.00    -0.296 A  
HETATM   14  C   UNL     1     -10.777   8.302  72.442  1.00  0.00    -0.411 A  
HETATM   15  C   UNL     1     -10.821   7.037  73.043  1.00  0.00    -0.342 A  
HETATM   16  C   UNL     1     -11.104   5.909  72.282  1.00  0.00    -0.330 A  
HETATM   17  C   UNL     1     -11.336   6.044  70.920  1.00  0.00    -0.299 A  
HETATM   18  C   UNL     1     -11.277   7.310  70.321  1.00  0.00    -0.287 A  
ENDBRANCH  10  13
TORSDOF 1
ENDMDL
MODEL       47
REMARK 921   NORMALIZED FREE ENERGY PREDICTED BY IDOCK:   -5.00 KCAL/MOL
REMARK 922        TOTAL FREE ENERGY PREDICTED BY IDOCK:   -5.68 KCAL/MOL
REMARK 923 INTER-LIGAND FREE ENERGY PREDICTED BY IDOCK:   -5.30 KCAL/MOL
REMARK 924 INTRA-LIGAND FREE ENERGY PREDICTED BY IDOCK:   -0.37 KCAL/MOL
REMARK 927      BINDING AFFINITY PREDICTED BY RF-SCORE:    0.00 PKD
ROOT
HETATM    1  C   UNL     1     -10.330   8.933  71.666  1.00  0.00    -0.416 C  
HETATM    2  C   UNL     1      -9.238   8.705  70.617  1.00  0.00    -0.206 C  
HETATM    3  C   UNL     1      -9.598   9.448  69.338  1.00  0.00    -0.177 A  
HETATM    4  C   UNL     1      -8.976   7.209  70.436  1.00  0.00    -0.155 C  
HETATM    5  C   UNL     1      -9.227  10.790  69.182  1.00  0.00    -0.131 A  
HETATM    6  O   UNL     1      -8.026   6.931  69.510  1.00  0.00    -0.119 OA 
HETATM    7  O   UNL     1      -9.522   6.321  71.075  1.00  0.00    -0.172 OA 
HETATM    8  C   UNL     1      -9.659  11.532  68.074  1.00  0.00    -0.180 A  
HETATM    9  F   UNL     1      -9.302  12.826  68.037  1.00  0.00    -0.183 F  
HETATM   10  C   UNL     1     -10.460  10.977  67.063  1.00  0.00    -0.284 A  
HETATM   11  C   UNL     1     -10.784   9.614  67.215  1.00  0.00    -0.284 A  
HETATM   12  C   UNL     1     -10.380   8.868  68.334  1.00  0.00    -0.237 A  
ENDROOT
BRANCH  10  13
HETATM   13  C   UNL     1     -10.979  11.767  65.911  1.00  0.00    -0.354 A  
HETATM   14  C   UNL     1     -11.871  12.843  66.077  1.00  0.00    -0.485 A  
HETATM   15  C   UNL     1     -12.365  13.568  64.984  1.00  0.00    -0.468 A  
HETATM   16  C   UNL     1     -11.968  13.244  63.692  1.00  0.00    -0.547 A  
HETATM   17  C   UNL     1     -11.085  12.192  63.491  1.00  0.00    -0.525 A  
HETATM   18  C   UNL     1     -10.606  11.460  64.586  1.00  0.00    -0.380 A  
ENDBRANCH  10  13
TORSDOF 1
ENDMDL
MODEL       48
REMARK 921   NORMALIZED FREE ENERGY PREDICTED BY IDOCK:   -4.93 KCAL/MOL
REMARK 922        TOTAL FREE ENERGY PREDICTED BY IDOCK:   -5.61 KCAL/MOL
REMARK 923 INTER-LIGAND FREE ENERGY PREDICTED BY IDOCK:   -5.21 KCAL/MOL
REMARK 924 INTRA-LIGAND FREE ENERGY PREDICTED BY IDOCK:   -0.41 KCAL/MOL
REMARK 927      BINDING AFFINITY PREDICTED BY RF-SCORE:    0.00 PKD
ROOT
HETATM    1  C   UNL     1     -10.508  15.559  67.300  1.00  0.00    -0.279 C  
HETATM    2  C   UNL     1     -11.593  14.674  66.681  1.00  0.00    -0.359 C  
HETATM    3  C   UNL     1     -11.307  13.215  67.008  1.00  0.00    -0.349 A  
HETATM    4  C   UNL     1     -11.743  14.978  65.190  1.00  0.00    -0.242 C  
HETATM    5  C   UNL     1     -11.782  12.661  68.205  1.00  0.00    -0.396 A  
HETATM    6  O   UNL     1     -12.680  14.220  64.571  1.00  0.00    -0.662 OA 
HETATM    7  O   UNL     1     -11.122  15.842  64.586  1.00  0.00    -0.445 OA 
HETATM    8  C   UNL     1     -11.423  11.362  68.589  1.00  0.00    -0.296 A  
HETATM    9  F   UNL     1     -11.877  10.936  69.778  1.00  0.00    -0.293 F  
HETATM   10  C   UNL     1     -10.595  10.546  67.800  1.00  0.00    -0.285 A  
HETATM   11  C   UNL     1     -10.166  11.104  66.579  1.00  0.00    -0.275 A  
HETATM   12  C   UNL     1     -10.498  12.414  66.197  1.00  0.00    -0.274 A  
ENDROOT
BRANCH  10  13
HETATM   13  C   UNL     1     -10.153   9.187  68.223  1.00  0.00    -0.221 A  
HETATM   14  C   UNL     1     -10.711   8.013  67.686  1.00  0.00    -0.203 A  
HETATM   15  C   UNL     1     -10.297   6.740  68.103  1.00  0.00    -0.219 A  
HETATM   16  C   UNL     1      -9.300   6.608  69.062  1.00  0.00    -0.133 A  
HETATM   17  C   UNL     1      -8.723   7.745  69.610  1.00  0.00    -0.135 A  
HETATM   18  C   UNL     1      -9.151   9.016  69.201  1.00  0.00    -0.140 A  
ENDBRANCH  10  13
TORSDOF 1
ENDMDL
MODEL       49
REMARK 921   NORMALIZED FREE ENERGY PREDICTED BY IDOCK:   -4.89 KCAL/MOL
REMARK 922        TOTAL FREE ENERGY PREDICTED BY IDOCK:   -5.57 KCAL/MOL
REMARK 923 INTER-LIGAND FREE ENERGY PREDICTED BY IDOCK:   -5.56 KCAL/MOL
REMARK 924 INTRA-LIGAND FREE ENERGY PREDICTED BY IDOCK:   -0.01 KCAL/MOL
REMARK 927      BINDING AFFINITY PREDICTED BY RF-SCORE:    0.00 PKD
ROOT
HETATM    1  C   UNL     1      -7.871  19.017  68.549  1.00  0.00    -0.375 C  
HETATM    2  C   UNL     1      -9.384  19.106  68.332  1.00  0.00    -0.416 C  
HETATM    3  C   UNL     1     -10.014  17.743  68.580  1.00  0.00    -0.379 A  
HETATM    4  C   UNL     1      -9.691  19.713  66.962  1.00  0.00    -0.360 C  
HETATM    5  C   UNL     1     -10.397  17.376  69.878  1.00  0.00     0.392 A  
HETATM    6  O   UNL     1     -11.016  19.811  66.695  1.00  0.00    -0.417 OA 
HETATM    7  O   UNL     1      -8.850  20.119  66.172  1.00  0.00    -0.300 OA 
HETATM    8  C   UNL     1     -10.857  16.082  70.154  1.00  0.00    -0.346 A  
HETATM    9  F   UNL     1     -11.146  15.803  71.435  1.00  0.00    -0.371 F  
HETATM   10  C   UNL     1     -10.979  15.098  69.159  1.00  0.00    -0.260 A  
HETATM   11  C   UNL     1     -10.633  15.501  67.853  1.00  0.00    -0.274 A  
HETATM   12  C   UNL     1     -10.145  16.787  67.569  1.00  0.00    -0.276 A  
ENDROOT
BRANCH  10  13
HETATM   13  C   UNL     1     -11.407  13.700  69.445  1.00  0.00    -0.303 A  
HETATM   14  C   UNL     1     -11.169  12.642  68.549  1.00  0.00    -0.315 A  
HETATM   15  C   UNL     1     -11.591  11.334  68.823  1.00  0.00    -0.383 A  
HETATM   16  C   UNL     1     -12.252  11.045  70.011  1.00  0.00    -0.418 A  
HETATM   17  C   UNL     1     -12.499  12.065  70.921  1.00  0.00    -0.384 A  
HETATM   18  C   UNL     1     -12.089  13.374  70.635  1.00  0.00    -0.374 A  
ENDBRANCH  10  13
TORSDOF 1
ENDMDL
MODEL       50
REMARK 921   NORMALIZED FREE ENERGY PREDICTED BY IDOCK:   -4.86 KCAL/MOL
REMARK 922        TOTAL FREE ENERGY PREDICTED BY IDOCK:   -5.53 KCAL/MOL
REMARK 923 INTER-LIGAND FREE ENERGY PREDICTED BY IDOCK:   -5.13 KCAL/MOL
REMARK 924 INTRA-LIGAND FREE ENERGY PREDICTED BY IDOCK:   -0.41 KCAL/MOL
REMARK 927      BINDING AFFINITY PREDICTED BY RF-SCORE:    0.00 PKD
ROOT
HETATM    1  C   UNL     1     -10.190   2.865  72.632  1.00  0.00    -0.234 C  
HETATM    2  C   UNL     1      -9.237   3.619  71.700  1.00  0.00    -0.186 C  
HETATM    3  C   UNL     1      -9.750   5.037  71.488  1.00  0.00    -0.227 A  
HETATM    4  C   UNL     1      -9.007   2.823  70.415  1.00  0.00    -0.096 C  
HETATM    5  C   UNL     1      -9.394   6.050  72.388  1.00  0.00    -0.150 A  
HETATM    6  O   UNL     1      -8.181   3.438  69.534  1.00  0.00    -0.052 OA 
HETATM    7  O   UNL     1      -9.475   1.716  70.184  1.00  0.00    -0.109 OA 
HETATM    8  C   UNL     1      -9.956   7.330  72.290  1.00  0.00    -0.169 A  
HETATM    9  F   UNL     1      -9.601   8.221  73.229  1.00  0.00    -0.325 F  
HETATM   10  C   UNL     1     -10.879   7.672  71.287  1.00  0.00    -0.252 A  
HETATM   11  C   UNL     1     -11.189   6.652  70.365  1.00  0.00    -0.398 A  
HETATM   12  C   UNL     1     -10.652   5.358  70.470  1.00  0.00    -0.312 A  
ENDROOT
BRANCH  10  13
HETATM   13  C   UNL     1     -11.533   9.008  71.205  1.00  0.00    -0.390 A  
HETATM   14  C   UNL     1     -12.625   9.363  72.019  1.00  0.00    -0.462 A  
HETATM   15  C   UNL     1     -13.241  10.618  71.921  1.00  0.00    -0.528 A  
HETATM   16  C   UNL     1     -12.773  11.559  71.012  1.00  0.00    -0.426 A  
HETATM   17  C   UNL     1     -11.695  11.244  70.196  1.00  0.00    -0.429 A  
HETATM   18  C   UNL     1     -11.091   9.983  70.287  1.00  0.00    -0.381 A  
ENDBRANCH  10  13
TORSDOF 1
ENDMDL
MODEL       51
REMARK 921   NORMALIZED FREE ENERGY PREDICTED BY IDOCK:   -4.86 KCAL/MOL
REMARK 922        TOTAL FREE ENERGY PREDICTED BY IDOCK:   -5.53 KCAL/MOL
REMARK 923 INTER-LIGAND FREE ENERGY PREDICTED BY IDOCK:   -5.13 KCAL/MOL
REMARK 924 INTRA-LIGAND FREE ENERGY PREDICTED BY IDOCK:   -0.41 KCAL/MOL
REMARK 927      BINDING AFFINITY PREDICTED BY RF-SCORE:    0.00 PKD
ROOT
HETATM    1  C   UNL     1     -12.472  12.592  63.687  1.00  0.00    -0.570 C  
HETATM    2  C   UNL     1     -11.165  12.935  64.408  1.00  0.00    -0.389 C  
HETATM    3  C   UNL     1     -10.703  11.734  65.222  1.00  0.00    -0.338 A  
HETATM    4  C   UNL     1     -11.321  14.228  65.209  1.00  0.00    -0.336 C  
HETATM    5  C   UNL     1      -9.911  10.746  64.621  1.00  0.00    -0.366 A  
HETATM    6  O   UNL     1     -10.204  14.588  65.886  1.00  0.00    -0.292 OA 
HETATM    7  O   UNL     1     -12.330  14.920  65.230  1.00  0.00    -0.176 OA 
HETATM    8  C   UNL     1      -9.582   9.570  65.308  1.00  0.00    -0.243 A  
HETATM    9  F   UNL     1      -8.868   8.655  64.634  1.00  0.00    -0.191 F  
HETATM   10  C   UNL     1     -10.005   9.325  66.625  1.00  0.00    -0.333 A  
HETATM   11  C   UNL     1     -10.763  10.350  67.227  1.00  0.00    -0.331 A  
HETATM   12  C   UNL     1     -11.120  11.521  66.539  1.00  0.00    -0.341 A  
ENDROOT
BRANCH  10  13
HETATM   13  C   UNL     1      -9.718   8.054  67.348  1.00  0.00    -0.216 A  
HETATM   14  C   UNL     1      -8.734   7.964  68.350  1.00  0.00    -0.131 A  
HETATM   15  C   UNL     1      -8.463   6.759  69.012  1.00  0.00    -0.128 A  
HETATM   16  C   UNL     1      -9.181   5.610  68.698  1.00  0.00    -0.134 A  
HETATM   17  C   UNL     1     -10.163   5.664  67.718  1.00  0.00    -0.238 A  
HETATM   18  C   UNL     1     -10.420   6.868  67.048  1.00  0.00    -0.374 A  
ENDBRANCH  10  13
TORSDOF 1
ENDMDL
MODEL       52
REMARK 921   NORMALIZED FREE ENERGY PREDICTED BY IDOCK:   -4.84 KCAL/MOL
REMARK 922        TOTAL FREE ENERGY PREDICTED BY IDOCK:   -5.51 KCAL/MOL
REMARK 923 INTER-LIGAND FREE ENERGY PREDICTED BY IDOCK:   -5.10 KCAL/MOL
REMARK 924 INTRA-LIGAND FREE ENERGY PREDICTED BY IDOCK:   -0.41 KCAL/MOL
REMARK 927      BINDING AFFINITY PREDICTED BY RF-SCORE:    0.00 PKD
ROOT
HETATM    1  C   UNL     1     -10.717  11.262  68.397  1.00  0.00    -0.238 C  
HETATM    2  C   UNL     1      -9.428  11.596  67.641  1.00  0.00    -0.177 C  
HETATM    3  C   UNL     1      -9.346  13.099  67.414  1.00  0.00    -0.213 A  
HETATM    4  C   UNL     1      -9.322  10.751  66.370  1.00  0.00    -0.174 C  
HETATM    5  C   UNL     1      -8.779  13.923  68.396  1.00  0.00    -0.173 A  
HETATM    6  O   UNL     1      -8.208  11.003  65.640  1.00  0.00    -0.130 OA 
HETATM    7  O   UNL     1     -10.124   9.893  66.031  1.00  0.00    -0.259 OA 
HETATM    8  C   UNL     1      -8.810  15.318  68.270  1.00  0.00    -0.171 A  
HETATM    9  F   UNL     1      -8.294  16.029  69.285  1.00  0.00    -0.218 F  
HETATM   10  C   UNL     1      -9.385  15.962  67.161  1.00  0.00    -0.223 A  
HETATM   11  C   UNL     1      -9.909  15.114  66.164  1.00  0.00    -0.325 A  
HETATM   12  C   UNL     1      -9.908  13.716  66.292  1.00  0.00    -0.310 A  
ENDROOT
BRANCH  10  13
HETATM   13  C   UNL     1      -9.482  17.443  67.041  1.00  0.00    -0.268 A  
HETATM   14  C   UNL     1     -10.608  18.162  67.482  1.00  0.00    -0.419 A  
HETATM   15  C   UNL     1     -10.694  19.555  67.348  1.00  0.00    -0.589 A  
HETATM   16  C   UNL     1      -9.646  20.270  66.780  1.00  0.00    -0.548 A  
HETATM   17  C   UNL     1      -8.517  19.594  66.338  1.00  0.00    -0.382 A  
HETATM   18  C   UNL     1      -8.443  18.199  66.460  1.00  0.00    -0.283 A  
ENDBRANCH  10  13
TORSDOF 1
ENDMDL
MODEL       53
REMARK 921   NORMALIZED FREE ENERGY PREDICTED BY IDOCK:   -4.82 KCAL/MOL
REMARK 922        TOTAL FREE ENERGY PREDICTED BY IDOCK:   -5.50 KCAL/MOL
REMARK 923 INTER-LIGAND FREE ENERGY PREDICTED BY IDOCK:   -5.39 KCAL/MOL
REMARK 924 INTRA-LIGAND FREE ENERGY PREDICTED BY IDOCK:   -0.11 KCAL/MOL
REMARK 927      BINDING AFFINITY PREDICTED BY RF-SCORE:    0.00 PKD
ROOT
HETATM    1  C   UNL     1      -8.202   7.648  69.479  1.00  0.00    -0.129 C  
HETATM    2  C   UNL     1      -9.571   7.265  68.908  1.00  0.00    -0.143 C  
HETATM    3  C   UNL     1     -10.111   8.414  68.069  1.00  0.00    -0.245 A  
HETATM    4  C   UNL     1     -10.503   6.797  70.027  1.00  0.00    -0.210 C  
HETATM    5  C   UNL     1      -9.766   8.512  66.714  1.00  0.00    -0.303 A  
HETATM    6  O   UNL     1     -11.741   6.453  69.595  1.00  0.00    -0.389 OA 
HETATM    7  O   UNL     1     -10.187   6.692  71.203  1.00  0.00    -0.193 OA 
HETATM    8  C   UNL     1     -10.142   9.627  65.953  1.00  0.00    -0.234 A  
HETATM    9  F   UNL     1      -9.718   9.662  64.680  1.00  0.00    -0.346 F  
HETATM   10  C   UNL     1     -10.891  10.687  66.492  1.00  0.00    -0.168 A  
HETATM   11  C   UNL     1     -11.267  10.549  67.843  1.00  0.00    -0.358 A  
HETATM   12  C   UNL     1     -10.873   9.448  68.622  1.00  0.00    -0.149 A  
ENDROOT
BRANCH  10  13
HETATM   13  C   UNL     1     -11.245  11.909  65.716  1.00  0.00    -0.365 A  
HETATM   14  C   UNL     1     -11.396  13.169  66.323  1.00  0.00    -0.348 A  
HETATM   15  C   UNL     1     -11.745  14.308  65.584  1.00  0.00    -0.358 A  
HETATM   16  C   UNL     1     -11.941  14.219  64.211  1.00  0.00    -0.449 A  
HETATM   17  C   UNL     1     -11.796  12.992  63.578  1.00  0.00    -0.582 A  
HETATM   18  C   UNL     1     -11.461  11.853  64.323  1.00  0.00    -0.423 A  
ENDBRANCH  10  13
TORSDOF 1
ENDMDL
MODEL       54
REMARK 921   NORMALIZED FREE ENERGY PREDICTED BY IDOCK:   -4.82 KCAL/MOL
REMARK 922        TOTAL FREE ENERGY PREDICTED BY IDOCK:   -5.49 KCAL/MOL
REMARK 923 INTER-LIGAND FREE ENERGY PREDICTED BY IDOCK:   -5.10 KCAL/MOL
REMARK 924 INTRA-LIGAND FREE ENERGY PREDICTED BY IDOCK:   -0.40 KCAL/MOL
REMARK 927      BINDING AFFINITY PREDICTED BY RF-SCORE:    0.00 PKD
ROOT
HETATM    1  C   UNL     1      -9.926   5.272  71.794  1.00  0.00    -0.245 C  
HETATM    2  C   UNL     1     -11.017   6.313  71.530  1.00  0.00    -0.322 C  
HETATM    3  C   UNL     1     -10.743   7.012  70.206  1.00  0.00    -0.266 A  
HETATM    4  C   UNL     1     -11.160   7.251  72.730  1.00  0.00    -0.319 C  
HETATM    5  C   UNL     1     -11.225   6.459  69.012  1.00  0.00    -0.402 A  
HETATM    6  O   UNL     1     -12.102   8.211  72.562  1.00  0.00    -0.365 OA 
HETATM    7  O   UNL     1     -10.531   7.152  73.775  1.00  0.00    -0.371 OA 
HETATM    8  C   UNL     1     -10.877   7.010  67.771  1.00  0.00    -0.206 A  
HETATM    9  F   UNL     1     -11.337   6.381  66.679  1.00  0.00    -0.425 F  
HETATM   10  C   UNL     1     -10.053   8.143  67.655  1.00  0.00    -0.267 A  
HETATM   11  C   UNL     1      -9.617   8.711  68.869  1.00  0.00    -0.159 A  
HETATM   12  C   UNL     1      -9.937   8.151  70.117  1.00  0.00    -0.187 A  
ENDROOT
BRANCH  10  13
HETATM   13  C   UNL     1      -9.623   8.704  66.344  1.00  0.00    -0.316 A  
HETATM   14  C   UNL     1     -10.125   9.919  65.843  1.00  0.00    -0.316 A  
HETATM   15  C   UNL     1      -9.724  10.428  64.601  1.00  0.00    -0.392 A  
HETATM   16  C   UNL     1      -8.795   9.740  63.829  1.00  0.00    -0.259 A  
HETATM   17  C   UNL     1      -8.274   8.540  64.294  1.00  0.00    -0.147 A  
HETATM   18  C   UNL     1      -8.690   8.028  65.530  1.00  0.00    -0.134 A  
ENDBRANCH  10  13
TORSDOF 1
ENDMDL
MODEL       55
REMARK 921   NORMALIZED FREE ENERGY PREDICTED BY IDOCK:   -4.80 KCAL/MOL
REMARK 922        TOTAL FREE ENERGY PREDICTED BY IDOCK:   -5.47 KCAL/MOL
REMARK 923 INTER-LIGAND FREE ENERGY PREDICTED BY IDOCK:   -5.08 KCAL/MOL
REMARK 924 INTRA-LIGAND FREE ENERGY PREDICTED BY IDOCK:   -0.39 KCAL/MOL
REMARK 927      BINDING AFFINITY PREDICTED BY RF-SCORE:    0.00 PKD
ROOT
HETATM    1  C   UNL     1     -11.905  13.697  68.989  1.00  0.00    -0.393 C  
HETATM    2  C   UNL     1     -10.552  13.192  68.482  1.00  0.00    -0.274 C  
HETATM    3  C   UNL     1      -9.729  14.367  67.972  1.00  0.00    -0.221 A  
HETATM    4  C   UNL     1     -10.750  12.063  67.469  1.00  0.00    -0.226 C  
HETATM    5  C   UNL     1      -8.928  15.096  68.861  1.00  0.00    -0.206 A  
HETATM    6  O   UNL     1      -9.591  11.573  66.965  1.00  0.00    -0.182 OA 
HETATM    7  O   UNL     1     -11.833  11.593  67.148  1.00  0.00    -0.608 OA 
HETATM    8  C   UNL     1      -8.264  16.258  68.445  1.00  0.00    -0.185 A  
HETATM    9  F   UNL     1      -7.566  16.923  69.379  1.00  0.00    -0.238 F  
HETATM   10  C   UNL     1      -8.347  16.741  67.129  1.00  0.00    -0.207 A  
HETATM   11  C   UNL     1      -9.120  15.968  66.239  1.00  0.00    -0.379 A  
HETATM   12  C   UNL     1      -9.811  14.817  66.651  1.00  0.00    -0.270 A  
ENDROOT
BRANCH  10  13
HETATM   13  C   UNL     1      -7.700  18.008  66.685  1.00  0.00    -0.268 A  
HETATM   14  C   UNL     1      -6.596  18.024  65.813  1.00  0.00    -0.298 A  
HETATM   15  C   UNL     1      -5.986  19.222  65.416  1.00  0.00    -0.255 A  
HETATM   16  C   UNL     1      -6.474  20.441  65.871  1.00  0.00    -0.255 A  
HETATM   17  C   UNL     1      -7.566  20.463  66.729  1.00  0.00    -0.320 A  
HETATM   18  C   UNL     1      -8.162  19.262  67.135  1.00  0.00    -0.292 A  
ENDBRANCH  10  13
TORSDOF 1
ENDMDL
MODEL       56
REMARK 921   NORMALIZED FREE ENERGY PREDICTED BY IDOCK:   -4.78 KCAL/MOL
REMARK 922        TOTAL FREE ENERGY PREDICTED BY IDOCK:   -5.45 KCAL/MOL
REMARK 923 INTER-LIGAND FREE ENERGY PREDICTED BY IDOCK:   -5.19 KCAL/MOL
REMARK 924 INTRA-LIGAND FREE ENERGY PREDICTED BY IDOCK:   -0.25 KCAL/MOL
REMARK 927      BINDING AFFINITY PREDICTED BY RF-SCORE:    0.00 PKD
ROOT
HETATM    1  C   UNL     1      -8.475   6.654  71.346  1.00  0.00    -0.124 C  
HETATM    2  C   UNL     1      -9.939   7.104  71.336  1.00  0.00    -0.193 C  
HETATM    3  C   UNL     1     -10.189   7.993  70.126  1.00  0.00    -0.203 A  
HETATM    4  C   UNL     1     -10.313   7.731  72.679  1.00  0.00    -0.292 C  
HETATM    5  C   UNL     1     -10.537   7.418  68.896  1.00  0.00    -0.191 A  
HETATM    6  O   UNL     1     -11.595   8.166  72.739  1.00  0.00    -0.411 OA 
HETATM    7  O   UNL     1      -9.567   7.816  73.644  1.00  0.00    -0.286 OA 
HETATM    8  C   UNL     1     -10.645   8.201  67.739  1.00  0.00    -0.165 A  
HETATM    9  F   UNL     1     -10.926   7.557  66.596  1.00  0.00    -0.390 F  
HETATM   10  C   UNL     1     -10.431   9.590  67.749  1.00  0.00    -0.309 A  
HETATM   11  C   UNL     1     -10.127  10.156  69.003  1.00  0.00    -0.216 A  
HETATM   12  C   UNL     1      -9.990   9.377  70.164  1.00  0.00    -0.269 A  
ENDROOT
BRANCH  10  13
HETATM   13  C   UNL     1     -10.480  10.428  66.518  1.00  0.00    -0.262 A  
HETATM   14  C   UNL     1     -11.204  11.633  66.456  1.00  0.00    -0.356 A  
HETATM   15  C   UNL     1     -11.255  12.405  65.287  1.00  0.00    -0.359 A  
HETATM   16  C   UNL     1     -10.568  11.998  64.148  1.00  0.00    -0.398 A  
HETATM   17  C   UNL     1      -9.839  10.816  64.176  1.00  0.00    -0.384 A  
HETATM   18  C   UNL     1      -9.804  10.041  65.342  1.00  0.00    -0.384 A  
ENDBRANCH  10  13
TORSDOF 1
ENDMDL
MODEL       57
REMARK 921   NORMALIZED FREE ENERGY PREDICTED BY IDOCK:   -4.77 KCAL/MOL
REMARK 922        TOTAL FREE ENERGY PREDICTED BY IDOCK:   -5.45 KCAL/MOL
REMARK 923 INTER-LIGAND FREE ENERGY PREDICTED BY IDOCK:   -5.28 KCAL/MOL
REMARK 924 INTRA-LIGAND FREE ENERGY PREDICTED BY IDOCK:   -0.17 KCAL/MOL
REMARK 927      BINDING AFFINITY PREDICTED BY RF-SCORE:    0.00 PKD
ROOT
HETATM    1  C   UNL     1     -11.980   6.930  70.661  1.00  0.00    -0.400 C  
HETATM    2  C   UNL     1     -10.551   7.439  70.451  1.00  0.00    -0.238 C  
HETATM    3  C   UNL     1     -10.568   8.621  69.493  1.00  0.00    -0.218 A  
HETATM    4  C   UNL     1      -9.632   6.289  70.032  1.00  0.00    -0.158 C  
HETATM    5  C   UNL     1     -10.771   9.917  69.986  1.00  0.00    -0.338 A  
HETATM    6  O   UNL     1      -8.350   6.669  69.815  1.00  0.00    -0.128 OA 
HETATM    7  O   UNL     1      -9.977   5.120  69.930  1.00  0.00    -0.202 OA 
HETATM    8  C   UNL     1     -10.921  11.004  69.114  1.00  0.00    -0.237 A  
HETATM    9  F   UNL     1     -11.169  12.199  69.674  1.00  0.00    -0.283 F  
HETATM   10  C   UNL     1     -10.858  10.863  67.718  1.00  0.00    -0.309 A  
HETATM   11  C   UNL     1     -10.608   9.560  67.243  1.00  0.00    -0.317 A  
HETATM   12  C   UNL     1     -10.482   8.459  68.106  1.00  0.00    -0.228 A  
ENDROOT
BRANCH  10  13
HETATM   13  C   UNL     1     -11.078  11.996  66.776  1.00  0.00    -0.353 A  
HETATM   14  C   UNL     1     -10.327  12.150  65.596  1.00  0.00    -0.289 A  
HETATM   15  C   UNL     1     -10.533  13.229  64.725  1.00  0.00    -0.402 A  
HETATM   16  C   UNL     1     -11.507  14.180  65.006  1.00  0.00    -0.352 A  
HETATM   17  C   UNL     1     -12.271  14.057  66.159  1.00  0.00    -0.494 A  
HETATM   18  C   UNL     1     -12.051  12.984  67.034  1.00  0.00    -0.330 A  
ENDBRANCH  10  13
TORSDOF 1
ENDMDL
MODEL       58
REMARK 921   NORMALIZED FREE ENERGY PREDICTED BY IDOCK:   -4.77 KCAL/MOL
REMARK 922        TOTAL FREE ENERGY PREDICTED BY IDOCK:   -5.44 KCAL/MOL
REMARK 923 INTER-LIGAND FREE ENERGY PREDICTED BY IDOCK:   -5.24 KCAL/MOL
REMARK 924 INTRA-LIGAND FREE ENERGY PREDICTED BY IDOCK:   -0.20 KCAL/MOL
REMARK 927      BINDING AFFINITY PREDICTED BY RF-SCORE:    0.00 PKD
ROOT
HETATM    1  C   UNL     1      -9.797   7.048  66.610  1.00  0.00    -0.223 C  
HETATM    2  C   UNL     1      -8.851   8.206  66.941  1.00  0.00    -0.145 C  
HETATM    3  C   UNL     1      -9.575   9.223  67.812  1.00  0.00    -0.167 A  
HETATM    4  C   UNL     1      -8.242   8.779  65.660  1.00  0.00    -0.121 C  
HETATM    5  C   UNL     1      -9.590   9.066  69.204  1.00  0.00    -0.161 A  
HETATM    6  O   UNL     1      -7.401   9.820  65.875  1.00  0.00    -0.097 OA 
HETATM    7  O   UNL     1      -8.440   8.343  64.535  1.00  0.00    -0.149 OA 
HETATM    8  C   UNL     1     -10.357   9.911  70.016  1.00  0.00    -0.272 A  
HETATM    9  F   UNL     1     -10.356   9.651  71.333  1.00  0.00    -0.375 F  
HETATM   10  C   UNL     1     -11.129  10.962  69.492  1.00  0.00    -0.326 A  
HETATM   11  C   UNL     1     -11.065  11.131  68.094  1.00  0.00    -0.324 A  
HETATM   12  C   UNL     1     -10.321  10.273  67.268  1.00  0.00    -0.284 A  
ENDROOT
BRANCH  10  13
HETATM   13  C   UNL     1     -11.999  11.830  70.333  1.00  0.00    -0.422 A  
HETATM   14  C   UNL     1     -12.077  13.223  70.147  1.00  0.00    -0.403 A  
HETATM   15  C   UNL     1     -12.888  14.031  70.956  1.00  0.00    -0.410 A  
HETATM   16  C   UNL     1     -13.655  13.465  71.968  1.00  0.00    -0.577 A  
HETATM   17  C   UNL     1     -13.606  12.093  72.176  1.00  0.00    -0.285 A  
HETATM   18  C   UNL     1     -12.782  11.291  71.375  1.00  0.00    -0.501 A  
ENDBRANCH  10  13
TORSDOF 1
ENDMDL
MODEL       59
REMARK 921   NORMALIZED FREE ENERGY PREDICTED BY IDOCK:   -4.74 KCAL/MOL
REMARK 922        TOTAL FREE ENERGY PREDICTED BY IDOCK:   -5.40 KCAL/MOL
REMARK 923 INTER-LIGAND FREE ENERGY PREDICTED BY IDOCK:   -5.10 KCAL/MOL
REMARK 924 INTRA-LIGAND FREE ENERGY PREDICTED BY IDOCK:   -0.30 KCAL/MOL
REMARK 927      BINDING AFFINITY PREDICTED BY RF-SCORE:    0.00 PKD
ROOT
HETATM    1  C   UNL     1     -12.117  14.956  64.797  1.00  0.00    -0.335 C  
HETATM    2  C   UNL     1     -10.602  14.761  64.915  1.00  0.00    -0.431 C  
HETATM    3  C   UNL     1     -10.301  13.308  65.253  1.00  0.00    -0.324 A  
HETATM    4  C   UNL     1     -10.008  15.780  65.889  1.00  0.00    -0.352 C  
HETATM    5  C   UNL     1     -10.167  12.365  64.225  1.00  0.00    -0.358 A  
HETATM    6  O   UNL     1      -8.669  15.659  66.054  1.00  0.00    -0.292 OA 
HETATM    7  O   UNL     1     -10.643  16.661  66.454  1.00  0.00    -0.284 OA 
HETATM    8  C   UNL     1     -10.020  11.001  64.513  1.00  0.00    -0.310 A  
HETATM    9  F   UNL     1      -9.956  10.165  63.465  1.00  0.00    -0.335 F  
HETATM   10  C   UNL     1      -9.980  10.510  65.828  1.00  0.00    -0.318 A  
HETATM   11  C   UNL     1     -10.070  11.479  66.848  1.00  0.00    -0.241 A  
HETATM   12  C   UNL     1     -10.245  12.845  66.571  1.00  0.00    -0.264 A  
ENDROOT
BRANCH  10  13
HETATM   13  C   UNL     1      -9.887   9.059  66.152  1.00  0.00    -0.349 A  
HETATM   14  C   UNL     1      -8.901   8.225  65.595  1.00  0.00    -0.172 A  
HETATM   15  C   UNL     1      -8.834   6.857  65.895  1.00  0.00    -0.125 A  
HETATM   16  C   UNL     1      -9.748   6.288  66.776  1.00  0.00    -0.193 A  
HETATM   17  C   UNL     1     -10.732   7.083  67.348  1.00  0.00    -0.383 A  
HETATM   18  C   UNL     1     -10.803   8.447  67.033  1.00  0.00    -0.039 A  
ENDBRANCH  10  13
TORSDOF 1
ENDMDL
MODEL       60
REMARK 921   NORMALIZED FREE ENERGY PREDICTED BY IDOCK:   -4.73 KCAL/MOL
REMARK 922        TOTAL FREE ENERGY PREDICTED BY IDOCK:   -5.40 KCAL/MOL
REMARK 923 INTER-LIGAND FREE ENERGY PREDICTED BY IDOCK:   -4.99 KCAL/MOL
REMARK 924 INTRA-LIGAND FREE ENERGY PREDICTED BY IDOCK:   -0.41 KCAL/MOL
REMARK 927      BINDING AFFINITY PREDICTED BY RF-SCORE:    0.00 PKD
ROOT
HETATM    1  C   UNL     1     -11.313  14.488  73.891  1.00  0.00     1.339 C  
HETATM    2  C   UNL     1     -12.635  14.712  73.152  1.00  0.00    -0.486 C  
HETATM    3  C   UNL     1     -12.423  14.515  71.658  1.00  0.00    -0.422 A  
HETATM    4  C   UNL     1     -13.240  16.062  73.540  1.00  0.00    -0.492 C  
HETATM    5  C   UNL     1     -12.528  13.234  71.101  1.00  0.00    -0.397 A  
HETATM    6  O   UNL     1     -14.410  16.335  72.912  1.00  0.00    -0.183 OA 
HETATM    7  O   UNL     1     -12.764  16.832  74.362  1.00  0.00    -0.639 OA 
HETATM    8  C   UNL     1     -12.210  13.005  69.755  1.00  0.00    -0.177 A  
HETATM    9  F   UNL     1     -12.285  11.737  69.323  1.00  0.00    -0.332 F  
HETATM   10  C   UNL     1     -11.791  14.035  68.896  1.00  0.00    -0.390 A  
HETATM   11  C   UNL     1     -11.735  15.324  69.464  1.00  0.00    -0.359 A  
HETATM   12  C   UNL     1     -12.026  15.560  70.817  1.00  0.00    -0.420 A  
ENDROOT
BRANCH  10  13
HETATM   13  C   UNL     1     -11.389  13.800  67.481  1.00  0.00    -0.334 A  
HETATM   14  C   UNL     1     -12.255  14.048  66.400  1.00  0.00    -0.492 A  
HETATM   15  C   UNL     1     -11.870  13.807  65.074  1.00  0.00    -0.381 A  
HETATM   16  C   UNL     1     -10.598  13.323  64.791  1.00  0.00    -0.402 A  
HETATM   17  C   UNL     1      -9.715  13.072  65.833  1.00  0.00    -0.187 A  
HETATM   18  C   UNL     1     -10.110  13.300  67.158  1.00  0.00    -0.239 A  
ENDBRANCH  10  13
TORSDOF 1
ENDMDL
MODEL       61
REMARK 921   NORMALIZED FREE ENERGY PREDICTED BY IDOCK:   -4.71 KCAL/MOL
REMARK 922        TOTAL FREE ENERGY PREDICTED BY IDOCK:   -5.38 KCAL/MOL
REMARK 923 INTER-LIGAND FREE ENERGY PREDICTED BY IDOCK:   -5.10 KCAL/MOL
REMARK 924 INTRA-LIGAND FREE ENERGY PREDICTED BY IDOCK:   -0.29 KCAL/MOL
REMARK 927      BINDING AFFINITY PREDICTED BY RF-SCORE:    0.00 PKD
ROOT
HETATM    1  C   UNL     1      -7.849   3.641  71.712  1.00  0.00    -0.062 C  
HETATM    2  C   UNL     1      -9.367   3.463  71.804  1.00  0.00    -0.200 C  
HETATM    3  C   UNL     1     -10.047   4.818  71.668  1.00  0.00    -0.264 A  
HETATM    4  C   UNL     1      -9.738   2.686  73.068  1.00  0.00    -0.107 C  
HETATM    5  C   UNL     1     -10.357   5.320  70.396  1.00  0.00    -0.345 A  
HETATM    6  O   UNL     1     -11.071   2.501  73.223  1.00  0.00    -0.174 OA 
HETATM    7  O   UNL     1      -8.934   2.225  73.867  1.00  0.00    -0.072 OA 
HETATM    8  C   UNL     1     -10.863   6.617  70.237  1.00  0.00    -0.271 A  
HETATM    9  F   UNL     1     -11.076   7.033  68.979  1.00  0.00    -0.226 F  
HETATM   10  C   UNL     1     -11.102   7.470  71.328  1.00  0.00    -0.267 A  
HETATM   11  C   UNL     1     -10.827   6.931  72.601  1.00  0.00    -0.290 A  
HETATM   12  C   UNL     1     -10.295   5.642  72.770  1.00  0.00    -0.224 A  
ENDROOT
BRANCH  10  13
HETATM   13  C   UNL     1     -11.579   8.873  71.173  1.00  0.00    -0.360 A  
HETATM   14  C   UNL     1     -10.968   9.783  70.292  1.00  0.00    -0.352 A  
HETATM   15  C   UNL     1     -11.417  11.105  70.167  1.00  0.00    -0.361 A  
HETATM   16  C   UNL     1     -12.501  11.550  70.915  1.00  0.00    -0.464 A  
HETATM   17  C   UNL     1     -13.132  10.677  71.791  1.00  0.00    -0.571 A  
HETATM   18  C   UNL     1     -12.670   9.361  71.923  1.00  0.00    -0.484 A  
ENDBRANCH  10  13
TORSDOF 1
ENDMDL
MODEL       62
REMARK 921   NORMALIZED FREE ENERGY PREDICTED BY IDOCK:   -4.66 KCAL/MOL
REMARK 922        TOTAL FREE ENERGY PREDICTED BY IDOCK:   -5.33 KCAL/MOL
REMARK 923 INTER-LIGAND FREE ENERGY PREDICTED BY IDOCK:   -5.02 KCAL/MOL
REMARK 924 INTRA-LIGAND FREE ENERGY PREDICTED BY IDOCK:   -0.31 KCAL/MOL
REMARK 927      BINDING AFFINITY PREDICTED BY RF-SCORE:    0.00 PKD
ROOT
HETATM    1  C   UNL     1      -9.091  14.484  66.791  1.00  0.00    -0.283 C  
HETATM    2  C   UNL     1     -10.487  13.938  66.482  1.00  0.00    -0.282 C  
HETATM    3  C   UNL     1     -10.447  12.416  66.469  1.00  0.00    -0.254 A  
HETATM    4  C   UNL     1     -11.038  14.574  65.205  1.00  0.00    -0.353 C  
HETATM    5  C   UNL     1     -10.621  11.702  67.662  1.00  0.00    -0.237 A  
HETATM    6  O   UNL     1     -12.270  14.127  64.861  1.00  0.00    -0.402 OA 
HETATM    7  O   UNL     1     -10.468  15.436  64.551  1.00  0.00    -0.218 OA 
HETATM    8  C   UNL     1     -10.459  10.311  67.699  1.00  0.00    -0.239 A  
HETATM    9  F   UNL     1     -10.588   9.718  68.896  1.00  0.00    -0.199 F  
HETATM   10  C   UNL     1     -10.136   9.560  66.556  1.00  0.00    -0.326 A  
HETATM   11  C   UNL     1     -10.010  10.291  65.357  1.00  0.00    -0.371 A  
HETATM   12  C   UNL     1     -10.144  11.688  65.314  1.00  0.00    -0.305 A  
ENDROOT
BRANCH  10  13
HETATM   13  C   UNL     1      -9.898   8.090  66.589  1.00  0.00    -0.322 A  
HETATM   14  C   UNL     1      -8.725   7.505  66.077  1.00  0.00    -0.178 A  
HETATM   15  C   UNL     1      -8.521   6.119  66.100  1.00  0.00    -0.137 A  
HETATM   16  C   UNL     1      -9.481   5.278  66.649  1.00  0.00    -0.148 A  
HETATM   17  C   UNL     1     -10.649   5.821  67.168  1.00  0.00    -0.365 A  
HETATM   18  C   UNL     1     -10.856   7.206  67.130  1.00  0.00    -0.403 A  
ENDBRANCH  10  13
TORSDOF 1
ENDMDL
MODEL       63
REMARK 921   NORMALIZED FREE ENERGY PREDICTED BY IDOCK:   -4.65 KCAL/MOL
REMARK 922        TOTAL FREE ENERGY PREDICTED BY IDOCK:   -5.32 KCAL/MOL
REMARK 923 INTER-LIGAND FREE ENERGY PREDICTED BY IDOCK:   -4.91 KCAL/MOL
REMARK 924 INTRA-LIGAND FREE ENERGY PREDICTED BY IDOCK:   -0.41 KCAL/MOL
REMARK 927      BINDING AFFINITY PREDICTED BY RF-SCORE:    0.00 PKD
ROOT
HETATM    1  C   UNL     1     -11.201  15.447  71.929  1.00  0.00    -0.378 C  
HETATM    2  C   UNL     1     -11.068  14.793  70.551  1.00  0.00    -0.131 C  
HETATM    3  C   UNL     1     -10.262  15.702  69.633  1.00  0.00    -0.291 A  
HETATM    4  C   UNL     1     -12.444  14.399  70.012  1.00  0.00    -0.301 C  
HETATM    5  C   UNL     1      -8.863  15.616  69.618  1.00  0.00    -0.115 A  
HETATM    6  O   UNL     1     -12.405  13.825  68.785  1.00  0.00    -0.284 OA 
HETATM    7  O   UNL     1     -13.498  14.537  70.617  1.00  0.00    -0.236 OA 
HETATM    8  C   UNL     1      -8.093  16.526  68.882  1.00  0.00    -0.240 A  
HETATM    9  F   UNL     1      -6.760  16.403  68.972  1.00  0.00    -0.146 F  
HETATM   10  C   UNL     1      -8.671  17.551  68.114  1.00  0.00    -0.262 A  
HETATM   11  C   UNL     1     -10.080  17.593  68.106  1.00  0.00    -0.347 A  
HETATM   12  C   UNL     1     -10.860  16.702  68.861  1.00  0.00    -0.321 A  
ENDROOT
BRANCH  10  13
HETATM   13  C   UNL     1      -7.867  18.566  67.376  1.00  0.00    -0.241 A  
HETATM   14  C   UNL     1      -7.193  18.267  66.178  1.00  0.00    -0.301 A  
HETATM   15  C   UNL     1      -6.427  19.227  65.502  1.00  0.00    -0.297 A  
HETATM   16  C   UNL     1      -6.325  20.520  66.002  1.00  0.00    -0.264 A  
HETATM   17  C   UNL     1      -6.982  20.852  67.179  1.00  0.00    -0.426 A  
HETATM   18  C   UNL     1      -7.734  19.885  67.859  1.00  0.00    -0.329 A  
ENDBRANCH  10  13
TORSDOF 1
ENDMDL
MODEL       64
REMARK 921   NORMALIZED FREE ENERGY PREDICTED BY IDOCK:   -4.65 KCAL/MOL
REMARK 922        TOTAL FREE ENERGY PREDICTED BY IDOCK:   -5.31 KCAL/MOL
REMARK 923 INTER-LIGAND FREE ENERGY PREDICTED BY IDOCK:   -4.90 KCAL/MOL
REMARK 924 INTRA-LIGAND FREE ENERGY PREDICTED BY IDOCK:   -0.41 KCAL/MOL
REMARK 927      BINDING AFFINITY PREDICTED BY RF-SCORE:    0.00 PKD
ROOT
HETATM    1  C   UNL     1      -9.888  10.434  63.749  1.00  0.00    -0.308 C  
HETATM    2  C   UNL     1     -10.420  10.374  65.183  1.00  0.00    -0.158 C  
HETATM    3  C   UNL     1     -10.330  11.754  65.818  1.00  0.00    -0.293 A  
HETATM    4  C   UNL     1      -9.718   9.263  65.966  1.00  0.00    -0.289 C  
HETATM    5  C   UNL     1     -11.379  12.669  65.651  1.00  0.00    -0.357 A  
HETATM    6  O   UNL     1     -10.131   9.159  67.253  1.00  0.00    -0.198 OA 
HETATM    7  O   UNL     1      -8.887   8.496  65.500  1.00  0.00    -0.178 OA 
HETATM    8  C   UNL     1     -11.264  13.987  66.113  1.00  0.00    -0.318 A  
HETATM    9  F   UNL     1     -12.295  14.809  65.859  1.00  0.00    -0.277 F  
HETATM   10  C   UNL     1     -10.117  14.456  66.776  1.00  0.00    -0.266 A  
HETATM   11  C   UNL     1      -9.093  13.508  66.973  1.00  0.00    -0.248 A  
HETATM   12  C   UNL     1      -9.186  12.192  66.491  1.00  0.00    -0.216 A  
ENDROOT
BRANCH  10  13
HETATM   13  C   UNL     1      -9.953  15.869  67.217  1.00  0.00    -0.240 A  
HETATM   14  C   UNL     1      -9.390  16.856  66.388  1.00  0.00    -0.303 A  
HETATM   15  C   UNL     1      -9.227  18.179  66.821  1.00  0.00    -0.281 A  
HETATM   16  C   UNL     1      -9.636  18.555  68.096  1.00  0.00    -0.353 A  
HETATM   17  C   UNL     1     -10.200  17.607  68.939  1.00  0.00    -0.354 A  
HETATM   18  C   UNL     1     -10.348  16.282  68.507  1.00  0.00    -0.261 A  
ENDBRANCH  10  13
TORSDOF 1
ENDMDL
MODEL       65
REMARK 921   NORMALIZED FREE ENERGY PREDICTED BY IDOCK:   -4.61 KCAL/MOL
REMARK 922        TOTAL FREE ENERGY PREDICTED BY IDOCK:   -5.28 KCAL/MOL
REMARK 923 INTER-LIGAND FREE ENERGY PREDICTED BY IDOCK:   -4.87 KCAL/MOL
REMARK 924 INTRA-LIGAND FREE ENERGY PREDICTED BY IDOCK:   -0.41 KCAL/MOL
REMARK 927      BINDING AFFINITY PREDICTED BY RF-SCORE:    0.00 PKD
ROOT
HETATM    1  C   UNL     1     -10.967  16.224  69.837  1.00  0.00    -0.365 C  
HETATM    2  C   UNL     1     -10.967  16.408  68.317  1.00  0.00    -0.355 C  
HETATM    3  C   UNL     1     -10.543  15.108  67.647  1.00  0.00    -0.263 A  
HETATM    4  C   UNL     1     -10.132  17.630  67.928  1.00  0.00    -0.345 C  
HETATM    5  C   UNL     1     -11.501  14.128  67.355  1.00  0.00    -0.369 A  
HETATM    6  O   UNL     1     -10.076  17.847  66.591  1.00  0.00    -0.326 OA 
HETATM    7  O   UNL     1      -9.586  18.385  68.720  1.00  0.00    -0.339 OA 
HETATM    8  C   UNL     1     -11.120  12.874  66.860  1.00  0.00    -0.278 A  
HETATM    9  F   UNL     1     -12.100  11.978  66.663  1.00  0.00    -0.368 F  
HETATM   10  C   UNL     1      -9.778  12.538  66.614  1.00  0.00    -0.244 A  
HETATM   11  C   UNL     1      -8.834  13.553  66.872  1.00  0.00    -0.194 A  
HETATM   12  C   UNL     1      -9.202  14.804  67.393  1.00  0.00    -0.200 A  
ENDROOT
BRANCH  10  13
HETATM   13  C   UNL     1      -9.350  11.189  66.148  1.00  0.00    -0.227 A  
HETATM   14  C   UNL     1      -9.489  10.775  64.811  1.00  0.00    -0.292 A  
HETATM   15  C   UNL     1      -9.097   9.498  64.388  1.00  0.00    -0.234 A  
HETATM   16  C   UNL     1      -8.541   8.601  65.293  1.00  0.00    -0.206 A  
HETATM   17  C   UNL     1      -8.383   8.977  66.620  1.00  0.00    -0.118 A  
HETATM   18  C   UNL     1      -8.791  10.251  67.041  1.00  0.00    -0.143 A  
ENDBRANCH  10  13
TORSDOF 1
ENDMDL
MODEL       66
REMARK 921   NORMALIZED FREE ENERGY PREDICTED BY IDOCK:   -4.61 KCAL/MOL
REMARK 922        TOTAL FREE ENERGY PREDICTED BY IDOCK:   -5.27 KCAL/MOL
REMARK 923 INTER-LIGAND FREE ENERGY PREDICTED BY IDOCK:   -4.95 KCAL/MOL
REMARK 924 INTRA-LIGAND FREE ENERGY PREDICTED BY IDOCK:   -0.32 KCAL/MOL
REMARK 927      BINDING AFFINITY PREDICTED BY RF-SCORE:    0.00 PKD
ROOT
HETATM    1  C   UNL     1      -8.702   4.208  70.612  1.00  0.00    -0.117 C  
HETATM    2  C   UNL     1     -10.069   4.815  70.940  1.00  0.00    -0.275 C  
HETATM    3  C   UNL     1     -10.294   6.054  70.085  1.00  0.00    -0.284 A  
HETATM    4  C   UNL     1     -10.203   5.044  72.446  1.00  0.00    -0.201 C  
HETATM    5  C   UNL     1     -10.851   5.927  68.805  1.00  0.00    -0.353 A  
HETATM    6  O   UNL     1     -11.387   5.594  72.810  1.00  0.00    -0.289 OA 
HETATM    7  O   UNL     1      -9.360   4.739  73.278  1.00  0.00    -0.120 OA 
HETATM    8  C   UNL     1     -10.947   7.033  67.949  1.00  0.00    -0.130 A  
HETATM    9  F   UNL     1     -11.440   6.807  66.722  1.00  0.00    -0.460 F  
HETATM   10  C   UNL     1     -10.516   8.316  68.326  1.00  0.00    -0.211 A  
HETATM   11  C   UNL     1     -10.001   8.431  69.633  1.00  0.00    -0.193 A  
HETATM   12  C   UNL     1      -9.875   7.325  70.489  1.00  0.00    -0.183 A  
ENDROOT
BRANCH  10  13
HETATM   13  C   UNL     1     -10.552   9.488  67.407  1.00  0.00    -0.337 A  
HETATM   14  C   UNL     1      -9.940   9.472  66.141  1.00  0.00    -0.342 A  
HETATM   15  C   UNL     1      -9.968  10.588  65.293  1.00  0.00    -0.364 A  
HETATM   16  C   UNL     1     -10.624  11.749  65.685  1.00  0.00    -0.314 A  
HETATM   17  C   UNL     1     -11.243  11.799  66.926  1.00  0.00    -0.387 A  
HETATM   18  C   UNL     1     -11.199  10.686  67.777  1.00  0.00    -0.383 A  
ENDBRANCH  10  13
TORSDOF 1
ENDMDL
MODEL       67
REMARK 921   NORMALIZED FREE ENERGY PREDICTED BY IDOCK:   -4.61 KCAL/MOL
REMARK 922        TOTAL FREE ENERGY PREDICTED BY IDOCK:   -5.27 KCAL/MOL
REMARK 923 INTER-LIGAND FREE ENERGY PREDICTED BY IDOCK:   -4.99 KCAL/MOL
REMARK 924 INTRA-LIGAND FREE ENERGY PREDICTED BY IDOCK:   -0.27 KCAL/MOL
REMARK 927      BINDING AFFINITY PREDICTED BY RF-SCORE:    0.00 PKD
ROOT
HETATM    1  C   UNL     1     -10.676  15.006  71.575  1.00  0.00     0.433 C  
HETATM    2  C   UNL     1     -11.985  14.290  71.233  1.00  0.00    -0.315 C  
HETATM    3  C   UNL     1     -11.931  13.788  69.797  1.00  0.00    -0.406 A  
HETATM    4  C   UNL     1     -13.183  15.186  71.553  1.00  0.00    -0.429 C  
HETATM    5  C   UNL     1     -11.373  12.534  69.515  1.00  0.00    -0.240 A  
HETATM    6  O   UNL     1     -14.380  14.620  71.263  1.00  0.00    -0.390 OA 
HETATM    7  O   UNL     1     -13.109  16.297  72.059  1.00  0.00    -0.168 OA 
HETATM    8  C   UNL     1     -11.193  12.107  68.193  1.00  0.00    -0.267 A  
HETATM    9  F   UNL     1     -10.599  10.916  68.018  1.00  0.00    -0.187 F  
HETATM   10  C   UNL     1     -11.572  12.890  67.090  1.00  0.00    -0.421 A  
HETATM   11  C   UNL     1     -12.173  14.129  67.395  1.00  0.00    -0.278 A  
HETATM   12  C   UNL     1     -12.334  14.579  68.716  1.00  0.00    -0.064 A  
ENDROOT
BRANCH  10  13
HETATM   13  C   UNL     1     -11.331  12.480  65.679  1.00  0.00    -0.372 A  
HETATM   14  C   UNL     1     -10.084  12.001  65.237  1.00  0.00    -0.289 A  
HETATM   15  C   UNL     1      -9.865  11.632  63.903  1.00  0.00    -0.306 A  
HETATM   16  C   UNL     1     -10.895  11.720  62.973  1.00  0.00    -0.144 A  
HETATM   17  C   UNL     1     -12.141  12.184  63.376  1.00  0.00    -0.608 A  
HETATM   18  C   UNL     1     -12.350  12.566  64.708  1.00  0.00    -0.544 A  
ENDBRANCH  10  13
TORSDOF 1
ENDMDL
MODEL       68
REMARK 921   NORMALIZED FREE ENERGY PREDICTED BY IDOCK:   -4.60 KCAL/MOL
REMARK 922        TOTAL FREE ENERGY PREDICTED BY IDOCK:   -5.26 KCAL/MOL
REMARK 923 INTER-LIGAND FREE ENERGY PREDICTED BY IDOCK:   -4.86 KCAL/MOL
REMARK 924 INTRA-LIGAND FREE ENERGY PREDICTED BY IDOCK:   -0.40 KCAL/MOL
REMARK 927      BINDING AFFINITY PREDICTED BY RF-SCORE:    0.00 PKD
ROOT
HETATM    1  C   UNL     1     -11.093  16.077  70.680  1.00  0.00    -0.352 C  
HETATM    2  C   UNL     1     -11.396  15.824  69.200  1.00  0.00    -0.349 C  
HETATM    3  C   UNL     1     -11.069  14.378  68.854  1.00  0.00    -0.277 A  
HETATM    4  C   UNL     1     -10.694  16.865  68.327  1.00  0.00    -0.377 C  
HETATM    5  C   UNL     1     -12.034  13.379  69.044  1.00  0.00    -0.357 A  
HETATM    6  O   UNL     1     -10.907  16.695  66.999  1.00  0.00    -0.230 OA 
HETATM    7  O   UNL     1     -10.028  17.799  68.750  1.00  0.00    -0.347 OA 
HETATM    8  C   UNL     1     -11.717  12.027  68.857  1.00  0.00    -0.326 A  
HETATM    9  F   UNL     1     -12.687  11.137  69.117  1.00  0.00    -0.245 F  
HETATM   10  C   UNL     1     -10.439  11.602  68.457  1.00  0.00    -0.236 A  
HETATM   11  C   UNL     1      -9.496  12.625  68.227  1.00  0.00    -0.203 A  
HETATM   12  C   UNL     1      -9.795  13.981  68.437  1.00  0.00    -0.232 A  
ENDROOT
BRANCH  10  13
HETATM   13  C   UNL     1     -10.067  10.167  68.315  1.00  0.00    -0.179 A  
HETATM   14  C   UNL     1      -9.226   9.512  69.234  1.00  0.00    -0.169 A  
HETATM   15  C   UNL     1      -8.871   8.165  69.080  1.00  0.00    -0.144 A  
HETATM   16  C   UNL     1      -9.359   7.430  68.006  1.00  0.00    -0.136 A  
HETATM   17  C   UNL     1     -10.195   8.043  67.082  1.00  0.00    -0.362 A  
HETATM   18  C   UNL     1     -10.536   9.394  67.232  1.00  0.00    -0.332 A  
ENDBRANCH  10  13
TORSDOF 1
ENDMDL
MODEL       69
REMARK 921   NORMALIZED FREE ENERGY PREDICTED BY IDOCK:   -4.60 KCAL/MOL
REMARK 922        TOTAL FREE ENERGY PREDICTED BY IDOCK:   -5.26 KCAL/MOL
REMARK 923 INTER-LIGAND FREE ENERGY PREDICTED BY IDOCK:   -4.95 KCAL/MOL
REMARK 924 INTRA-LIGAND FREE ENERGY PREDICTED BY IDOCK:   -0.31 KCAL/MOL
REMARK 927      BINDING AFFINITY PREDICTED BY RF-SCORE:    0.00 PKD
ROOT
HETATM    1  C   UNL     1      -9.524   3.616  70.572  1.00  0.00    -0.255 C  
HETATM    2  C   UNL     1      -9.771   4.128  71.993  1.00  0.00    -0.231 C  
HETATM    3  C   UNL     1     -10.284   5.561  71.937  1.00  0.00    -0.251 A  
HETATM    4  C   UNL     1      -8.524   3.929  72.856  1.00  0.00    -0.095 C  
HETATM    5  C   UNL     1     -11.656   5.806  71.795  1.00  0.00    -0.137 A  
HETATM    6  O   UNL     1      -8.666   4.372  74.129  1.00  0.00    -0.103 OA 
HETATM    7  O   UNL     1      -7.493   3.389  72.481  1.00  0.00    -0.048 OA 
HETATM    8  C   UNL     1     -12.139   7.109  71.610  1.00  0.00    -0.336 A  
HETATM    9  F   UNL     1     -13.462   7.243  71.426  1.00  0.00    -0.397 F  
HETATM   10  C   UNL     1     -11.291   8.228  71.574  1.00  0.00    -0.320 A  
HETATM   11  C   UNL     1      -9.919   7.964  71.763  1.00  0.00    -0.228 A  
HETATM   12  C   UNL     1      -9.421   6.661  71.924  1.00  0.00    -0.150 A  
ENDROOT
BRANCH  10  13
HETATM   13  C   UNL     1     -11.779   9.611  71.315  1.00  0.00    -0.458 A  
HETATM   14  C   UNL     1     -12.819  10.194  72.062  1.00  0.00    -0.472 A  
HETATM   15  C   UNL     1     -13.281  11.491  71.798  1.00  0.00    -0.456 A  
HETATM   16  C   UNL     1     -12.704  12.247  70.784  1.00  0.00    -0.212 A  
HETATM   17  C   UNL     1     -11.671  11.705  70.030  1.00  0.00    -0.402 A  
HETATM   18  C   UNL     1     -11.224  10.403  70.288  1.00  0.00    -0.395 A  
ENDBRANCH  10  13
TORSDOF 1
ENDMDL
MODEL       70
REMARK 921   NORMALIZED FREE ENERGY PREDICTED BY IDOCK:   -4.58 KCAL/MOL
REMARK 922        TOTAL FREE ENERGY PREDICTED BY IDOCK:   -5.24 KCAL/MOL
REMARK 923 INTER-LIGAND FREE ENERGY PREDICTED BY IDOCK:   -4.93 KCAL/MOL
REMARK 924 INTRA-LIGAND FREE ENERGY PREDICTED BY IDOCK:   -0.31 KCAL/MOL
REMARK 927      BINDING AFFINITY PREDICTED BY RF-SCORE:    0.00 PKD
ROOT
HETATM    1  C   UNL     1      -8.925   6.800  69.725  1.00  0.00    -0.144 C  
HETATM    2  C   UNL     1     -10.419   7.082  69.549  1.00  0.00    -0.235 C  
HETATM    3  C   UNL     1     -10.615   8.521  69.093  1.00  0.00    -0.188 A  
HETATM    4  C   UNL     1     -11.186   6.703  70.817  1.00  0.00    -0.315 C  
HETATM    5  C   UNL     1     -10.572   8.834  67.728  1.00  0.00    -0.256 A  
HETATM    6  O   UNL     1     -12.519   6.938  70.738  1.00  0.00    -0.356 OA 
HETATM    7  O   UNL     1     -10.687   6.197  71.812  1.00  0.00    -0.226 OA 
HETATM    8  C   UNL     1     -10.619  10.164  67.291  1.00  0.00    -0.261 A  
HETATM    9  F   UNL     1     -10.514  10.372  65.970  1.00  0.00    -0.304 F  
HETATM   10  C   UNL     1     -10.729  11.245  68.183  1.00  0.00    -0.244 A  
HETATM   11  C   UNL     1     -10.817  10.907  69.548  1.00  0.00    -0.286 A  
HETATM   12  C   UNL     1     -10.744   9.579  69.999  1.00  0.00    -0.278 A  
ENDROOT
BRANCH  10  13
HETATM   13  C   UNL     1     -10.717  12.668  67.741  1.00  0.00    -0.239 A  
HETATM   14  C   UNL     1      -9.697  13.195  66.928  1.00  0.00    -0.243 A  
HETATM   15  C   UNL     1      -9.689  14.540  66.533  1.00  0.00    -0.301 A  
HETATM   16  C   UNL     1     -10.712  15.393  66.930  1.00  0.00    -0.314 A  
HETATM   17  C   UNL     1     -11.738  14.905  67.729  1.00  0.00    -0.340 A  
HETATM   18  C   UNL     1     -11.734  13.564  68.134  1.00  0.00    -0.396 A  
ENDBRANCH  10  13
TORSDOF 1
ENDMDL
MODEL       71
REMARK 921   NORMALIZED FREE ENERGY PREDICTED BY IDOCK:   -4.55 KCAL/MOL
REMARK 922        TOTAL FREE ENERGY PREDICTED BY IDOCK:   -5.21 KCAL/MOL
REMARK 923 INTER-LIGAND FREE ENERGY PREDICTED BY IDOCK:   -5.04 KCAL/MOL
REMARK 924 INTRA-LIGAND FREE ENERGY PREDICTED BY IDOCK:   -0.17 KCAL/MOL
REMARK 927      BINDING AFFINITY PREDICTED BY RF-SCORE:    0.00 PKD
ROOT
HETATM    1  C   UNL     1      -7.891   8.492  66.579  1.00  0.00    -0.096 C  
HETATM    2  C   UNL     1      -9.413   8.331  66.526  1.00  0.00    -0.284 C  
HETATM    3  C   UNL     1     -10.074   9.515  67.217  1.00  0.00    -0.272 A  
HETATM    4  C   UNL     1      -9.823   6.962  67.071  1.00  0.00    -0.174 C  
HETATM    5  C   UNL     1     -10.346  10.684  66.493  1.00  0.00    -0.299 A  
HETATM    6  O   UNL     1     -11.162   6.753  67.067  1.00  0.00    -0.393 OA 
HETATM    7  O   UNL     1      -9.045   6.096  67.447  1.00  0.00    -0.112 OA 
HETATM    8  C   UNL     1     -10.832  11.831  67.134  1.00  0.00    -0.258 A  
HETATM    9  F   UNL     1     -11.010  12.921  66.371  1.00  0.00    -0.280 F  
HETATM   10  C   UNL     1     -11.090  11.870  68.515  1.00  0.00    -0.290 A  
HETATM   11  C   UNL     1     -10.853  10.671  69.217  1.00  0.00    -0.282 A  
HETATM   12  C   UNL     1     -10.340   9.524  68.590  1.00  0.00    -0.229 A  
ENDROOT
BRANCH  10  13
HETATM   13  C   UNL     1     -11.547  13.098  69.223  1.00  0.00    -0.370 A  
HETATM   14  C   UNL     1     -12.505  13.062  70.252  1.00  0.00    -0.217 A  
HETATM   15  C   UNL     1     -12.939  14.227  70.899  1.00  0.00    -0.395 A  
HETATM   16  C   UNL     1     -12.414  15.463  70.542  1.00  0.00    -0.468 A  
HETATM   17  C   UNL     1     -11.462  15.537  69.534  1.00  0.00    -0.341 A  
HETATM   18  C   UNL     1     -11.043  14.370  68.879  1.00  0.00    -0.277 A  
ENDBRANCH  10  13
TORSDOF 1
ENDMDL
MODEL       72
REMARK 921   NORMALIZED FREE ENERGY PREDICTED BY IDOCK:   -4.55 KCAL/MOL
REMARK 922        TOTAL FREE ENERGY PREDICTED BY IDOCK:   -5.20 KCAL/MOL
REMARK 923 INTER-LIGAND FREE ENERGY PREDICTED BY IDOCK:   -4.84 KCAL/MOL
REMARK 924 INTRA-LIGAND FREE ENERGY PREDICTED BY IDOCK:   -0.37 KCAL/MOL
REMARK 927      BINDING AFFINITY PREDICTED BY RF-SCORE:    0.00 PKD
ROOT
HETATM    1  C   UNL     1      -9.284   5.717  65.972  1.00  0.00    -0.164 C  
HETATM    2  C   UNL     1      -8.369   6.791  66.566  1.00  0.00    -0.121 C  
HETATM    3  C   UNL     1      -8.921   8.170  66.233  1.00  0.00    -0.215 A  
HETATM    4  C   UNL     1      -6.922   6.559  66.131  1.00  0.00    -0.062 C  
HETATM    5  C   UNL     1      -9.874   8.763  67.072  1.00  0.00    -0.279 A  
HETATM    6  O   UNL     1      -6.054   7.482  66.611  1.00  0.00    -0.041 OA 
HETATM    7  O   UNL     1      -6.538   5.619  65.448  1.00  0.00    -0.038 OA 
HETATM    8  C   UNL     1     -10.492   9.970  66.720  1.00  0.00    -0.198 A  
HETATM    9  F   UNL     1     -11.433  10.434  67.557  1.00  0.00    -0.379 F  
HETATM   10  C   UNL     1     -10.184  10.655  65.533  1.00  0.00    -0.329 A  
HETATM   11  C   UNL     1      -9.190  10.066  64.725  1.00  0.00    -0.301 A  
HETATM   12  C   UNL     1      -8.583   8.843  65.055  1.00  0.00    -0.202 A  
ENDROOT
BRANCH  10  13
HETATM   13  C   UNL     1     -10.875  11.906  65.113  1.00  0.00    -0.350 A  
HETATM   14  C   UNL     1     -11.639  11.984  63.933  1.00  0.00    -0.536 A  
HETATM   15  C   UNL     1     -12.272  13.171  63.541  1.00  0.00    -0.552 A  
HETATM   16  C   UNL     1     -12.169  14.313  64.327  1.00  0.00    -0.451 A  
HETATM   17  C   UNL     1     -11.427  14.271  65.500  1.00  0.00    -0.329 A  
HETATM   18  C   UNL     1     -10.784  13.085  65.880  1.00  0.00    -0.292 A  
ENDBRANCH  10  13
TORSDOF 1
ENDMDL
MODEL       73
REMARK 921   NORMALIZED FREE ENERGY PREDICTED BY IDOCK:   -4.53 KCAL/MOL
REMARK 922        TOTAL FREE ENERGY PREDICTED BY IDOCK:   -5.19 KCAL/MOL
REMARK 923 INTER-LIGAND FREE ENERGY PREDICTED BY IDOCK:   -4.78 KCAL/MOL
REMARK 924 INTRA-LIGAND FREE ENERGY PREDICTED BY IDOCK:   -0.41 KCAL/MOL
REMARK 927      BINDING AFFINITY PREDICTED BY RF-SCORE:    0.00 PKD
ROOT
HETATM    1  C   UNL     1     -10.540   8.186  69.372  1.00  0.00    -0.206 C  
HETATM    2  C   UNL     1      -9.759   9.378  69.934  1.00  0.00    -0.236 C  
HETATM    3  C   UNL     1      -9.980  10.595  69.047  1.00  0.00    -0.226 A  
HETATM    4  C   UNL     1      -8.292   9.001  70.149  1.00  0.00    -0.151 C  
HETATM    5  C   UNL     1     -11.081  11.432  69.271  1.00  0.00    -0.313 A  
HETATM    6  O   UNL     1      -7.535  10.014  70.634  1.00  0.00    -0.302 OA 
HETATM    7  O   UNL     1      -7.819   7.890  69.950  1.00  0.00    -0.099 OA 
HETATM    8  C   UNL     1     -11.379  12.481  68.391  1.00  0.00    -0.291 A  
HETATM    9  F   UNL     1     -12.485  13.195  68.654  1.00  0.00    -0.246 F  
HETATM   10  C   UNL     1     -10.594  12.761  67.261  1.00  0.00    -0.245 A  
HETATM   11  C   UNL     1      -9.465  11.936  67.078  1.00  0.00    -0.192 A  
HETATM   12  C   UNL     1      -9.172  10.866  67.939  1.00  0.00    -0.152 A  
ENDROOT
BRANCH  10  13
HETATM   13  C   UNL     1     -10.931  13.831  66.281  1.00  0.00    -0.297 A  
HETATM   14  C   UNL     1     -11.964  13.689  65.337  1.00  0.00    -0.400 A  
HETATM   15  C   UNL     1     -12.261  14.697  64.410  1.00  0.00    -0.473 A  
HETATM   16  C   UNL     1     -11.539  15.885  64.410  1.00  0.00    -0.234 A  
HETATM   17  C   UNL     1     -10.515  16.062  65.332  1.00  0.00    -0.415 A  
HETATM   18  C   UNL     1     -10.212  15.045  66.247  1.00  0.00    -0.306 A  
ENDBRANCH  10  13
TORSDOF 1
ENDMDL
MODEL       74
REMARK 921   NORMALIZED FREE ENERGY PREDICTED BY IDOCK:   -4.53 KCAL/MOL
REMARK 922        TOTAL FREE ENERGY PREDICTED BY IDOCK:   -5.18 KCAL/MOL
REMARK 923 INTER-LIGAND FREE ENERGY PREDICTED BY IDOCK:   -4.77 KCAL/MOL
REMARK 924 INTRA-LIGAND FREE ENERGY PREDICTED BY IDOCK:   -0.41 KCAL/MOL
REMARK 927      BINDING AFFINITY PREDICTED BY RF-SCORE:    0.00 PKD
ROOT
HETATM    1  C   UNL     1      -9.873  10.267  68.374  1.00  0.00    -0.168 C  
HETATM    2  C   UNL     1     -10.477  10.430  69.772  1.00  0.00    -0.284 C  
HETATM    3  C   UNL     1     -10.517   9.077  70.470  1.00  0.00    -0.271 A  
HETATM    4  C   UNL     1     -11.825  11.148  69.691  1.00  0.00    -0.348 C  
HETATM    5  C   UNL     1      -9.402   8.630  71.192  1.00  0.00    -0.274 A  
HETATM    6  O   UNL     1     -12.426  11.316  70.894  1.00  0.00    -0.365 OA 
HETATM    7  O   UNL     1     -12.327  11.579  68.662  1.00  0.00    -0.445 OA 
HETATM    8  C   UNL     1      -9.365   7.338  71.732  1.00  0.00    -0.149 A  
HETATM    9  F   UNL     1      -8.234   6.976  72.358  1.00  0.00    -0.104 F  
HETATM   10  C   UNL     1     -10.433   6.436  71.599  1.00  0.00    -0.251 A  
HETATM   11  C   UNL     1     -11.563   6.920  70.908  1.00  0.00    -0.384 A  
HETATM   12  C   UNL     1     -11.601   8.204  70.340  1.00  0.00    -0.063 A  
ENDROOT
BRANCH  10  13
HETATM   13  C   UNL     1     -10.386   5.038  72.111  1.00  0.00    -0.276 A  
HETATM   14  C   UNL     1      -9.831   3.981  71.367  1.00  0.00    -0.249 A  
HETATM   15  C   UNL     1      -9.807   2.667  71.854  1.00  0.00    -0.227 A  
HETATM   16  C   UNL     1     -10.328   2.376  73.110  1.00  0.00    -0.220 A  
HETATM   17  C   UNL     1     -10.879   3.395  73.874  1.00  0.00    -0.299 A  
HETATM   18  C   UNL     1     -10.914   4.705  73.376  1.00  0.00    -0.395 A  
ENDBRANCH  10  13
TORSDOF 1
ENDMDL
MODEL       75
REMARK 921   NORMALIZED FREE ENERGY PREDICTED BY IDOCK:   -4.50 KCAL/MOL
REMARK 922        TOTAL FREE ENERGY PREDICTED BY IDOCK:   -5.16 KCAL/MOL
REMARK 923 INTER-LIGAND FREE ENERGY PREDICTED BY IDOCK:   -4.76 KCAL/MOL
REMARK 924 INTRA-LIGAND FREE ENERGY PREDICTED BY IDOCK:   -0.40 KCAL/MOL
REMARK 927      BINDING AFFINITY PREDICTED BY RF-SCORE:    0.00 PKD
ROOT
HETATM    1  C   UNL     1     -11.740  14.193  64.699  1.00  0.00    -0.427 C  
HETATM    2  C   UNL     1     -10.268  14.345  65.090  1.00  0.00    -0.420 C  
HETATM    3  C   UNL     1      -9.952  13.417  66.255  1.00  0.00    -0.298 A  
HETATM    4  C   UNL     1      -9.930  15.816  65.334  1.00  0.00    -0.237 C  
HETATM    5  C   UNL     1      -9.571  12.091  66.009  1.00  0.00    -0.247 A  
HETATM    6  O   UNL     1      -8.641  16.026  65.698  1.00  0.00    -0.098 OA 
HETATM    7  O   UNL     1     -10.710  16.747  65.187  1.00  0.00    -0.641 OA 
HETATM    8  C   UNL     1      -9.403  11.183  67.063  1.00  0.00    -0.170 A  
HETATM    9  F   UNL     1      -9.093   9.921  66.730  1.00  0.00    -0.144 F  
HETATM   10  C   UNL     1      -9.585  11.549  68.407  1.00  0.00    -0.195 A  
HETATM   11  C   UNL     1      -9.924  12.898  68.636  1.00  0.00    -0.099 A  
HETATM   12  C   UNL     1     -10.121  13.810  67.586  1.00  0.00    -0.242 A  
ENDROOT
BRANCH  10  13
HETATM   13  C   UNL     1      -9.472  10.582  69.535  1.00  0.00    -0.106 A  
HETATM   14  C   UNL     1      -8.239  10.041  69.942  1.00  0.00    -0.175 A  
HETATM   15  C   UNL     1      -8.148   9.120  70.995  1.00  0.00    -0.179 A  
HETATM   16  C   UNL     1      -9.291   8.724  71.680  1.00  0.00    -0.345 A  
HETATM   17  C   UNL     1     -10.524   9.242  71.308  1.00  0.00    -0.408 A  
HETATM   18  C   UNL     1     -10.612  10.151  70.245  1.00  0.00    -0.324 A  
ENDBRANCH  10  13
TORSDOF 1
ENDMDL
MODEL       76
REMARK 921   NORMALIZED FREE ENERGY PREDICTED BY IDOCK:   -4.45 KCAL/MOL
REMARK 922        TOTAL FREE ENERGY PREDICTED BY IDOCK:   -5.11 KCAL/MOL
REMARK 923 INTER-LIGAND FREE ENERGY PREDICTED BY IDOCK:   -4.70 KCAL/MOL
REMARK 924 INTRA-LIGAND FREE ENERGY PREDICTED BY IDOCK:   -0.41 KCAL/MOL
REMARK 927      BINDING AFFINITY PREDICTED BY RF-SCORE:    0.00 PKD
ROOT
HETATM    1  C   UNL     1     -10.807  12.600  64.143  1.00  0.00    -0.431 C  
HETATM    2  C   UNL     1     -10.884  13.254  65.526  1.00  0.00    -0.297 C  
HETATM    3  C   UNL     1     -10.469  12.247  66.589  1.00  0.00    -0.247 A  
HETATM    4  C   UNL     1     -12.262  13.881  65.742  1.00  0.00    -0.460 C  
HETATM    5  C   UNL     1      -9.116  12.103  66.924  1.00  0.00    -0.203 A  
HETATM    6  O   UNL     1     -12.409  14.470  66.954  1.00  0.00    -0.319 OA 
HETATM    7  O   UNL     1     -13.159  13.904  64.910  1.00  0.00    -0.704 OA 
HETATM    8  C   UNL     1      -8.695  11.095  67.803  1.00  0.00    -0.132 A  
HETATM    9  F   UNL     1      -7.375  10.996  68.021  1.00  0.00    -0.081 F  
HETATM   10  C   UNL     1      -9.593  10.197  68.403  1.00  0.00    -0.150 A  
HETATM   11  C   UNL     1     -10.954  10.388  68.088  1.00  0.00    -0.334 A  
HETATM   12  C   UNL     1     -11.384  11.377  67.189  1.00  0.00    -0.327 A  
ENDROOT
BRANCH  10  13
HETATM   13  C   UNL     1      -9.157   9.082  69.289  1.00  0.00    -0.145 A  
HETATM   14  C   UNL     1      -9.101   7.747  68.847  1.00  0.00    -0.141 A  
HETATM   15  C   UNL     1      -8.704   6.704  69.695  1.00  0.00    -0.140 A  
HETATM   16  C   UNL     1      -8.338   6.971  71.009  1.00  0.00    -0.125 A  
HETATM   17  C   UNL     1      -8.377   8.277  71.478  1.00  0.00    -0.174 A  
HETATM   18  C   UNL     1      -8.789   9.314  70.630  1.00  0.00    -0.287 A  
ENDBRANCH  10  13
TORSDOF 1
ENDMDL
MODEL       77
REMARK 921   NORMALIZED FREE ENERGY PREDICTED BY IDOCK:   -4.45 KCAL/MOL
REMARK 922        TOTAL FREE ENERGY PREDICTED BY IDOCK:   -5.10 KCAL/MOL
REMARK 923 INTER-LIGAND FREE ENERGY PREDICTED BY IDOCK:   -4.70 KCAL/MOL
REMARK 924 INTRA-LIGAND FREE ENERGY PREDICTED BY IDOCK:   -0.41 KCAL/MOL
REMARK 927      BINDING AFFINITY PREDICTED BY RF-SCORE:    0.00 PKD
ROOT
HETATM    1  C   UNL     1     -11.244   9.120  71.657  1.00  0.00    -0.447 C  
HETATM    2  C   UNL     1     -10.034   8.376  71.084  1.00  0.00    -0.245 C  
HETATM    3  C   UNL     1      -9.870   8.730  69.612  1.00  0.00    -0.183 A  
HETATM    4  C   UNL     1     -10.142   6.879  71.374  1.00  0.00    -0.185 C  
HETATM    5  C   UNL     1      -9.131   9.862  69.244  1.00  0.00    -0.196 A  
HETATM    6  O   UNL     1      -9.108   6.153  70.883  1.00  0.00    -0.149 OA 
HETATM    7  O   UNL     1     -11.040   6.353  72.018  1.00  0.00    -0.241 OA 
HETATM    8  C   UNL     1      -9.075  10.282  67.908  1.00  0.00    -0.131 A  
HETATM    9  F   UNL     1      -8.390  11.408  67.656  1.00  0.00    -0.119 F  
HETATM   10  C   UNL     1      -9.730   9.592  66.874  1.00  0.00    -0.237 A  
HETATM   11  C   UNL     1     -10.430   8.430  67.259  1.00  0.00    -0.373 A  
HETATM   12  C   UNL     1     -10.515   8.016  68.598  1.00  0.00    -0.196 A  
ENDROOT
BRANCH  10  13
HETATM   13  C   UNL     1      -9.733  10.058  65.460  1.00  0.00    -0.355 A  
HETATM   14  C   UNL     1      -8.919   9.473  64.472  1.00  0.00    -0.256 A  
HETATM   15  C   UNL     1      -8.920   9.932  63.148  1.00  0.00    -0.275 A  
HETATM   16  C   UNL     1      -9.746  10.984  62.771  1.00  0.00    -0.303 A  
HETATM   17  C   UNL     1     -10.566  11.582  63.718  1.00  0.00    -0.465 A  
HETATM   18  C   UNL     1     -10.551  11.130  65.045  1.00  0.00    -0.340 A  
ENDBRANCH  10  13
TORSDOF 1
ENDMDL
MODEL       78
REMARK 921   NORMALIZED FREE ENERGY PREDICTED BY IDOCK:   -4.44 KCAL/MOL
REMARK 922        TOTAL FREE ENERGY PREDICTED BY IDOCK:   -5.09 KCAL/MOL
REMARK 923 INTER-LIGAND FREE ENERGY PREDICTED BY IDOCK:   -4.70 KCAL/MOL
REMARK 924 INTRA-LIGAND FREE ENERGY PREDICTED BY IDOCK:   -0.40 KCAL/MOL
REMARK 927      BINDING AFFINITY PREDICTED BY RF-SCORE:    0.00 PKD
ROOT
HETATM    1  C   UNL     1      -8.341  10.545  67.699  1.00  0.00    -0.114 C  
HETATM    2  C   UNL     1      -9.696  10.717  68.391  1.00  0.00    -0.179 C  
HETATM    3  C   UNL     1      -9.996   9.487  69.236  1.00  0.00    -0.191 A  
HETATM    4  C   UNL     1     -10.776  11.070  67.368  1.00  0.00    -0.257 C  
HETATM    5  C   UNL     1      -9.527   9.413  70.554  1.00  0.00    -0.327 A  
HETATM    6  O   UNL     1     -12.009  11.225  67.909  1.00  0.00    -0.630 OA 
HETATM    7  O   UNL     1     -10.578  11.242  66.173  1.00  0.00    -0.251 OA 
HETATM    8  C   UNL     1      -9.677   8.240  71.307  1.00  0.00    -0.176 A  
HETATM    9  F   UNL     1      -9.146   8.241  72.540  1.00  0.00    -0.219 F  
HETATM   10  C   UNL     1     -10.313   7.096  70.798  1.00  0.00    -0.219 A  
HETATM   11  C   UNL     1     -10.817   7.206  69.487  1.00  0.00    -0.244 A  
HETATM   12  C   UNL     1     -10.649   8.366  68.714  1.00  0.00    -0.154 A  
ENDROOT
BRANCH  10  13
HETATM   13  C   UNL     1     -10.425   5.821  71.561  1.00  0.00    -0.291 A  
HETATM   14  C   UNL     1      -9.708   4.664  71.205  1.00  0.00    -0.252 A  
HETATM   15  C   UNL     1      -9.835   3.466  71.922  1.00  0.00    -0.238 A  
HETATM   16  C   UNL     1     -10.675   3.397  73.027  1.00  0.00    -0.229 A  
HETATM   17  C   UNL     1     -11.394   4.521  73.411  1.00  0.00    -0.376 A  
HETATM   18  C   UNL     1     -11.275   5.712  72.681  1.00  0.00    -0.350 A  
ENDBRANCH  10  13
TORSDOF 1
ENDMDL
MODEL       79
REMARK 921   NORMALIZED FREE ENERGY PREDICTED BY IDOCK:   -4.32 KCAL/MOL
REMARK 922        TOTAL FREE ENERGY PREDICTED BY IDOCK:   -4.97 KCAL/MOL
REMARK 923 INTER-LIGAND FREE ENERGY PREDICTED BY IDOCK:   -4.61 KCAL/MOL
REMARK 924 INTRA-LIGAND FREE ENERGY PREDICTED BY IDOCK:   -0.36 KCAL/MOL
REMARK 927      BINDING AFFINITY PREDICTED BY RF-SCORE:    0.00 PKD
ROOT
HETATM    1  C   UNL     1      -9.129   2.325  68.484  1.00  0.00    -0.209 C  
HETATM    2  C   UNL     1      -8.257   3.440  69.068  1.00  0.00    -0.075 C  
HETATM    3  C   UNL     1      -9.146   4.547  69.616  1.00  0.00    -0.166 A  
HETATM    4  C   UNL     1      -7.222   3.902  68.040  1.00  0.00    -0.059 C  
HETATM    5  C   UNL     1      -9.625   4.471  70.931  1.00  0.00    -0.250 A  
HETATM    6  O   UNL     1      -6.420   4.900  68.484  1.00  0.00    -0.035 OA 
HETATM    7  O   UNL     1      -7.076   3.414  66.927  1.00  0.00    -0.057 OA 
HETATM    8  C   UNL     1     -10.548   5.407  71.416  1.00  0.00    -0.212 A  
HETATM    9  F   UNL     1     -10.996   5.223  72.668  1.00  0.00    -0.255 F  
HETATM   10  C   UNL     1     -11.025   6.470  70.632  1.00  0.00    -0.340 A  
HETATM   11  C   UNL     1     -10.496   6.556  69.328  1.00  0.00    -0.259 A  
HETATM   12  C   UNL     1      -9.591   5.608  68.822  1.00  0.00    -0.166 A  
ENDROOT
BRANCH  10  13
HETATM   13  C   UNL     1     -12.053   7.437  71.110  1.00  0.00    -0.357 A  
HETATM   14  C   UNL     1     -13.340   7.032  71.508  1.00  0.00    -0.370 A  
HETATM   15  C   UNL     1     -14.303   7.953  71.941  1.00  0.00    -0.549 A  
HETATM   16  C   UNL     1     -14.000   9.309  72.000  1.00  0.00    -0.392 A  
HETATM   17  C   UNL     1     -12.737   9.744  71.619  1.00  0.00    -0.517 A  
HETATM   18  C   UNL     1     -11.782   8.820  71.173  1.00  0.00    -0.344 A  
ENDBRANCH  10  13
TORSDOF 1
ENDMDL
MODEL       80
REMARK 921   NORMALIZED FREE ENERGY PREDICTED BY IDOCK:   -4.25 KCAL/MOL
REMARK 922        TOTAL FREE ENERGY PREDICTED BY IDOCK:   -4.89 KCAL/MOL
REMARK 923 INTER-LIGAND FREE ENERGY PREDICTED BY IDOCK:   -4.48 KCAL/MOL
REMARK 924 INTRA-LIGAND FREE ENERGY PREDICTED BY IDOCK:   -0.41 KCAL/MOL
REMARK 927      BINDING AFFINITY PREDICTED BY RF-SCORE:    0.00 PKD
ROOT
HETATM    1  C   UNL     1      -8.809  12.980  66.932  1.00  0.00    -0.184 C  
HETATM    2  C   UNL     1     -10.244  12.519  67.202  1.00  0.00    -0.225 C  
HETATM    3  C   UNL     1     -10.225  11.120  67.803  1.00  0.00    -0.205 A  
HETATM    4  C   UNL     1     -11.096  12.662  65.940  1.00  0.00    -0.289 C  
HETATM    5  C   UNL     1     -10.095  10.957  69.189  1.00  0.00    -0.198 A  
HETATM    6  O   UNL     1     -12.380  12.259  66.101  1.00  0.00    -0.588 OA 
HETATM    7  O   UNL     1     -10.703  13.126  64.879  1.00  0.00    -0.312 OA 
HETATM    8  C   UNL     1      -9.944   9.683  69.753  1.00  0.00    -0.227 A  
HETATM    9  F   UNL     1      -9.770   9.627  71.082  1.00  0.00    -0.323 F  
HETATM   10  C   UNL     1      -9.932   8.513  68.976  1.00  0.00    -0.197 A  
HETATM   11  C   UNL     1     -10.109   8.695  67.589  1.00  0.00    -0.271 A  
HETATM   12  C   UNL     1     -10.235   9.969  67.010  1.00  0.00    -0.295 A  
ENDROOT
BRANCH  10  13
HETATM   13  C   UNL     1      -9.710   7.157  69.551  1.00  0.00    -0.157 A  
HETATM   14  C   UNL     1      -8.424   6.659  69.831  1.00  0.00    -0.139 A  
HETATM   15  C   UNL     1      -8.227   5.375  70.357  1.00  0.00    -0.105 A  
HETATM   16  C   UNL     1      -9.317   4.556  70.632  1.00  0.00    -0.223 A  
HETATM   17  C   UNL     1     -10.601   5.017  70.373  1.00  0.00    -0.142 A  
HETATM   18  C   UNL     1     -10.791   6.296  69.832  1.00  0.00    -0.399 A  
ENDBRANCH  10  13
TORSDOF 1
ENDMDL
MODEL       81
REMARK 921   NORMALIZED FREE ENERGY PREDICTED BY IDOCK:   -4.24 KCAL/MOL
REMARK 922        TOTAL FREE ENERGY PREDICTED BY IDOCK:   -4.88 KCAL/MOL
REMARK 923 INTER-LIGAND FREE ENERGY PREDICTED BY IDOCK:   -4.48 KCAL/MOL
REMARK 924 INTRA-LIGAND FREE ENERGY PREDICTED BY IDOCK:   -0.40 KCAL/MOL
REMARK 927      BINDING AFFINITY PREDICTED BY RF-SCORE:    0.00 PKD
ROOT
HETATM    1  C   UNL     1      -6.947  18.898  65.714  1.00  0.00    -0.296 C  
HETATM    2  C   UNL     1      -7.344  18.564  67.155  1.00  0.00    -0.219 C  
HETATM    3  C   UNL     1      -7.928  17.160  67.209  1.00  0.00    -0.200 A  
HETATM    4  C   UNL     1      -8.250  19.656  67.725  1.00  0.00    -0.302 C  
HETATM    5  C   UNL     1      -7.079  16.056  67.371  1.00  0.00    -0.222 A  
HETATM    6  O   UNL     1      -8.653  19.421  68.997  1.00  0.00    -0.348 OA 
HETATM    7  O   UNL     1      -8.571  20.678  67.134  1.00  0.00    -0.312 OA 
HETATM    8  C   UNL     1      -7.576  14.748  67.294  1.00  0.00    -0.165 A  
HETATM    9  F   UNL     1      -6.681  13.754  67.403  1.00  0.00    -0.175 F  
HETATM   10  C   UNL     1      -8.936  14.472  67.072  1.00  0.00    -0.258 A  
HETATM   11  C   UNL     1      -9.780  15.595  66.958  1.00  0.00    -0.234 A  
HETATM   12  C   UNL     1      -9.288  16.910  67.007  1.00  0.00    -0.245 A  
ENDROOT
BRANCH  10  13
HETATM   13  C   UNL     1      -9.471  13.089  66.925  1.00  0.00    -0.242 A  
HETATM   14  C   UNL     1      -9.936  12.589  65.695  1.00  0.00    -0.259 A  
HETATM   15  C   UNL     1     -10.452  11.292  65.573  1.00  0.00    -0.323 A  
HETATM   16  C   UNL     1     -10.504  10.451  66.679  1.00  0.00    -0.279 A  
HETATM   17  C   UNL     1     -10.049  10.910  67.908  1.00  0.00    -0.199 A  
HETATM   18  C   UNL     1      -9.548  12.214  68.028  1.00  0.00    -0.204 A  
ENDBRANCH  10  13
TORSDOF 1
ENDMDL
MODEL       82
REMARK 921   NORMALIZED FREE ENERGY PREDICTED BY IDOCK:   -4.23 KCAL/MOL
REMARK 922        TOTAL FREE ENERGY PREDICTED BY IDOCK:   -4.87 KCAL/MOL
REMARK 923 INTER-LIGAND FREE ENERGY PREDICTED BY IDOCK:   -4.46 KCAL/MOL
REMARK 924 INTRA-LIGAND FREE ENERGY PREDICTED BY IDOCK:   -0.41 KCAL/MOL
REMARK 927      BINDING AFFINITY PREDICTED BY RF-SCORE:    0.00 PKD
ROOT
HETATM    1  C   UNL     1     -10.769  10.514  69.860  1.00  0.00    -0.301 C  
HETATM    2  C   UNL     1     -10.950   9.621  71.090  1.00  0.00    -0.430 C  
HETATM    3  C   UNL     1     -10.632   8.178  70.723  1.00  0.00    -0.234 A  
HETATM    4  C   UNL     1     -12.335   9.834  71.704  1.00  0.00    -0.408 C  
HETATM    5  C   UNL     1      -9.312   7.714  70.796  1.00  0.00    -0.162 A  
HETATM    6  O   UNL     1     -12.572   9.064  72.794  1.00  0.00    -0.275 OA 
HETATM    7  O   UNL     1     -13.161  10.641  71.303  1.00  0.00    -0.351 OA 
HETATM    8  C   UNL     1      -8.973   6.433  70.340  1.00  0.00    -0.155 A  
HETATM    9  F   UNL     1      -7.676   6.094  70.395  1.00  0.00    -0.087 F  
HETATM   10  C   UNL     1      -9.926   5.546  69.810  1.00  0.00    -0.279 A  
HETATM   11  C   UNL     1     -11.255   6.015  69.788  1.00  0.00    -0.440 A  
HETATM   12  C   UNL     1     -11.601   7.307  70.217  1.00  0.00    -0.208 A  
ENDROOT
BRANCH  10  13
HETATM   13  C   UNL     1      -9.574   4.206  69.264  1.00  0.00    -0.256 A  
HETATM   14  C   UNL     1      -9.228   4.010  67.914  1.00  0.00    -0.200 A  
HETATM   15  C   UNL     1      -8.914   2.741  67.409  1.00  0.00    -0.187 A  
HETATM   16  C   UNL     1      -8.925   1.631  68.246  1.00  0.00    -0.167 A  
HETATM   17  C   UNL     1      -9.257   1.788  69.585  1.00  0.00    -0.166 A  
HETATM   18  C   UNL     1      -9.584   3.057  70.082  1.00  0.00    -0.154 A  
ENDBRANCH  10  13
TORSDOF 1
ENDMDL
MODEL       83
REMARK 921   NORMALIZED FREE ENERGY PREDICTED BY IDOCK:   -4.22 KCAL/MOL
REMARK 922        TOTAL FREE ENERGY PREDICTED BY IDOCK:   -4.86 KCAL/MOL
REMARK 923 INTER-LIGAND FREE ENERGY PREDICTED BY IDOCK:   -4.57 KCAL/MOL
REMARK 924 INTRA-LIGAND FREE ENERGY PREDICTED BY IDOCK:   -0.28 KCAL/MOL
REMARK 927      BINDING AFFINITY PREDICTED BY RF-SCORE:    0.00 PKD
ROOT
HETATM    1  C   UNL     1     -10.901  12.676  63.456  1.00  0.00    -0.373 C  
HETATM    2  C   UNL     1     -11.616  13.719  64.320  1.00  0.00    -0.395 C  
HETATM    3  C   UNL     1     -10.694  14.167  65.445  1.00  0.00    -0.350 A  
HETATM    4  C   UNL     1     -12.976  13.190  64.779  1.00  0.00    -0.104 C  
HETATM    5  C   UNL     1      -9.790  15.216  65.232  1.00  0.00    -0.249 A  
HETATM    6  O   UNL     1     -13.662  14.058  65.562  1.00  0.00    -0.415 OA 
HETATM    7  O   UNL     1     -13.449  12.108  64.460  1.00  0.00    -0.614 OA 
HETATM    8  C   UNL     1      -8.842  15.560  66.205  1.00  0.00    -0.303 A  
HETATM    9  F   UNL     1      -7.980  16.539  65.892  1.00  0.00    -0.334 F  
HETATM   10  C   UNL     1      -8.758  14.895  67.440  1.00  0.00    -0.208 A  
HETATM   11  C   UNL     1      -9.705  13.873  67.653  1.00  0.00    -0.226 A  
HETATM   12  C   UNL     1     -10.641  13.503  66.674  1.00  0.00    -0.280 A  
ENDROOT
BRANCH  10  13
HETATM   13  C   UNL     1      -7.717  15.204  68.461  1.00  0.00    -0.122 A  
HETATM   14  C   UNL     1      -6.921  14.206  69.051  1.00  0.00    -0.112 A  
HETATM   15  C   UNL     1      -5.956  14.509  70.022  1.00  0.00    -0.141 A  
HETATM   16  C   UNL     1      -5.753  15.825  70.420  1.00  0.00    -0.114 A  
HETATM   17  C   UNL     1      -6.517  16.837  69.855  1.00  0.00    -0.009 A  
HETATM   18  C   UNL     1      -7.491  16.527  68.896  1.00  0.00    -0.225 A  
ENDBRANCH  10  13
TORSDOF 1
ENDMDL
MODEL       84
REMARK 921   NORMALIZED FREE ENERGY PREDICTED BY IDOCK:   -4.21 KCAL/MOL
REMARK 922        TOTAL FREE ENERGY PREDICTED BY IDOCK:   -4.85 KCAL/MOL
REMARK 923 INTER-LIGAND FREE ENERGY PREDICTED BY IDOCK:   -4.71 KCAL/MOL
REMARK 924 INTRA-LIGAND FREE ENERGY PREDICTED BY IDOCK:   -0.14 KCAL/MOL
REMARK 927      BINDING AFFINITY PREDICTED BY RF-SCORE:    0.00 PKD
ROOT
HETATM    1  C   UNL     1     -10.777   5.547  66.580  1.00  0.00    -0.332 C  
HETATM    2  C   UNL     1      -9.528   6.236  67.135  1.00  0.00    -0.136 C  
HETATM    3  C   UNL     1      -9.792   7.728  67.281  1.00  0.00    -0.249 A  
HETATM    4  C   UNL     1      -8.304   5.883  66.288  1.00  0.00    -0.117 C  
HETATM    5  C   UNL     1     -10.375   8.222  68.456  1.00  0.00    -0.230 A  
HETATM    6  O   UNL     1      -7.159   6.471  66.714  1.00  0.00    -0.066 OA 
HETATM    7  O   UNL     1      -8.310   5.118  65.334  1.00  0.00    -0.121 OA 
HETATM    8  C   UNL     1     -10.748   9.569  68.563  1.00  0.00    -0.182 A  
HETATM    9  F   UNL     1     -11.351   9.941  69.703  1.00  0.00    -0.244 F  
HETATM   10  C   UNL     1     -10.545  10.491  67.523  1.00  0.00    -0.306 A  
HETATM   11  C   UNL     1      -9.916   9.984  66.367  1.00  0.00    -0.300 A  
HETATM   12  C   UNL     1      -9.563   8.631  66.239  1.00  0.00    -0.322 A  
ENDROOT
BRANCH  10  13
HETATM   13  C   UNL     1     -10.992  11.910  67.595  1.00  0.00    -0.286 A  
HETATM   14  C   UNL     1     -11.461  12.611  66.469  1.00  0.00    -0.409 A  
HETATM   15  C   UNL     1     -11.863  13.951  66.547  1.00  0.00    -0.440 A  
HETATM   16  C   UNL     1     -11.820  14.626  67.762  1.00  0.00    -0.359 A  
HETATM   17  C   UNL     1     -11.367  13.964  68.896  1.00  0.00    -0.319 A  
HETATM   18  C   UNL     1     -10.951  12.628  68.809  1.00  0.00    -0.289 A  
ENDBRANCH  10  13
TORSDOF 1
ENDMDL
MODEL       85
REMARK 921   NORMALIZED FREE ENERGY PREDICTED BY IDOCK:   -4.21 KCAL/MOL
REMARK 922        TOTAL FREE ENERGY PREDICTED BY IDOCK:   -4.84 KCAL/MOL
REMARK 923 INTER-LIGAND FREE ENERGY PREDICTED BY IDOCK:   -4.43 KCAL/MOL
REMARK 924 INTRA-LIGAND FREE ENERGY PREDICTED BY IDOCK:   -0.41 KCAL/MOL
REMARK 927      BINDING AFFINITY PREDICTED BY RF-SCORE:    0.00 PKD
ROOT
HETATM    1  C   UNL     1     -11.795  14.670  67.341  1.00  0.00    -0.374 C  
HETATM    2  C   UNL     1     -11.105  14.294  68.655  1.00  0.00    -0.273 C  
HETATM    3  C   UNL     1     -10.888  12.788  68.703  1.00  0.00    -0.284 A  
HETATM    4  C   UNL     1     -11.877  14.867  69.845  1.00  0.00    -0.311 C  
HETATM    5  C   UNL     1      -9.733  12.231  68.139  1.00  0.00    -0.213 A  
HETATM    6  O   UNL     1     -11.331  14.562  71.047  1.00  0.00    -0.171 OA 
HETATM    7  O   UNL     1     -12.874  15.571  69.759  1.00  0.00    -0.102 OA 
HETATM    8  C   UNL     1      -9.571  10.842  68.054  1.00  0.00    -0.163 A  
HETATM    9  F   UNL     1      -8.459  10.398  67.447  1.00  0.00    -0.120 F  
HETATM   10  C   UNL     1     -10.534   9.941  68.539  1.00  0.00    -0.232 A  
HETATM   11  C   UNL     1     -11.667  10.521  69.143  1.00  0.00    -0.261 A  
HETATM   12  C   UNL     1     -11.852  11.912  69.210  1.00  0.00    -0.379 A  
ENDROOT
BRANCH  10  13
HETATM   13  C   UNL     1     -10.408   8.463  68.400  1.00  0.00    -0.239 A  
HETATM   14  C   UNL     1     -10.760   7.785  67.219  1.00  0.00    -0.326 A  
HETATM   15  C   UNL     1     -10.651   6.392  67.107  1.00  0.00    -0.389 A  
HETATM   16  C   UNL     1     -10.173   5.638  68.173  1.00  0.00    -0.236 A  
HETATM   17  C   UNL     1      -9.812   6.275  69.353  1.00  0.00    -0.180 A  
HETATM   18  C   UNL     1      -9.936   7.667  69.465  1.00  0.00    -0.182 A  
ENDBRANCH  10  13
TORSDOF 1
ENDMDL
MODEL       86
REMARK 921   NORMALIZED FREE ENERGY PREDICTED BY IDOCK:   -4.14 KCAL/MOL
REMARK 922        TOTAL FREE ENERGY PREDICTED BY IDOCK:   -4.77 KCAL/MOL
REMARK 923 INTER-LIGAND FREE ENERGY PREDICTED BY IDOCK:   -4.36 KCAL/MOL
REMARK 924 INTRA-LIGAND FREE ENERGY PREDICTED BY IDOCK:   -0.41 KCAL/MOL
REMARK 927      BINDING AFFINITY PREDICTED BY RF-SCORE:    0.00 PKD
ROOT
HETATM    1  C   UNL     1     -10.123  10.938  65.813  1.00  0.00    -0.308 C  
HETATM    2  C   UNL     1      -9.311  11.525  66.971  1.00  0.00    -0.185 C  
HETATM    3  C   UNL     1      -9.483  10.653  68.206  1.00  0.00    -0.161 A  
HETATM    4  C   UNL     1      -9.664  13.000  67.175  1.00  0.00    -0.230 C  
HETATM    5  C   UNL     1      -8.642   9.549  68.405  1.00  0.00    -0.120 A  
HETATM    6  O   UNL     1      -8.992  13.584  68.196  1.00  0.00    -0.178 OA 
HETATM    7  O   UNL     1     -10.444  13.635  66.480  1.00  0.00    -0.275 OA 
HETATM    8  C   UNL     1      -8.862   8.657  69.462  1.00  0.00    -0.144 A  
HETATM    9  F   UNL     1      -8.042   7.598  69.541  1.00  0.00    -0.116 F  
HETATM   10  C   UNL     1      -9.911   8.824  70.382  1.00  0.00    -0.219 A  
HETATM   11  C   UNL     1     -10.718   9.964  70.192  1.00  0.00    -0.361 A  
HETATM   12  C   UNL     1     -10.523  10.851  69.120  1.00  0.00    -0.248 A  
ENDROOT
BRANCH  10  13
HETATM   13  C   UNL     1     -10.198   7.852  71.473  1.00  0.00    -0.232 A  
HETATM   14  C   UNL     1     -11.095   6.780  71.311  1.00  0.00    -0.303 A  
HETATM   15  C   UNL     1     -11.369   5.882  72.351  1.00  0.00    -0.358 A  
HETATM   16  C   UNL     1     -10.740   6.023  73.583  1.00  0.00    -0.240 A  
HETATM   17  C   UNL     1      -9.845   7.067  73.777  1.00  0.00    -0.341 A  
HETATM   18  C   UNL     1      -9.586   7.972  72.739  1.00  0.00    -0.345 A  
ENDBRANCH  10  13
TORSDOF 1
ENDMDL
MODEL       87
REMARK 921   NORMALIZED FREE ENERGY PREDICTED BY IDOCK:   -4.11 KCAL/MOL
REMARK 922        TOTAL FREE ENERGY PREDICTED BY IDOCK:   -4.74 KCAL/MOL
REMARK 923 INTER-LIGAND FREE ENERGY PREDICTED BY IDOCK:   -4.36 KCAL/MOL
REMARK 924 INTRA-LIGAND FREE ENERGY PREDICTED BY IDOCK:   -0.38 KCAL/MOL
REMARK 927      BINDING AFFINITY PREDICTED BY RF-SCORE:    0.00 PKD
ROOT
HETATM    1  C   UNL     1      -8.910   9.576  63.009  1.00  0.00    -0.242 C  
HETATM    2  C   UNL     1      -7.979   9.017  64.089  1.00  0.00    -0.144 C  
HETATM    3  C   UNL     1      -8.615   9.211  65.459  1.00  0.00    -0.192 A  
HETATM    4  C   UNL     1      -6.577   9.612  63.945  1.00  0.00    -0.112 C  
HETATM    5  C   UNL     1      -9.497   8.246  65.963  1.00  0.00    -0.189 A  
HETATM    6  O   UNL     1      -5.700   9.171  64.879  1.00  0.00    -0.060 OA 
HETATM    7  O   UNL     1      -6.232  10.384  63.061  1.00  0.00    -0.140 OA 
HETATM    8  C   UNL     1     -10.195   8.462  67.159  1.00  0.00    -0.292 A  
HETATM    9  F   UNL     1     -11.060   7.507  67.535  1.00  0.00    -0.273 F  
HETATM   10  C   UNL     1     -10.039   9.633  67.919  1.00  0.00    -0.222 A  
HETATM   11  C   UNL     1      -9.114  10.571  67.419  1.00  0.00    -0.147 A  
HETATM   12  C   UNL     1      -8.430  10.377  66.208  1.00  0.00    -0.145 A  
ENDROOT
BRANCH  10  13
HETATM   13  C   UNL     1     -10.819   9.906  69.159  1.00  0.00    -0.248 A  
HETATM   14  C   UNL     1     -10.675   9.133  70.325  1.00  0.00    -0.268 A  
HETATM   15  C   UNL     1     -11.426   9.391  71.480  1.00  0.00    -0.467 A  
HETATM   16  C   UNL     1     -12.335  10.442  71.504  1.00  0.00    -0.468 A  
HETATM   17  C   UNL     1     -12.500  11.230  70.372  1.00  0.00    -0.355 A  
HETATM   18  C   UNL     1     -11.757  10.958  69.215  1.00  0.00    -0.395 A  
ENDBRANCH  10  13
TORSDOF 1
ENDMDL
MODEL       88
REMARK 921   NORMALIZED FREE ENERGY PREDICTED BY IDOCK:   -4.10 KCAL/MOL
REMARK 922        TOTAL FREE ENERGY PREDICTED BY IDOCK:   -4.73 KCAL/MOL
REMARK 923 INTER-LIGAND FREE ENERGY PREDICTED BY IDOCK:   -4.49 KCAL/MOL
REMARK 924 INTRA-LIGAND FREE ENERGY PREDICTED BY IDOCK:   -0.24 KCAL/MOL
REMARK 927      BINDING AFFINITY PREDICTED BY RF-SCORE:    0.00 PKD
ROOT
HETATM    1  C   UNL     1     -11.757  15.992  68.493  1.00  0.00    -0.244 C  
HETATM    2  C   UNL     1     -11.325  15.069  69.636  1.00  0.00    -0.309 C  
HETATM    3  C   UNL     1     -10.946  13.707  69.074  1.00  0.00    -0.271 A  
HETATM    4  C   UNL     1     -12.395  15.036  70.728  1.00  0.00    -0.343 C  
HETATM    5  C   UNL     1      -9.639  13.475  68.624  1.00  0.00    -0.077 A  
HETATM    6  O   UNL     1     -12.086  14.226  71.769  1.00  0.00    -0.292 OA 
HETATM    7  O   UNL     1     -13.427  15.692  70.716  1.00  0.00    -0.536 OA 
HETATM    8  C   UNL     1      -9.299  12.276  67.984  1.00  0.00    -0.195 A  
HETATM    9  F   UNL     1      -8.038  12.165  67.536  1.00  0.00    -0.128 F  
HETATM   10  C   UNL     1     -10.229  11.244  67.776  1.00  0.00    -0.203 A  
HETATM   11  C   UNL     1     -11.527  11.478  68.276  1.00  0.00    -0.368 A  
HETATM   12  C   UNL     1     -11.885  12.686  68.895  1.00  0.00    -0.345 A  
ENDROOT
BRANCH  10  13
HETATM   13  C   UNL     1      -9.902   9.990  67.042  1.00  0.00    -0.238 A  
HETATM   14  C   UNL     1     -10.267   8.719  67.524  1.00  0.00    -0.309 A  
HETATM   15  C   UNL     1      -9.939   7.545  66.832  1.00  0.00    -0.318 A  
HETATM   16  C   UNL     1      -9.246   7.612  65.628  1.00  0.00     0.114 A  
HETATM   17  C   UNL     1      -8.875   8.849  65.121  1.00  0.00    -0.209 A  
HETATM   18  C   UNL     1      -9.192  10.019  65.824  1.00  0.00    -0.222 A  
ENDBRANCH  10  13
TORSDOF 1
ENDMDL
MODEL       89
REMARK 921   NORMALIZED FREE ENERGY PREDICTED BY IDOCK:   -4.10 KCAL/MOL
REMARK 922        TOTAL FREE ENERGY PREDICTED BY IDOCK:   -4.73 KCAL/MOL
REMARK 923 INTER-LIGAND FREE ENERGY PREDICTED BY IDOCK:   -4.33 KCAL/MOL
REMARK 924 INTRA-LIGAND FREE ENERGY PREDICTED BY IDOCK:   -0.39 KCAL/MOL
REMARK 927      BINDING AFFINITY PREDICTED BY RF-SCORE:    0.00 PKD
ROOT
HETATM    1  C   UNL     1      -8.614   4.499  71.252  1.00  0.00    -0.128 C  
HETATM    2  C   UNL     1     -10.081   4.843  71.524  1.00  0.00    -0.266 C  
HETATM    3  C   UNL     1     -10.350   6.284  71.116  1.00  0.00    -0.255 A  
HETATM    4  C   UNL     1     -10.447   4.509  72.972  1.00  0.00    -0.194 C  
HETATM    5  C   UNL     1     -10.706   6.581  69.793  1.00  0.00    -0.322 A  
HETATM    6  O   UNL     1     -11.732   4.801  73.289  1.00  0.00    -0.312 OA 
HETATM    7  O   UNL     1      -9.692   3.993  73.783  1.00  0.00    -0.108 OA 
HETATM    8  C   UNL     1     -10.831   7.908  69.361  1.00  0.00    -0.106 A  
HETATM    9  F   UNL     1     -11.119   8.097  68.064  1.00  0.00    -0.116 F  
HETATM   10  C   UNL     1     -10.628   9.001  70.220  1.00  0.00    -0.250 A  
HETATM   11  C   UNL     1     -10.316   8.681  71.557  1.00  0.00    -0.341 A  
HETATM   12  C   UNL     1     -10.162   7.356  71.994  1.00  0.00    -0.221 A  
ENDROOT
BRANCH  10  13
HETATM   13  C   UNL     1     -10.695  10.417  69.763  1.00  0.00    -0.325 A  
HETATM   14  C   UNL     1      -9.741  10.973  68.891  1.00  0.00    -0.184 A  
HETATM   15  C   UNL     1      -9.806  12.312  68.482  1.00  0.00    -0.157 A  
HETATM   16  C   UNL     1     -10.839  13.131  68.924  1.00  0.00    -0.240 A  
HETATM   17  C   UNL     1     -11.802  12.614  69.781  1.00  0.00    -0.379 A  
HETATM   18  C   UNL     1     -11.723  11.279  70.200  1.00  0.00    -0.429 A  
ENDBRANCH  10  13
TORSDOF 1
ENDMDL
MODEL       90
REMARK 921   NORMALIZED FREE ENERGY PREDICTED BY IDOCK:   -4.05 KCAL/MOL
REMARK 922        TOTAL FREE ENERGY PREDICTED BY IDOCK:   -4.68 KCAL/MOL
REMARK 923 INTER-LIGAND FREE ENERGY PREDICTED BY IDOCK:   -4.35 KCAL/MOL
REMARK 924 INTRA-LIGAND FREE ENERGY PREDICTED BY IDOCK:   -0.33 KCAL/MOL
REMARK 927      BINDING AFFINITY PREDICTED BY RF-SCORE:    0.00 PKD
ROOT
HETATM    1  C   UNL     1      -8.638   5.246  65.962  1.00  0.00    -0.124 C  
HETATM    2  C   UNL     1      -7.966   6.606  66.173  1.00  0.00    -0.110 C  
HETATM    3  C   UNL     1      -8.778   7.426  67.166  1.00  0.00    -0.121 A  
HETATM    4  C   UNL     1      -7.718   7.292  64.829  1.00  0.00    -0.115 C  
HETATM    5  C   UNL     1      -8.542   7.291  68.541  1.00  0.00    -0.124 A  
HETATM    6  O   UNL     1      -7.135   8.511  64.939  1.00  0.00    -0.077 OA 
HETATM    7  O   UNL     1      -7.971   6.804  63.736  1.00  0.00    -0.117 OA 
HETATM    8  C   UNL     1      -9.361   7.934  69.478  1.00  0.00    -0.156 A  
HETATM    9  F   UNL     1      -9.097   7.702  70.773  1.00  0.00    -0.147 F  
HETATM   10  C   UNL     1     -10.437   8.755  69.100  1.00  0.00    -0.230 A  
HETATM   11  C   UNL     1     -10.629   8.914  67.713  1.00  0.00    -0.266 A  
HETATM   12  C   UNL     1      -9.831   8.253  66.764  1.00  0.00    -0.333 A  
ENDROOT
BRANCH  10  13
HETATM   13  C   UNL     1     -11.356   9.395  70.082  1.00  0.00    -0.220 A  
HETATM   14  C   UNL     1     -12.071   8.653  71.040  1.00  0.00    -0.247 A  
HETATM   15  C   UNL     1     -12.945   9.266  71.948  1.00  0.00    -0.489 A  
HETATM   16  C   UNL     1     -13.117  10.646  71.932  1.00  0.00    -0.563 A  
HETATM   17  C   UNL     1     -12.423  11.410  71.004  1.00  0.00    -0.486 A  
HETATM   18  C   UNL     1     -11.563  10.791  70.088  1.00  0.00    -0.424 A  
ENDBRANCH  10  13
TORSDOF 1
ENDMDL
MODEL       91
REMARK 921   NORMALIZED FREE ENERGY PREDICTED BY IDOCK:   -4.00 KCAL/MOL
REMARK 922        TOTAL FREE ENERGY PREDICTED BY IDOCK:   -4.62 KCAL/MOL
REMARK 923 INTER-LIGAND FREE ENERGY PREDICTED BY IDOCK:   -4.21 KCAL/MOL
REMARK 924 INTRA-LIGAND FREE ENERGY PREDICTED BY IDOCK:   -0.41 KCAL/MOL
REMARK 927      BINDING AFFINITY PREDICTED BY RF-SCORE:    0.00 PKD
ROOT
HETATM    1  C   UNL     1     -13.471  13.367  70.587  1.00  0.00     0.475 C  
HETATM    2  C   UNL     1     -11.995  13.057  70.325  1.00  0.00    -0.360 C  
HETATM    3  C   UNL     1     -11.363  14.208  69.556  1.00  0.00    -0.308 A  
HETATM    4  C   UNL     1     -11.847  11.687  69.662  1.00  0.00    -0.352 C  
HETATM    5  C   UNL     1     -10.831  15.304  70.250  1.00  0.00    -0.303 A  
HETATM    6  O   UNL     1     -10.563  11.350  69.387  1.00  0.00    -0.168 OA 
HETATM    7  O   UNL     1     -12.771  10.922  69.422  1.00  0.00    -0.284 OA 
HETATM    8  C   UNL     1     -10.363  16.432  69.564  1.00  0.00    -0.278 A  
HETATM    9  F   UNL     1      -9.924  17.456  70.312  1.00  0.00     0.488 F  
HETATM   10  C   UNL     1     -10.381  16.522  68.162  1.00  0.00    -0.296 A  
HETATM   11  C   UNL     1     -10.877  15.392  67.481  1.00  0.00    -0.305 A  
HETATM   12  C   UNL     1     -11.374  14.267  68.159  1.00  0.00    -0.313 A  
ENDROOT
BRANCH  10  13
HETATM   13  C   UNL     1      -9.946  17.738  67.419  1.00  0.00    -0.323 A  
HETATM   14  C   UNL     1     -10.773  18.867  67.272  1.00  0.00    -0.523 A  
HETATM   15  C   UNL     1     -10.357  19.999  66.557  1.00  0.00    -0.572 A  
HETATM   16  C   UNL     1      -9.094  20.037  65.978  1.00  0.00    -0.295 A  
HETATM   17  C   UNL     1      -8.250  18.942  66.107  1.00  0.00    -0.222 A  
HETATM   18  C   UNL     1      -8.675  17.807  66.810  1.00  0.00    -0.273 A  
ENDBRANCH  10  13
TORSDOF 1
ENDMDL
MODEL       92
REMARK 921   NORMALIZED FREE ENERGY PREDICTED BY IDOCK:   -3.98 KCAL/MOL
REMARK 922        TOTAL FREE ENERGY PREDICTED BY IDOCK:   -4.60 KCAL/MOL
REMARK 923 INTER-LIGAND FREE ENERGY PREDICTED BY IDOCK:   -4.27 KCAL/MOL
REMARK 924 INTRA-LIGAND FREE ENERGY PREDICTED BY IDOCK:   -0.33 KCAL/MOL
REMARK 927      BINDING AFFINITY PREDICTED BY RF-SCORE:    0.00 PKD
ROOT
HETATM    1  C   UNL     1      -9.725   4.100  70.285  1.00  0.00    -0.277 C  
HETATM    2  C   UNL     1      -8.700   5.151  69.852  1.00  0.00    -0.119 C  
HETATM    3  C   UNL     1      -9.313   6.539  69.971  1.00  0.00    -0.160 A  
HETATM    4  C   UNL     1      -8.143   4.815  68.468  1.00  0.00    -0.084 C  
HETATM    5  C   UNL     1      -9.249   7.229  71.189  1.00  0.00    -0.156 A  
HETATM    6  O   UNL     1      -7.236   5.712  68.013  1.00  0.00    -0.069 OA 
HETATM    7  O   UNL     1      -8.435   3.819  67.819  1.00  0.00    -0.092 OA 
HETATM    8  C   UNL     1      -9.917   8.449  71.362  1.00  0.00    -0.213 A  
HETATM    9  F   UNL     1      -9.847   9.010  72.580  1.00  0.00    -0.320 F  
HETATM   10  C   UNL     1     -10.663   9.050  70.335  1.00  0.00    -0.267 A  
HETATM   11  C   UNL     1     -10.678   8.363  69.104  1.00  0.00    -0.123 A  
HETATM   12  C   UNL     1     -10.034   7.128  68.927  1.00  0.00    -0.163 A  
ENDROOT
BRANCH  10  13
HETATM   13  C   UNL     1     -11.431  10.314  70.520  1.00  0.00    -0.427 A  
HETATM   14  C   UNL     1     -11.209  11.453  69.725  1.00  0.00    -0.266 A  
HETATM   15  C   UNL     1     -11.927  12.641  69.920  1.00  0.00    -0.365 A  
HETATM   16  C   UNL     1     -12.900  12.717  70.910  1.00  0.00    -0.178 A  
HETATM   17  C   UNL     1     -13.149  11.610  71.710  1.00  0.00    -0.487 A  
HETATM   18  C   UNL     1     -12.418  10.429  71.521  1.00  0.00    -0.508 A  
ENDBRANCH  10  13
TORSDOF 1
ENDMDL
MODEL       93
REMARK 921   NORMALIZED FREE ENERGY PREDICTED BY IDOCK:   -3.97 KCAL/MOL
REMARK 922        TOTAL FREE ENERGY PREDICTED BY IDOCK:   -4.60 KCAL/MOL
REMARK 923 INTER-LIGAND FREE ENERGY PREDICTED BY IDOCK:   -4.21 KCAL/MOL
REMARK 924 INTRA-LIGAND FREE ENERGY PREDICTED BY IDOCK:   -0.39 KCAL/MOL
REMARK 927      BINDING AFFINITY PREDICTED BY RF-SCORE:    0.00 PKD
ROOT
HETATM    1  C   UNL     1      -8.586   2.620  66.682  1.00  0.00    -0.114 C  
HETATM    2  C   UNL     1      -8.333   4.057  66.218  1.00  0.00    -0.105 C  
HETATM    3  C   UNL     1      -9.038   5.026  67.157  1.00  0.00    -0.115 A  
HETATM    4  C   UNL     1      -8.702   4.214  64.742  1.00  0.00    -0.127 C  
HETATM    5  C   UNL     1      -8.391   5.471  68.317  1.00  0.00    -0.098 A  
HETATM    6  O   UNL     1      -8.515   5.468  64.264  1.00  0.00    -0.135 OA 
HETATM    7  O   UNL     1      -9.093   3.308  64.019  1.00  0.00    -0.099 OA 
HETATM    8  C   UNL     1      -9.065   6.257  69.261  1.00  0.00    -0.134 A  
HETATM    9  F   UNL     1      -8.383   6.589  70.369  1.00  0.00    -0.118 F  
HETATM   10  C   UNL     1     -10.401   6.655  69.093  1.00  0.00    -0.220 A  
HETATM   11  C   UNL     1     -11.020   6.236  67.898  1.00  0.00    -0.421 A  
HETATM   12  C   UNL     1     -10.363   5.426  66.957  1.00  0.00    -0.299 A  
ENDROOT
BRANCH  10  13
HETATM   13  C   UNL     1     -11.152   7.438  70.114  1.00  0.00    -0.265 A  
HETATM   14  C   UNL     1     -10.837   8.774  70.420  1.00  0.00    -0.256 A  
HETATM   15  C   UNL     1     -11.541   9.495  71.395  1.00  0.00    -0.466 A  
HETATM   16  C   UNL     1     -12.591   8.899  72.084  1.00  0.00    -0.467 A  
HETATM   17  C   UNL     1     -12.933   7.583  71.804  1.00  0.00    -0.364 A  
HETATM   18  C   UNL     1     -12.216   6.862  70.839  1.00  0.00    -0.404 A  
ENDBRANCH  10  13
TORSDOF 1
ENDMDL
MODEL       94
REMARK 921   NORMALIZED FREE ENERGY PREDICTED BY IDOCK:   -3.97 KCAL/MOL
REMARK 922        TOTAL FREE ENERGY PREDICTED BY IDOCK:   -4.59 KCAL/MOL
REMARK 923 INTER-LIGAND FREE ENERGY PREDICTED BY IDOCK:   -4.19 KCAL/MOL
REMARK 924 INTRA-LIGAND FREE ENERGY PREDICTED BY IDOCK:   -0.40 KCAL/MOL
REMARK 927      BINDING AFFINITY PREDICTED BY RF-SCORE:    0.00 PKD
ROOT
HETATM    1  C   UNL     1     -10.751  15.602  70.123  1.00  0.00    -0.355 C  
HETATM    2  C   UNL     1      -9.993  14.755  69.097  1.00  0.00    -0.184 C  
HETATM    3  C   UNL     1      -9.183  15.666  68.184  1.00  0.00    -0.185 A  
HETATM    4  C   UNL     1     -10.953  13.812  68.371  1.00  0.00    -0.254 C  
HETATM    5  C   UNL     1      -7.891  16.059  68.558  1.00  0.00    -0.160 A  
HETATM    6  O   UNL     1     -10.352  13.038  67.435  1.00  0.00    -0.232 OA 
HETATM    7  O   UNL     1     -12.148  13.709  68.611  1.00  0.00    -0.360 OA 
HETATM    8  C   UNL     1      -7.177  16.998  67.801  1.00  0.00    -0.152 A  
HETATM    9  F   UNL     1      -5.970  17.357  68.265  1.00  0.00    -0.145 F  
HETATM   10  C   UNL     1      -7.700  17.577  66.633  1.00  0.00    -0.289 A  
HETATM   11  C   UNL     1      -8.982  17.135  66.250  1.00  0.00    -0.262 A  
HETATM   12  C   UNL     1      -9.718  16.214  67.015  1.00  0.00    -0.236 A  
ENDROOT
BRANCH  10  13
HETATM   13  C   UNL     1      -6.981  18.623  65.852  1.00  0.00    -0.305 A  
HETATM   14  C   UNL     1      -7.401  19.965  65.828  1.00  0.00    -0.337 A  
HETATM   15  C   UNL     1      -6.725  20.936  65.076  1.00  0.00    -0.084 A  
HETATM   16  C   UNL     1      -5.600  20.592  64.336  1.00  0.00    -0.258 A  
HETATM   17  C   UNL     1      -5.155  19.277  64.340  1.00  0.00    -0.215 A  
HETATM   18  C   UNL     1      -5.843  18.306  65.081  1.00  0.00    -0.179 A  
ENDBRANCH  10  13
TORSDOF 1
ENDMDL
MODEL       95
REMARK 921   NORMALIZED FREE ENERGY PREDICTED BY IDOCK:   -3.97 KCAL/MOL
REMARK 922        TOTAL FREE ENERGY PREDICTED BY IDOCK:   -4.59 KCAL/MOL
REMARK 923 INTER-LIGAND FREE ENERGY PREDICTED BY IDOCK:   -4.27 KCAL/MOL
REMARK 924 INTRA-LIGAND FREE ENERGY PREDICTED BY IDOCK:   -0.32 KCAL/MOL
REMARK 927      BINDING AFFINITY PREDICTED BY RF-SCORE:    0.00 PKD
ROOT
HETATM    1  C   UNL     1      -7.465   4.146  66.168  1.00  0.00    -0.084 C  
HETATM    2  C   UNL     1      -8.558   4.667  65.232  1.00  0.00    -0.133 C  
HETATM    3  C   UNL     1      -9.191   5.914  65.834  1.00  0.00    -0.108 A  
HETATM    4  C   UNL     1      -9.546   3.550  64.891  1.00  0.00    -0.166 C  
HETATM    5  C   UNL     1      -8.624   7.172  65.591  1.00  0.00    -0.119 A  
HETATM    6  O   UNL     1     -10.552   3.943  64.074  1.00  0.00    -0.255 OA 
HETATM    7  O   UNL     1      -9.448   2.391  65.269  1.00  0.00    -0.093 OA 
HETATM    8  C   UNL     1      -9.108   8.318  66.237  1.00  0.00    -0.188 A  
HETATM    9  F   UNL     1      -8.468   9.470  65.986  1.00  0.00    -0.117 F  
HETATM   10  C   UNL     1     -10.186   8.275  67.138  1.00  0.00    -0.365 A  
HETATM   11  C   UNL     1     -10.771   7.007  67.334  1.00  0.00    -0.383 A  
HETATM   12  C   UNL     1     -10.277   5.849  66.713  1.00  0.00    -0.269 A  
ENDROOT
BRANCH  10  13
HETATM   13  C   UNL     1     -10.672   9.470  67.881  1.00  0.00    -0.285 A  
HETATM   14  C   UNL     1     -11.054  10.658  67.229  1.00  0.00    -0.313 A  
HETATM   15  C   UNL     1     -11.496  11.781  67.941  1.00  0.00    -0.387 A  
HETATM   16  C   UNL     1     -11.580  11.743  69.328  1.00  0.00    -0.378 A  
HETATM   17  C   UNL     1     -11.216  10.586  70.004  1.00  0.00    -0.386 A  
HETATM   18  C   UNL     1     -10.761   9.470  69.289  1.00  0.00    -0.240 A  
ENDBRANCH  10  13
TORSDOF 1
ENDMDL
MODEL       96
REMARK 921   NORMALIZED FREE ENERGY PREDICTED BY IDOCK:   -3.89 KCAL/MOL
REMARK 922        TOTAL FREE ENERGY PREDICTED BY IDOCK:   -4.50 KCAL/MOL
REMARK 923 INTER-LIGAND FREE ENERGY PREDICTED BY IDOCK:   -4.10 KCAL/MOL
REMARK 924 INTRA-LIGAND FREE ENERGY PREDICTED BY IDOCK:   -0.41 KCAL/MOL
REMARK 927      BINDING AFFINITY PREDICTED BY RF-SCORE:    0.00 PKD
ROOT
HETATM    1  C   UNL     1      -7.402   5.539  67.404  1.00  0.00    -0.076 C  
HETATM    2  C   UNL     1      -8.299   5.748  66.181  1.00  0.00    -0.122 C  
HETATM    3  C   UNL     1      -8.994   7.099  66.285  1.00  0.00    -0.181 A  
HETATM    4  C   UNL     1      -9.241   4.557  66.000  1.00  0.00    -0.141 C  
HETATM    5  C   UNL     1      -8.358   8.250  65.800  1.00  0.00    -0.142 A  
HETATM    6  O   UNL     1     -10.077   4.679  64.941  1.00  0.00    -0.078 OA 
HETATM    7  O   UNL     1      -9.244   3.554  66.701  1.00  0.00    -0.155 OA 
HETATM    8  C   UNL     1      -8.917   9.520  66.000  1.00  0.00    -0.163 A  
HETATM    9  F   UNL     1      -8.211  10.569  65.552  1.00  0.00    -0.146 F  
HETATM   10  C   UNL     1     -10.137   9.707  66.672  1.00  0.00    -0.307 A  
HETATM   11  C   UNL     1     -10.782   8.534  67.111  1.00  0.00    -0.209 A  
HETATM   12  C   UNL     1     -10.219   7.259  66.939  1.00  0.00    -0.340 A  
ENDROOT
BRANCH  10  13
HETATM   13  C   UNL     1     -10.714  11.053  66.949  1.00  0.00    -0.325 A  
HETATM   14  C   UNL     1     -10.555  11.699  68.188  1.00  0.00    -0.230 A  
HETATM   15  C   UNL     1     -11.117  12.958  68.441  1.00  0.00    -0.293 A  
HETATM   16  C   UNL     1     -11.844  13.613  67.454  1.00  0.00    -0.429 A  
HETATM   17  C   UNL     1     -12.016  13.006  66.216  1.00  0.00    -0.477 A  
HETATM   18  C   UNL     1     -11.465  11.741  65.973  1.00  0.00    -0.281 A  
ENDBRANCH  10  13
TORSDOF 1
ENDMDL
MODEL       97
REMARK 921   NORMALIZED FREE ENERGY PREDICTED BY IDOCK:   -3.88 KCAL/MOL
REMARK 922        TOTAL FREE ENERGY PREDICTED BY IDOCK:   -4.50 KCAL/MOL
REMARK 923 INTER-LIGAND FREE ENERGY PREDICTED BY IDOCK:   -4.09 KCAL/MOL
REMARK 924 INTRA-LIGAND FREE ENERGY PREDICTED BY IDOCK:   -0.41 KCAL/MOL
REMARK 927      BINDING AFFINITY PREDICTED BY RF-SCORE:    0.00 PKD
ROOT
HETATM    1  C   UNL     1      -7.907   7.222  68.685  1.00  0.00    -0.122 C  
HETATM    2  C   UNL     1      -7.391   7.614  67.298  1.00  0.00    -0.091 C  
HETATM    3  C   UNL     1      -8.195   8.796  66.772  1.00  0.00    -0.108 A  
HETATM    4  C   UNL     1      -7.367   6.396  66.374  1.00  0.00    -0.081 C  
HETATM    5  C   UNL     1      -7.807  10.103  67.096  1.00  0.00    -0.099 A  
HETATM    6  O   UNL     1      -6.933   6.671  65.120  1.00  0.00    -0.049 OA 
HETATM    7  O   UNL     1      -7.667   5.258  66.708  1.00  0.00    -0.094 OA 
HETATM    8  C   UNL     1      -8.601  11.200  66.735  1.00  0.00    -0.157 A  
HETATM    9  F   UNL     1      -8.180  12.410  67.136  1.00  0.00    -0.161 F  
HETATM   10  C   UNL     1      -9.803  11.056  66.022  1.00  0.00    -0.273 A  
HETATM   11  C   UNL     1     -10.152   9.738  65.667  1.00  0.00    -0.282 A  
HETATM   12  C   UNL     1      -9.378   8.629  66.047  1.00  0.00    -0.284 A  
ENDROOT
BRANCH  10  13
HETATM   13  C   UNL     1     -10.691  12.204  65.685  1.00  0.00    -0.312 A  
HETATM   14  C   UNL     1     -10.645  12.850  64.436  1.00  0.00    -0.418 A  
HETATM   15  C   UNL     1     -11.475  13.940  64.137  1.00  0.00    -0.270 A  
HETATM   16  C   UNL     1     -12.386  14.406  65.079  1.00  0.00    -0.401 A  
HETATM   17  C   UNL     1     -12.462  13.789  66.320  1.00  0.00    -0.441 A  
HETATM   18  C   UNL     1     -11.619  12.709  66.620  1.00  0.00    -0.443 A  
ENDBRANCH  10  13
TORSDOF 1
ENDMDL
MODEL       98
REMARK 921   NORMALIZED FREE ENERGY PREDICTED BY IDOCK:   -3.85 KCAL/MOL
REMARK 922        TOTAL FREE ENERGY PREDICTED BY IDOCK:   -4.47 KCAL/MOL
REMARK 923 INTER-LIGAND FREE ENERGY PREDICTED BY IDOCK:   -4.08 KCAL/MOL
REMARK 924 INTRA-LIGAND FREE ENERGY PREDICTED BY IDOCK:   -0.39 KCAL/MOL
REMARK 927      BINDING AFFINITY PREDICTED BY RF-SCORE:    0.00 PKD
ROOT
HETATM    1  C   UNL     1      -7.491   8.713  69.238  1.00  0.00    -0.082 C  
HETATM    2  C   UNL     1      -8.978   8.893  69.557  1.00  0.00    -0.145 C  
HETATM    3  C   UNL     1      -9.545  10.027  68.715  1.00  0.00    -0.168 A  
HETATM    4  C   UNL     1      -9.184   9.049  71.064  1.00  0.00    -0.264 C  
HETATM    5  C   UNL     1     -10.031   9.766  67.427  1.00  0.00    -0.239 A  
HETATM    6  O   UNL     1     -10.480   9.226  71.421  1.00  0.00    -0.319 OA 
HETATM    7  O   UNL     1      -8.295   8.987  71.902  1.00  0.00    -0.365 OA 
HETATM    8  C   UNL     1     -10.437  10.810  66.585  1.00  0.00    -0.246 A  
HETATM    9  F   UNL     1     -10.834  10.471  65.349  1.00  0.00    -0.247 F  
HETATM   10  C   UNL     1     -10.399  12.157  66.984  1.00  0.00    -0.232 A  
HETATM   11  C   UNL     1      -9.950  12.394  68.299  1.00  0.00    -0.224 A  
HETATM   12  C   UNL     1      -9.516  11.358  69.142  1.00  0.00     0.120 A  
ENDROOT
BRANCH  10  13
HETATM   13  C   UNL     1     -10.766  13.283  66.081  1.00  0.00    -0.287 A  
HETATM   14  C   UNL     1      -9.817  14.203  65.600  1.00  0.00    -0.278 A  
HETATM   15  C   UNL     1     -10.178  15.268  64.763  1.00  0.00    -0.041 A  
HETATM   16  C   UNL     1     -11.502  15.434  64.374  1.00  0.00    -0.260 A  
HETATM   17  C   UNL     1     -12.466  14.542  64.826  1.00  0.00    -0.333 A  
HETATM   18  C   UNL     1     -12.101  13.488  65.674  1.00  0.00    -0.467 A  
ENDBRANCH  10  13
TORSDOF 1
ENDMDL
MODEL       99
REMARK 921   NORMALIZED FREE ENERGY PREDICTED BY IDOCK:   -3.83 KCAL/MOL
REMARK 922        TOTAL FREE ENERGY PREDICTED BY IDOCK:   -4.44 KCAL/MOL
REMARK 923 INTER-LIGAND FREE ENERGY PREDICTED BY IDOCK:   -4.04 KCAL/MOL
REMARK 924 INTRA-LIGAND FREE ENERGY PREDICTED BY IDOCK:   -0.41 KCAL/MOL
REMARK 927      BINDING AFFINITY PREDICTED BY RF-SCORE:    0.00 PKD
ROOT
HETATM    1  C   UNL     1      -9.560  10.106  64.339  1.00  0.00    -0.366 C  
HETATM    2  C   UNL     1      -8.607   9.025  64.857  1.00  0.00    -0.206 C  
HETATM    3  C   UNL     1      -8.948   8.699  66.305  1.00  0.00    -0.211 A  
HETATM    4  C   UNL     1      -7.154   9.436  64.619  1.00  0.00    -0.100 C  
HETATM    5  C   UNL     1      -9.922   7.734  66.593  1.00  0.00    -0.299 A  
HETATM    6  O   UNL     1      -6.251   8.530  65.067  1.00  0.00    -0.058 OA 
HETATM    7  O   UNL     1      -6.800  10.459  64.049  1.00  0.00    -0.092 OA 
HETATM    8  C   UNL     1     -10.346   7.509  67.910  1.00  0.00    -0.210 A  
HETATM    9  F   UNL     1     -11.324   6.607  68.085  1.00  0.00    -0.297 F  
HETATM   10  C   UNL     1      -9.814   8.214  69.002  1.00  0.00    -0.176 A  
HETATM   11  C   UNL     1      -8.803   9.147  68.696  1.00  0.00    -0.133 A  
HETATM   12  C   UNL     1      -8.389   9.399  67.378  1.00  0.00    -0.125 A  
ENDROOT
BRANCH  10  13
HETATM   13  C   UNL     1     -10.296   8.033  70.400  1.00  0.00    -0.206 A  
HETATM   14  C   UNL     1      -9.959   6.907  71.173  1.00  0.00    -0.187 A  
HETATM   15  C   UNL     1     -10.432   6.741  72.482  1.00  0.00    -0.235 A  
HETATM   16  C   UNL     1     -11.249   7.706  73.059  1.00  0.00    -0.388 A  
HETATM   17  C   UNL     1     -11.599   8.833  72.327  1.00  0.00    -0.391 A  
HETATM   18  C   UNL     1     -11.135   8.987  71.013  1.00  0.00    -0.356 A  
ENDBRANCH  10  13
TORSDOF 1
ENDMDL
MODEL      100
REMARK 921   NORMALIZED FREE ENERGY PREDICTED BY IDOCK:   -3.78 KCAL/MOL
REMARK 922        TOTAL FREE ENERGY PREDICTED BY IDOCK:   -4.39 KCAL/MOL
REMARK 923 INTER-LIGAND FREE ENERGY PREDICTED BY IDOCK:   -4.05 KCAL/MOL
REMARK 924 INTRA-LIGAND FREE ENERGY PREDICTED BY IDOCK:   -0.34 KCAL/MOL
REMARK 927      BINDING AFFINITY PREDICTED BY RF-SCORE:    0.00 PKD
ROOT
HETATM    1  C   UNL     1      -7.868   8.662  65.356  1.00  0.00    -0.101 C  
HETATM    2  C   UNL     1      -9.324   8.840  65.794  1.00  0.00    -0.259 C  
HETATM    3  C   UNL     1      -9.515  10.237  66.368  1.00  0.00    -0.218 A  
HETATM    4  C   UNL     1      -9.743   7.703  66.727  1.00  0.00    -0.222 C  
HETATM    5  C   UNL     1      -9.822  11.306  65.515  1.00  0.00    -0.274 A  
HETATM    6  O   UNL     1     -11.021   7.802  67.167  1.00  0.00    -0.245 OA 
HETATM    7  O   UNL     1      -9.034   6.756  67.038  1.00  0.00    -0.112 OA 
HETATM    8  C   UNL     1      -9.874  12.621  65.999  1.00  0.00    -0.254 A  
HETATM    9  F   UNL     1     -10.119  13.587  65.100  1.00  0.00    -0.312 F  
HETATM   10  C   UNL     1      -9.644  12.936  67.348  1.00  0.00    -0.203 A  
HETATM   11  C   UNL     1      -9.381  11.842  68.198  1.00  0.00    -0.190 A  
HETATM   12  C   UNL     1      -9.301  10.524  67.719  1.00  0.00    -0.158 A  
ENDROOT
BRANCH  10  13
HETATM   13  C   UNL     1      -9.633  14.332  67.867  1.00  0.00    -0.221 A  
HETATM   14  C   UNL     1     -10.736  15.195  67.730  1.00  0.00    -0.279 A  
HETATM   15  C   UNL     1     -10.707  16.512  68.209  1.00  0.00    -0.345 A  
HETATM   16  C   UNL     1      -9.575  16.999  68.851  1.00  0.00    -0.248 A  
HETATM   17  C   UNL     1      -8.469  16.174  69.009  1.00  0.00    -0.251 A  
HETATM   18  C   UNL     1      -8.498  14.862  68.515  1.00  0.00    -0.163 A  
ENDBRANCH  10  13
TORSDOF 1
ENDMDL
MODEL      101
REMARK 921   NORMALIZED FREE ENERGY PREDICTED BY IDOCK:   -3.74 KCAL/MOL
REMARK 922        TOTAL FREE ENERGY PREDICTED BY IDOCK:   -4.35 KCAL/MOL
REMARK 923 INTER-LIGAND FREE ENERGY PREDICTED BY IDOCK:   -3.94 KCAL/MOL
REMARK 924 INTRA-LIGAND FREE ENERGY PREDICTED BY IDOCK:   -0.41 KCAL/MOL
REMARK 927      BINDING AFFINITY PREDICTED BY RF-SCORE:    0.00 PKD
ROOT
HETATM    1  C   UNL     1      -9.275   6.974  71.660  1.00  0.00    -0.144 C  
HETATM    2  C   UNL     1     -10.605   6.315  71.283  1.00  0.00    -0.285 C  
HETATM    3  C   UNL     1     -10.549   5.850  69.834  1.00  0.00    -0.370 A  
HETATM    4  C   UNL     1     -11.774   7.245  71.612  1.00  0.00    -0.284 C  
HETATM    5  C   UNL     1     -10.033   4.584  69.526  1.00  0.00    -0.235 A  
HETATM    6  O   UNL     1     -12.986   6.731  71.291  1.00  0.00    -0.301 OA 
HETATM    7  O   UNL     1     -11.667   8.339  72.148  1.00  0.00    -0.316 OA 
HETATM    8  C   UNL     1      -9.850   4.186  68.195  1.00  0.00    -0.017 A  
HETATM    9  F   UNL     1      -9.297   2.979  67.995  1.00  0.00    -0.189 F  
HETATM   10  C   UNL     1     -10.186   5.011  67.109  1.00  0.00    -0.234 A  
HETATM   11  C   UNL     1     -10.746   6.262  67.440  1.00  0.00    -0.409 A  
HETATM   12  C   UNL     1     -10.909   6.683  68.770  1.00  0.00    -0.321 A  
ENDROOT
BRANCH  10  13
HETATM   13  C   UNL     1      -9.941   4.629  65.690  1.00  0.00    -0.228 A  
HETATM   14  C   UNL     1      -8.716   4.879  65.044  1.00  0.00    -0.149 A  
HETATM   15  C   UNL     1      -8.503   4.529  63.704  1.00  0.00    -0.118 A  
HETATM   16  C   UNL     1      -9.509   3.905  62.975  1.00  0.00    -0.128 A  
HETATM   17  C   UNL     1     -10.729   3.639  63.582  1.00  0.00    -0.260 A  
HETATM   18  C   UNL     1     -10.942   4.004  64.918  1.00  0.00     0.049 A  
ENDBRANCH  10  13
TORSDOF 1
ENDMDL
MODEL      102
REMARK 921   NORMALIZED FREE ENERGY PREDICTED BY IDOCK:   -3.73 KCAL/MOL
REMARK 922        TOTAL FREE ENERGY PREDICTED BY IDOCK:   -4.34 KCAL/MOL
REMARK 923 INTER-LIGAND FREE ENERGY PREDICTED BY IDOCK:   -3.93 KCAL/MOL
REMARK 924 INTRA-LIGAND FREE ENERGY PREDICTED BY IDOCK:   -0.41 KCAL/MOL
REMARK 927      BINDING AFFINITY PREDICTED BY RF-SCORE:    0.00 PKD
ROOT
HETATM    1  C   UNL     1     -11.665  12.231  69.649  1.00  0.00    -0.386 C  
HETATM    2  C   UNL     1     -11.905  12.503  68.161  1.00  0.00    -0.371 C  
HETATM    3  C   UNL     1     -10.831  11.807  67.337  1.00  0.00    -0.299 A  
HETATM    4  C   UNL     1     -12.031  14.006  67.907  1.00  0.00    -0.351 C  
HETATM    5  C   UNL     1     -11.007  10.473  66.944  1.00  0.00    -0.199 A  
HETATM    6  O   UNL     1     -12.232  14.324  66.605  1.00  0.00    -0.449 OA 
HETATM    7  O   UNL     1     -11.998  14.868  68.775  1.00  0.00    -0.303 OA 
HETATM    8  C   UNL     1      -9.980   9.771  66.299  1.00  0.00    -0.262 A  
HETATM    9  F   UNL     1     -10.217   8.482  66.011  1.00  0.00    -0.328 F  
HETATM   10  C   UNL     1      -8.740  10.359  65.998  1.00  0.00    -0.163 A  
HETATM   11  C   UNL     1      -8.600  11.714  66.360  1.00  0.00    -0.143 A  
HETATM   12  C   UNL     1      -9.612  12.420  67.030  1.00  0.00    -0.211 A  
ENDROOT
BRANCH  10  13
HETATM   13  C   UNL     1      -7.616   9.610  65.370  1.00  0.00    -0.111 A  
HETATM   14  C   UNL     1      -6.654   8.920  66.130  1.00  0.00    -0.065 A  
HETATM   15  C   UNL     1      -5.591   8.232  65.527  1.00  0.00    -0.040 A  
HETATM   16  C   UNL     1      -5.470   8.205  64.143  1.00  0.00    -0.045 A  
HETATM   17  C   UNL     1      -6.405   8.870  63.361  1.00  0.00    -0.089 A  
HETATM   18  C   UNL     1      -7.457   9.569  63.969  1.00  0.00    -0.122 A  
ENDBRANCH  10  13
TORSDOF 1
ENDMDL
MODEL      103
REMARK 921   NORMALIZED FREE ENERGY PREDICTED BY IDOCK:   -3.70 KCAL/MOL
REMARK 922        TOTAL FREE ENERGY PREDICTED BY IDOCK:   -4.31 KCAL/MOL
REMARK 923 INTER-LIGAND FREE ENERGY PREDICTED BY IDOCK:   -4.15 KCAL/MOL
REMARK 924 INTRA-LIGAND FREE ENERGY PREDICTED BY IDOCK:   -0.16 KCAL/MOL
REMARK 927      BINDING AFFINITY PREDICTED BY RF-SCORE:    0.00 PKD
ROOT
HETATM    1  C   UNL     1     -10.038  11.390  64.714  1.00  0.00    -0.326 C  
HETATM    2  C   UNL     1      -9.709  12.175  65.987  1.00  0.00    -0.258 C  
HETATM    3  C   UNL     1      -9.826  11.257  67.196  1.00  0.00    -0.213 A  
HETATM    4  C   UNL     1     -10.558  13.445  66.065  1.00  0.00    -0.287 C  
HETATM    5  C   UNL     1      -8.726  10.485  67.595  1.00  0.00    -0.121 A  
HETATM    6  O   UNL     1     -10.329  14.186  67.176  1.00  0.00    -0.262 OA 
HETATM    7  O   UNL     1     -11.350  13.810  65.207  1.00  0.00    -0.297 OA 
HETATM    8  C   UNL     1      -8.846   9.537  68.621  1.00  0.00    -0.132 A  
HETATM    9  F   UNL     1      -7.756   8.804  68.898  1.00  0.00    -0.087 F  
HETATM   10  C   UNL     1     -10.051   9.323  69.310  1.00  0.00    -0.201 A  
HETATM   11  C   UNL     1     -11.133  10.141  68.924  1.00  0.00    -0.251 A  
HETATM   12  C   UNL     1     -11.031  11.074  67.880  1.00  0.00    -0.317 A  
ENDROOT
BRANCH  10  13
HETATM   13  C   UNL     1     -10.214   8.277  70.359  1.00  0.00    -0.209 A  
HETATM   14  C   UNL     1      -9.177   7.933  71.246  1.00  0.00    -0.170 A  
HETATM   15  C   UNL     1      -9.337   6.937  72.218  1.00  0.00    -0.148 A  
HETATM   16  C   UNL     1     -10.548   6.263  72.338  1.00  0.00    -0.241 A  
HETATM   17  C   UNL     1     -11.594   6.580  71.482  1.00  0.00    -0.366 A  
HETATM   18  C   UNL     1     -11.424   7.567  70.502  1.00  0.00    -0.259 A  
ENDBRANCH  10  13
TORSDOF 1
ENDMDL
MODEL      104
REMARK 921   NORMALIZED FREE ENERGY PREDICTED BY IDOCK:   -3.70 KCAL/MOL
REMARK 922        TOTAL FREE ENERGY PREDICTED BY IDOCK:   -4.31 KCAL/MOL
REMARK 923 INTER-LIGAND FREE ENERGY PREDICTED BY IDOCK:   -3.90 KCAL/MOL
REMARK 924 INTRA-LIGAND FREE ENERGY PREDICTED BY IDOCK:   -0.41 KCAL/MOL
REMARK 927      BINDING AFFINITY PREDICTED BY RF-SCORE:    0.00 PKD
ROOT
HETATM    1  C   UNL     1     -12.084   8.495  71.458  1.00  0.00    -0.351 C  
HETATM    2  C   UNL     1     -10.592   8.657  71.154  1.00  0.00    -0.291 C  
HETATM    3  C   UNL     1     -10.246   7.895  69.883  1.00  0.00    -0.210 A  
HETATM    4  C   UNL     1      -9.755   8.277  72.376  1.00  0.00    -0.303 C  
HETATM    5  C   UNL     1     -10.390   8.515  68.634  1.00  0.00    -0.224 A  
HETATM    6  O   UNL     1      -8.419   8.384  72.176  1.00  0.00    -0.163 OA 
HETATM    7  O   UNL     1     -10.211   7.941  73.460  1.00  0.00    -0.282 OA 
HETATM    8  C   UNL     1     -10.204   7.796  67.447  1.00  0.00    -0.251 A  
HETATM    9  F   UNL     1     -10.419   8.457  66.299  1.00  0.00    -0.341 F  
HETATM   10  C   UNL     1      -9.849   6.437  67.438  1.00  0.00    -0.158 A  
HETATM   11  C   UNL     1      -9.664   5.843  68.703  1.00  0.00    -0.155 A  
HETATM   12  C   UNL     1      -9.874   6.547  69.900  1.00  0.00    -0.185 A  
ENDROOT
BRANCH  10  13
HETATM   13  C   UNL     1      -9.708   5.641  66.187  1.00  0.00    -0.127 A  
HETATM   14  C   UNL     1      -8.550   5.690  65.389  1.00  0.00    -0.150 A  
HETATM   15  C   UNL     1      -8.436   4.948  64.205  1.00  0.00    -0.137 A  
HETATM   16  C   UNL     1      -9.477   4.123  63.793  1.00  0.00    -0.147 A  
HETATM   17  C   UNL     1     -10.633   4.046  64.558  1.00  0.00    -0.201 A  
HETATM   18  C   UNL     1     -10.747   4.802  65.733  1.00  0.00    -0.220 A  
ENDBRANCH  10  13
TORSDOF 1
ENDMDL
MODEL      105
REMARK 921   NORMALIZED FREE ENERGY PREDICTED BY IDOCK:   -3.69 KCAL/MOL
REMARK 922        TOTAL FREE ENERGY PREDICTED BY IDOCK:   -4.30 KCAL/MOL
REMARK 923 INTER-LIGAND FREE ENERGY PREDICTED BY IDOCK:   -4.03 KCAL/MOL
REMARK 924 INTRA-LIGAND FREE ENERGY PREDICTED BY IDOCK:   -0.27 KCAL/MOL
REMARK 927      BINDING AFFINITY PREDICTED BY RF-SCORE:    0.00 PKD
ROOT
HETATM    1  C   UNL     1      -9.841   7.107  66.801  1.00  0.00    -0.272 C  
HETATM    2  C   UNL     1      -9.330   7.538  68.179  1.00  0.00    -0.137 C  
HETATM    3  C   UNL     1      -9.714   8.989  68.433  1.00  0.00    -0.170 A  
HETATM    4  C   UNL     1      -7.835   7.240  68.309  1.00  0.00    -0.122 C  
HETATM    5  C   UNL     1     -10.962   9.293  68.993  1.00  0.00    -0.060 A  
HETATM    6  O   UNL     1      -7.309   7.609  69.502  1.00  0.00    -0.081 OA 
HETATM    7  O   UNL     1      -7.155   6.688  67.456  1.00  0.00    -0.079 OA 
HETATM    8  C   UNL     1     -11.392  10.621  69.116  1.00  0.00    -0.273 A  
HETATM    9  F   UNL     1     -12.625  10.814  69.611  1.00  0.00    -0.371 F  
HETATM   10  C   UNL     1     -10.602  11.708  68.708  1.00  0.00    -0.241 A  
HETATM   11  C   UNL     1      -9.332  11.384  68.190  1.00  0.00    -0.181 A  
HETATM   12  C   UNL     1      -8.901  10.055  68.037  1.00  0.00    -0.125 A  
ENDROOT
BRANCH  10  13
HETATM   13  C   UNL     1     -11.068  13.122  68.773  1.00  0.00    -0.309 A  
HETATM   14  C   UNL     1     -11.676  13.662  69.921  1.00  0.00    -0.346 A  
HETATM   15  C   UNL     1     -12.124  14.989  69.964  1.00  0.00    -0.382 A  
HETATM   16  C   UNL     1     -11.964  15.819  68.860  1.00  0.00    -0.268 A  
HETATM   17  C   UNL     1     -11.363  15.321  67.712  1.00  0.00    -0.331 A  
HETATM   18  C   UNL     1     -10.930  13.988  67.669  1.00  0.00    -0.281 A  
ENDBRANCH  10  13
TORSDOF 1
ENDMDL
MODEL      106
REMARK 921   NORMALIZED FREE ENERGY PREDICTED BY IDOCK:   -3.66 KCAL/MOL
REMARK 922        TOTAL FREE ENERGY PREDICTED BY IDOCK:   -4.27 KCAL/MOL
REMARK 923 INTER-LIGAND FREE ENERGY PREDICTED BY IDOCK:   -3.87 KCAL/MOL
REMARK 924 INTRA-LIGAND FREE ENERGY PREDICTED BY IDOCK:   -0.40 KCAL/MOL
REMARK 927      BINDING AFFINITY PREDICTED BY RF-SCORE:    0.00 PKD
ROOT
HETATM    1  C   UNL     1      -9.612  10.381  65.334  1.00  0.00    -0.303 C  
HETATM    2  C   UNL     1      -8.762   9.110  65.426  1.00  0.00    -0.217 C  
HETATM    3  C   UNL     1      -9.096   8.366  66.711  1.00  0.00    -0.192 A  
HETATM    4  C   UNL     1      -7.281   9.446  65.248  1.00  0.00    -0.096 C  
HETATM    5  C   UNL     1     -10.157   7.450  66.732  1.00  0.00    -0.305 A  
HETATM    6  O   UNL     1      -6.464   8.368  65.330  1.00  0.00    -0.054 OA 
HETATM    7  O   UNL     1      -6.840  10.563  65.013  1.00  0.00    -0.096 OA 
HETATM    8  C   UNL     1     -10.567   6.851  67.931  1.00  0.00    -0.231 A  
HETATM    9  F   UNL     1     -11.627   6.030  67.865  1.00  0.00    -0.216 F  
HETATM   10  C   UNL     1      -9.937   7.115  69.158  1.00  0.00    -0.168 A  
HETATM   11  C   UNL     1      -8.844   8.004  69.108  1.00  0.00    -0.145 A  
HETATM   12  C   UNL     1      -8.441   8.630  67.917  1.00  0.00    -0.129 A  
ENDROOT
BRANCH  10  13
HETATM   13  C   UNL     1     -10.399   6.536  70.451  1.00  0.00    -0.237 A  
HETATM   14  C   UNL     1     -11.583   6.957  71.084  1.00  0.00    -0.363 A  
HETATM   15  C   UNL     1     -11.998   6.415  72.308  1.00  0.00    -0.289 A  
HETATM   16  C   UNL     1     -11.245   5.425  72.928  1.00  0.00    -0.372 A  
HETATM   17  C   UNL     1     -10.073   4.982  72.329  1.00  0.00    -0.245 A  
HETATM   18  C   UNL     1      -9.654   5.537  71.112  1.00  0.00    -0.207 A  
ENDBRANCH  10  13
TORSDOF 1
ENDMDL
MODEL      107
REMARK 921   NORMALIZED FREE ENERGY PREDICTED BY IDOCK:   -3.66 KCAL/MOL
REMARK 922        TOTAL FREE ENERGY PREDICTED BY IDOCK:   -4.27 KCAL/MOL
REMARK 923 INTER-LIGAND FREE ENERGY PREDICTED BY IDOCK:   -3.86 KCAL/MOL
REMARK 924 INTRA-LIGAND FREE ENERGY PREDICTED BY IDOCK:   -0.41 KCAL/MOL
REMARK 927      BINDING AFFINITY PREDICTED BY RF-SCORE:    0.00 PKD
ROOT
HETATM    1  C   UNL     1      -6.647   5.786  65.472  1.00  0.00    -0.044 C  
HETATM    2  C   UNL     1      -8.046   5.169  65.385  1.00  0.00    -0.118 C  
HETATM    3  C   UNL     1      -8.888   5.652  66.557  1.00  0.00    -0.123 A  
HETATM    4  C   UNL     1      -7.950   3.648  65.250  1.00  0.00    -0.090 C  
HETATM    5  C   UNL     1      -9.601   6.854  66.457  1.00  0.00    -0.197 A  
HETATM    6  O   UNL     1      -9.154   3.031  65.181  1.00  0.00    -0.138 OA 
HETATM    7  O   UNL     1      -6.905   3.017  65.169  1.00  0.00    -0.043 OA 
HETATM    8  C   UNL     1     -10.278   7.385  67.563  1.00  0.00    -0.224 A  
HETATM    9  F   UNL     1     -10.886   8.569  67.389  1.00  0.00    -0.338 F  
HETATM   10  C   UNL     1     -10.295   6.744  68.813  1.00  0.00    -0.211 A  
HETATM   11  C   UNL     1      -9.610   5.514  68.881  1.00  0.00    -0.178 A  
HETATM   12  C   UNL     1      -8.907   4.985  67.786  1.00  0.00    -0.106 A  
ENDROOT
BRANCH  10  13
HETATM   13  C   UNL     1     -10.956   7.324  70.015  1.00  0.00    -0.273 A  
HETATM   14  C   UNL     1     -12.197   6.862  70.490  1.00  0.00    -0.253 A  
HETATM   15  C   UNL     1     -12.815   7.428  71.613  1.00  0.00    -0.406 A  
HETATM   16  C   UNL     1     -12.200   8.466  72.303  1.00  0.00    -0.449 A  
HETATM   17  C   UNL     1     -10.972   8.944  71.866  1.00  0.00    -0.439 A  
HETATM   18  C   UNL     1     -10.365   8.385  70.733  1.00  0.00    -0.228 A  
ENDBRANCH  10  13
TORSDOF 1
ENDMDL
MODEL      108
REMARK 921   NORMALIZED FREE ENERGY PREDICTED BY IDOCK:   -3.63 KCAL/MOL
REMARK 922        TOTAL FREE ENERGY PREDICTED BY IDOCK:   -4.23 KCAL/MOL
REMARK 923 INTER-LIGAND FREE ENERGY PREDICTED BY IDOCK:   -3.83 KCAL/MOL
REMARK 924 INTRA-LIGAND FREE ENERGY PREDICTED BY IDOCK:   -0.40 KCAL/MOL
REMARK 927      BINDING AFFINITY PREDICTED BY RF-SCORE:    0.00 PKD
ROOT
HETATM    1  C   UNL     1     -11.086  11.509  67.365  1.00  0.00    -0.339 C  
HETATM    2  C   UNL     1     -10.005  10.639  66.716  1.00  0.00    -0.254 C  
HETATM    3  C   UNL     1      -9.881   9.328  67.479  1.00  0.00    -0.224 A  
HETATM    4  C   UNL     1      -8.700  11.425  66.578  1.00  0.00    -0.181 C  
HETATM    5  C   UNL     1     -10.707   8.245  67.146  1.00  0.00    -0.240 A  
HETATM    6  O   UNL     1      -7.691  10.713  66.022  1.00  0.00    -0.146 OA 
HETATM    7  O   UNL     1      -8.553  12.598  66.893  1.00  0.00    -0.200 OA 
HETATM    8  C   UNL     1     -10.703   7.074  67.916  1.00  0.00    -0.210 A  
HETATM    9  F   UNL     1     -11.568   6.112  67.557  1.00  0.00    -0.256 F  
HETATM   10  C   UNL     1      -9.872   6.913  69.036  1.00  0.00    -0.152 A  
HETATM   11  C   UNL     1      -9.016   7.995  69.327  1.00  0.00    -0.148 A  
HETATM   12  C   UNL     1      -9.030   9.183  68.579  1.00  0.00    -0.133 A  
ENDROOT
BRANCH  10  13
HETATM   13  C   UNL     1      -9.900   5.701  69.902  1.00  0.00    -0.250 A  
HETATM   14  C   UNL     1     -10.465   5.709  71.191  1.00  0.00    -0.306 A  
HETATM   15  C   UNL     1     -10.471   4.566  72.002  1.00  0.00    -0.167 A  
HETATM   16  C   UNL     1      -9.923   3.375  71.538  1.00  0.00    -0.161 A  
HETATM   17  C   UNL     1      -9.361   3.329  70.269  1.00  0.00    -0.242 A  
HETATM   18  C   UNL     1      -9.344   4.479  69.468  1.00  0.00    -0.221 A  
ENDBRANCH  10  13
TORSDOF 1
ENDMDL
MODEL      109
REMARK 921   NORMALIZED FREE ENERGY PREDICTED BY IDOCK:   -3.61 KCAL/MOL
REMARK 922        TOTAL FREE ENERGY PREDICTED BY IDOCK:   -4.22 KCAL/MOL
REMARK 923 INTER-LIGAND FREE ENERGY PREDICTED BY IDOCK:   -3.93 KCAL/MOL
REMARK 924 INTRA-LIGAND FREE ENERGY PREDICTED BY IDOCK:   -0.29 KCAL/MOL
REMARK 927      BINDING AFFINITY PREDICTED BY RF-SCORE:    0.00 PKD
ROOT
HETATM    1  C   UNL     1      -8.001   9.164  70.345  1.00  0.00    -0.155 C  
HETATM    2  C   UNL     1      -7.198   9.488  69.083  1.00  0.00    -0.067 C  
HETATM    3  C   UNL     1      -8.009  10.416  68.189  1.00  0.00    -0.110 A  
HETATM    4  C   UNL     1      -6.724   8.201  68.406  1.00  0.00    -0.064 C  
HETATM    5  C   UNL     1      -7.943  11.803  68.378  1.00  0.00    -0.147 A  
HETATM    6  O   UNL     1      -6.015   8.411  67.271  1.00  0.00    -0.048 OA 
HETATM    7  O   UNL     1      -6.913   7.073  68.839  1.00  0.00    -0.073 OA 
HETATM    8  C   UNL     1      -8.776  12.668  67.657  1.00  0.00    -0.179 A  
HETATM    9  F   UNL     1      -8.684  13.976  67.945  1.00  0.00    -0.153 F  
HETATM   10  C   UNL     1      -9.698  12.205  66.704  1.00  0.00    -0.228 A  
HETATM   11  C   UNL     1      -9.717  10.811  66.496  1.00  0.00    -0.236 A  
HETATM   12  C   UNL     1      -8.906   9.932  67.231  1.00  0.00    -0.138 A  
ENDROOT
BRANCH  10  13
HETATM   13  C   UNL     1     -10.635  13.105  65.975  1.00  0.00    -0.291 A  
HETATM   14  C   UNL     1     -12.020  12.863  65.918  1.00  0.00    -0.504 A  
HETATM   15  C   UNL     1     -12.889  13.709  65.215  1.00  0.00    -0.421 A  
HETATM   16  C   UNL     1     -12.396  14.830  64.558  1.00  0.00    -0.384 A  
HETATM   17  C   UNL     1     -11.035  15.102  64.597  1.00  0.00    -0.321 A  
HETATM   18  C   UNL     1     -10.168  14.245  65.289  1.00  0.00    -0.408 A  
ENDBRANCH  10  13
TORSDOF 1
ENDMDL
MODEL      110
REMARK 921   NORMALIZED FREE ENERGY PREDICTED BY IDOCK:   -3.61 KCAL/MOL
REMARK 922        TOTAL FREE ENERGY PREDICTED BY IDOCK:   -4.22 KCAL/MOL
REMARK 923 INTER-LIGAND FREE ENERGY PREDICTED BY IDOCK:   -3.92 KCAL/MOL
REMARK 924 INTRA-LIGAND FREE ENERGY PREDICTED BY IDOCK:   -0.30 KCAL/MOL
REMARK 927      BINDING AFFINITY PREDICTED BY RF-SCORE:    0.00 PKD
ROOT
HETATM    1  C   UNL     1      -9.677   3.918  63.615  1.00  0.00    -0.162 C  
HETATM    2  C   UNL     1      -8.826   3.924  64.888  1.00  0.00    -0.123 C  
HETATM    3  C   UNL     1      -9.143   5.168  65.706  1.00  0.00    -0.158 A  
HETATM    4  C   UNL     1      -7.347   3.747  64.541  1.00  0.00    -0.067 C  
HETATM    5  C   UNL     1     -10.203   5.150  66.623  1.00  0.00    -0.297 A  
HETATM    6  O   UNL     1      -6.529   3.756  65.621  1.00  0.00    -0.032 OA 
HETATM    7  O   UNL     1      -6.909   3.572  63.412  1.00  0.00    -0.040 OA 
HETATM    8  C   UNL     1     -10.597   6.316  67.291  1.00  0.00    -0.302 A  
HETATM    9  F   UNL     1     -11.658   6.217  68.107  1.00  0.00    -0.352 F  
HETATM   10  C   UNL     1      -9.951   7.549  67.098  1.00  0.00    -0.288 A  
HETATM   11  C   UNL     1      -8.859   7.536  66.207  1.00  0.00    -0.184 A  
HETATM   12  C   UNL     1      -8.472   6.379  65.512  1.00  0.00    -0.141 A  
ENDROOT
BRANCH  10  13
HETATM   13  C   UNL     1     -10.396   8.812  67.752  1.00  0.00    -0.297 A  
HETATM   14  C   UNL     1     -10.656   9.986  67.022  1.00  0.00    -0.279 A  
HETATM   15  C   UNL     1     -11.059  11.172  67.651  1.00  0.00    -0.348 A  
HETATM   16  C   UNL     1     -11.226  11.212  69.030  1.00  0.00    -0.318 A  
HETATM   17  C   UNL     1     -10.984  10.070  69.781  1.00  0.00    -0.317 A  
HETATM   18  C   UNL     1     -10.566   8.890  69.150  1.00  0.00    -0.211 A  
ENDBRANCH  10  13
TORSDOF 1
ENDMDL
MODEL      111
REMARK 921   NORMALIZED FREE ENERGY PREDICTED BY IDOCK:   -3.61 KCAL/MOL
REMARK 922        TOTAL FREE ENERGY PREDICTED BY IDOCK:   -4.21 KCAL/MOL
REMARK 923 INTER-LIGAND FREE ENERGY PREDICTED BY IDOCK:   -3.80 KCAL/MOL
REMARK 924 INTRA-LIGAND FREE ENERGY PREDICTED BY IDOCK:   -0.41 KCAL/MOL
REMARK 927      BINDING AFFINITY PREDICTED BY RF-SCORE:    0.00 PKD
ROOT
HETATM    1  C   UNL     1     -10.462  13.079  64.252  1.00  0.00    -0.424 C  
HETATM    2  C   UNL     1     -10.434  12.961  65.778  1.00  0.00    -0.293 C  
HETATM    3  C   UNL     1      -9.920  11.584  66.173  1.00  0.00    -0.257 A  
HETATM    4  C   UNL     1     -11.797  13.328  66.366  1.00  0.00    -0.396 C  
HETATM    5  C   UNL     1      -8.542  11.364  66.304  1.00  0.00    -0.156 A  
HETATM    6  O   UNL     1     -11.851  13.233  67.717  1.00  0.00    -0.342 OA 
HETATM    7  O   UNL     1     -12.760  13.711  65.716  1.00  0.00    -0.471 OA 
HETATM    8  C   UNL     1      -8.037  10.078  66.538  1.00  0.00    -0.119 A  
HETATM    9  F   UNL     1      -6.702   9.953  66.592  1.00  0.00    -0.073 F  
HETATM   10  C   UNL     1      -8.871   8.955  66.671  1.00  0.00    -0.150 A  
HETATM   11  C   UNL     1     -10.255   9.205  66.582  1.00  0.00    -0.328 A  
HETATM   12  C   UNL     1     -10.771  10.485  66.321  1.00  0.00    -0.139 A  
ENDROOT
BRANCH  10  13
HETATM   13  C   UNL     1      -8.349   7.572  66.857  1.00  0.00    -0.125 A  
HETATM   14  C   UNL     1      -8.286   6.643  65.803  1.00  0.00    -0.143 A  
HETATM   15  C   UNL     1      -7.808   5.339  65.994  1.00  0.00    -0.103 A  
HETATM   16  C   UNL     1      -7.365   4.933  67.248  1.00  0.00    -0.082 A  
HETATM   17  C   UNL     1      -7.408   5.825  68.311  1.00  0.00    -0.080 A  
HETATM   18  C   UNL     1      -7.901   7.123  68.117  1.00  0.00    -0.118 A  
ENDBRANCH  10  13
TORSDOF 1
ENDMDL
MODEL      112
REMARK 921   NORMALIZED FREE ENERGY PREDICTED BY IDOCK:   -3.59 KCAL/MOL
REMARK 922        TOTAL FREE ENERGY PREDICTED BY IDOCK:   -4.20 KCAL/MOL
REMARK 923 INTER-LIGAND FREE ENERGY PREDICTED BY IDOCK:   -3.83 KCAL/MOL
REMARK 924 INTRA-LIGAND FREE ENERGY PREDICTED BY IDOCK:   -0.37 KCAL/MOL
REMARK 927      BINDING AFFINITY PREDICTED BY RF-SCORE:    0.00 PKD
ROOT
HETATM    1  C   UNL     1     -10.534  10.978  64.432  1.00  0.00    -0.422 C  
HETATM    2  C   UNL     1     -10.067  10.939  65.890  1.00  0.00    -0.307 C  
HETATM    3  C   UNL     1      -9.699   9.511  66.268  1.00  0.00    -0.310 A  
HETATM    4  C   UNL     1     -11.108  11.593  66.801  1.00  0.00    -0.309 C  
HETATM    5  C   UNL     1      -8.404   9.036  66.023  1.00  0.00    -0.126 A  
HETATM    6  O   UNL     1     -10.768  11.583  68.112  1.00  0.00    -0.188 OA 
HETATM    7  O   UNL     1     -12.142  12.120  66.415  1.00  0.00    -0.630 OA 
HETATM    8  C   UNL     1      -8.077   7.690  66.240  1.00  0.00    -0.112 A  
HETATM    9  F   UNL     1      -6.829   7.312  65.923  1.00  0.00    -0.052 F  
HETATM   10  C   UNL     1      -9.009   6.759  66.727  1.00  0.00    -0.141 A  
HETATM   11  C   UNL     1     -10.293   7.267  67.011  1.00  0.00    -0.376 A  
HETATM   12  C   UNL     1     -10.639   8.607  66.772  1.00  0.00    -0.223 A  
ENDROOT
BRANCH  10  13
HETATM   13  C   UNL     1      -8.698   5.313  66.904  1.00  0.00    -0.111 A  
HETATM   14  C   UNL     1      -7.711   4.860  67.799  1.00  0.00    -0.083 A  
HETATM   15  C   UNL     1      -7.417   3.497  67.945  1.00  0.00    -0.061 A  
HETATM   16  C   UNL     1      -8.112   2.547  67.207  1.00  0.00    -0.071 A  
HETATM   17  C   UNL     1      -9.096   2.958  66.318  1.00  0.00    -0.140 A  
HETATM   18  C   UNL     1      -9.377   4.323  66.164  1.00  0.00    -0.164 A  
ENDBRANCH  10  13
TORSDOF 1
ENDMDL
MODEL      113
REMARK 921   NORMALIZED FREE ENERGY PREDICTED BY IDOCK:   -3.58 KCAL/MOL
REMARK 922        TOTAL FREE ENERGY PREDICTED BY IDOCK:   -4.18 KCAL/MOL
REMARK 923 INTER-LIGAND FREE ENERGY PREDICTED BY IDOCK:   -4.05 KCAL/MOL
REMARK 924 INTRA-LIGAND FREE ENERGY PREDICTED BY IDOCK:   -0.13 KCAL/MOL
REMARK 927      BINDING AFFINITY PREDICTED BY RF-SCORE:    0.00 PKD
ROOT
HETATM    1  C   UNL     1      -9.795  12.476  66.679  1.00  0.00    -0.245 C  
HETATM    2  C   UNL     1     -10.198  11.014  66.472  1.00  0.00    -0.280 C  
HETATM    3  C   UNL     1     -10.001  10.243  67.770  1.00  0.00    -0.203 A  
HETATM    4  C   UNL     1      -9.470  10.426  65.262  1.00  0.00    -0.237 C  
HETATM    5  C   UNL     1     -11.026  10.210  68.725  1.00  0.00    -0.264 A  
HETATM    6  O   UNL     1      -9.769   9.126  65.025  1.00  0.00    -0.015 OA 
HETATM    7  O   UNL     1      -8.712  11.049  64.531  1.00  0.00    -0.083 OA 
HETATM    8  C   UNL     1     -10.823   9.619  69.979  1.00  0.00    -0.264 A  
HETATM    9  F   UNL     1     -11.842   9.684  70.851  1.00  0.00    -0.304 F  
HETATM   10  C   UNL     1      -9.605   9.019  70.340  1.00  0.00    -0.246 A  
HETATM   11  C   UNL     1      -8.602   9.022  69.349  1.00  0.00    -0.137 A  
HETATM   12  C   UNL     1      -8.786   9.635  68.099  1.00  0.00    -0.119 A  
ENDROOT
BRANCH  10  13
HETATM   13  C   UNL     1      -9.351   8.442  71.690  1.00  0.00    -0.280 A  
HETATM   14  C   UNL     1     -10.371   7.859  72.464  1.00  0.00    -0.349 A  
HETATM   15  C   UNL     1     -10.121   7.335  73.739  1.00  0.00    -0.375 A  
HETATM   16  C   UNL     1      -8.837   7.367  74.272  1.00  0.00    -0.252 A  
HETATM   17  C   UNL     1      -7.805   7.930  73.533  1.00  0.00    -0.214 A  
HETATM   18  C   UNL     1      -8.063   8.467  72.264  1.00  0.00    -0.186 A  
ENDBRANCH  10  13
TORSDOF 1
ENDMDL
MODEL      114
REMARK 921   NORMALIZED FREE ENERGY PREDICTED BY IDOCK:   -3.52 KCAL/MOL
REMARK 922        TOTAL FREE ENERGY PREDICTED BY IDOCK:   -4.12 KCAL/MOL
REMARK 923 INTER-LIGAND FREE ENERGY PREDICTED BY IDOCK:   -3.96 KCAL/MOL
REMARK 924 INTRA-LIGAND FREE ENERGY PREDICTED BY IDOCK:   -0.17 KCAL/MOL
REMARK 927      BINDING AFFINITY PREDICTED BY RF-SCORE:    0.00 PKD
ROOT
HETATM    1  C   UNL     1      -9.459   3.802  68.992  1.00  0.00    -0.233 C  
HETATM    2  C   UNL     1      -8.434   4.621  68.201  1.00  0.00    -0.104 C  
HETATM    3  C   UNL     1      -8.923   6.057  68.070  1.00  0.00    -0.112 A  
HETATM    4  C   UNL     1      -8.110   3.932  66.875  1.00  0.00    -0.096 C  
HETATM    5  C   UNL     1      -8.633   6.988  69.076  1.00  0.00    -0.129 A  
HETATM    6  O   UNL     1      -7.217   4.609  66.113  1.00  0.00    -0.073 OA 
HETATM    7  O   UNL     1      -8.564   2.853  66.518  1.00  0.00    -0.100 OA 
HETATM    8  C   UNL     1      -9.180   8.278  69.043  1.00  0.00    -0.147 A  
HETATM    9  F   UNL     1      -8.894   9.083  70.078  1.00  0.00    -0.134 F  
HETATM   10  C   UNL     1     -10.023   8.711  68.006  1.00  0.00    -0.221 A  
HETATM   11  C   UNL     1     -10.266   7.774  66.980  1.00  0.00    -0.375 A  
HETATM   12  C   UNL     1      -9.744   6.471  67.017  1.00  0.00    -0.188 A  
ENDROOT
BRANCH  10  13
HETATM   13  C   UNL     1     -10.663  10.056  67.986  1.00  0.00    -0.303 A  
HETATM   14  C   UNL     1     -11.105  10.697  69.159  1.00  0.00    -0.309 A  
HETATM   15  C   UNL     1     -11.720  11.955  69.125  1.00  0.00    -0.380 A  
HETATM   16  C   UNL     1     -11.900  12.616  67.915  1.00  0.00    -0.388 A  
HETATM   17  C   UNL     1     -11.472  12.015  66.739  1.00  0.00    -0.410 A  
HETATM   18  C   UNL     1     -10.871  10.750  66.776  1.00  0.00    -0.256 A  
ENDBRANCH  10  13
TORSDOF 1
ENDMDL
MODEL      115
REMARK 921   NORMALIZED FREE ENERGY PREDICTED BY IDOCK:   -3.46 KCAL/MOL
REMARK 922        TOTAL FREE ENERGY PREDICTED BY IDOCK:   -4.05 KCAL/MOL
REMARK 923 INTER-LIGAND FREE ENERGY PREDICTED BY IDOCK:   -3.73 KCAL/MOL
REMARK 924 INTRA-LIGAND FREE ENERGY PREDICTED BY IDOCK:   -0.32 KCAL/MOL
REMARK 927      BINDING AFFINITY PREDICTED BY RF-SCORE:    0.00 PKD
ROOT
HETATM    1  C   UNL     1      -9.310  13.158  67.062  1.00  0.00    -0.238 C  
HETATM    2  C   UNL     1      -8.293  12.022  66.923  1.00  0.00    -0.159 C  
HETATM    3  C   UNL     1      -8.688  10.871  67.838  1.00  0.00    -0.131 A  
HETATM    4  C   UNL     1      -6.873  12.548  67.134  1.00  0.00    -0.052 C  
HETATM    5  C   UNL     1      -9.583   9.893  67.383  1.00  0.00    -0.185 A  
HETATM    6  O   UNL     1      -5.917  11.592  67.038  1.00  0.00    -0.093 OA 
HETATM    7  O   UNL     1      -6.583  13.720  67.334  1.00  0.00    -0.257 OA 
HETATM    8  C   UNL     1     -10.063   8.899  68.247  1.00  0.00    -0.187 A  
HETATM    9  F   UNL     1     -10.961   8.040  67.740  1.00  0.00    -0.240 F  
HETATM   10  C   UNL     1      -9.666   8.815  69.592  1.00  0.00    -0.173 A  
HETATM   11  C   UNL     1      -8.730   9.780  70.017  1.00  0.00    -0.237 A  
HETATM   12  C   UNL     1      -8.263  10.797  69.168  1.00  0.00    -0.124 A  
ENDROOT
BRANCH  10  13
HETATM   13  C   UNL     1     -10.213   7.805  70.540  1.00  0.00    -0.201 A  
HETATM   14  C   UNL     1     -10.821   8.165  71.756  1.00  0.00    -0.317 A  
HETATM   15  C   UNL     1     -11.318   7.203  72.647  1.00  0.00    -0.306 A  
HETATM   16  C   UNL     1     -11.231   5.851  72.337  1.00  0.00    -0.340 A  
HETATM   17  C   UNL     1     -10.642   5.459  71.142  1.00  0.00    -0.276 A  
HETATM   18  C   UNL     1     -10.133   6.424  70.262  1.00  0.00    -0.216 A  
ENDBRANCH  10  13
TORSDOF 1
ENDMDL
MODEL      116
REMARK 921   NORMALIZED FREE ENERGY PREDICTED BY IDOCK:   -3.44 KCAL/MOL
REMARK 922        TOTAL FREE ENERGY PREDICTED BY IDOCK:   -4.03 KCAL/MOL
REMARK 923 INTER-LIGAND FREE ENERGY PREDICTED BY IDOCK:   -3.71 KCAL/MOL
REMARK 924 INTRA-LIGAND FREE ENERGY PREDICTED BY IDOCK:   -0.32 KCAL/MOL
REMARK 927      BINDING AFFINITY PREDICTED BY RF-SCORE:    0.00 PKD
ROOT
HETATM    1  C   UNL     1      -8.383  10.830  66.646  1.00  0.00    -0.141 C  
HETATM    2  C   UNL     1      -9.532  11.168  67.601  1.00  0.00    -0.173 C  
HETATM    3  C   UNL     1      -9.525  12.661  67.898  1.00  0.00    -0.204 A  
HETATM    4  C   UNL     1      -9.478  10.269  68.838  1.00  0.00    -0.188 C  
HETATM    5  C   UNL     1     -10.202  13.545  67.048  1.00  0.00    -0.249 A  
HETATM    6  O   UNL     1     -10.460  10.520  69.737  1.00  0.00    -0.244 OA 
HETATM    7  O   UNL     1      -8.665   9.373  69.016  1.00  0.00    -0.129 OA 
HETATM    8  C   UNL     1     -10.103  14.932  67.224  1.00  0.00    -0.235 A  
HETATM    9  F   UNL     1     -10.739  15.703  66.329  1.00  0.00    -0.298 F  
HETATM   10  C   UNL     1      -9.346  15.506  68.259  1.00  0.00    -0.192 A  
HETATM   11  C   UNL     1      -8.709  14.599  69.130  1.00  0.00    -0.029 A  
HETATM   12  C   UNL     1      -8.780  13.208  68.947  1.00  0.00     0.293 A  
ENDROOT
BRANCH  10  13
HETATM   13  C   UNL     1      -9.178  16.977  68.424  1.00  0.00    -0.259 A  
HETATM   14  C   UNL     1      -7.913  17.590  68.476  1.00  0.00    -0.271 A  
HETATM   15  C   UNL     1      -7.768  18.973  68.648  1.00  0.00    -0.378 A  
HETATM   16  C   UNL     1      -8.890  19.786  68.758  1.00  0.00    -0.205 A  
HETATM   17  C   UNL     1     -10.156  19.216  68.705  1.00  0.00    -0.445 A  
HETATM   18  C   UNL     1     -10.294  17.831  68.549  1.00  0.00    -0.366 A  
ENDBRANCH  10  13
TORSDOF 1
ENDMDL
MODEL      117
REMARK 921   NORMALIZED FREE ENERGY PREDICTED BY IDOCK:   -3.43 KCAL/MOL
REMARK 922        TOTAL FREE ENERGY PREDICTED BY IDOCK:   -4.02 KCAL/MOL
REMARK 923 INTER-LIGAND FREE ENERGY PREDICTED BY IDOCK:   -3.62 KCAL/MOL
REMARK 924 INTRA-LIGAND FREE ENERGY PREDICTED BY IDOCK:   -0.40 KCAL/MOL
REMARK 927      BINDING AFFINITY PREDICTED BY RF-SCORE:    0.00 PKD
ROOT
HETATM    1  C   UNL     1     -11.496   9.526  70.477  1.00  0.00    -0.337 C  
HETATM    2  C   UNL     1     -11.155   8.123  70.988  1.00  0.00    -0.281 C  
HETATM    3  C   UNL     1     -10.553   7.302  69.856  1.00  0.00    -0.244 A  
HETATM    4  C   UNL     1     -12.374   7.490  71.661  1.00  0.00    -0.333 C  
HETATM    5  C   UNL     1      -9.175   7.358  69.608  1.00  0.00    -0.146 A  
HETATM    6  O   UNL     1     -12.149   6.237  72.128  1.00  0.00    -0.333 OA 
HETATM    7  O   UNL     1     -13.453   8.043  71.816  1.00  0.00    -0.337 OA 
HETATM    8  C   UNL     1      -8.617   6.716  68.495  1.00  0.00    -0.124 A  
HETATM    9  F   UNL     1      -7.298   6.872  68.305  1.00  0.00    -0.084 F  
HETATM   10  C   UNL     1      -9.392   5.974  67.587  1.00  0.00    -0.112 A  
HETATM   11  C   UNL     1     -10.768   5.891  67.880  1.00  0.00    -0.336 A  
HETATM   12  C   UNL     1     -11.342   6.553  68.978  1.00  0.00    -0.296 A  
ENDROOT
BRANCH  10  13
HETATM   13  C   UNL     1      -8.826   5.337  66.365  1.00  0.00    -0.123 A  
HETATM   14  C   UNL     1      -8.619   3.949  66.266  1.00  0.00    -0.112 A  
HETATM   15  C   UNL     1      -8.071   3.365  65.116  1.00  0.00    -0.093 A  
HETATM   16  C   UNL     1      -7.726   4.154  64.025  1.00  0.00    -0.083 A  
HETATM   17  C   UNL     1      -7.921   5.528  64.086  1.00  0.00    -0.120 A  
HETATM   18  C   UNL     1      -8.455   6.109  65.244  1.00  0.00    -0.121 A  
ENDBRANCH  10  13
TORSDOF 1
ENDMDL
MODEL      118
REMARK 921   NORMALIZED FREE ENERGY PREDICTED BY IDOCK:   -3.40 KCAL/MOL
REMARK 922        TOTAL FREE ENERGY PREDICTED BY IDOCK:   -3.99 KCAL/MOL
REMARK 923 INTER-LIGAND FREE ENERGY PREDICTED BY IDOCK:   -3.93 KCAL/MOL
REMARK 924 INTRA-LIGAND FREE ENERGY PREDICTED BY IDOCK:   -0.07 KCAL/MOL
REMARK 927      BINDING AFFINITY PREDICTED BY RF-SCORE:    0.00 PKD
ROOT
HETATM    1  C   UNL     1      -6.845   5.882  69.209  1.00  0.00    -0.062 C  
HETATM    2  C   UNL     1      -8.220   5.539  68.629  1.00  0.00    -0.102 C  
HETATM    3  C   UNL     1      -8.747   6.725  67.834  1.00  0.00    -0.120 A  
HETATM    4  C   UNL     1      -9.156   5.042  69.733  1.00  0.00    -0.113 C  
HETATM    5  C   UNL     1      -8.405   6.867  66.482  1.00  0.00    -0.121 A  
HETATM    6  O   UNL     1     -10.399   4.731  69.294  1.00  0.00    -0.154 OA 
HETATM    7  O   UNL     1      -8.837   4.891  70.904  1.00  0.00    -0.122 OA 
HETATM    8  C   UNL     1      -8.768   8.014  65.764  1.00  0.00    -0.146 A  
HETATM    9  F   UNL     1      -8.348   8.090  64.492  1.00  0.00    -0.155 F  
HETATM   10  C   UNL     1      -9.501   9.064  66.343  1.00  0.00    -0.288 A  
HETATM   11  C   UNL     1      -9.874   8.881  67.690  1.00  0.00    -0.229 A  
HETATM   12  C   UNL     1      -9.493   7.748  68.427  1.00  0.00    -0.148 A  
ENDROOT
BRANCH  10  13
HETATM   13  C   UNL     1      -9.841  10.318  65.614  1.00  0.00    -0.332 A  
HETATM   14  C   UNL     1      -9.896  10.380  64.209  1.00  0.00    -0.388 A  
HETATM   15  C   UNL     1     -10.202  11.570  63.535  1.00  0.00    -0.462 A  
HETATM   16  C   UNL     1     -10.475  12.731  64.250  1.00  0.00    -0.423 A  
HETATM   17  C   UNL     1     -10.434  12.704  65.637  1.00  0.00    -0.298 A  
HETATM   18  C   UNL     1     -10.113  11.516  66.307  1.00  0.00    -0.261 A  
ENDBRANCH  10  13
TORSDOF 1
ENDMDL
MODEL      119
REMARK 921   NORMALIZED FREE ENERGY PREDICTED BY IDOCK:   -3.27 KCAL/MOL
REMARK 922        TOTAL FREE ENERGY PREDICTED BY IDOCK:   -3.85 KCAL/MOL
REMARK 923 INTER-LIGAND FREE ENERGY PREDICTED BY IDOCK:   -3.52 KCAL/MOL
REMARK 924 INTRA-LIGAND FREE ENERGY PREDICTED BY IDOCK:   -0.34 KCAL/MOL
REMARK 927      BINDING AFFINITY PREDICTED BY RF-SCORE:    0.00 PKD
ROOT
HETATM    1  C   UNL     1      -9.919  10.970  67.860  1.00  0.00    -0.192 C  
HETATM    2  C   UNL     1     -10.521  10.404  66.571  1.00  0.00    -0.262 C  
HETATM    3  C   UNL     1     -10.036   8.975  66.368  1.00  0.00    -0.351 A  
HETATM    4  C   UNL     1     -10.247  11.345  65.397  1.00  0.00    -0.270 C  
HETATM    5  C   UNL     1     -10.733   7.911  66.955  1.00  0.00    -0.289 A  
HETATM    6  O   UNL     1     -10.741  10.901  64.215  1.00  0.00    -0.353 OA 
HETATM    7  O   UNL     1      -9.675  12.423  65.482  1.00  0.00    -0.225 OA 
HETATM    8  C   UNL     1     -10.236   6.602  66.893  1.00  0.00    -0.220 A  
HETATM    9  F   UNL     1     -10.941   5.656  67.532  1.00  0.00    -0.299 F  
HETATM   10  C   UNL     1      -9.038   6.284  66.232  1.00  0.00    -0.166 A  
HETATM   11  C   UNL     1      -8.375   7.361  65.609  1.00  0.00    -0.143 A  
HETATM   12  C   UNL     1      -8.851   8.680  65.687  1.00  0.00    -0.227 A  
ENDROOT
BRANCH  10  13
HETATM   13  C   UNL     1      -8.462   4.910  66.209  1.00  0.00    -0.111 A  
HETATM   14  C   UNL     1      -8.160   4.201  67.386  1.00  0.00    -0.099 A  
HETATM   15  C   UNL     1      -7.604   2.915  67.351  1.00  0.00    -0.065 A  
HETATM   16  C   UNL     1      -7.346   2.295  66.133  1.00  0.00    -0.066 A  
HETATM   17  C   UNL     1      -7.637   2.964  64.952  1.00  0.00    -0.076 A  
HETATM   18  C   UNL     1      -8.179   4.256  64.992  1.00  0.00    -0.103 A  
ENDBRANCH  10  13
TORSDOF 1
ENDMDL
MODEL      120
REMARK 921   NORMALIZED FREE ENERGY PREDICTED BY IDOCK:   -3.24 KCAL/MOL
REMARK 922        TOTAL FREE ENERGY PREDICTED BY IDOCK:   -3.82 KCAL/MOL
REMARK 923 INTER-LIGAND FREE ENERGY PREDICTED BY IDOCK:   -3.75 KCAL/MOL
REMARK 924 INTRA-LIGAND FREE ENERGY PREDICTED BY IDOCK:   -0.07 KCAL/MOL
REMARK 927      BINDING AFFINITY PREDICTED BY RF-SCORE:    0.00 PKD
ROOT
HETATM    1  C   UNL     1      -9.289   2.595  70.587  1.00  0.00    -0.215 C  
HETATM    2  C   UNL     1      -8.423   3.631  71.310  1.00  0.00    -0.093 C  
HETATM    3  C   UNL     1      -8.909   5.031  70.964  1.00  0.00    -0.153 A  
HETATM    4  C   UNL     1      -6.941   3.379  71.024  1.00  0.00    -0.033 C  
HETATM    5  C   UNL     1      -9.934   5.620  71.715  1.00  0.00    -0.222 A  
HETATM    6  O   UNL     1      -6.112   4.268  71.623  1.00  0.00    -0.016 OA 
HETATM    7  O   UNL     1      -6.505   2.451  70.356  1.00  0.00    -0.027 OA 
HETATM    8  C   UNL     1     -10.488   6.851  71.338  1.00  0.00    -0.209 A  
HETATM    9  F   UNL     1     -11.504   7.311  72.084  1.00  0.00    -0.254 F  
HETATM   10  C   UNL     1     -10.041   7.564  70.214  1.00  0.00    -0.194 A  
HETATM   11  C   UNL     1      -8.978   6.977  69.498  1.00  0.00    -0.143 A  
HETATM   12  C   UNL     1      -8.434   5.731  69.851  1.00  0.00    -0.123 A  
ENDROOT
BRANCH  10  13
HETATM   13  C   UNL     1     -10.659   8.842  69.762  1.00  0.00    -0.230 A  
HETATM   14  C   UNL     1     -10.627   9.261  68.419  1.00  0.00    -0.234 A  
HETATM   15  C   UNL     1     -11.198  10.474  68.010  1.00  0.00    -0.361 A  
HETATM   16  C   UNL     1     -11.832  11.297  68.934  1.00  0.00    -0.413 A  
HETATM   17  C   UNL     1     -11.887  10.912  70.268  1.00  0.00    -0.450 A  
HETATM   18  C   UNL     1     -11.301   9.706  70.674  1.00  0.00    -0.379 A  
ENDBRANCH  10  13
TORSDOF 1
ENDMDL
MODEL      121
REMARK 921   NORMALIZED FREE ENERGY PREDICTED BY IDOCK:   -3.24 KCAL/MOL
REMARK 922        TOTAL FREE ENERGY PREDICTED BY IDOCK:   -3.82 KCAL/MOL
REMARK 923 INTER-LIGAND FREE ENERGY PREDICTED BY IDOCK:   -3.43 KCAL/MOL
REMARK 924 INTRA-LIGAND FREE ENERGY PREDICTED BY IDOCK:   -0.39 KCAL/MOL
REMARK 927      BINDING AFFINITY PREDICTED BY RF-SCORE:    0.00 PKD
ROOT
HETATM    1  C   UNL     1     -11.065   6.002  71.361  1.00  0.00    -0.336 C  
HETATM    2  C   UNL     1     -11.623   7.148  70.513  1.00  0.00    -0.331 C  
HETATM    3  C   UNL     1     -10.875   7.212  69.189  1.00  0.00    -0.185 A  
HETATM    4  C   UNL     1     -11.622   8.452  71.312  1.00  0.00    -0.283 C  
HETATM    5  C   UNL     1     -11.303   6.433  68.106  1.00  0.00    -0.097 A  
HETATM    6  O   UNL     1     -12.092   9.517  70.618  1.00  0.00    -0.252 OA 
HETATM    7  O   UNL     1     -11.275   8.557  72.480  1.00  0.00    -0.357 OA 
HETATM    8  C   UNL     1     -10.556   6.374  66.921  1.00  0.00    -0.309 A  
HETATM    9  F   UNL     1     -11.012   5.558  65.959  1.00  0.00    -0.259 F  
HETATM   10  C   UNL     1      -9.365   7.097  66.746  1.00  0.00    -0.199 A  
HETATM   11  C   UNL     1      -8.975   7.910  67.830  1.00  0.00    -0.129 A  
HETATM   12  C   UNL     1      -9.701   7.956  69.032  1.00  0.00    -0.162 A  
ENDROOT
BRANCH  10  13
HETATM   13  C   UNL     1      -8.526   6.999  65.519  1.00  0.00    -0.120 A  
HETATM   14  C   UNL     1      -7.821   5.829  65.180  1.00  0.00    -0.105 A  
HETATM   15  C   UNL     1      -7.023   5.754  64.031  1.00  0.00    -0.050 A  
HETATM   16  C   UNL     1      -6.919   6.847  63.178  1.00  0.00    -0.053 A  
HETATM   17  C   UNL     1      -7.605   8.016  63.478  1.00  0.00    -0.133 A  
HETATM   18  C   UNL     1      -8.390   8.091  64.637  1.00  0.00    -0.065 A  
ENDBRANCH  10  13
TORSDOF 1
ENDMDL
MODEL      122
REMARK 921   NORMALIZED FREE ENERGY PREDICTED BY IDOCK:   -3.22 KCAL/MOL
REMARK 922        TOTAL FREE ENERGY PREDICTED BY IDOCK:   -3.80 KCAL/MOL
REMARK 923 INTER-LIGAND FREE ENERGY PREDICTED BY IDOCK:   -3.40 KCAL/MOL
REMARK 924 INTRA-LIGAND FREE ENERGY PREDICTED BY IDOCK:   -0.41 KCAL/MOL
REMARK 927      BINDING AFFINITY PREDICTED BY RF-SCORE:    0.00 PKD
ROOT
HETATM    1  C   UNL     1      -9.279  11.536  67.860  1.00  0.00    -0.168 C  
HETATM    2  C   UNL     1     -10.322  10.774  68.682  1.00  0.00    -0.208 C  
HETATM    3  C   UNL     1     -10.102   9.276  68.521  1.00  0.00    -0.211 A  
HETATM    4  C   UNL     1     -11.732  11.255  68.332  1.00  0.00    -0.294 C  
HETATM    5  C   UNL     1      -9.204   8.608  69.364  1.00  0.00    -0.150 A  
HETATM    6  O   UNL     1     -12.711  10.613  69.014  1.00  0.00    -0.116 OA 
HETATM    7  O   UNL     1     -11.988  12.156  67.546  1.00  0.00    -0.544 OA 
HETATM    8  C   UNL     1      -8.886   7.259  69.152  1.00  0.00    -0.136 A  
HETATM    9  F   UNL     1      -7.973   6.717  69.973  1.00  0.00    -0.105 F  
HETATM   10  C   UNL     1      -9.455   6.506  68.112  1.00  0.00    -0.114 A  
HETATM   11  C   UNL     1     -10.390   7.184  67.304  1.00  0.00    -0.342 A  
HETATM   12  C   UNL     1     -10.696   8.542  67.490  1.00  0.00    -0.211 A  
ENDROOT
BRANCH  10  13
HETATM   13  C   UNL     1      -9.082   5.091  67.834  1.00  0.00    -0.126 A  
HETATM   14  C   UNL     1      -8.135   4.740  66.855  1.00  0.00    -0.107 A  
HETATM   15  C   UNL     1      -7.804   3.403  66.593  1.00  0.00    -0.081 A  
HETATM   16  C   UNL     1      -8.405   2.378  67.315  1.00  0.00    -0.091 A  
HETATM   17  C   UNL     1      -9.341   2.688  68.292  1.00  0.00    -0.258 A  
HETATM   18  C   UNL     1      -9.679   4.026  68.540  1.00  0.00    -0.134 A  
ENDBRANCH  10  13
TORSDOF 1
ENDMDL
MODEL      123
REMARK 921   NORMALIZED FREE ENERGY PREDICTED BY IDOCK:   -3.17 KCAL/MOL
REMARK 922        TOTAL FREE ENERGY PREDICTED BY IDOCK:   -3.75 KCAL/MOL
REMARK 923 INTER-LIGAND FREE ENERGY PREDICTED BY IDOCK:   -3.35 KCAL/MOL
REMARK 924 INTRA-LIGAND FREE ENERGY PREDICTED BY IDOCK:   -0.40 KCAL/MOL
REMARK 927      BINDING AFFINITY PREDICTED BY RF-SCORE:    0.00 PKD
ROOT
HETATM    1  C   UNL     1     -11.441  10.739  70.318  1.00  0.00    -0.406 C  
HETATM    2  C   UNL     1     -11.708  10.881  68.817  1.00  0.00    -0.355 C  
HETATM    3  C   UNL     1     -10.670  10.083  68.038  1.00  0.00    -0.303 A  
HETATM    4  C   UNL     1     -11.802  12.357  68.429  1.00  0.00    -0.309 C  
HETATM    5  C   UNL     1     -10.889   8.725  67.773  1.00  0.00    -0.087 A  
HETATM    6  O   UNL     1     -12.025  12.560  67.108  1.00  0.00    -0.484 OA 
HETATM    7  O   UNL     1     -11.728  13.293  69.214  1.00  0.00    -0.288 OA 
HETATM    8  C   UNL     1      -9.894   7.939  67.174  1.00  0.00    -0.208 A  
HETATM    9  F   UNL     1     -10.170   6.636  67.010  1.00  0.00    -0.192 F  
HETATM   10  C   UNL     1      -8.648   8.464  66.794  1.00  0.00    -0.123 A  
HETATM   11  C   UNL     1      -8.465   9.842  67.028  1.00  0.00    -0.121 A  
HETATM   12  C   UNL     1      -9.444  10.633  67.651  1.00  0.00    -0.167 A  
ENDROOT
BRANCH  10  13
HETATM   13  C   UNL     1      -7.557   7.631  66.215  1.00  0.00    -0.088 A  
HETATM   14  C   UNL     1      -7.641   7.069  64.928  1.00  0.00    -0.106 A  
HETATM   15  C   UNL     1      -6.615   6.274  64.400  1.00  0.00    -0.034 A  
HETATM   16  C   UNL     1      -5.466   6.029  65.144  1.00  0.00    -0.017 A  
HETATM   17  C   UNL     1      -5.347   6.572  66.416  1.00  0.00    -0.013 A  
HETATM   18  C   UNL     1      -6.383   7.354  66.945  1.00  0.00    -0.048 A  
ENDBRANCH  10  13
TORSDOF 1
ENDMDL
MODEL      124
REMARK 921   NORMALIZED FREE ENERGY PREDICTED BY IDOCK:   -3.11 KCAL/MOL
REMARK 922        TOTAL FREE ENERGY PREDICTED BY IDOCK:   -3.69 KCAL/MOL
REMARK 923 INTER-LIGAND FREE ENERGY PREDICTED BY IDOCK:   -3.51 KCAL/MOL
REMARK 924 INTRA-LIGAND FREE ENERGY PREDICTED BY IDOCK:   -0.17 KCAL/MOL
REMARK 927      BINDING AFFINITY PREDICTED BY RF-SCORE:    0.00 PKD
ROOT
HETATM    1  C   UNL     1      -9.215   3.979  70.341  1.00  0.00    -0.204 C  
HETATM    2  C   UNL     1      -8.545   5.189  70.998  1.00  0.00    -0.130 C  
HETATM    3  C   UNL     1      -8.893   6.449  70.217  1.00  0.00    -0.151 A  
HETATM    4  C   UNL     1      -7.047   4.939  71.174  1.00  0.00    -0.052 C  
HETATM    5  C   UNL     1     -10.066   7.155  70.516  1.00  0.00    -0.202 A  
HETATM    6  O   UNL     1      -6.384   5.977  71.740  1.00  0.00    -0.043 OA 
HETATM    7  O   UNL     1      -6.472   3.900  70.881  1.00  0.00    -0.025 OA 
HETATM    8  C   UNL     1     -10.474   8.240  69.728  1.00  0.00    -0.220 A  
HETATM    9  F   UNL     1     -11.640   8.819  70.054  1.00  0.00    -0.180 F  
HETATM   10  C   UNL     1      -9.732   8.688  68.622  1.00  0.00    -0.171 A  
HETATM   11  C   UNL     1      -8.532   7.994  68.366  1.00  0.00    -0.127 A  
HETATM   12  C   UNL     1      -8.127   6.889  69.133  1.00  0.00    -0.121 A  
ENDROOT
BRANCH  10  13
HETATM   13  C   UNL     1     -10.183   9.799  67.737  1.00  0.00    -0.254 A  
HETATM   14  C   UNL     1      -9.991   9.776  66.344  1.00  0.00    -0.314 A  
HETATM   15  C   UNL     1     -10.405  10.834  65.524  1.00  0.00    -0.308 A  
HETATM   16  C   UNL     1     -11.037  11.943  66.076  1.00  0.00    -0.369 A  
HETATM   17  C   UNL     1     -11.247  11.997  67.448  1.00  0.00    -0.368 A  
HETATM   18  C   UNL     1     -10.817  10.942  68.265  1.00  0.00    -0.272 A  
ENDBRANCH  10  13
TORSDOF 1
ENDMDL
MODEL      125
REMARK 921   NORMALIZED FREE ENERGY PREDICTED BY IDOCK:   -3.03 KCAL/MOL
REMARK 922        TOTAL FREE ENERGY PREDICTED BY IDOCK:   -3.60 KCAL/MOL
REMARK 923 INTER-LIGAND FREE ENERGY PREDICTED BY IDOCK:   -3.51 KCAL/MOL
REMARK 924 INTRA-LIGAND FREE ENERGY PREDICTED BY IDOCK:   -0.10 KCAL/MOL
REMARK 927      BINDING AFFINITY PREDICTED BY RF-SCORE:    0.00 PKD
ROOT
HETATM    1  C   UNL     1     -11.120   5.926  72.047  1.00  0.00    -0.329 C  
HETATM    2  C   UNL     1     -10.248   7.178  72.174  1.00  0.00    -0.207 C  
HETATM    3  C   UNL     1      -9.896   7.696  70.786  1.00  0.00    -0.177 A  
HETATM    4  C   UNL     1      -9.045   6.901  73.077  1.00  0.00    -0.127 C  
HETATM    5  C   UNL     1     -10.765   8.578  70.129  1.00  0.00    -0.240 A  
HETATM    6  O   UNL     1      -8.219   7.965  73.225  1.00  0.00    -0.147 OA 
HETATM    7  O   UNL     1      -8.835   5.846  73.658  1.00  0.00    -0.125 OA 
HETATM    8  C   UNL     1     -10.530   8.966  68.803  1.00  0.00    -0.200 A  
HETATM    9  F   UNL     1     -11.444   9.767  68.235  1.00  0.00    -0.192 F  
HETATM   10  C   UNL     1      -9.417   8.514  68.073  1.00  0.00    -0.154 A  
HETATM   11  C   UNL     1      -8.532   7.665  68.767  1.00  0.00    -0.129 A  
HETATM   12  C   UNL     1      -8.771   7.249  70.086  1.00  0.00    -0.140 A  
ENDROOT
BRANCH  10  13
HETATM   13  C   UNL     1      -9.185   8.866  66.644  1.00  0.00    -0.215 A  
HETATM   14  C   UNL     1      -8.503   8.010  65.759  1.00  0.00    -0.159 A  
HETATM   15  C   UNL     1      -8.278   8.359  64.421  1.00  0.00    -0.141 A  
HETATM   16  C   UNL     1      -8.741   9.573  63.926  1.00  0.00    -0.238 A  
HETATM   17  C   UNL     1      -9.423  10.440  64.769  1.00  0.00    -0.329 A  
HETATM   18  C   UNL     1      -9.633  10.093  66.111  1.00  0.00    -0.256 A  
ENDBRANCH  10  13
TORSDOF 1
ENDMDL
MODEL      126
REMARK 921   NORMALIZED FREE ENERGY PREDICTED BY IDOCK:   -3.01 KCAL/MOL
REMARK 922        TOTAL FREE ENERGY PREDICTED BY IDOCK:   -3.58 KCAL/MOL
REMARK 923 INTER-LIGAND FREE ENERGY PREDICTED BY IDOCK:   -3.30 KCAL/MOL
REMARK 924 INTRA-LIGAND FREE ENERGY PREDICTED BY IDOCK:   -0.28 KCAL/MOL
REMARK 927      BINDING AFFINITY PREDICTED BY RF-SCORE:    0.00 PKD
ROOT
HETATM    1  C   UNL     1     -11.347  16.789  68.598  1.00  0.00    -0.062 C  
HETATM    2  C   UNL     1     -10.908  15.884  69.752  1.00  0.00    -0.328 C  
HETATM    3  C   UNL     1     -10.098  14.717  69.204  1.00  0.00    -0.201 A  
HETATM    4  C   UNL     1     -12.113  15.483  70.604  1.00  0.00    -0.389 C  
HETATM    5  C   UNL     1      -8.717  14.853  69.014  1.00  0.00    -0.177 A  
HETATM    6  O   UNL     1     -11.800  14.668  71.641  1.00  0.00    -0.342 OA 
HETATM    7  O   UNL     1     -13.259  15.871  70.422  1.00  0.00    -0.305 OA 
HETATM    8  C   UNL     1      -7.973  13.843  68.390  1.00  0.00    -0.144 A  
HETATM    9  F   UNL     1      -6.666  14.084  68.199  1.00  0.00    -0.081 F  
HETATM   10  C   UNL     1      -8.556  12.645  67.944  1.00  0.00    -0.181 A  
HETATM   11  C   UNL     1      -9.938  12.508  68.186  1.00  0.00    -0.224 A  
HETATM   12  C   UNL     1     -10.698  13.526  68.786  1.00  0.00    -0.261 A  
ENDROOT
BRANCH  10  13
HETATM   13  C   UNL     1      -7.793  11.588  67.224  1.00  0.00    -0.153 A  
HETATM   14  C   UNL     1      -8.241  11.028  66.013  1.00  0.00    -0.129 A  
HETATM   15  C   UNL     1      -7.521  10.022  65.354  1.00  0.00    -0.139 A  
HETATM   16  C   UNL     1      -6.323   9.557  65.883  1.00  0.00    -0.075 A  
HETATM   17  C   UNL     1      -5.848  10.090  67.074  1.00  0.00    -0.051 A  
HETATM   18  C   UNL     1      -6.579  11.084  67.737  1.00  0.00    -0.063 A  
ENDBRANCH  10  13
TORSDOF 1
ENDMDL
MODEL      127
REMARK 921   NORMALIZED FREE ENERGY PREDICTED BY IDOCK:   -3.01 KCAL/MOL
REMARK 922        TOTAL FREE ENERGY PREDICTED BY IDOCK:   -3.58 KCAL/MOL
REMARK 923 INTER-LIGAND FREE ENERGY PREDICTED BY IDOCK:   -3.31 KCAL/MOL
REMARK 924 INTRA-LIGAND FREE ENERGY PREDICTED BY IDOCK:   -0.27 KCAL/MOL
REMARK 927      BINDING AFFINITY PREDICTED BY RF-SCORE:    0.00 PKD
ROOT
HETATM    1  C   UNL     1      -6.574   5.703  69.683  1.00  0.00    -0.050 C  
HETATM    2  C   UNL     1      -8.079   5.519  69.463  1.00  0.00    -0.101 C  
HETATM    3  C   UNL     1      -8.743   6.882  69.328  1.00  0.00    -0.135 A  
HETATM    4  C   UNL     1      -8.671   4.624  70.553  1.00  0.00    -0.102 C  
HETATM    5  C   UNL     1      -8.811   7.504  68.074  1.00  0.00    -0.127 A  
HETATM    6  O   UNL     1     -10.007   4.427  70.430  1.00  0.00    -0.218 OA 
HETATM    7  O   UNL     1      -8.028   4.087  71.444  1.00  0.00    -0.069 OA 
HETATM    8  C   UNL     1      -9.299   8.811  67.944  1.00  0.00    -0.142 A  
HETATM    9  F   UNL     1      -9.274   9.347  66.714  1.00  0.00    -0.144 F  
HETATM   10  C   UNL     1      -9.758   9.556  69.044  1.00  0.00    -0.170 A  
HETATM   11  C   UNL     1      -9.723   8.896  70.289  1.00  0.00    -0.212 A  
HETATM   12  C   UNL     1      -9.212   7.596  70.435  1.00  0.00    -0.156 A  
ENDROOT
BRANCH  10  13
HETATM   13  C   UNL     1     -10.221  10.967  68.934  1.00  0.00    -0.218 A  
HETATM   14  C   UNL     1     -11.442  11.404  69.478  1.00  0.00    -0.381 A  
HETATM   15  C   UNL     1     -11.873  12.732  69.354  1.00  0.00    -0.359 A  
HETATM   16  C   UNL     1     -11.085  13.666  68.691  1.00  0.00    -0.299 A  
HETATM   17  C   UNL     1      -9.871  13.271  68.146  1.00  0.00    -0.231 A  
HETATM   18  C   UNL     1      -9.451  11.938  68.259  1.00  0.00    -0.197 A  
ENDBRANCH  10  13
TORSDOF 1
ENDMDL
MODEL      128
REMARK 921   NORMALIZED FREE ENERGY PREDICTED BY IDOCK:   -2.98 KCAL/MOL
REMARK 922        TOTAL FREE ENERGY PREDICTED BY IDOCK:   -3.55 KCAL/MOL
REMARK 923 INTER-LIGAND FREE ENERGY PREDICTED BY IDOCK:   -3.15 KCAL/MOL
REMARK 924 INTRA-LIGAND FREE ENERGY PREDICTED BY IDOCK:   -0.41 KCAL/MOL
REMARK 927      BINDING AFFINITY PREDICTED BY RF-SCORE:    0.00 PKD
ROOT
HETATM    1  C   UNL     1      -9.811   6.189  73.021  1.00  0.00    -0.173 C  
HETATM    2  C   UNL     1     -10.967   5.907  72.057  1.00  0.00    -0.319 C  
HETATM    3  C   UNL     1     -10.411   5.423  70.725  1.00  0.00    -0.317 A  
HETATM    4  C   UNL     1     -11.890   7.122  71.962  1.00  0.00    -0.295 C  
HETATM    5  C   UNL     1     -10.146   4.061  70.531  1.00  0.00     0.007 A  
HETATM    6  O   UNL     1     -12.932   6.950  71.113  1.00  0.00    -0.336 OA 
HETATM    7  O   UNL     1     -11.756   8.155  72.603  1.00  0.00    -0.399 OA 
HETATM    8  C   UNL     1      -9.515   3.608  69.365  1.00  0.00    -0.179 A  
HETATM    9  F   UNL     1      -9.250   2.295  69.292  1.00  0.00    -0.139 F  
HETATM   10  C   UNL     1      -9.134   4.478  68.330  1.00  0.00    -0.158 A  
HETATM   11  C   UNL     1      -9.450   5.838  68.524  1.00  0.00    -0.141 A  
HETATM   12  C   UNL     1     -10.058   6.306  69.700  1.00  0.00    -0.215 A  
ENDROOT
BRANCH  10  13
HETATM   13  C   UNL     1      -8.406   4.024  67.112  1.00  0.00    -0.099 A  
HETATM   14  C   UNL     1      -9.037   3.896  65.861  1.00  0.00    -0.146 A  
HETATM   15  C   UNL     1      -8.345   3.452  64.727  1.00  0.00    -0.090 A  
HETATM   16  C   UNL     1      -6.994   3.135  64.810  1.00  0.00    -0.053 A  
HETATM   17  C   UNL     1      -6.337   3.254  66.027  1.00  0.00    -0.032 A  
HETATM   18  C   UNL     1      -7.038   3.684  67.163  1.00  0.00    -0.059 A  
ENDBRANCH  10  13
TORSDOF 1
ENDMDL
MODEL      129
REMARK 921   NORMALIZED FREE ENERGY PREDICTED BY IDOCK:   -2.97 KCAL/MOL
REMARK 922        TOTAL FREE ENERGY PREDICTED BY IDOCK:   -3.54 KCAL/MOL
REMARK 923 INTER-LIGAND FREE ENERGY PREDICTED BY IDOCK:   -3.16 KCAL/MOL
REMARK 924 INTRA-LIGAND FREE ENERGY PREDICTED BY IDOCK:   -0.38 KCAL/MOL
REMARK 927      BINDING AFFINITY PREDICTED BY RF-SCORE:    0.00 PKD
ROOT
HETATM    1  C   UNL     1     -10.129   3.060  72.285  1.00  0.00    -0.219 C  
HETATM    2  C   UNL     1      -9.875   4.412  72.957  1.00  0.00    -0.180 C  
HETATM    3  C   UNL     1      -9.787   5.500  71.895  1.00  0.00    -0.210 A  
HETATM    4  C   UNL     1      -8.663   4.327  73.886  1.00  0.00    -0.097 C  
HETATM    5  C   UNL     1     -10.953   6.136  71.448  1.00  0.00    -0.334 A  
HETATM    6  O   UNL     1      -8.370   5.495  74.508  1.00  0.00    -0.106 OA 
HETATM    7  O   UNL     1      -8.019   3.310  74.104  1.00  0.00    -0.068 OA 
HETATM    8  C   UNL     1     -10.915   7.045  70.382  1.00  0.00    -0.268 A  
HETATM    9  F   UNL     1     -12.088   7.562  69.985  1.00  0.00    -0.003 F  
HETATM   10  C   UNL     1      -9.721   7.380  69.722  1.00  0.00    -0.170 A  
HETATM   11  C   UNL     1      -8.553   6.764  70.216  1.00  0.00    -0.140 A  
HETATM   12  C   UNL     1      -8.583   5.832  71.266  1.00  0.00    -0.129 A  
ENDROOT
BRANCH  10  13
HETATM   13  C   UNL     1      -9.670   8.295  68.547  1.00  0.00    -0.165 A  
HETATM   14  C   UNL     1     -10.031   9.652  68.634  1.00  0.00    -0.179 A  
HETATM   15  C   UNL     1      -9.994  10.498  67.518  1.00  0.00    -0.204 A  
HETATM   16  C   UNL     1      -9.581  10.012  66.283  1.00  0.00    -0.256 A  
HETATM   17  C   UNL     1      -9.213   8.679  66.162  1.00  0.00    -0.271 A  
HETATM   18  C   UNL     1      -9.266   7.832  67.277  1.00  0.00    -0.162 A  
ENDBRANCH  10  13
TORSDOF 1
ENDMDL
MODEL      130
REMARK 921   NORMALIZED FREE ENERGY PREDICTED BY IDOCK:   -2.74 KCAL/MOL
REMARK 922        TOTAL FREE ENERGY PREDICTED BY IDOCK:   -3.29 KCAL/MOL
REMARK 923 INTER-LIGAND FREE ENERGY PREDICTED BY IDOCK:   -2.89 KCAL/MOL
REMARK 924 INTRA-LIGAND FREE ENERGY PREDICTED BY IDOCK:   -0.41 KCAL/MOL
REMARK 927      BINDING AFFINITY PREDICTED BY RF-SCORE:    0.00 PKD
ROOT
HETATM    1  C   UNL     1      -8.748   2.428  66.058  1.00  0.00    -0.123 C  
HETATM    2  C   UNL     1      -8.102   3.805  66.236  1.00  0.00    -0.100 C  
HETATM    3  C   UNL     1      -8.409   4.334  67.630  1.00  0.00    -0.098 A  
HETATM    4  C   UNL     1      -8.510   4.737  65.094  1.00  0.00    -0.135 C  
HETATM    5  C   UNL     1      -7.576   3.996  68.705  1.00  0.00    -0.058 A  
HETATM    6  O   UNL     1      -7.985   5.982  65.193  1.00  0.00    -0.109 OA 
HETATM    7  O   UNL     1      -9.210   4.414  64.144  1.00  0.00    -0.153 OA 
HETATM    8  C   UNL     1      -7.908   4.361  70.016  1.00  0.00    -0.053 A  
HETATM    9  F   UNL     1      -7.081   3.945  70.988  1.00  0.00    -0.031 F  
HETATM   10  C   UNL     1      -9.068   5.091  70.323  1.00  0.00    -0.164 A  
HETATM   11  C   UNL     1      -9.870   5.460  69.223  1.00  0.00    -0.249 A  
HETATM   12  C   UNL     1      -9.560   5.077  67.908  1.00  0.00    -0.176 A  
ENDROOT
BRANCH  10  13
HETATM   13  C   UNL     1      -9.469   5.433  71.716  1.00  0.00    -0.177 A  
HETATM   14  C   UNL     1      -8.853   6.467  72.445  1.00  0.00    -0.134 A  
HETATM   15  C   UNL     1      -9.229   6.768  73.761  1.00  0.00    -0.190 A  
HETATM   16  C   UNL     1     -10.244   6.050  74.382  1.00  0.00    -0.309 A  
HETATM   17  C   UNL     1     -10.878   5.026  73.691  1.00  0.00    -0.369 A  
HETATM   18  C   UNL     1     -10.489   4.719  72.380  1.00  0.00    -0.258 A  
ENDBRANCH  10  13
TORSDOF 1
ENDMDL
MODEL      131
REMARK 921   NORMALIZED FREE ENERGY PREDICTED BY IDOCK:   -2.72 KCAL/MOL
REMARK 922        TOTAL FREE ENERGY PREDICTED BY IDOCK:   -3.27 KCAL/MOL
REMARK 923 INTER-LIGAND FREE ENERGY PREDICTED BY IDOCK:   -2.86 KCAL/MOL
REMARK 924 INTRA-LIGAND FREE ENERGY PREDICTED BY IDOCK:   -0.41 KCAL/MOL
REMARK 927      BINDING AFFINITY PREDICTED BY RF-SCORE:    0.00 PKD
ROOT
HETATM    1  C   UNL     1     -10.373   9.724  69.994  1.00  0.00    -0.307 C  
HETATM    2  C   UNL     1      -9.724   8.704  70.933  1.00  0.00    -0.254 C  
HETATM    3  C   UNL     1      -9.273   7.490  70.132  1.00  0.00    -0.154 A  
HETATM    4  C   UNL     1     -10.657   8.388  72.103  1.00  0.00    -0.329 C  
HETATM    5  C   UNL     1      -8.008   7.482  69.530  1.00  0.00    -0.126 A  
HETATM    6  O   UNL     1     -10.151   7.478  72.972  1.00  0.00    -0.231 OA 
HETATM    7  O   UNL     1     -11.745   8.913  72.292  1.00  0.00    -0.354 OA 
HETATM    8  C   UNL     1      -7.621   6.436  68.682  1.00  0.00    -0.093 A  
HETATM    9  F   UNL     1      -6.414   6.540  68.104  1.00  0.00    -0.040 F  
HETATM   10  C   UNL     1      -8.459   5.342  68.405  1.00  0.00    -0.096 A  
HETATM   11  C   UNL     1      -9.709   5.347  69.057  1.00  0.00    -0.208 A  
HETATM   12  C   UNL     1     -10.117   6.403  69.888  1.00  0.00    -0.206 A  
ENDROOT
BRANCH  10  13
HETATM   13  C   UNL     1      -8.089   4.254  67.458  1.00  0.00    -0.099 A  
HETATM   14  C   UNL     1      -8.571   4.210  66.136  1.00  0.00    -0.113 A  
HETATM   15  C   UNL     1      -8.228   3.171  65.260  1.00  0.00    -0.094 A  
HETATM   16  C   UNL     1      -7.381   2.152  65.678  1.00  0.00    -0.066 A  
HETATM   17  C   UNL     1      -6.883   2.165  66.975  1.00  0.00    -0.040 A  
HETATM   18  C   UNL     1      -7.241   3.198  67.852  1.00  0.00    -0.050 A  
ENDBRANCH  10  13
TORSDOF 1
ENDMDL
MODEL      132
REMARK 921   NORMALIZED FREE ENERGY PREDICTED BY IDOCK:   -2.65 KCAL/MOL
REMARK 922        TOTAL FREE ENERGY PREDICTED BY IDOCK:   -3.20 KCAL/MOL
REMARK 923 INTER-LIGAND FREE ENERGY PREDICTED BY IDOCK:   -2.79 KCAL/MOL
REMARK 924 INTRA-LIGAND FREE ENERGY PREDICTED BY IDOCK:   -0.41 KCAL/MOL
REMARK 927      BINDING AFFINITY PREDICTED BY RF-SCORE:    0.00 PKD
ROOT
HETATM    1  C   UNL     1      -9.361  10.312  67.579  1.00  0.00    -0.164 C  
HETATM    2  C   UNL     1      -8.419   9.126  67.355  1.00  0.00    -0.115 C  
HETATM    3  C   UNL     1      -8.574   8.131  68.496  1.00  0.00    -0.130 A  
HETATM    4  C   UNL     1      -6.988   9.617  67.124  1.00  0.00    -0.085 C  
HETATM    5  C   UNL     1      -9.561   7.138  68.427  1.00  0.00    -0.137 A  
HETATM    6  O   UNL     1      -6.094   8.617  66.931  1.00  0.00    -0.055 OA 
HETATM    7  O   UNL     1      -6.652  10.792  67.074  1.00  0.00    -0.074 OA 
HETATM    8  C   UNL     1      -9.810   6.294  69.518  1.00  0.00    -0.154 A  
HETATM    9  F   UNL     1     -10.812   5.411  69.382  1.00  0.00    -0.356 F  
HETATM   10  C   UNL     1      -9.085   6.380  70.717  1.00  0.00    -0.151 A  
HETATM   11  C   UNL     1      -8.067   7.355  70.750  1.00  0.00    -0.110 A  
HETATM   12  C   UNL     1      -7.826   8.223  69.673  1.00  0.00    -0.102 A  
ENDROOT
BRANCH  10  13
HETATM   13  C   UNL     1      -9.378   5.534  71.908  1.00  0.00    -0.163 A  
HETATM   14  C   UNL     1      -8.639   4.375  72.209  1.00  0.00    -0.118 A  
HETATM   15  C   UNL     1      -8.935   3.579  73.324  1.00  0.00    -0.104 A  
HETATM   16  C   UNL     1      -9.974   3.929  74.178  1.00  0.00    -0.181 A  
HETATM   17  C   UNL     1     -10.722   5.069  73.915  1.00  0.00    -0.356 A  
HETATM   18  C   UNL     1     -10.431   5.854  72.790  1.00  0.00    -0.239 A  
ENDBRANCH  10  13
TORSDOF 1
ENDMDL
MODEL      133
REMARK 921   NORMALIZED FREE ENERGY PREDICTED BY IDOCK:   -2.48 KCAL/MOL
REMARK 922        TOTAL FREE ENERGY PREDICTED BY IDOCK:   -3.02 KCAL/MOL
REMARK 923 INTER-LIGAND FREE ENERGY PREDICTED BY IDOCK:   -2.66 KCAL/MOL
REMARK 924 INTRA-LIGAND FREE ENERGY PREDICTED BY IDOCK:   -0.36 KCAL/MOL
REMARK 927      BINDING AFFINITY PREDICTED BY RF-SCORE:    0.00 PKD
ROOT
HETATM    1  C   UNL     1      -9.990   3.647  64.798  1.00  0.00    -0.160 C  
HETATM    2  C   UNL     1      -8.579   3.904  65.335  1.00  0.00    -0.114 C  
HETATM    3  C   UNL     1      -8.667   4.640  66.664  1.00  0.00    -0.111 A  
HETATM    4  C   UNL     1      -7.724   4.599  64.274  1.00  0.00    -0.078 C  
HETATM    5  C   UNL     1      -8.802   3.915  67.856  1.00  0.00    -0.133 A  
HETATM    6  O   UNL     1      -6.461   4.871  64.685  1.00  0.00    -0.036 OA 
HETATM    7  O   UNL     1      -8.095   4.865  63.140  1.00  0.00    -0.082 OA 
HETATM    8  C   UNL     1      -9.015   4.570  69.077  1.00  0.00    -0.109 A  
HETATM    9  F   UNL     1      -9.190   3.793  70.157  1.00  0.00    -0.148 F  
HETATM   10  C   UNL     1      -9.087   5.969  69.177  1.00  0.00    -0.124 A  
HETATM   11  C   UNL     1      -8.904   6.681  67.975  1.00  0.00    -0.115 A  
HETATM   12  C   UNL     1      -8.716   6.035  66.742  1.00  0.00    -0.119 A  
ENDROOT
BRANCH  10  13
HETATM   13  C   UNL     1      -9.376   6.679  70.455  1.00  0.00    -0.167 A  
HETATM   14  C   UNL     1     -10.508   7.498  70.622  1.00  0.00    -0.221 A  
HETATM   15  C   UNL     1     -10.760   8.172  71.825  1.00  0.00    -0.313 A  
HETATM   16  C   UNL     1      -9.891   8.035  72.901  1.00  0.00    -0.357 A  
HETATM   17  C   UNL     1      -8.766   7.231  72.773  1.00  0.00    -0.148 A  
HETATM   18  C   UNL     1      -8.510   6.570  71.563  1.00  0.00    -0.125 A  
ENDBRANCH  10  13
TORSDOF 1
ENDMDL
MODEL      134
REMARK 921   NORMALIZED FREE ENERGY PREDICTED BY IDOCK:   -2.31 KCAL/MOL
REMARK 922        TOTAL FREE ENERGY PREDICTED BY IDOCK:   -2.84 KCAL/MOL
REMARK 923 INTER-LIGAND FREE ENERGY PREDICTED BY IDOCK:   -2.79 KCAL/MOL
REMARK 924 INTRA-LIGAND FREE ENERGY PREDICTED BY IDOCK:   -0.05 KCAL/MOL
REMARK 927      BINDING AFFINITY PREDICTED BY RF-SCORE:    0.00 PKD
ROOT
HETATM    1  C   UNL     1      -8.908  10.875  67.111  1.00  0.00    -0.135 C  
HETATM    2  C   UNL     1      -9.745  10.861  68.393  1.00  0.00    -0.179 C  
HETATM    3  C   UNL     1      -9.331   9.679  69.258  1.00  0.00    -0.184 A  
HETATM    4  C   UNL     1     -11.237  10.915  68.056  1.00  0.00    -0.314 C  
HETATM    5  C   UNL     1      -8.267   9.814  70.161  1.00  0.00    -0.202 A  
HETATM    6  O   UNL     1     -12.042  10.892  69.145  1.00  0.00    -0.362 OA 
HETATM    7  O   UNL     1     -11.696  11.009  66.926  1.00  0.00    -0.336 OA 
HETATM    8  C   UNL     1      -7.782   8.709  70.873  1.00  0.00    -0.097 A  
HETATM    9  F   UNL     1      -6.725   8.920  71.672  1.00  0.00    -0.075 F  
HETATM   10  C   UNL     1      -8.338   7.426  70.740  1.00  0.00    -0.119 A  
HETATM   11  C   UNL     1      -9.436   7.320  69.861  1.00  0.00    -0.157 A  
HETATM   12  C   UNL     1      -9.913   8.415  69.123  1.00  0.00    -0.197 A  
ENDROOT
BRANCH  10  13
HETATM   13  C   UNL     1      -7.796   6.228  71.440  1.00  0.00    -0.104 A  
HETATM   14  C   UNL     1      -7.000   6.328  72.596  1.00  0.00    -0.075 A  
HETATM   15  C   UNL     1      -6.483   5.194  73.237  1.00  0.00    -0.061 A  
HETATM   16  C   UNL     1      -6.760   3.923  72.745  1.00  0.00    -0.041 A  
HETATM   17  C   UNL     1      -7.546   3.787  71.608  1.00  0.00    -0.056 A  
HETATM   18  C   UNL     1      -8.048   4.925  70.962  1.00  0.00    -0.092 A  
ENDBRANCH  10  13
TORSDOF 1
ENDMDL
MODEL      135
REMARK 921   NORMALIZED FREE ENERGY PREDICTED BY IDOCK:   -2.15 KCAL/MOL
REMARK 922        TOTAL FREE ENERGY PREDICTED BY IDOCK:   -2.67 KCAL/MOL
REMARK 923 INTER-LIGAND FREE ENERGY PREDICTED BY IDOCK:   -2.27 KCAL/MOL
REMARK 924 INTRA-LIGAND FREE ENERGY PREDICTED BY IDOCK:   -0.41 KCAL/MOL
REMARK 927      BINDING AFFINITY PREDICTED BY RF-SCORE:    0.00 PKD
ROOT
HETATM    1  C   UNL     1      -6.731  10.574  69.943  1.00  0.00    -0.142 C  
HETATM    2  C   UNL     1      -8.120  10.243  69.389  1.00  0.00    -0.167 C  
HETATM    3  C   UNL     1      -8.260   8.734  69.236  1.00  0.00    -0.108 A  
HETATM    4  C   UNL     1      -8.391  11.043  68.114  1.00  0.00    -0.130 C  
HETATM    5  C   UNL     1      -8.697   7.960  70.319  1.00  0.00    -0.138 A  
HETATM    6  O   UNL     1      -9.601  10.790  67.559  1.00  0.00    -0.157 OA 
HETATM    7  O   UNL     1      -7.629  11.870  67.632  1.00  0.00    -0.118 OA 
HETATM    8  C   UNL     1      -8.709   6.561  70.245  1.00  0.00    -0.151 A  
HETATM    9  F   UNL     1      -9.089   5.900  71.350  1.00  0.00    -0.137 F  
HETATM   10  C   UNL     1      -8.308   5.864  69.093  1.00  0.00    -0.106 A  
HETATM   11  C   UNL     1      -7.916   6.663  67.999  1.00  0.00    -0.110 A  
HETATM   12  C   UNL     1      -7.874   8.065  68.071  1.00  0.00    -0.126 A  
ENDROOT
BRANCH  10  13
HETATM   13  C   UNL     1      -8.255   4.377  69.018  1.00  0.00    -0.083 A  
HETATM   14  C   UNL     1      -7.042   3.665  69.045  1.00  0.00    -0.050 A  
HETATM   15  C   UNL     1      -7.005   2.267  68.958  1.00  0.00    -0.040 A  
HETATM   16  C   UNL     1      -8.185   1.539  68.854  1.00  0.00    -0.065 A  
HETATM   17  C   UNL     1      -9.401   2.210  68.830  1.00  0.00    -0.221 A  
HETATM   18  C   UNL     1      -9.432   3.609  68.902  1.00  0.00    -0.218 A  
ENDBRANCH  10  13
TORSDOF 1
ENDMDL
MODEL      136
REMARK 921   NORMALIZED FREE ENERGY PREDICTED BY IDOCK:   -2.10 KCAL/MOL
REMARK 922        TOTAL FREE ENERGY PREDICTED BY IDOCK:   -2.62 KCAL/MOL
REMARK 923 INTER-LIGAND FREE ENERGY PREDICTED BY IDOCK:   -2.60 KCAL/MOL
REMARK 924 INTRA-LIGAND FREE ENERGY PREDICTED BY IDOCK:   -0.02 KCAL/MOL
REMARK 927      BINDING AFFINITY PREDICTED BY RF-SCORE:    0.00 PKD
ROOT
HETATM    1  C   UNL     1      -7.755  12.133  68.248  1.00  0.00    -0.135 C  
HETATM    2  C   UNL     1      -9.156  11.518  68.322  1.00  0.00    -0.185 C  
HETATM    3  C   UNL     1      -9.047  10.051  68.714  1.00  0.00    -0.148 A  
HETATM    4  C   UNL     1      -9.922  11.778  67.024  1.00  0.00    -0.204 C  
HETATM    5  C   UNL     1      -9.006   9.691  70.068  1.00  0.00    -0.266 A  
HETATM    6  O   UNL     1     -11.169  11.249  67.012  1.00  0.00    -0.298 OA 
HETATM    7  O   UNL     1      -9.497  12.430  66.080  1.00  0.00    -0.232 OA 
HETATM    8  C   UNL     1      -8.775   8.363  70.453  1.00  0.00    -0.141 A  
HETATM    9  F   UNL     1      -8.695   8.121  71.770  1.00  0.00    -0.129 F  
HETATM   10  C   UNL     1      -8.593   7.330  69.519  1.00  0.00    -0.134 A  
HETATM   11  C   UNL     1      -8.683   7.705  68.163  1.00  0.00    -0.122 A  
HETATM   12  C   UNL     1      -8.887   9.036  67.765  1.00  0.00    -0.125 A  
ENDROOT
BRANCH  10  13
HETATM   13  C   UNL     1      -8.284   5.925  69.910  1.00  0.00    -0.117 A  
HETATM   14  C   UNL     1      -8.508   4.837  69.047  1.00  0.00    -0.087 A  
HETATM   15  C   UNL     1      -8.229   3.519  69.433  1.00  0.00    -0.069 A  
HETATM   16  C   UNL     1      -7.703   3.254  70.692  1.00  0.00    -0.043 A  
HETATM   17  C   UNL     1      -7.464   4.305  71.568  1.00  0.00    -0.060 A  
HETATM   18  C   UNL     1      -7.760   5.619  71.183  1.00  0.00    -0.104 A  
ENDBRANCH  10  13
TORSDOF 1
ENDMDL
MODEL      137
REMARK 921   NORMALIZED FREE ENERGY PREDICTED BY IDOCK:   -2.09 KCAL/MOL
REMARK 922        TOTAL FREE ENERGY PREDICTED BY IDOCK:   -2.61 KCAL/MOL
REMARK 923 INTER-LIGAND FREE ENERGY PREDICTED BY IDOCK:   -2.20 KCAL/MOL
REMARK 924 INTRA-LIGAND FREE ENERGY PREDICTED BY IDOCK:   -0.41 KCAL/MOL
REMARK 927      BINDING AFFINITY PREDICTED BY RF-SCORE:    0.00 PKD
ROOT
HETATM    1  C   UNL     1      -8.553   2.650  66.378  1.00  0.00    -0.112 C  
HETATM    2  C   UNL     1      -7.463   3.590  65.858  1.00  0.00    -0.077 C  
HETATM    3  C   UNL     1      -7.879   5.035  66.100  1.00  0.00    -0.099 A  
HETATM    4  C   UNL     1      -7.120   3.258  64.405  1.00  0.00    -0.057 C  
HETATM    5  C   UNL     1      -7.584   5.651  67.324  1.00  0.00    -0.089 A  
HETATM    6  O   UNL     1      -6.168   4.062  63.872  1.00  0.00    -0.021 OA 
HETATM    7  O   UNL     1      -7.609   2.339  63.763  1.00  0.00    -0.057 OA 
HETATM    8  C   UNL     1      -8.069   6.932  67.620  1.00  0.00    -0.113 A  
HETATM    9  F   UNL     1      -7.786   7.419  68.838  1.00  0.00    -0.103 F  
HETATM   10  C   UNL     1      -8.851   7.668  66.714  1.00  0.00    -0.150 A  
HETATM   11  C   UNL     1      -9.097   7.050  65.472  1.00  0.00     0.185 A  
HETATM   12  C   UNL     1      -8.639   5.756  65.174  1.00  0.00    -0.110 A  
ENDROOT
BRANCH  10  13
HETATM   13  C   UNL     1      -9.427   9.004  67.036  1.00  0.00    -0.212 A  
HETATM   14  C   UNL     1     -10.625   9.153  67.759  1.00  0.00    -0.289 A  
HETATM   15  C   UNL     1     -11.164  10.415  68.042  1.00  0.00    -0.340 A  
HETATM   16  C   UNL     1     -10.511  11.567  67.619  1.00  0.00    -0.218 A  
HETATM   17  C   UNL     1      -9.324  11.458  66.908  1.00  0.00    -0.191 A  
HETATM   18  C   UNL     1      -8.796  10.193  66.614  1.00  0.00    -0.145 A  
ENDBRANCH  10  13
TORSDOF 1
ENDMDL
MODEL      138
REMARK 921   NORMALIZED FREE ENERGY PREDICTED BY IDOCK:   -2.07 KCAL/MOL
REMARK 922        TOTAL FREE ENERGY PREDICTED BY IDOCK:   -2.58 KCAL/MOL
REMARK 923 INTER-LIGAND FREE ENERGY PREDICTED BY IDOCK:   -2.64 KCAL/MOL
REMARK 924 INTRA-LIGAND FREE ENERGY PREDICTED BY IDOCK:    0.05 KCAL/MOL
REMARK 927      BINDING AFFINITY PREDICTED BY RF-SCORE:    0.00 PKD
ROOT
HETATM    1  C   UNL     1     -10.744  11.775  64.054  1.00  0.00    -0.434 C  
HETATM    2  C   UNL     1      -9.716  12.595  64.838  1.00  0.00     0.033 C  
HETATM    3  C   UNL     1      -9.126  11.741  65.952  1.00  0.00    -0.128 A  
HETATM    4  C   UNL     1     -10.330  13.917  65.303  1.00  0.00    -0.378 C  
HETATM    5  C   UNL     1      -8.019  10.922  65.692  1.00  0.00    -0.037 A  
HETATM    6  O   UNL     1      -9.479  14.692  66.018  1.00  0.00    -0.288 OA 
HETATM    7  O   UNL     1     -11.465  14.291  65.041  1.00  0.00    -0.333 OA 
HETATM    8  C   UNL     1      -7.539  10.031  66.661  1.00  0.00    -0.104 A  
HETATM    9  F   UNL     1      -6.511   9.246  66.305  1.00  0.00    -0.062 F  
HETATM   10  C   UNL     1      -8.121   9.921  67.936  1.00  0.00    -0.109 A  
HETATM   11  C   UNL     1      -9.205  10.785  68.192  1.00  0.00    -0.151 A  
HETATM   12  C   UNL     1      -9.710  11.663  67.220  1.00  0.00    -0.192 A  
ENDROOT
BRANCH  10  13
HETATM   13  C   UNL     1      -7.664   8.935  68.955  1.00  0.00    -0.090 A  
HETATM   14  C   UNL     1      -8.220   8.876  70.247  1.00  0.00    -0.134 A  
HETATM   15  C   UNL     1      -7.770   7.954  71.202  1.00  0.00    -0.085 A  
HETATM   16  C   UNL     1      -6.759   7.054  70.886  1.00  0.00    -0.053 A  
HETATM   17  C   UNL     1      -6.192   7.081  69.619  1.00  0.00    -0.034 A  
HETATM   18  C   UNL     1      -6.634   8.015  68.672  1.00  0.00    -0.057 A  
ENDBRANCH  10  13
TORSDOF 1
ENDMDL
MODEL      139
REMARK 921   NORMALIZED FREE ENERGY PREDICTED BY IDOCK:   -2.05 KCAL/MOL
REMARK 922        TOTAL FREE ENERGY PREDICTED BY IDOCK:   -2.56 KCAL/MOL
REMARK 923 INTER-LIGAND FREE ENERGY PREDICTED BY IDOCK:   -2.16 KCAL/MOL
REMARK 924 INTRA-LIGAND FREE ENERGY PREDICTED BY IDOCK:   -0.40 KCAL/MOL
REMARK 927      BINDING AFFINITY PREDICTED BY RF-SCORE:    0.00 PKD
ROOT
HETATM    1  C   UNL     1      -6.468   4.415  71.630  1.00  0.00    -0.019 C  
HETATM    2  C   UNL     1      -7.922   4.831  71.391  1.00  0.00    -0.101 C  
HETATM    3  C   UNL     1      -8.313   4.510  69.955  1.00  0.00    -0.077 A  
HETATM    4  C   UNL     1      -8.133   6.290  71.800  1.00  0.00    -0.103 C  
HETATM    5  C   UNL     1      -8.806   3.238  69.633  1.00  0.00    -0.148 A  
HETATM    6  O   UNL     1      -9.398   6.733  71.603  1.00  0.00    -0.152 OA 
HETATM    7  O   UNL     1      -7.277   7.008  72.298  1.00  0.00    -0.072 OA 
HETATM    8  C   UNL     1      -9.049   2.876  68.302  1.00  0.00    -0.171 A  
HETATM    9  F   UNL     1      -9.466   1.619  68.083  1.00  0.00    -0.181 F  
HETATM   10  C   UNL     1      -8.834   3.759  67.230  1.00  0.00    -0.137 A  
HETATM   11  C   UNL     1      -8.382   5.048  67.579  1.00  0.00    -0.105 A  
HETATM   12  C   UNL     1      -8.110   5.413  68.907  1.00  0.00    -0.094 A  
ENDROOT
BRANCH  10  13
HETATM   13  C   UNL     1      -9.028   3.371  65.805  1.00  0.00    -0.143 A  
HETATM   14  C   UNL     1      -8.161   2.482  65.143  1.00  0.00    -0.083 A  
HETATM   15  C   UNL     1      -8.345   2.137  63.797  1.00  0.00    -0.081 A  
HETATM   16  C   UNL     1      -9.412   2.663  63.078  1.00  0.00    -0.093 A  
HETATM   17  C   UNL     1     -10.290   3.540  63.701  1.00  0.00    -0.237 A  
HETATM   18  C   UNL     1     -10.094   3.893  65.043  1.00  0.00    -0.167 A  
ENDBRANCH  10  13
TORSDOF 1
ENDMDL
MODEL      140
REMARK 921   NORMALIZED FREE ENERGY PREDICTED BY IDOCK:   -1.20 KCAL/MOL
REMARK 922        TOTAL FREE ENERGY PREDICTED BY IDOCK:   -1.67 KCAL/MOL
REMARK 923 INTER-LIGAND FREE ENERGY PREDICTED BY IDOCK:   -1.48 KCAL/MOL
REMARK 924 INTRA-LIGAND FREE ENERGY PREDICTED BY IDOCK:   -0.19 KCAL/MOL
REMARK 927      BINDING AFFINITY PREDICTED BY RF-SCORE:    0.00 PKD
ROOT
HETATM    1  C   UNL     1     -10.304   8.299  70.934  1.00  0.00    -0.225 C  
HETATM    2  C   UNL     1     -11.439   8.882  70.087  1.00  0.00    -0.047 C  
HETATM    3  C   UNL     1     -10.984  10.190  69.457  1.00  0.00    -0.295 A  
HETATM    4  C   UNL     1     -12.723   8.982  70.913  1.00  0.00     0.014 C  
HETATM    5  C   UNL     1     -10.307  10.177  68.230  1.00  0.00    -0.215 A  
HETATM    6  O   UNL     1     -13.771   9.503  70.229  1.00  0.00     0.414 OA 
HETATM    7  O   UNL     1     -12.842   8.602  72.069  1.00  0.00    -0.336 OA 
HETATM    8  C   UNL     1      -9.764  11.352  67.694  1.00  0.00    -0.172 A  
HETATM    9  F   UNL     1      -9.084  11.234  66.543  1.00  0.00    -0.163 F  
HETATM   10  C   UNL     1      -9.881  12.596  68.337  1.00  0.00    -0.200 A  
HETATM   11  C   UNL     1     -10.603  12.596  69.547  1.00  0.00     0.381 A  
HETATM   12  C   UNL     1     -11.129  11.420  70.107  1.00  0.00     0.064 A  
ENDROOT
BRANCH  10  13
HETATM   13  C   UNL     1      -9.256  13.843  67.813  1.00  0.00    -0.197 A  
HETATM   14  C   UNL     1      -9.206  14.141  66.439  1.00  0.00    -0.209 A  
HETATM   15  C   UNL     1      -8.601  15.310  65.959  1.00  0.00     0.298 A  
HETATM   16  C   UNL     1      -8.040  16.224  66.844  1.00  0.00    -0.270 A  
HETATM   17  C   UNL     1      -8.076  15.965  68.207  1.00  0.00    -0.144 A  
HETATM   18  C   UNL     1      -8.669  14.787  68.682  1.00  0.00    -0.178 A  
ENDBRANCH  10  13
TORSDOF 1
ENDMDL
MODEL      141
REMARK 921   NORMALIZED FREE ENERGY PREDICTED BY IDOCK:    0.75 KCAL/MOL
REMARK 922        TOTAL FREE ENERGY PREDICTED BY IDOCK:    0.40 KCAL/MOL
REMARK 923 INTER-LIGAND FREE ENERGY PREDICTED BY IDOCK:    0.79 KCAL/MOL
REMARK 924 INTRA-LIGAND FREE ENERGY PREDICTED BY IDOCK:   -0.39 KCAL/MOL
REMARK 927      BINDING AFFINITY PREDICTED BY RF-SCORE:    0.00 PKD
ROOT
HETATM    1  C   UNL     1      -5.818   5.221  69.991  1.00  0.00    -0.017 C  
HETATM    2  C   UNL     1      -6.853   4.695  68.993  1.00  0.00    -0.050 C  
HETATM    3  C   UNL     1      -7.256   5.814  68.042  1.00  0.00    -0.072 A  
HETATM    4  C   UNL     1      -8.017   4.032  69.731  1.00  0.00    -0.055 C  
HETATM    5  C   UNL     1      -6.509   6.046  66.880  1.00  0.00    -0.050 A  
HETATM    6  O   UNL     1      -8.981   3.553  68.908  1.00  0.00    -0.101 OA 
HETATM    7  O   UNL     1      -8.088   3.893  70.944  1.00  0.00    -0.064 OA 
HETATM    8  C   UNL     1      -6.780   7.148  66.058  1.00  0.00    -0.053 A  
HETATM    9  F   UNL     1      -5.976   7.324  64.997  1.00  0.00    -0.035 F  
HETATM   10  C   UNL     1      -7.813   8.059  66.336  1.00  0.00    -0.097 A  
HETATM   11  C   UNL     1      -8.582   7.781  67.485  1.00  0.00    -0.122 A  
HETATM   12  C   UNL     1      -8.303   6.695  68.330  1.00  0.00    -0.117 A  
ENDROOT
BRANCH  10  13
HETATM   13  C   UNL     1      -8.075   9.270  65.509  1.00  0.00    -0.113 A  
HETATM   14  C   UNL     1      -9.222   9.399  64.705  1.00  0.00    -0.220 A  
HETATM   15  C   UNL     1      -9.449  10.537  63.919  1.00  0.00    -0.338 A  
HETATM   16  C   UNL     1      -8.537  11.586  63.926  1.00  0.00     0.635 A  
HETATM   17  C   UNL     1      -7.396  11.495  64.711  1.00  0.00     1.800 A  
HETATM   18  C   UNL     1      -7.166  10.348  65.484  1.00  0.00    -0.138 A  
ENDBRANCH  10  13
TORSDOF 1
ENDMDL
MODEL      142
REMARK 921   NORMALIZED FREE ENERGY PREDICTED BY IDOCK:    0.75 KCAL/MOL
REMARK 922        TOTAL FREE ENERGY PREDICTED BY IDOCK:    0.41 KCAL/MOL
REMARK 923 INTER-LIGAND FREE ENERGY PREDICTED BY IDOCK:    0.81 KCAL/MOL
REMARK 924 INTRA-LIGAND FREE ENERGY PREDICTED BY IDOCK:   -0.40 KCAL/MOL
REMARK 927      BINDING AFFINITY PREDICTED BY RF-SCORE:    0.00 PKD
ROOT
HETATM    1  C   UNL     1     -12.713  11.996  66.587  1.00  0.00     2.395 C  
HETATM    2  C   UNL     1     -11.474  12.184  67.467  1.00  0.00    -0.410 C  
HETATM    3  C   UNL     1     -10.438  11.123  67.121  1.00  0.00    -0.270 A  
HETATM    4  C   UNL     1     -11.872  12.233  68.943  1.00  0.00    -0.303 C  
HETATM    5  C   UNL     1      -9.523  11.352  66.085  1.00  0.00    -0.237 A  
HETATM    6  O   UNL     1     -10.821  12.386  69.785  1.00  0.00     0.157 OA 
HETATM    7  O   UNL     1     -13.020  12.182  69.361  1.00  0.00     0.787 OA 
HETATM    8  C   UNL     1      -8.648  10.343  65.662  1.00  0.00    -0.167 A  
HETATM    9  F   UNL     1      -7.847  10.633  64.625  1.00  0.00    -0.137 F  
HETATM   10  C   UNL     1      -8.624   9.070  66.255  1.00  0.00    -0.140 A  
HETATM   11  C   UNL     1      -9.520   8.875  67.326  1.00  0.00    -0.195 A  
HETATM   12  C   UNL     1     -10.420   9.870  67.741  1.00  0.00    -0.292 A  
ENDROOT
BRANCH  10  13
HETATM   13  C   UNL     1      -7.744   7.967  65.778  1.00  0.00    -0.090 A  
HETATM   14  C   UNL     1      -6.351   7.975  65.974  1.00  0.00    -0.046 A  
HETATM   15  C   UNL     1      -5.533   6.938  65.505  1.00  0.00    -0.027 A  
HETATM   16  C   UNL     1      -6.090   5.854  64.837  1.00  0.00    -0.026 A  
HETATM   17  C   UNL     1      -7.462   5.810  64.630  1.00  0.00    -0.077 A  
HETATM   18  C   UNL     1      -8.274   6.856  65.087  1.00  0.00    -0.115 A  
ENDBRANCH  10  13
TORSDOF 1
ENDMDL
MODEL      143
REMARK 921   NORMALIZED FREE ENERGY PREDICTED BY IDOCK:    3.52 KCAL/MOL
REMARK 922        TOTAL FREE ENERGY PREDICTED BY IDOCK:    3.33 KCAL/MOL
REMARK 923 INTER-LIGAND FREE ENERGY PREDICTED BY IDOCK:    3.74 KCAL/MOL
REMARK 924 INTRA-LIGAND FREE ENERGY PREDICTED BY IDOCK:   -0.41 KCAL/MOL
REMARK 927      BINDING AFFINITY PREDICTED BY RF-SCORE:    0.00 PKD
ROOT
HETATM    1  C   UNL     1     -11.948  13.082  69.075  1.00  0.00    -0.312 C  
HETATM    2  C   UNL     1     -11.356  12.812  70.461  1.00  0.00     0.771 C  
HETATM    3  C   UNL     1     -10.732  11.423  70.486  1.00  0.00     1.408 A  
HETATM    4  C   UNL     1     -12.404  13.061  71.546  1.00  0.00     0.091 C  
HETATM    5  C   UNL     1      -9.404  11.246  70.075  1.00  0.00     1.687 A  
HETATM    6  O   UNL     1     -11.953  12.828  72.803  1.00  0.00     2.165 OA 
HETATM    7  O   UNL     1     -13.539  13.470  71.342  1.00  0.00    -0.239 OA 
HETATM    8  C   UNL     1      -8.849   9.964  69.964  1.00  0.00    -0.160 A  
HETATM    9  F   UNL     1      -7.589   9.888  69.508  1.00  0.00    -0.078 F  
HETATM   10  C   UNL     1      -9.574   8.801  70.272  1.00  0.00    -0.198 A  
HETATM   11  C   UNL     1     -10.893   9.003  70.727  1.00  0.00    -0.310 A  
HETATM   12  C   UNL     1     -11.468  10.281  70.816  1.00  0.00    -0.438 A  
ENDROOT
BRANCH  10  13
HETATM   13  C   UNL     1      -9.021   7.429  70.100  1.00  0.00    -0.148 A  
HETATM   14  C   UNL     1      -8.134   6.853  71.028  1.00  0.00    -0.106 A  
HETATM   15  C   UNL     1      -7.608   5.567  70.847  1.00  0.00    -0.090 A  
HETATM   16  C   UNL     1      -7.967   4.813  69.736  1.00  0.00    -0.066 A  
HETATM   17  C   UNL     1      -8.845   5.348  68.802  1.00  0.00    -0.107 A  
HETATM   18  C   UNL     1      -9.356   6.640  68.980  1.00  0.00    -0.133 A  
ENDBRANCH  10  13
TORSDOF 1
ENDMDL
MODEL      144
REMARK 921   NORMALIZED FREE ENERGY PREDICTED BY IDOCK:    9.38 KCAL/MOL
REMARK 922        TOTAL FREE ENERGY PREDICTED BY IDOCK:    9.54 KCAL/MOL
REMARK 923 INTER-LIGAND FREE ENERGY PREDICTED BY IDOCK:    9.76 KCAL/MOL
REMARK 924 INTRA-LIGAND FREE ENERGY PREDICTED BY IDOCK:   -0.23 KCAL/MOL
REMARK 927      BINDING AFFINITY PREDICTED BY RF-SCORE:    0.00 PKD
ROOT
HETATM    1  C   UNL     1      -7.794  13.595  69.495  1.00  0.00     0.647 C  
HETATM    2  C   UNL     1      -8.830  12.490  69.268  1.00  0.00     0.946 C  
HETATM    3  C   UNL     1      -8.305  11.177  69.832  1.00  0.00     1.078 A  
HETATM    4  C   UNL     1      -9.238  12.437  67.795  1.00  0.00    -0.193 C  
HETATM    5  C   UNL     1      -8.518  10.861  71.180  1.00  0.00     5.379 A  
HETATM    6  O   UNL     1     -10.146  11.470  67.517  1.00  0.00    -0.181 OA 
HETATM    7  O   UNL     1      -8.835  13.201  66.929  1.00  0.00    -0.217 OA 
HETATM    8  C   UNL     1      -7.934   9.723  71.754  1.00  0.00     1.816 A  
HETATM    9  F   UNL     1      -8.146   9.530  73.065  1.00  0.00     0.922 F  
HETATM   10  C   UNL     1      -7.130   8.838  71.017  1.00  0.00    -0.084 A  
HETATM   11  C   UNL     1      -6.965   9.149  69.652  1.00  0.00    -0.055 A  
HETATM   12  C   UNL     1      -7.523  10.300  69.073  1.00  0.00    -0.097 A  
ENDROOT
BRANCH  10  13
HETATM   13  C   UNL     1      -6.450   7.659  71.625  1.00  0.00    -0.039 A  
HETATM   14  C   UNL     1      -5.807   7.722  72.874  1.00  0.00    -0.045 A  
HETATM   15  C   UNL     1      -5.158   6.610  73.428  1.00  0.00    -0.037 A  
HETATM   16  C   UNL     1      -5.146   5.396  72.750  1.00  0.00    -0.017 A  
HETATM   17  C   UNL     1      -5.775   5.296  71.516  1.00  0.00    -0.013 A  
HETATM   18  C   UNL     1      -6.410   6.416  70.960  1.00  0.00    -0.048 A  
ENDBRANCH  10  13
TORSDOF 1
ENDMDL
MODEL      145
REMARK 921   NORMALIZED FREE ENERGY PREDICTED BY IDOCK:   33.05 KCAL/MOL
REMARK 922        TOTAL FREE ENERGY PREDICTED BY IDOCK:   34.59 KCAL/MOL
REMARK 923 INTER-LIGAND FREE ENERGY PREDICTED BY IDOCK:   35.00 KCAL/MOL
REMARK 924 INTRA-LIGAND FREE ENERGY PREDICTED BY IDOCK:   -0.41 KCAL/MOL
REMARK 927      BINDING AFFINITY PREDICTED BY RF-SCORE:    0.00 PKD
ROOT
HETATM    1  C   UNL     1     -11.269  12.733  69.361  1.00  0.00    -0.198 C  
HETATM    2  C   UNL     1     -10.043  12.509  70.251  1.00  0.00     3.330 C  
HETATM    3  C   UNL     1      -9.278  11.286  69.765  1.00  0.00     1.091 A  
HETATM    4  C   UNL     1     -10.455  12.462  71.724  1.00  0.00    10.208 C  
HETATM    5  C   UNL     1      -8.309  11.422  68.762  1.00  0.00    -0.096 A  
HETATM    6  O   UNL     1      -9.419  12.252  72.572  1.00  0.00    18.725 OA 
HETATM    7  O   UNL     1     -11.593  12.631  72.137  1.00  0.00     2.804 OA 
HETATM    8  C   UNL     1      -7.685  10.297  68.206  1.00  0.00    -0.092 A  
HETATM    9  F   UNL     1      -6.812  10.519  67.211  1.00  0.00    -0.075 F  
HETATM   10  C   UNL     1      -7.977   8.989  68.629  1.00  0.00    -0.102 A  
HETATM   11  C   UNL     1      -8.920   8.877  69.670  1.00  0.00    -0.147 A  
HETATM   12  C   UNL     1      -9.571   9.995  70.216  1.00  0.00    -0.075 A  
ENDROOT
BRANCH  10  13
HETATM   13  C   UNL     1      -7.370   7.779  68.006  1.00  0.00    -0.102 A  
HETATM   14  C   UNL     1      -6.066   7.349  68.311  1.00  0.00    -0.032 A  
HETATM   15  C   UNL     1      -5.501   6.218  67.707  1.00  0.00    -0.005 A  
HETATM   16  C   UNL     1      -6.233   5.475  66.788  1.00  0.00    -0.035 A  
HETATM   17  C   UNL     1      -7.526   5.867  66.467  1.00  0.00    -0.087 A  
HETATM   18  C   UNL     1      -8.081   7.008  67.063  1.00  0.00    -0.117 A  
ENDBRANCH  10  13
TORSDOF 1
ENDMDL
MODEL      146
REMARK 921   NORMALIZED FREE ENERGY PREDICTED BY IDOCK:   47.77 KCAL/MOL
REMARK 922        TOTAL FREE ENERGY PREDICTED BY IDOCK:   50.17 KCAL/MOL
REMARK 923 INTER-LIGAND FREE ENERGY PREDICTED BY IDOCK:   50.53 KCAL/MOL
REMARK 924 INTRA-LIGAND FREE ENERGY PREDICTED BY IDOCK:   -0.36 KCAL/MOL
REMARK 927      BINDING AFFINITY PREDICTED BY RF-SCORE:    0.00 PKD
ROOT
HETATM    1  C   UNL     1     -10.878  13.981  64.773  1.00  0.00    -0.430 C  
HETATM    2  C   UNL     1     -11.522  15.322  65.136  1.00  0.00    -0.260 C  
HETATM    3  C   UNL     1     -11.129  15.708  66.555  1.00  0.00    -0.135 A  
HETATM    4  C   UNL     1     -13.029  15.276  64.879  1.00  0.00     0.856 C  
HETATM    5  C   UNL     1      -9.941  16.414  66.784  1.00  0.00    -0.277 A  
HETATM    6  O   UNL     1     -13.670  16.429  65.192  1.00  0.00     4.111 OA 
HETATM    7  O   UNL     1     -13.629  14.323  64.403  1.00  0.00     1.013 OA 
HETATM    8  C   UNL     1      -9.492  16.666  68.087  1.00  0.00    -0.228 A  
HETATM    9  F   UNL     1      -8.315  17.299  68.210  1.00  0.00    -0.209 F  
HETATM   10  C   UNL     1     -10.206  16.248  69.223  1.00  0.00    -0.269 A  
HETATM   11  C   UNL     1     -11.422  15.580  68.972  1.00  0.00    -0.361 A  
HETATM   12  C   UNL     1     -11.868  15.298  67.670  1.00  0.00    -0.076 A  
ENDROOT
BRANCH  10  13
HETATM   13  C   UNL     1      -9.714  16.452  70.614  1.00  0.00     1.933 A  
HETATM   14  C   UNL     1      -8.513  15.885  71.078  1.00  0.00     3.764 A  
HETATM   15  C   UNL     1      -8.068  16.072  72.394  1.00  0.00    11.414 A  
HETATM   16  C   UNL     1      -8.809  16.844  73.281  1.00  0.00    17.703 A  
HETATM   17  C   UNL     1      -9.997  17.424  72.855  1.00  0.00     8.948 A  
HETATM   18  C   UNL     1     -10.445  17.222  71.543  1.00  0.00     3.038 A  
ENDBRANCH  10  13
TORSDOF 1
ENDMDL
