MODEL        1
REMARK 921   NORMALIZED FREE ENERGY PREDICTED BY IDOCK:   -8.54 KCAL/MOL
REMARK 922        TOTAL FREE ENERGY PREDICTED BY IDOCK:  -12.41 KCAL/MOL
REMARK 923 INTER-LIGAND FREE ENERGY PREDICTED BY IDOCK:  -10.53 KCAL/MOL
REMARK 924 INTRA-LIGAND FREE ENERGY PREDICTED BY IDOCK:   -1.88 KCAL/MOL
REMARK 927      BINDING AFFINITY PREDICTED BY RF-SCORE:    0.00 PKD
ROOT
HETATM    1  F   UNL     1     -12.077  12.392  63.560  1.00  0.00    -0.482 F  
HETATM    2  C   UNL     1     -11.688  13.133  64.606  1.00  0.00    -0.361 A  
HETATM    3  C   UNL     1     -12.357  13.021  65.816  1.00  0.00    -0.477 A  
HETATM    4  C   UNL     1     -11.986  13.836  66.889  1.00  0.00    -0.460 A  
HETATM    5  C   UNL     1     -10.932  14.762  66.764  1.00  0.00    -0.327 A  
HETATM    6  C   UNL     1     -10.584  15.680  67.949  1.00  0.00    -0.278 C  
HETATM    7  C   UNL     1     -10.217  14.781  65.553  1.00  0.00    -0.400 A  
HETATM    8  C   UNL     1      -9.507  15.017  68.859  1.00  0.00    -0.211 C  
HETATM    9  C   UNL     1     -10.617  14.001  64.467  1.00  0.00    -0.332 A  
HETATM   10  C   UNL     1     -10.394  17.184  67.678  1.00  0.00    -0.344 A  
HETATM   11  C   UNL     1     -10.533  17.777  66.410  1.00  0.00    -0.297 A  
HETATM   12  C   UNL     1      -9.971  19.429  68.575  1.00  0.00    -0.520 A  
HETATM   13  F   UNL     1      -9.882  21.276  67.111  1.00  0.00    -0.555 F  
HETATM   14  C   UNL     1     -10.334  19.147  66.215  1.00  0.00    -0.553 A  
HETATM   15  C   UNL     1     -10.056  19.962  67.299  1.00  0.00    -0.432 A  
HETATM   16  C   UNL     1     -10.141  18.053  68.761  1.00  0.00    -0.388 A  
ENDROOT
BRANCH   8  17
HETATM   17  C   UNL     1      -8.154  14.640  68.229  1.00  0.00    -0.143 C  
BRANCH  17  18
HETATM   18  C   UNL     1      -7.276  13.658  69.016  1.00  0.00    -0.049 C  
BRANCH  18  19
HETATM   19  N   UNL     1      -6.889  12.456  68.278  1.00  0.00    -0.073 NA 
HETATM   20  C   UNL     1      -7.935  10.522  69.535  1.00  0.00    -0.119 C  
HETATM   21  C   UNL     1      -6.666  11.254  69.087  1.00  0.00    -0.099 C  
HETATM   22  C   UNL     1      -8.917  10.307  68.378  1.00  0.00    -0.132 C  
HETATM   23  C   UNL     1      -9.117  11.564  67.524  1.00  0.00    -0.166 C  
HETATM   24  N   UNL     1     -10.231   9.711  68.796  1.00  0.00    -0.189 NA 
HETATM   25  O   UNL     1      -7.254   9.093  66.955  1.00  0.00    -0.088 OA 
HETATM   26  C   UNL     1      -7.777  12.193  67.136  1.00  0.00    -0.151 C  
HETATM   27  C   UNL     1     -10.526   8.522  68.009  1.00  0.00    -0.191 C  
HETATM   28  C   UNL     1      -8.354   9.182  67.475  1.00  0.00    -0.116 C  
HETATM   29  N   UNL     1      -9.328   8.236  67.315  1.00  0.00    -0.142 NA 
BRANCH  24  30
HETATM   30  C   UNL     1     -11.158  10.183  69.708  1.00  0.00    -0.279 A  
HETATM   31  C   UNL     1     -11.619  11.504  69.723  1.00  0.00    -0.401 A  
HETATM   32  C   UNL     1     -12.496  11.992  70.707  1.00  0.00    -0.372 A  
HETATM   33  C   UNL     1     -12.970  11.151  71.701  1.00  0.00    -0.548 A  
HETATM   34  C   UNL     1     -12.584   9.822  71.700  1.00  0.00    -0.509 A  
HETATM   35  C   UNL     1     -11.692   9.354  70.719  1.00  0.00    -0.349 A  
ENDBRANCH  24  30
ENDBRANCH  18  19
ENDBRANCH  17  18
ENDBRANCH   8  17
TORSDOF 4
ENDMDL
MODEL        2
REMARK 921   NORMALIZED FREE ENERGY PREDICTED BY IDOCK:   -8.17 KCAL/MOL
REMARK 922        TOTAL FREE ENERGY PREDICTED BY IDOCK:  -11.96 KCAL/MOL
REMARK 923 INTER-LIGAND FREE ENERGY PREDICTED BY IDOCK:  -10.67 KCAL/MOL
REMARK 924 INTRA-LIGAND FREE ENERGY PREDICTED BY IDOCK:   -1.29 KCAL/MOL
REMARK 927      BINDING AFFINITY PREDICTED BY RF-SCORE:    0.00 PKD
ROOT
HETATM    1  F   UNL     1      -9.630   3.067  65.361  1.00  0.00    -0.155 F  
HETATM    2  C   UNL     1      -9.530   4.213  66.047  1.00  0.00    -0.180 A  
HETATM    3  C   UNL     1      -8.292   4.628  66.518  1.00  0.00    -0.106 A  
HETATM    4  C   UNL     1      -8.200   5.794  67.282  1.00  0.00    -0.102 A  
HETATM    5  C   UNL     1      -9.344   6.563  67.572  1.00  0.00    -0.124 A  
HETATM    6  C   UNL     1      -9.214   7.812  68.460  1.00  0.00    -0.137 C  
HETATM    7  C   UNL     1     -10.565   6.161  67.000  1.00  0.00    -0.384 A  
HETATM    8  C   UNL     1      -8.940   9.077  67.592  1.00  0.00    -0.130 C  
HETATM    9  C   UNL     1     -10.666   4.973  66.276  1.00  0.00    -0.262 A  
HETATM   10  C   UNL     1     -10.218   7.999  69.612  1.00  0.00    -0.208 A  
HETATM   11  C   UNL     1     -11.246   7.086  69.914  1.00  0.00    -0.286 A  
HETATM   12  C   UNL     1     -10.952   9.316  71.548  1.00  0.00    -0.446 A  
HETATM   13  F   UNL     1     -12.838   8.628  72.785  1.00  0.00    -0.428 F  
HETATM   14  C   UNL     1     -12.143   7.312  70.962  1.00  0.00    -0.361 A  
HETATM   15  C   UNL     1     -11.988   8.424  71.772  1.00  0.00    -0.325 A  
HETATM   16  C   UNL     1     -10.075   9.103  70.480  1.00  0.00    -0.288 A  
ENDROOT
BRANCH   8  17
HETATM   17  C   UNL     1      -9.969   9.455  66.512  1.00  0.00    -0.339 C  
BRANCH  17  18
HETATM   18  C   UNL     1     -10.908  10.625  66.832  1.00  0.00    -0.205 C  
BRANCH  18  19
HETATM   19  N   UNL     1     -10.553  11.889  66.190  1.00  0.00    -0.249 NA 
HETATM   20  C   UNL     1     -12.264  13.569  67.006  1.00  0.00    -0.351 C  
HETATM   21  C   UNL     1     -11.675  12.766  65.842  1.00  0.00    -0.414 C  
HETATM   22  C   UNL     1     -11.179  14.264  67.836  1.00  0.00    -0.285 C  
HETATM   23  C   UNL     1      -9.999  13.344  68.166  1.00  0.00    -0.237 C  
HETATM   24  N   UNL     1     -11.700  14.955  69.063  1.00  0.00    -0.307 NA 
HETATM   25  O   UNL     1     -10.218  15.493  65.878  1.00  0.00    -0.297 OA 
HETATM   26  C   UNL     1      -9.500  12.609  66.921  1.00  0.00    -0.229 C  
HETATM   27  C   UNL     1     -11.269  16.346  69.089  1.00  0.00    -0.275 C  
HETATM   28  C   UNL     1     -10.650  15.469  67.019  1.00  0.00    -0.311 C  
HETATM   29  N   UNL     1     -10.728  16.585  67.805  1.00  0.00    -0.337 NA 
BRANCH  24  30
HETATM   30  C   UNL     1     -12.408  14.432  70.131  1.00  0.00    -0.348 A  
HETATM   31  C   UNL     1     -13.280  15.190  70.921  1.00  0.00    -0.488 A  
HETATM   32  C   UNL     1     -13.926  14.668  72.054  1.00  0.00    -0.581 A  
HETATM   33  C   UNL     1     -13.741  13.343  72.417  1.00  0.00    -0.698 A  
HETATM   34  C   UNL     1     -12.928  12.538  71.638  1.00  0.00    -0.405 A  
HETATM   35  C   UNL     1     -12.274  13.081  70.518  1.00  0.00    -0.392 A  
ENDBRANCH  24  30
ENDBRANCH  18  19
ENDBRANCH  17  18
ENDBRANCH   8  17
TORSDOF 4
ENDMDL
MODEL        3
REMARK 921   NORMALIZED FREE ENERGY PREDICTED BY IDOCK:   -8.06 KCAL/MOL
REMARK 922        TOTAL FREE ENERGY PREDICTED BY IDOCK:  -11.82 KCAL/MOL
REMARK 923 INTER-LIGAND FREE ENERGY PREDICTED BY IDOCK:  -10.25 KCAL/MOL
REMARK 924 INTRA-LIGAND FREE ENERGY PREDICTED BY IDOCK:   -1.57 KCAL/MOL
REMARK 927      BINDING AFFINITY PREDICTED BY RF-SCORE:    0.00 PKD
ROOT
HETATM    1  F   UNL     1     -12.141  12.484  63.495  1.00  0.00    -0.480 F  
HETATM    2  C   UNL     1     -11.771  13.217  64.553  1.00  0.00    -0.378 A  
HETATM    3  C   UNL     1     -12.495  13.136  65.734  1.00  0.00    -0.441 A  
HETATM    4  C   UNL     1     -12.142  13.944  66.818  1.00  0.00    -0.476 A  
HETATM    5  C   UNL     1     -11.052  14.833  66.733  1.00  0.00    -0.338 A  
HETATM    6  C   UNL     1     -10.724  15.746  67.927  1.00  0.00    -0.302 C  
HETATM    7  C   UNL     1     -10.287  14.820  65.553  1.00  0.00    -0.387 A  
HETATM    8  C   UNL     1      -9.710  15.052  68.886  1.00  0.00    -0.224 C  
HETATM    9  C   UNL     1     -10.666  14.047  64.455  1.00  0.00    -0.355 A  
HETATM   10  C   UNL     1     -10.472  17.241  67.657  1.00  0.00    -0.363 A  
HETATM   11  C   UNL     1     -10.535  17.831  66.381  1.00  0.00    -0.297 A  
HETATM   12  C   UNL     1     -10.010  19.476  68.560  1.00  0.00    -0.538 A  
HETATM   13  F   UNL     1      -9.795  21.309  67.093  1.00  0.00    -0.555 F  
HETATM   14  C   UNL     1     -10.282  19.192  66.189  1.00  0.00    -0.535 A  
HETATM   15  C   UNL     1     -10.022  20.004  67.280  1.00  0.00    -0.435 A  
HETATM   16  C   UNL     1     -10.235  18.108  68.746  1.00  0.00    -0.353 A  
ENDROOT
BRANCH   8  17
HETATM   17  C   UNL     1      -8.346  14.626  68.317  1.00  0.00    -0.148 C  
BRANCH  17  18
HETATM   18  C   UNL     1      -7.807  13.260  68.764  1.00  0.00     0.008 C  
BRANCH  18  19
HETATM   19  N   UNL     1      -7.452  12.355  67.673  1.00  0.00    -0.126 NA 
HETATM   20  C   UNL     1      -7.785  10.019  68.595  1.00  0.00    -0.086 C  
HETATM   21  C   UNL     1      -6.824  11.091  68.071  1.00  0.00    -0.067 C  
HETATM   22  C   UNL     1      -9.001   9.836  67.679  1.00  0.00    -0.128 C  
HETATM   23  C   UNL     1      -9.628  11.167  67.248  1.00  0.00    -0.182 C  
HETATM   24  N   UNL     1     -10.034   8.890  68.221  1.00  0.00    -0.169 NA 
HETATM   25  O   UNL     1      -7.623   9.343  65.649  1.00  0.00    -0.093 OA 
HETATM   26  C   UNL     1      -8.567  12.143  66.738  1.00  0.00    -0.163 C  
HETATM   27  C   UNL     1     -10.342   7.855  67.243  1.00  0.00    -0.307 C  
HETATM   28  C   UNL     1      -8.537   9.077  66.413  1.00  0.00    -0.125 C  
HETATM   29  N   UNL     1      -9.352   7.992  66.243  1.00  0.00    -0.198 NA 
BRANCH  24  30
HETATM   30  C   UNL     1     -10.737   8.945  69.411  1.00  0.00    -0.181 A  
HETATM   31  C   UNL     1     -11.275  10.127  69.933  1.00  0.00    -0.343 A  
HETATM   32  C   UNL     1     -11.912  10.184  71.185  1.00  0.00    -0.480 A  
HETATM   33  C   UNL     1     -12.060   9.036  71.948  1.00  0.00    -0.448 A  
HETATM   34  C   UNL     1     -11.591   7.832  71.451  1.00  0.00    -0.305 A  
HETATM   35  C   UNL     1     -10.940   7.796  70.206  1.00  0.00    -0.252 A  
ENDBRANCH  24  30
ENDBRANCH  18  19
ENDBRANCH  17  18
ENDBRANCH   8  17
TORSDOF 4
ENDMDL
MODEL        4
REMARK 921   NORMALIZED FREE ENERGY PREDICTED BY IDOCK:   -8.02 KCAL/MOL
REMARK 922        TOTAL FREE ENERGY PREDICTED BY IDOCK:  -11.77 KCAL/MOL
REMARK 923 INTER-LIGAND FREE ENERGY PREDICTED BY IDOCK:  -10.88 KCAL/MOL
REMARK 924 INTRA-LIGAND FREE ENERGY PREDICTED BY IDOCK:   -0.89 KCAL/MOL
REMARK 927      BINDING AFFINITY PREDICTED BY RF-SCORE:    0.00 PKD
ROOT
HETATM    1  F   UNL     1      -8.365  16.775  65.716  1.00  0.00    -0.309 F  
HETATM    2  C   UNL     1      -9.183  16.016  66.456  1.00  0.00    -0.276 A  
HETATM    3  C   UNL     1     -10.417  15.635  65.948  1.00  0.00    -0.358 A  
HETATM    4  C   UNL     1     -11.292  14.891  66.743  1.00  0.00    -0.328 A  
HETATM    5  C   UNL     1     -10.935  14.510  68.052  1.00  0.00    -0.269 A  
HETATM    6  C   UNL     1     -11.944  13.736  68.918  1.00  0.00    -0.394 C  
HETATM    7  C   UNL     1      -9.642  14.835  68.498  1.00  0.00    -0.218 A  
HETATM    8  C   UNL     1     -11.762  12.200  68.733  1.00  0.00    -0.374 C  
HETATM    9  C   UNL     1      -8.785  15.617  67.722  1.00  0.00    -0.173 A  
HETATM   10  C   UNL     1     -12.181  14.211  70.364  1.00  0.00    -0.427 A  
HETATM   11  C   UNL     1     -11.539  15.322  70.942  1.00  0.00    -0.382 A  
HETATM   12  C   UNL     1     -13.415  13.951  72.470  1.00  0.00    -0.676 A  
HETATM   13  F   UNL     1     -12.953  15.389  74.281  1.00  0.00    -0.562 F  
HETATM   14  C   UNL     1     -11.778  15.701  72.266  1.00  0.00    -0.579 A  
HETATM   15  C   UNL     1     -12.715  15.013  73.019  1.00  0.00    -0.456 A  
HETATM   16  C   UNL     1     -13.151  13.556  71.154  1.00  0.00    -0.285 A  
ENDROOT
BRANCH   8  17
HETATM   17  C   UNL     1     -10.390  11.585  69.063  1.00  0.00    -0.143 C  
BRANCH  17  18
HETATM   18  C   UNL     1      -9.537  11.123  67.874  1.00  0.00    -0.175 C  
BRANCH  18  19
HETATM   19  N   UNL     1      -8.562  10.081  68.189  1.00  0.00    -0.117 NA 
HETATM   20  C   UNL     1      -9.068   9.374  70.569  1.00  0.00    -0.308 C  
HETATM   21  C   UNL     1      -8.102  10.036  69.581  1.00  0.00    -0.172 C  
HETATM   22  C   UNL     1      -9.590   8.028  70.053  1.00  0.00    -0.171 C  
HETATM   23  C   UNL     1     -10.039   8.084  68.588  1.00  0.00    -0.212 C  
HETATM   24  N   UNL     1     -10.641   7.407  70.928  1.00  0.00    -0.222 NA 
HETATM   25  O   UNL     1      -7.304   7.053  69.755  1.00  0.00    -0.083 OA 
HETATM   26  C   UNL     1      -8.985   8.757  67.708  1.00  0.00    -0.135 C  
HETATM   27  C   UNL     1     -10.269   6.044  71.283  1.00  0.00    -0.205 C  
HETATM   28  C   UNL     1      -8.447   6.992  70.179  1.00  0.00    -0.139 C  
HETATM   29  N   UNL     1      -8.923   5.913  70.870  1.00  0.00    -0.144 NA 
BRANCH  24  30
HETATM   30  C   UNL     1     -11.866   7.913  71.323  1.00  0.00    -0.296 A  
HETATM   31  C   UNL     1     -13.049   7.163  71.310  1.00  0.00    -0.361 A  
HETATM   32  C   UNL     1     -14.301   7.714  71.631  1.00  0.00    -0.613 A  
HETATM   33  C   UNL     1     -14.404   9.043  72.013  1.00  0.00    -0.327 A  
HETATM   34  C   UNL     1     -13.256   9.812  72.093  1.00  0.00    -0.530 A  
HETATM   35  C   UNL     1     -12.013   9.250  71.750  1.00  0.00    -0.455 A  
ENDBRANCH  24  30
ENDBRANCH  18  19
ENDBRANCH  17  18
ENDBRANCH   8  17
TORSDOF 4
ENDMDL
MODEL        5
REMARK 921   NORMALIZED FREE ENERGY PREDICTED BY IDOCK:   -7.90 KCAL/MOL
REMARK 922        TOTAL FREE ENERGY PREDICTED BY IDOCK:  -11.62 KCAL/MOL
REMARK 923 INTER-LIGAND FREE ENERGY PREDICTED BY IDOCK:  -10.35 KCAL/MOL
REMARK 924 INTRA-LIGAND FREE ENERGY PREDICTED BY IDOCK:   -1.27 KCAL/MOL
REMARK 927      BINDING AFFINITY PREDICTED BY RF-SCORE:    0.00 PKD
ROOT
HETATM    1  F   UNL     1      -8.161  20.937  67.533  1.00  0.00    -0.348 F  
HETATM    2  C   UNL     1      -8.865  19.801  67.616  1.00  0.00    -0.329 A  
HETATM    3  C   UNL     1     -10.004  19.639  66.840  1.00  0.00    -0.515 A  
HETATM    4  C   UNL     1     -10.768  18.476  66.969  1.00  0.00    -0.363 A  
HETATM    5  C   UNL     1     -10.393  17.459  67.869  1.00  0.00    -0.369 A  
HETATM    6  C   UNL     1     -11.285  16.216  68.024  1.00  0.00    -0.291 C  
HETATM    7  C   UNL     1      -9.184  17.619  68.571  1.00  0.00    -0.281 A  
HETATM    8  C   UNL     1     -10.848  15.098  67.031  1.00  0.00    -0.314 C  
HETATM    9  C   UNL     1      -8.445  18.799  68.475  1.00  0.00    -0.379 A  
HETATM   10  C   UNL     1     -11.640  15.744  69.447  1.00  0.00    -0.371 A  
HETATM   11  C   UNL     1     -11.208  16.389  70.620  1.00  0.00    -0.211 A  
HETATM   12  C   UNL     1     -12.877  14.181  70.878  1.00  0.00    -0.404 A  
HETATM   13  F   UNL     1     -12.713  14.362  73.224  1.00  0.00    -0.513 F  
HETATM   14  C   UNL     1     -11.546  15.909  71.888  1.00  0.00    -0.542 A  
HETATM   15  C   UNL     1     -12.379  14.809  72.008  1.00  0.00    -0.341 A  
HETATM   16  C   UNL     1     -12.513  14.646  69.610  1.00  0.00    -0.197 A  
ENDROOT
BRANCH   8  17
HETATM   17  C   UNL     1      -9.404  14.572  67.118  1.00  0.00    -0.225 C  
BRANCH  17  18
HETATM   18  C   UNL     1      -9.163  13.368  68.039  1.00  0.00    -0.209 C  
BRANCH  18  19
HETATM   19  N   UNL     1      -8.500  12.232  67.400  1.00  0.00    -0.167 NA 
HETATM   20  C   UNL     1      -8.508  10.382  69.131  1.00  0.00    -0.168 C  
HETATM   21  C   UNL     1      -7.705  11.377  68.286  1.00  0.00    -0.124 C  
HETATM   22  C   UNL     1      -9.534   9.610  68.293  1.00  0.00    -0.136 C  
HETATM   23  C   UNL     1     -10.336  10.514  67.351  1.00  0.00    -0.269 C  
HETATM   24  N   UNL     1     -10.434   8.720  69.102  1.00  0.00    -0.224 NA 
HETATM   25  O   UNL     1      -7.829   8.735  66.684  1.00  0.00    -0.098 OA 
HETATM   26  C   UNL     1      -9.420  11.450  66.561  1.00  0.00    -0.200 C  
HETATM   27  C   UNL     1     -10.407   7.359  68.583  1.00  0.00    -0.198 C  
HETATM   28  C   UNL     1      -8.770   8.567  67.442  1.00  0.00    -0.134 C  
HETATM   29  N   UNL     1      -9.335   7.341  67.660  1.00  0.00    -0.128 NA 
BRANCH  24  30
HETATM   30  C   UNL     1     -11.287   9.045  70.141  1.00  0.00    -0.121 A  
HETATM   31  C   UNL     1     -11.744   8.114  71.082  1.00  0.00    -0.309 A  
HETATM   32  C   UNL     1     -12.677   8.439  72.080  1.00  0.00    -0.399 A  
HETATM   33  C   UNL     1     -13.165   9.732  72.189  1.00  0.00    -0.530 A  
HETATM   34  C   UNL     1     -12.704  10.701  71.315  1.00  0.00    -0.537 A  
HETATM   35  C   UNL     1     -11.784  10.356  70.310  1.00  0.00    -0.406 A  
ENDBRANCH  24  30
ENDBRANCH  18  19
ENDBRANCH  17  18
ENDBRANCH   8  17
TORSDOF 4
ENDMDL
MODEL        6
REMARK 921   NORMALIZED FREE ENERGY PREDICTED BY IDOCK:   -7.71 KCAL/MOL
REMARK 922        TOTAL FREE ENERGY PREDICTED BY IDOCK:  -11.39 KCAL/MOL
REMARK 923 INTER-LIGAND FREE ENERGY PREDICTED BY IDOCK:   -9.74 KCAL/MOL
REMARK 924 INTRA-LIGAND FREE ENERGY PREDICTED BY IDOCK:   -1.65 KCAL/MOL
REMARK 927      BINDING AFFINITY PREDICTED BY RF-SCORE:    0.00 PKD
ROOT
HETATM    1  F   UNL     1     -12.218  12.685  63.265  1.00  0.00    -0.547 F  
HETATM    2  C   UNL     1     -11.600  12.206  64.352  1.00  0.00    -0.350 A  
HETATM    3  C   UNL     1     -10.765  11.103  64.239  1.00  0.00    -0.403 A  
HETATM    4  C   UNL     1     -10.165  10.571  65.384  1.00  0.00    -0.340 A  
HETATM    5  C   UNL     1     -10.387  11.145  66.651  1.00  0.00    -0.286 A  
HETATM    6  C   UNL     1      -9.753  10.502  67.897  1.00  0.00    -0.171 C  
HETATM    7  C   UNL     1     -11.164  12.316  66.712  1.00  0.00    -0.371 A  
HETATM    8  C   UNL     1      -8.352  11.122  68.182  1.00  0.00    -0.136 C  
HETATM    9  C   UNL     1     -11.799  12.821  65.577  1.00  0.00    -0.466 A  
HETATM   10  C   UNL     1     -10.643  10.268  69.132  1.00  0.00    -0.254 A  
HETATM   11  C   UNL     1     -12.010  10.595  69.188  1.00  0.00    -0.230 A  
HETATM   12  C   UNL     1     -10.863   9.370  71.405  1.00  0.00    -0.430 A  
HETATM   13  F   UNL     1     -12.925   9.542  72.536  1.00  0.00    -0.450 F  
HETATM   14  C   UNL     1     -12.770  10.376  70.341  1.00  0.00    -0.289 A  
HETATM   15  C   UNL     1     -12.190   9.764  71.440  1.00  0.00    -0.397 A  
HETATM   16  C   UNL     1     -10.098   9.618  70.260  1.00  0.00    -0.331 A  
ENDROOT
BRANCH   8  17
HETATM   17  C   UNL     1      -8.262  12.639  68.421  1.00  0.00    -0.129 C  
BRANCH  17  18
HETATM   18  C   UNL     1      -6.871  13.276  68.305  1.00  0.00    -0.105 C  
BRANCH  18  19
HETATM   19  N   UNL     1      -6.834  14.535  67.564  1.00  0.00    -0.215 NA 
HETATM   20  C   UNL     1      -9.255  15.226  67.278  1.00  0.00    -0.209 C  
HETATM   21  C   UNL     1      -7.944  14.762  66.634  1.00  0.00     0.342 C  
HETATM   22  C   UNL     1      -9.037  16.380  68.264  1.00  0.00    -0.207 C  
HETATM   23  C   UNL     1      -7.854  16.142  69.209  1.00  0.00    -0.203 C  
HETATM   24  N   UNL     1     -10.273  16.779  69.017  1.00  0.00    -0.292 NA 
HETATM   25  O   UNL     1      -7.930  17.854  66.570  1.00  0.00    -0.242 OA 
HETATM   26  C   UNL     1      -6.609  15.693  68.443  1.00  0.00    -0.116 C  
HETATM   27  C   UNL     1     -10.518  18.208  68.876  1.00  0.00    -0.062 C  
HETATM   28  C   UNL     1      -8.761  17.664  67.443  1.00  0.00    -0.234 C  
HETATM   29  N   UNL     1      -9.628  18.633  67.864  1.00  0.00    -0.301 NA 
BRANCH  24  30
HETATM   30  C   UNL     1     -11.085  16.018  69.839  1.00  0.00    -0.352 A  
HETATM   31  C   UNL     1     -11.297  16.307  71.192  1.00  0.00    -0.297 A  
HETATM   32  C   UNL     1     -12.054  15.477  72.036  1.00  0.00    -0.502 A  
HETATM   33  C   UNL     1     -12.658  14.334  71.536  1.00  0.00    -0.432 A  
HETATM   34  C   UNL     1     -12.521  14.032  70.193  1.00  0.00    -0.380 A  
HETATM   35  C   UNL     1     -11.744  14.863  69.366  1.00  0.00    -0.349 A  
ENDBRANCH  24  30
ENDBRANCH  18  19
ENDBRANCH  17  18
ENDBRANCH   8  17
TORSDOF 4
ENDMDL
MODEL        7
REMARK 921   NORMALIZED FREE ENERGY PREDICTED BY IDOCK:   -7.69 KCAL/MOL
REMARK 922        TOTAL FREE ENERGY PREDICTED BY IDOCK:  -11.37 KCAL/MOL
REMARK 923 INTER-LIGAND FREE ENERGY PREDICTED BY IDOCK:  -10.22 KCAL/MOL
REMARK 924 INTRA-LIGAND FREE ENERGY PREDICTED BY IDOCK:   -1.15 KCAL/MOL
REMARK 927      BINDING AFFINITY PREDICTED BY RF-SCORE:    0.00 PKD
ROOT
HETATM    1  F   UNL     1     -13.650  14.435  72.820  1.00  0.00    -0.489 F  
HETATM    2  C   UNL     1     -12.826  14.507  71.767  1.00  0.00    -0.343 A  
HETATM    3  C   UNL     1     -12.167  15.696  71.488  1.00  0.00    -0.487 A  
HETATM    4  C   UNL     1     -11.351  15.785  70.357  1.00  0.00    -0.389 A  
HETATM    5  C   UNL     1     -11.179  14.680  69.500  1.00  0.00    -0.300 A  
HETATM    6  C   UNL     1     -10.316  14.829  68.235  1.00  0.00    -0.238 C  
HETATM    7  C   UNL     1     -11.789  13.467  69.865  1.00  0.00    -0.385 A  
HETATM    8  C   UNL     1      -8.832  14.459  68.536  1.00  0.00    -0.182 C  
HETATM    9  C   UNL     1     -12.639  13.390  70.969  1.00  0.00    -0.425 A  
HETATM   10  C   UNL     1     -10.877  14.304  66.901  1.00  0.00    -0.298 A  
HETATM   11  C   UNL     1     -12.142  13.705  66.762  1.00  0.00    -0.445 A  
HETATM   12  C   UNL     1     -10.596  14.044  64.477  1.00  0.00    -0.332 A  
HETATM   13  F   UNL     1     -12.269  12.963  63.214  1.00  0.00    -0.553 F  
HETATM   14  C   UNL     1     -12.598  13.230  65.529  1.00  0.00    -0.505 A  
HETATM   15  C   UNL     1     -11.822  13.404  64.396  1.00  0.00    -0.408 A  
HETATM   16  C   UNL     1     -10.130  14.492  65.718  1.00  0.00    -0.365 A  
ENDROOT
BRANCH   8  17
HETATM   17  C   UNL     1      -8.528  13.048  69.068  1.00  0.00     0.445 C  
BRANCH  17  18
HETATM   18  C   UNL     1      -8.980  11.869  68.196  1.00  0.00    -0.185 C  
BRANCH  18  19
HETATM   19  N   UNL     1      -8.116  10.692  68.261  1.00  0.00    -0.113 NA 
HETATM   20  C   UNL     1      -8.706   9.538  70.438  1.00  0.00    -0.265 C  
HETATM   21  C   UNL     1      -7.672  10.300  69.603  1.00  0.00    -0.160 C  
HETATM   22  C   UNL     1      -9.356   8.395  69.650  1.00  0.00    -0.161 C  
HETATM   23  C   UNL     1      -9.787   8.812  68.240  1.00  0.00    -0.185 C  
HETATM   24  N   UNL     1     -10.469   7.705  70.385  1.00  0.00    -0.216 NA 
HETATM   25  O   UNL     1      -7.177   7.287  69.112  1.00  0.00    -0.080 OA 
HETATM   26  C   UNL     1      -8.666   9.554  67.511  1.00  0.00    -0.126 C  
HETATM   27  C   UNL     1     -10.238   6.267  70.430  1.00  0.00    -0.200 C  
HETATM   28  C   UNL     1      -8.323   7.248  69.530  1.00  0.00    -0.133 C  
HETATM   29  N   UNL     1      -8.909   6.097  69.977  1.00  0.00    -0.142 NA 
BRANCH  24  30
HETATM   30  C   UNL     1     -11.641   8.231  70.900  1.00  0.00    -0.262 A  
HETATM   31  C   UNL     1     -11.819   9.593  71.169  1.00  0.00    -0.448 A  
HETATM   32  C   UNL     1     -12.982  10.102  71.771  1.00  0.00    -0.567 A  
HETATM   33  C   UNL     1     -14.030   9.255  72.097  1.00  0.00    -0.422 A  
HETATM   34  C   UNL     1     -13.922   7.907  71.803  1.00  0.00    -0.483 A  
HETATM   35  C   UNL     1     -12.745   7.411  71.217  1.00  0.00    -0.371 A  
ENDBRANCH  24  30
ENDBRANCH  18  19
ENDBRANCH  17  18
ENDBRANCH   8  17
TORSDOF 4
ENDMDL
MODEL        8
REMARK 921   NORMALIZED FREE ENERGY PREDICTED BY IDOCK:   -7.38 KCAL/MOL
REMARK 922        TOTAL FREE ENERGY PREDICTED BY IDOCK:  -10.98 KCAL/MOL
REMARK 923 INTER-LIGAND FREE ENERGY PREDICTED BY IDOCK:  -10.01 KCAL/MOL
REMARK 924 INTRA-LIGAND FREE ENERGY PREDICTED BY IDOCK:   -0.98 KCAL/MOL
REMARK 927      BINDING AFFINITY PREDICTED BY RF-SCORE:    0.00 PKD
ROOT
HETATM    1  F   UNL     1     -12.840  15.999  71.523  1.00  0.00    -0.490 F  
HETATM    2  C   UNL     1     -12.138  15.540  70.479  1.00  0.00    -0.386 A  
HETATM    3  C   UNL     1     -11.206  16.362  69.861  1.00  0.00    -0.253 A  
HETATM    4  C   UNL     1     -10.515  15.899  68.738  1.00  0.00    -0.237 A  
HETATM    5  C   UNL     1     -10.742  14.605  68.230  1.00  0.00    -0.240 A  
HETATM    6  C   UNL     1     -10.003  14.148  66.960  1.00  0.00    -0.260 C  
HETATM    7  C   UNL     1     -11.625  13.770  68.938  1.00  0.00    -0.358 A  
HETATM    8  C   UNL     1      -8.657  13.453  67.329  1.00  0.00    -0.216 C  
HETATM    9  C   UNL     1     -12.348  14.246  70.032  1.00  0.00    -0.403 A  
HETATM   10  C   UNL     1     -10.819  13.473  65.842  1.00  0.00    -0.279 A  
HETATM   11  C   UNL     1     -12.208  13.258  65.903  1.00  0.00    -0.497 A  
HETATM   12  C   UNL     1     -10.865  12.500  63.590  1.00  0.00    -0.486 A  
HETATM   13  F   UNL     1     -12.890  11.660  62.719  1.00  0.00    -0.537 F  
HETATM   14  C   UNL     1     -12.899  12.625  64.866  1.00  0.00    -0.312 A  
HETATM   15  C   UNL     1     -12.222  12.252  63.717  1.00  0.00    -0.546 A  
HETATM   16  C   UNL     1     -10.172  13.107  64.642  1.00  0.00    -0.327 A  
ENDROOT
BRANCH   8  17
HETATM   17  C   UNL     1      -8.705  12.212  68.238  1.00  0.00    -0.178 C  
BRANCH  17  18
HETATM   18  C   UNL     1      -7.442  11.342  68.283  1.00  0.00    -0.099 C  
BRANCH  18  19
HETATM   19  N   UNL     1      -7.383  10.295  67.265  1.00  0.00    -0.089 NA 
HETATM   20  C   UNL     1      -7.987   8.146  68.464  1.00  0.00    -0.126 C  
HETATM   21  C   UNL     1      -6.932   8.979  67.727  1.00  0.00    -0.078 C  
HETATM   22  C   UNL     1      -9.321   8.106  67.710  1.00  0.00    -0.134 C  
HETATM   23  C   UNL     1      -9.764   9.484  67.207  1.00  0.00    -0.215 C  
HETATM   24  N   UNL     1     -10.423   7.412  68.459  1.00  0.00    -0.197 NA 
HETATM   25  O   UNL     1      -8.311   7.197  65.609  1.00  0.00    -0.129 OA 
HETATM   26  C   UNL     1      -8.626  10.206  66.484  1.00  0.00    -0.126 C  
HETATM   27  C   UNL     1     -11.019   6.367  67.638  1.00  0.00    -0.349 C  
HETATM   28  C   UNL     1      -9.153   7.167  66.491  1.00  0.00    -0.154 C  
HETATM   29  N   UNL     1     -10.153   6.236  66.528  1.00  0.00    -0.144 NA 
BRANCH  24  30
HETATM   30  C   UNL     1     -10.952   7.697  69.706  1.00  0.00    -0.170 A  
HETATM   31  C   UNL     1     -11.598   6.745  70.503  1.00  0.00    -0.426 A  
HETATM   32  C   UNL     1     -12.206   7.067  71.728  1.00  0.00    -0.387 A  
HETATM   33  C   UNL     1     -12.156   8.363  72.215  1.00  0.00    -0.456 A  
HETATM   34  C   UNL     1     -11.482   9.330  71.489  1.00  0.00    -0.454 A  
HETATM   35  C   UNL     1     -10.895   8.995  70.256  1.00  0.00    -0.269 A  
ENDBRANCH  24  30
ENDBRANCH  18  19
ENDBRANCH  17  18
ENDBRANCH   8  17
TORSDOF 4
ENDMDL
MODEL        9
REMARK 921   NORMALIZED FREE ENERGY PREDICTED BY IDOCK:   -7.23 KCAL/MOL
REMARK 922        TOTAL FREE ENERGY PREDICTED BY IDOCK:  -10.80 KCAL/MOL
REMARK 923 INTER-LIGAND FREE ENERGY PREDICTED BY IDOCK:   -9.48 KCAL/MOL
REMARK 924 INTRA-LIGAND FREE ENERGY PREDICTED BY IDOCK:   -1.32 KCAL/MOL
REMARK 927      BINDING AFFINITY PREDICTED BY RF-SCORE:    0.00 PKD
ROOT
HETATM    1  F   UNL     1     -14.396   9.141  72.906  1.00  0.00    -0.413 F  
HETATM    2  C   UNL     1     -13.402   8.655  72.151  1.00  0.00    -0.396 A  
HETATM    3  C   UNL     1     -13.635   7.562  71.328  1.00  0.00    -0.329 A  
HETATM    4  C   UNL     1     -12.583   7.021  70.584  1.00  0.00    -0.104 A  
HETATM    5  C   UNL     1     -11.290   7.578  70.647  1.00  0.00    -0.301 A  
HETATM    6  C   UNL     1     -10.144   6.926  69.855  1.00  0.00    -0.200 C  
HETATM    7  C   UNL     1     -11.115   8.740  71.420  1.00  0.00    -0.361 A  
HETATM    8  C   UNL     1     -10.031   7.555  68.434  1.00  0.00    -0.185 C  
HETATM    9  C   UNL     1     -12.154   9.253  72.198  1.00  0.00    -0.353 A  
HETATM   10  C   UNL     1      -8.809   6.667  70.579  1.00  0.00    -0.152 A  
HETATM   11  C   UNL     1      -8.575   6.980  71.931  1.00  0.00    -0.122 A  
HETATM   12  C   UNL     1      -6.539   5.739  70.501  1.00  0.00    -0.044 A  
HETATM   13  F   UNL     1      -5.153   5.876  72.404  1.00  0.00    -0.018 F  
HETATM   14  C   UNL     1      -7.339   6.739  72.536  1.00  0.00    -0.090 A  
HETATM   15  C   UNL     1      -6.330   6.120  71.817  1.00  0.00    -0.046 A  
HETATM   16  C   UNL     1      -7.768   6.008  69.890  1.00  0.00    -0.092 A  
ENDROOT
BRANCH   8  17
HETATM   17  C   UNL     1      -9.784   9.070  68.327  1.00  0.00    -0.169 C  
BRANCH  17  18
HETATM   18  C   UNL     1     -10.891   9.905  67.670  1.00  0.00    -0.257 C  
BRANCH  18  19
HETATM   19  N   UNL     1     -10.414  11.012  66.843  1.00  0.00    -0.235 NA 
HETATM   20  C   UNL     1     -12.035  12.915  67.256  1.00  0.00    -0.371 C  
HETATM   21  C   UNL     1     -11.451  11.884  66.284  1.00  0.00    -0.301 C  
HETATM   22  C   UNL     1     -10.942  13.674  68.018  1.00  0.00    -0.250 C  
HETATM   23  C   UNL     1      -9.850  12.751  68.571  1.00  0.00    -0.147 C  
HETATM   24  N   UNL     1     -11.470  14.600  69.077  1.00  0.00    -0.274 NA 
HETATM   25  O   UNL     1      -9.802  14.477  65.940  1.00  0.00    -0.305 OA 
HETATM   26  C   UNL     1      -9.347  11.780  67.502  1.00  0.00    -0.174 C  
HETATM   27  C   UNL     1     -10.939  15.943  68.890  1.00  0.00    -0.290 C  
HETATM   28  C   UNL     1     -10.289  14.681  67.040  1.00  0.00    -0.263 C  
HETATM   29  N   UNL     1     -10.322  15.919  67.618  1.00  0.00    -0.274 NA 
BRANCH  24  30
HETATM   30  C   UNL     1     -12.263  14.318  70.174  1.00  0.00    -0.345 A  
HETATM   31  C   UNL     1     -12.311  13.060  70.786  1.00  0.00    -0.394 A  
HETATM   32  C   UNL     1     -13.185  12.764  71.845  1.00  0.00    -0.511 A  
HETATM   33  C   UNL     1     -14.027  13.741  72.354  1.00  0.00    -0.651 A  
HETATM   34  C   UNL     1     -13.979  15.016  71.816  1.00  0.00    -0.598 A  
HETATM   35  C   UNL     1     -13.112  15.291  70.744  1.00  0.00    -0.468 A  
ENDBRANCH  24  30
ENDBRANCH  18  19
ENDBRANCH  17  18
ENDBRANCH   8  17
TORSDOF 4
ENDMDL
MODEL       10
REMARK 921   NORMALIZED FREE ENERGY PREDICTED BY IDOCK:   -7.23 KCAL/MOL
REMARK 922        TOTAL FREE ENERGY PREDICTED BY IDOCK:  -10.80 KCAL/MOL
REMARK 923 INTER-LIGAND FREE ENERGY PREDICTED BY IDOCK:  -10.23 KCAL/MOL
REMARK 924 INTRA-LIGAND FREE ENERGY PREDICTED BY IDOCK:   -0.57 KCAL/MOL
REMARK 927      BINDING AFFINITY PREDICTED BY RF-SCORE:    0.00 PKD
ROOT
HETATM    1  F   UNL     1      -9.259  15.995  65.206  1.00  0.00    -0.141 F  
HETATM    2  C   UNL     1      -9.940  15.334  66.150  1.00  0.00    -0.302 A  
HETATM    3  C   UNL     1     -11.194  14.816  65.859  1.00  0.00    -0.340 A  
HETATM    4  C   UNL     1     -11.926  14.175  66.862  1.00  0.00    -0.479 A  
HETATM    5  C   UNL     1     -11.405  14.036  68.163  1.00  0.00    -0.320 A  
HETATM    6  C   UNL     1     -12.259  13.372  69.256  1.00  0.00    -0.222 C  
HETATM    7  C   UNL     1     -10.094  14.491  68.395  1.00  0.00    -0.241 A  
HETATM    8  C   UNL     1     -11.998  11.836  69.300  1.00  0.00    -0.354 C  
HETATM    9  C   UNL     1      -9.381  15.171  67.407  1.00  0.00    -0.200 A  
HETATM   10  C   UNL     1     -12.368  14.070  70.625  1.00  0.00    -0.446 A  
HETATM   11  C   UNL     1     -11.742  15.291  70.936  1.00  0.00    -0.386 A  
HETATM   12  C   UNL     1     -13.346  14.109  72.876  1.00  0.00    -0.532 A  
HETATM   13  F   UNL     1     -12.785  15.850  74.364  1.00  0.00    -0.591 F  
HETATM   14  C   UNL     1     -11.860  15.875  72.201  1.00  0.00    -0.615 A  
HETATM   15  C   UNL     1     -12.662  15.280  73.160  1.00  0.00    -0.474 A  
HETATM   16  C   UNL     1     -13.201  13.512  71.618  1.00  0.00    -0.449 A  
ENDROOT
BRANCH   8  17
HETATM   17  C   UNL     1     -10.561  11.350  69.560  1.00  0.00    -0.029 C  
BRANCH  17  18
HETATM   18  C   UNL     1     -10.356   9.834  69.677  1.00  0.00    -0.238 C  
BRANCH  18  19
HETATM   19  N   UNL     1     -10.548   9.292  71.021  1.00  0.00    -0.289 NA 
HETATM   20  C   UNL     1     -11.542   6.986  70.687  1.00  0.00    -0.379 C  
HETATM   21  C   UNL     1     -11.714   8.420  71.198  1.00  0.00    -0.280 C  
HETATM   22  C   UNL     1     -10.229   6.356  71.165  1.00  0.00    -0.191 C  
HETATM   23  C   UNL     1      -9.025   7.290  71.002  1.00  0.00    -0.149 C  
HETATM   24  N   UNL     1      -9.957   4.999  70.581  1.00  0.00    -0.213 NA 
HETATM   25  O   UNL     1     -10.725   6.729  73.590  1.00  0.00    -0.316 OA 
HETATM   26  C   UNL     1      -9.322   8.684  71.558  1.00  0.00    -0.249 C  
HETATM   27  C   UNL     1      -9.696   4.031  71.638  1.00  0.00    -0.172 C  
HETATM   28  C   UNL     1     -10.383   6.009  72.666  1.00  0.00    -0.196 C  
HETATM   29  N   UNL     1     -10.053   4.693  72.836  1.00  0.00    -0.153 NA 
BRANCH  24  30
HETATM   30  C   UNL     1      -9.843   4.620  69.255  1.00  0.00    -0.190 A  
HETATM   31  C   UNL     1     -10.216   5.442  68.186  1.00  0.00    -0.226 A  
HETATM   32  C   UNL     1     -10.176   5.013  66.848  1.00  0.00    -0.270 A  
HETATM   33  C   UNL     1      -9.723   3.741  66.534  1.00  0.00    -0.147 A  
HETATM   34  C   UNL     1      -9.294   2.909  67.553  1.00  0.00    -0.218 A  
HETATM   35  C   UNL     1      -9.358   3.347  68.888  1.00  0.00    -0.237 A  
ENDBRANCH  24  30
ENDBRANCH  18  19
ENDBRANCH  17  18
ENDBRANCH   8  17
TORSDOF 4
ENDMDL
MODEL       11
REMARK 921   NORMALIZED FREE ENERGY PREDICTED BY IDOCK:   -7.16 KCAL/MOL
REMARK 922        TOTAL FREE ENERGY PREDICTED BY IDOCK:  -10.71 KCAL/MOL
REMARK 923 INTER-LIGAND FREE ENERGY PREDICTED BY IDOCK:   -9.86 KCAL/MOL
REMARK 924 INTRA-LIGAND FREE ENERGY PREDICTED BY IDOCK:   -0.85 KCAL/MOL
REMARK 927      BINDING AFFINITY PREDICTED BY RF-SCORE:    0.00 PKD
ROOT
HETATM    1  F   UNL     1     -11.218   7.679  73.378  1.00  0.00    -0.431 F  
HETATM    2  C   UNL     1     -10.974   7.474  72.077  1.00  0.00    -0.242 A  
HETATM    3  C   UNL     1     -11.928   6.846  71.289  1.00  0.00    -0.402 A  
HETATM    4  C   UNL     1     -11.649   6.583  69.945  1.00  0.00    -0.433 A  
HETATM    5  C   UNL     1     -10.416   6.957  69.374  1.00  0.00    -0.237 A  
HETATM    6  C   UNL     1     -10.122   6.605  67.906  1.00  0.00    -0.177 C  
HETATM    7  C   UNL     1      -9.513   7.673  70.180  1.00  0.00    -0.161 A  
HETATM    8  C   UNL     1     -10.579   7.758  66.963  1.00  0.00    -0.396 C  
HETATM    9  C   UNL     1      -9.772   7.896  71.533  1.00  0.00    -0.201 A  
HETATM   10  C   UNL     1      -8.765   5.962  67.566  1.00  0.00    -0.104 A  
HETATM   11  C   UNL     1      -7.775   5.664  68.521  1.00  0.00    -0.089 A  
HETATM   12  C   UNL     1      -7.290   4.973  65.872  1.00  0.00    -0.077 A  
HETATM   13  F   UNL     1      -5.153   4.193  66.492  1.00  0.00    -0.007 F  
HETATM   14  C   UNL     1      -6.552   5.094  68.157  1.00  0.00    -0.049 A  
HETATM   15  C   UNL     1      -6.319   4.753  66.835  1.00  0.00    -0.037 A  
HETATM   16  C   UNL     1      -8.502   5.570  66.236  1.00  0.00    -0.122 A  
ENDROOT
BRANCH   8  17
HETATM   17  C   UNL     1      -9.968   9.155  67.173  1.00  0.00    -0.280 C  
BRANCH  17  18
HETATM   18  C   UNL     1     -10.950  10.331  67.262  1.00  0.00    -0.210 C  
BRANCH  18  19
HETATM   19  N   UNL     1     -10.581  11.498  66.462  1.00  0.00    -0.248 NA 
HETATM   20  C   UNL     1     -12.232  13.309  67.103  1.00  0.00    -0.281 C  
HETATM   21  C   UNL     1     -11.690  12.355  66.034  1.00  0.00    -0.410 C  
HETATM   22  C   UNL     1     -11.111  14.072  67.819  1.00  0.00    -0.267 C  
HETATM   23  C   UNL     1      -9.945  13.167  68.233  1.00  0.00    -0.236 C  
HETATM   24  N   UNL     1     -11.585  14.920  68.964  1.00  0.00    -0.289 NA 
HETATM   25  O   UNL     1     -10.169  15.027  65.705  1.00  0.00    -0.293 OA 
HETATM   26  C   UNL     1      -9.493  12.274  67.077  1.00  0.00    -0.204 C  
HETATM   27  C   UNL     1     -11.121  16.291  68.810  1.00  0.00    -0.355 C  
HETATM   28  C   UNL     1     -10.574  15.153  66.850  1.00  0.00    -0.297 C  
HETATM   29  N   UNL     1     -10.606  16.358  67.495  1.00  0.00    -0.312 NA 
BRANCH  24  30
HETATM   30  C   UNL     1     -12.278  14.549  70.103  1.00  0.00    -0.342 A  
HETATM   31  C   UNL     1     -12.296  13.241  70.601  1.00  0.00    -0.416 A  
HETATM   32  C   UNL     1     -13.073  12.861  71.708  1.00  0.00    -0.458 A  
HETATM   33  C   UNL     1     -13.841  13.800  72.380  1.00  0.00    -0.681 A  
HETATM   34  C   UNL     1     -13.816  15.117  71.957  1.00  0.00    -0.608 A  
HETATM   35  C   UNL     1     -13.048  15.477  70.836  1.00  0.00    -0.508 A  
ENDBRANCH  24  30
ENDBRANCH  18  19
ENDBRANCH  17  18
ENDBRANCH   8  17
TORSDOF 4
ENDMDL
MODEL       12
REMARK 921   NORMALIZED FREE ENERGY PREDICTED BY IDOCK:   -7.13 KCAL/MOL
REMARK 922        TOTAL FREE ENERGY PREDICTED BY IDOCK:  -10.67 KCAL/MOL
REMARK 923 INTER-LIGAND FREE ENERGY PREDICTED BY IDOCK:   -9.42 KCAL/MOL
REMARK 924 INTRA-LIGAND FREE ENERGY PREDICTED BY IDOCK:   -1.25 KCAL/MOL
REMARK 927      BINDING AFFINITY PREDICTED BY RF-SCORE:    0.00 PKD
ROOT
HETATM    1  F   UNL     1      -7.610   5.397  64.772  1.00  0.00    -0.072 F  
HETATM    2  C   UNL     1      -8.175   6.510  65.257  1.00  0.00    -0.135 A  
HETATM    3  C   UNL     1      -9.108   6.420  66.280  1.00  0.00    -0.167 A  
HETATM    4  C   UNL     1      -9.737   7.578  66.746  1.00  0.00    -0.283 A  
HETATM    5  C   UNL     1      -9.428   8.839  66.199  1.00  0.00    -0.315 A  
HETATM    6  C   UNL     1     -10.177  10.086  66.699  1.00  0.00    -0.288 C  
HETATM    7  C   UNL     1      -8.411   8.901  65.229  1.00  0.00    -0.185 A  
HETATM    8  C   UNL     1      -9.419  10.740  67.894  1.00  0.00    -0.165 C  
HETATM    9  C   UNL     1      -7.816   7.741  64.732  1.00  0.00    -0.129 A  
HETATM   10  C   UNL     1     -10.748  11.064  65.655  1.00  0.00    -0.217 A  
HETATM   11  C   UNL     1     -10.639  10.880  64.264  1.00  0.00    -0.336 A  
HETATM   12  C   UNL     1     -12.047  13.093  65.187  1.00  0.00    -0.463 A  
HETATM   13  F   UNL     1     -12.376  13.783  62.957  1.00  0.00    -0.516 F  
HETATM   14  C   UNL     1     -11.162  11.808  63.359  1.00  0.00    -0.440 A  
HETATM   15  C   UNL     1     -11.863  12.906  63.827  1.00  0.00    -0.504 A  
HETATM   16  C   UNL     1     -11.497  12.178  66.092  1.00  0.00    -0.429 A  
ENDROOT
BRANCH   8  17
HETATM   17  C   UNL     1      -7.969  11.204  67.668  1.00  0.00    -0.116 C  
BRANCH  17  18
HETATM   18  C   UNL     1      -7.491  12.403  68.497  1.00  0.00    -0.112 C  
BRANCH  18  19
HETATM   19  N   UNL     1      -7.341  13.647  67.744  1.00  0.00    -0.148 NA 
HETATM   20  C   UNL     1      -9.662  14.656  67.632  1.00  0.00    -0.214 C  
HETATM   21  C   UNL     1      -8.477  14.021  66.896  1.00  0.00    -0.078 C  
HETATM   22  C   UNL     1      -9.220  15.769  68.588  1.00  0.00    -0.207 C  
HETATM   23  C   UNL     1      -8.012  15.374  69.446  1.00  0.00    -0.234 C  
HETATM   24  N   UNL     1     -10.332  16.329  69.427  1.00  0.00    -0.262 NA 
HETATM   25  O   UNL     1      -8.055  17.083  66.804  1.00  0.00    -0.200 OA 
HETATM   26  C   UNL     1      -6.899  14.763  68.593  1.00  0.00    -0.103 C  
HETATM   27  C   UNL     1     -10.394  17.778  69.292  1.00  0.00    -0.065 C  
HETATM   28  C   UNL     1      -8.837  17.005  67.738  1.00  0.00    -0.223 C  
HETATM   29  N   UNL     1      -9.533  18.082  68.213  1.00  0.00    -0.291 NA 
BRANCH  24  30
HETATM   30  C   UNL     1     -11.175  15.682  70.314  1.00  0.00    -0.344 A  
HETATM   31  C   UNL     1     -11.586  16.240  71.530  1.00  0.00    -0.435 A  
HETATM   32  C   UNL     1     -12.372  15.538  72.460  1.00  0.00    -0.505 A  
HETATM   33  C   UNL     1     -12.803  14.250  72.181  1.00  0.00    -0.424 A  
HETATM   34  C   UNL     1     -12.466  13.674  70.969  1.00  0.00    -0.456 A  
HETATM   35  C   UNL     1     -11.664  14.383  70.057  1.00  0.00    -0.360 A  
ENDBRANCH  24  30
ENDBRANCH  18  19
ENDBRANCH  17  18
ENDBRANCH   8  17
TORSDOF 4
ENDMDL
MODEL       13
REMARK 921   NORMALIZED FREE ENERGY PREDICTED BY IDOCK:   -7.11 KCAL/MOL
REMARK 922        TOTAL FREE ENERGY PREDICTED BY IDOCK:  -10.65 KCAL/MOL
REMARK 923 INTER-LIGAND FREE ENERGY PREDICTED BY IDOCK:   -9.09 KCAL/MOL
REMARK 924 INTRA-LIGAND FREE ENERGY PREDICTED BY IDOCK:   -1.56 KCAL/MOL
REMARK 927      BINDING AFFINITY PREDICTED BY RF-SCORE:    0.00 PKD
ROOT
HETATM    1  F   UNL     1      -5.131  11.499  69.774  1.00  0.00    -0.054 F  
HETATM    2  C   UNL     1      -6.098  11.280  68.875  1.00  0.00    -0.046 A  
HETATM    3  C   UNL     1      -5.763  11.007  67.556  1.00  0.00    -0.045 A  
HETATM    4  C   UNL     1      -6.774  10.834  66.608  1.00  0.00    -0.120 A  
HETATM    5  C   UNL     1      -8.132  10.920  66.973  1.00  0.00    -0.131 A  
HETATM    6  C   UNL     1      -9.219  10.777  65.894  1.00  0.00    -0.214 C  
HETATM    7  C   UNL     1      -8.433  11.106  68.335  1.00  0.00    -0.151 A  
HETATM    8  C   UNL     1      -9.653   9.287  65.746  1.00  0.00    -0.341 C  
HETATM    9  C   UNL     1      -7.424  11.324  69.274  1.00  0.00    -0.040 A  
HETATM   10  C   UNL     1     -10.360  11.811  65.863  1.00  0.00    -0.280 A  
HETATM   11  C   UNL     1     -10.464  12.893  66.756  1.00  0.00    -0.262 A  
HETATM   12  C   UNL     1     -12.381  12.655  64.757  1.00  0.00    -0.556 A  
HETATM   13  F   UNL     1     -13.490  14.544  65.629  1.00  0.00    -0.353 F  
HETATM   14  C   UNL     1     -11.530  13.795  66.695  1.00  0.00    -0.362 A  
HETATM   15  C   UNL     1     -12.480  13.669  65.695  1.00  0.00    -0.496 A  
HETATM   16  C   UNL     1     -11.329  11.737  64.839  1.00  0.00    -0.299 A  
ENDROOT
BRANCH   8  17
HETATM   17  C   UNL     1     -10.217   8.568  66.985  1.00  0.00    -0.371 C  
BRANCH  17  18
HETATM   18  C   UNL     1     -10.460   7.059  66.856  1.00  0.00    -0.286 C  
BRANCH  18  19
HETATM   19  N   UNL     1      -9.877   6.251  67.926  1.00  0.00    -0.121 NA 
HETATM   20  C   UNL     1      -9.332   7.881  69.787  1.00  0.00    -0.153 C  
HETATM   21  C   UNL     1      -8.831   6.902  68.721  1.00  0.00    -0.132 C  
HETATM   22  C   UNL     1     -10.462   7.284  70.634  1.00  0.00    -0.214 C  
HETATM   23  C   UNL     1     -11.531   6.580  69.792  1.00  0.00    -0.443 C  
HETATM   24  N   UNL     1     -11.073   8.253  71.605  1.00  0.00    -0.251 NA 
HETATM   25  O   UNL     1      -9.116   5.297  71.348  1.00  0.00    -0.141 OA 
HETATM   26  C   UNL     1     -10.902   5.627  68.775  1.00  0.00    -0.140 C  
HETATM   27  C   UNL     1     -11.061   7.703  72.953  1.00  0.00    -0.393 C  
HETATM   28  C   UNL     1      -9.837   6.249  71.602  1.00  0.00    -0.165 C  
HETATM   29  N   UNL     1     -10.237   6.556  72.872  1.00  0.00    -0.184 NA 
BRANCH  24  30
HETATM   30  C   UNL     1     -11.683   9.472  71.362  1.00  0.00    -0.393 A  
HETATM   31  C   UNL     1     -11.245  10.369  70.382  1.00  0.00    -0.399 A  
HETATM   32  C   UNL     1     -11.819  11.639  70.204  1.00  0.00    -0.428 A  
HETATM   33  C   UNL     1     -12.886  12.042  70.992  1.00  0.00    -0.279 A  
HETATM   34  C   UNL     1     -13.390  11.169  71.941  1.00  0.00    -0.409 A  
HETATM   35  C   UNL     1     -12.791   9.909  72.119  1.00  0.00    -0.435 A  
ENDBRANCH  24  30
ENDBRANCH  18  19
ENDBRANCH  17  18
ENDBRANCH   8  17
TORSDOF 4
ENDMDL
MODEL       14
REMARK 921   NORMALIZED FREE ENERGY PREDICTED BY IDOCK:   -7.11 KCAL/MOL
REMARK 922        TOTAL FREE ENERGY PREDICTED BY IDOCK:  -10.65 KCAL/MOL
REMARK 923 INTER-LIGAND FREE ENERGY PREDICTED BY IDOCK:   -8.85 KCAL/MOL
REMARK 924 INTRA-LIGAND FREE ENERGY PREDICTED BY IDOCK:   -1.80 KCAL/MOL
REMARK 927      BINDING AFFINITY PREDICTED BY RF-SCORE:    0.00 PKD
ROOT
HETATM    1  F   UNL     1     -11.550  16.670  63.965  1.00  0.00    -0.418 F  
HETATM    2  C   UNL     1     -11.519  15.543  64.689  1.00  0.00    -0.324 A  
HETATM    3  C   UNL     1     -12.157  14.404  64.217  1.00  0.00    -0.461 A  
HETATM    4  C   UNL     1     -12.171  13.247  64.999  1.00  0.00    -0.477 A  
HETATM    5  C   UNL     1     -11.537  13.214  66.257  1.00  0.00    -0.399 A  
HETATM    6  C   UNL     1     -11.617  11.940  67.114  1.00  0.00    -0.363 C  
HETATM    7  C   UNL     1     -10.823  14.357  66.659  1.00  0.00    -0.304 A  
HETATM    8  C   UNL     1     -10.416  10.995  66.808  1.00  0.00    -0.300 C  
HETATM    9  C   UNL     1     -10.847  15.528  65.900  1.00  0.00    -0.317 A  
HETATM   10  C   UNL     1     -11.993  12.081  68.601  1.00  0.00    -0.290 A  
HETATM   11  C   UNL     1     -12.281  13.309  69.225  1.00  0.00    -0.194 A  
HETATM   12  C   UNL     1     -12.487  10.987  70.742  1.00  0.00    -0.491 A  
HETATM   13  F   UNL     1     -13.025  12.297  72.628  1.00  0.00    -0.337 F  
HETATM   14  C   UNL     1     -12.601  13.384  70.584  1.00  0.00    -0.325 A  
HETATM   15  C   UNL     1     -12.703  12.222  71.331  1.00  0.00    -0.248 A  
HETATM   16  C   UNL     1     -12.138  10.919  69.389  1.00  0.00    -0.362 A  
ENDROOT
BRANCH   8  17
HETATM   17  C   UNL     1      -8.992  11.537  67.022  1.00  0.00    -0.174 C  
BRANCH  17  18
HETATM   18  C   UNL     1      -8.438  11.475  68.451  1.00  0.00    -0.159 C  
BRANCH  18  19
HETATM   19  N   UNL     1      -7.237  10.656  68.608  1.00  0.00    -0.084 NA 
HETATM   20  C   UNL     1      -7.588   9.337  70.742  1.00  0.00    -0.154 C  
HETATM   21  C   UNL     1      -6.803  10.415  69.987  1.00  0.00    -0.151 C  
HETATM   22  C   UNL     1      -7.746   8.055  69.918  1.00  0.00    -0.099 C  
HETATM   23  C   UNL     1      -8.171   8.324  68.470  1.00  0.00    -0.131 C  
HETATM   24  N   UNL     1      -8.621   7.019  70.566  1.00  0.00    -0.140 NA 
HETATM   25  O   UNL     1      -5.284   7.752  69.584  1.00  0.00    -0.022 OA 
HETATM   26  C   UNL     1      -7.306   9.410  67.829  1.00  0.00    -0.083 C  
HETATM   27  C   UNL     1      -7.924   5.743  70.650  1.00  0.00    -0.109 C  
HETATM   28  C   UNL     1      -6.381   7.324  69.903  1.00  0.00    -0.035 C  
HETATM   29  N   UNL     1      -6.582   6.036  70.316  1.00  0.00    -0.043 NA 
BRANCH  24  30
HETATM   30  C   UNL     1      -9.940   7.113  70.971  1.00  0.00    -0.188 A  
HETATM   31  C   UNL     1     -11.012   6.613  70.222  1.00  0.00    -0.355 A  
HETATM   32  C   UNL     1     -12.353   6.792  70.603  1.00  0.00    -0.231 A  
HETATM   33  C   UNL     1     -12.664   7.457  71.779  1.00  0.00    -0.367 A  
HETATM   34  C   UNL     1     -11.637   7.924  72.581  1.00  0.00    -0.435 A  
HETATM   35  C   UNL     1     -10.302   7.754  72.175  1.00  0.00    -0.279 A  
ENDBRANCH  24  30
ENDBRANCH  18  19
ENDBRANCH  17  18
ENDBRANCH   8  17
TORSDOF 4
ENDMDL
MODEL       15
REMARK 921   NORMALIZED FREE ENERGY PREDICTED BY IDOCK:   -7.09 KCAL/MOL
REMARK 922        TOTAL FREE ENERGY PREDICTED BY IDOCK:  -10.62 KCAL/MOL
REMARK 923 INTER-LIGAND FREE ENERGY PREDICTED BY IDOCK:   -8.77 KCAL/MOL
REMARK 924 INTRA-LIGAND FREE ENERGY PREDICTED BY IDOCK:   -1.85 KCAL/MOL
REMARK 927      BINDING AFFINITY PREDICTED BY RF-SCORE:    0.00 PKD
ROOT
HETATM    1  F   UNL     1      -9.347   1.874  66.986  1.00  0.00    -0.145 F  
HETATM    2  C   UNL     1      -9.290   2.814  67.937  1.00  0.00    -0.200 A  
HETATM    3  C   UNL     1      -8.800   2.493  69.196  1.00  0.00    -0.150 A  
HETATM    4  C   UNL     1      -8.794   3.461  70.203  1.00  0.00    -0.147 A  
HETATM    5  C   UNL     1      -9.267   4.765  69.957  1.00  0.00    -0.178 A  
HETATM    6  C   UNL     1      -9.295   5.791  71.103  1.00  0.00    -0.174 C  
HETATM    7  C   UNL     1      -9.669   5.079  68.646  1.00  0.00    -0.221 A  
HETATM    8  C   UNL     1      -7.961   6.597  71.151  1.00  0.00    -0.107 C  
HETATM    9  C   UNL     1      -9.718   4.101  67.652  1.00  0.00    -0.176 A  
HETATM   10  C   UNL     1     -10.579   6.613  71.318  1.00  0.00    -0.256 A  
HETATM   11  C   UNL     1     -11.741   6.475  70.535  1.00  0.00    -0.438 A  
HETATM   12  C   UNL     1     -11.794   8.275  72.653  1.00  0.00    -0.382 A  
HETATM   13  F   UNL     1     -13.988   8.889  72.045  1.00  0.00    -0.381 F  
HETATM   14  C   UNL     1     -12.876   7.258  70.762  1.00  0.00    -0.057 A  
HETATM   15  C   UNL     1     -12.894   8.152  71.820  1.00  0.00    -0.333 A  
HETATM   16  C   UNL     1     -10.649   7.511  72.405  1.00  0.00    -0.299 A  
ENDROOT
BRANCH   8  17
HETATM   17  C   UNL     1      -7.550   7.396  69.903  1.00  0.00    -0.090 C  
BRANCH  17  18
HETATM   18  C   UNL     1      -8.336   8.682  69.616  1.00  0.00    -0.123 C  
BRANCH  18  19
HETATM   19  N   UNL     1      -8.618   8.926  68.202  1.00  0.00    -0.129 NA 
HETATM   20  C   UNL     1     -11.022   9.721  68.117  1.00  0.00    -0.228 C  
HETATM   21  C   UNL     1      -9.989   8.645  67.767  1.00  0.00    -0.190 C  
HETATM   22  C   UNL     1     -10.538  11.128  67.745  1.00  0.00    -0.209 C  
HETATM   23  C   UNL     1      -9.093  11.396  68.180  1.00  0.00    -0.174 C  
HETATM   24  N   UNL     1     -11.460  12.226  68.190  1.00  0.00    -0.293 NA 
HETATM   25  O   UNL     1     -10.152  10.553  65.340  1.00  0.00    -0.271 OA 
HETATM   26  C   UNL     1      -8.164  10.254  67.764  1.00  0.00    -0.110 C  
HETATM   27  C   UNL     1     -11.810  13.086  67.067  1.00  0.00    -0.377 C  
HETATM   28  C   UNL     1     -10.623  11.272  66.206  1.00  0.00    -0.263 C  
HETATM   29  N   UNL     1     -11.342  12.400  65.922  1.00  0.00    -0.339 NA 
BRANCH  24  30
HETATM   30  C   UNL     1     -11.903  12.540  69.463  1.00  0.00    -0.310 A  
HETATM   31  C   UNL     1     -12.249  11.576  70.416  1.00  0.00    -0.442 A  
HETATM   32  C   UNL     1     -12.778  11.909  71.675  1.00  0.00    -0.340 A  
HETATM   33  C   UNL     1     -12.948  13.237  72.034  1.00  0.00    -0.401 A  
HETATM   34  C   UNL     1     -12.570  14.229  71.145  1.00  0.00    -0.432 A  
HETATM   35  C   UNL     1     -12.060  13.879  69.883  1.00  0.00    -0.406 A  
ENDBRANCH  24  30
ENDBRANCH  18  19
ENDBRANCH  17  18
ENDBRANCH   8  17
TORSDOF 4
ENDMDL
MODEL       16
REMARK 921   NORMALIZED FREE ENERGY PREDICTED BY IDOCK:   -7.08 KCAL/MOL
REMARK 922        TOTAL FREE ENERGY PREDICTED BY IDOCK:  -10.61 KCAL/MOL
REMARK 923 INTER-LIGAND FREE ENERGY PREDICTED BY IDOCK:   -9.19 KCAL/MOL
REMARK 924 INTRA-LIGAND FREE ENERGY PREDICTED BY IDOCK:   -1.42 KCAL/MOL
REMARK 927      BINDING AFFINITY PREDICTED BY RF-SCORE:    0.00 PKD
ROOT
HETATM    1  F   UNL     1     -10.577   4.328  66.635  1.00  0.00    -0.174 F  
HETATM    2  C   UNL     1      -9.957   5.490  66.388  1.00  0.00    -0.172 A  
HETATM    3  C   UNL     1      -8.854   5.516  65.547  1.00  0.00    -0.147 A  
HETATM    4  C   UNL     1      -8.176   6.719  65.335  1.00  0.00    -0.134 A  
HETATM    5  C   UNL     1      -8.603   7.911  65.954  1.00  0.00    -0.171 A  
HETATM    6  C   UNL     1      -7.802   9.206  65.740  1.00  0.00    -0.098 C  
HETATM    7  C   UNL     1      -9.778   7.862  66.725  1.00  0.00    -0.303 A  
HETATM    8  C   UNL     1      -8.346   9.992  64.510  1.00  0.00    -0.168 C  
HETATM    9  C   UNL     1     -10.430   6.653  66.973  1.00  0.00    -0.369 A  
HETATM   10  C   UNL     1      -7.447  10.058  66.973  1.00  0.00    -0.092 A  
HETATM   11  C   UNL     1      -7.801   9.718  68.292  1.00  0.00    -0.089 A  
HETATM   12  C   UNL     1      -6.295  12.021  67.892  1.00  0.00    -0.073 A  
HETATM   13  F   UNL     1      -6.386  12.453  70.209  1.00  0.00    -0.143 F  
HETATM   14  C   UNL     1      -7.468  10.536  69.375  1.00  0.00    -0.141 A  
HETATM   15  C   UNL     1      -6.717  11.681  69.167  1.00  0.00    -0.109 A  
HETATM   16  C   UNL     1      -6.655  11.215  66.807  1.00  0.00    -0.133 A  
ENDROOT
BRANCH   8  17
HETATM   17  C   UNL     1      -9.822  10.427  64.520  1.00  0.00    -0.405 C  
BRANCH  17  18
HETATM   18  C   UNL     1     -10.293  11.243  65.731  1.00  0.00    -0.258 C  
BRANCH  18  19
HETATM   19  N   UNL     1     -10.299  12.691  65.529  1.00  0.00    -0.282 NA 
HETATM   20  C   UNL     1     -12.200  13.568  66.956  1.00  0.00    -0.351 C  
HETATM   21  C   UNL     1     -11.616  13.335  65.559  1.00  0.00    -0.326 C  
HETATM   22  C   UNL     1     -11.184  14.210  67.907  1.00  0.00    -0.279 C  
HETATM   23  C   UNL     1      -9.804  13.546  67.842  1.00  0.00    -0.235 C  
HETATM   24  N   UNL     1     -11.670  14.336  69.322  1.00  0.00    -0.299 NA 
HETATM   25  O   UNL     1     -10.771  16.181  66.421  1.00  0.00    -0.294 OA 
HETATM   26  C   UNL     1      -9.332  13.380  66.397  1.00  0.00    -0.172 C  
HETATM   27  C   UNL     1     -11.539  15.710  69.787  1.00  0.00    -0.352 C  
HETATM   28  C   UNL     1     -11.033  15.699  67.510  1.00  0.00    -0.309 C  
HETATM   29  N   UNL     1     -11.237  16.461  68.627  1.00  0.00    -0.353 NA 
BRANCH  24  30
HETATM   30  C   UNL     1     -12.103  13.351  70.193  1.00  0.00    -0.344 A  
HETATM   31  C   UNL     1     -11.843  11.989  70.004  1.00  0.00    -0.392 A  
HETATM   32  C   UNL     1     -12.362  10.993  70.849  1.00  0.00    -0.503 A  
HETATM   33  C   UNL     1     -13.141  11.339  71.943  1.00  0.00    -0.510 A  
HETATM   34  C   UNL     1     -13.383  12.676  72.201  1.00  0.00    -0.570 A  
HETATM   35  C   UNL     1     -12.872  13.659  71.336  1.00  0.00    -0.442 A  
ENDBRANCH  24  30
ENDBRANCH  18  19
ENDBRANCH  17  18
ENDBRANCH   8  17
TORSDOF 4
ENDMDL
MODEL       17
REMARK 921   NORMALIZED FREE ENERGY PREDICTED BY IDOCK:   -7.06 KCAL/MOL
REMARK 922        TOTAL FREE ENERGY PREDICTED BY IDOCK:  -10.59 KCAL/MOL
REMARK 923 INTER-LIGAND FREE ENERGY PREDICTED BY IDOCK:   -9.65 KCAL/MOL
REMARK 924 INTRA-LIGAND FREE ENERGY PREDICTED BY IDOCK:   -0.94 KCAL/MOL
REMARK 927      BINDING AFFINITY PREDICTED BY RF-SCORE:    0.00 PKD
ROOT
HETATM    1  F   UNL     1      -7.371   3.895  66.608  1.00  0.00    -0.067 F  
HETATM    2  C   UNL     1      -7.698   4.913  67.414  1.00  0.00    -0.091 A  
HETATM    3  C   UNL     1      -6.864   5.249  68.471  1.00  0.00    -0.056 A  
HETATM    4  C   UNL     1      -7.235   6.275  69.344  1.00  0.00    -0.082 A  
HETATM    5  C   UNL     1      -8.439   6.983  69.160  1.00  0.00    -0.129 A  
HETATM    6  C   UNL     1      -8.841   8.071  70.170  1.00  0.00    -0.143 C  
HETATM    7  C   UNL     1      -9.211   6.677  68.025  1.00  0.00    -0.112 A  
HETATM    8  C   UNL     1      -8.293   9.462  69.727  1.00  0.00    -0.161 C  
HETATM    9  C   UNL     1      -8.865   5.623  67.179  1.00  0.00    -0.106 A  
HETATM   10  C   UNL     1     -10.280   8.064  70.718  1.00  0.00    -0.209 A  
HETATM   11  C   UNL     1     -11.253   7.112  70.360  1.00  0.00    -0.320 A  
HETATM   12  C   UNL     1     -11.940   9.046  72.236  1.00  0.00    -0.332 A  
HETATM   13  F   UNL     1     -14.124   8.160  72.312  1.00  0.00    -0.382 F  
HETATM   14  C   UNL     1     -12.551   7.161  70.875  1.00  0.00    -0.268 A  
HETATM   15  C   UNL     1     -12.885   8.127  71.809  1.00  0.00    -0.333 A  
HETATM   16  C   UNL     1     -10.650   9.012  71.696  1.00  0.00    -0.434 A  
ENDROOT
BRANCH   8  17
HETATM   17  C   UNL     1      -8.722  10.008  68.354  1.00  0.00    -0.117 C  
BRANCH  17  18
HETATM   18  C   UNL     1      -9.621  11.250  68.355  1.00  0.00    -0.195 C  
BRANCH  18  19
HETATM   19  N   UNL     1     -10.722  11.211  67.393  1.00  0.00    -0.233 NA 
HETATM   20  C   UNL     1     -11.716  13.541  67.403  1.00  0.00    -0.419 C  
HETATM   21  C   UNL     1     -11.880  12.050  67.714  1.00  0.00    -0.238 C  
HETATM   22  C   UNL     1     -11.158  13.780  65.995  1.00  0.00    -0.291 C  
HETATM   23  C   UNL     1      -9.967  12.874  65.664  1.00  0.00    -0.245 C  
HETATM   24  N   UNL     1     -10.856  15.220  65.696  1.00  0.00    -0.348 NA 
HETATM   25  O   UNL     1     -12.986  12.499  64.861  1.00  0.00    -0.821 OA 
HETATM   26  C   UNL     1     -10.262  11.414  66.012  1.00  0.00    -0.245 C  
HETATM   27  C   UNL     1     -11.521  15.637  64.469  1.00  0.00    -0.300 C  
HETATM   28  C   UNL     1     -12.290  13.495  64.978  1.00  0.00    -0.428 C  
HETATM   29  N   UNL     1     -12.412  14.584  64.160  1.00  0.00    -0.784 NA 
BRANCH  24  30
HETATM   30  C   UNL     1     -10.010  16.095  66.353  1.00  0.00    -0.299 A  
HETATM   31  C   UNL     1      -8.617  16.072  66.210  1.00  0.00    -0.363 A  
HETATM   32  C   UNL     1      -7.764  16.909  66.949  1.00  0.00    -0.252 A  
HETATM   33  C   UNL     1      -8.288  17.830  67.842  1.00  0.00    -0.241 A  
HETATM   34  C   UNL     1      -9.662  17.927  67.981  1.00  0.00    -0.303 A  
HETATM   35  C   UNL     1     -10.501  17.070  67.248  1.00  0.00    -0.301 A  
ENDBRANCH  24  30
ENDBRANCH  18  19
ENDBRANCH  17  18
ENDBRANCH   8  17
TORSDOF 4
ENDMDL
MODEL       18
REMARK 921   NORMALIZED FREE ENERGY PREDICTED BY IDOCK:   -7.05 KCAL/MOL
REMARK 922        TOTAL FREE ENERGY PREDICTED BY IDOCK:  -10.57 KCAL/MOL
REMARK 923 INTER-LIGAND FREE ENERGY PREDICTED BY IDOCK:   -8.43 KCAL/MOL
REMARK 924 INTRA-LIGAND FREE ENERGY PREDICTED BY IDOCK:   -2.14 KCAL/MOL
REMARK 927      BINDING AFFINITY PREDICTED BY RF-SCORE:    0.00 PKD
ROOT
HETATM    1  F   UNL     1     -12.623   9.886  71.835  1.00  0.00    -0.421 F  
HETATM    2  C   UNL     1     -11.484   9.873  71.130  1.00  0.00    -0.383 A  
HETATM    3  C   UNL     1     -10.425   9.080  71.548  1.00  0.00    -0.410 A  
HETATM    4  C   UNL     1      -9.219   9.111  70.843  1.00  0.00    -0.326 A  
HETATM    5  C   UNL     1      -9.065   9.928  69.706  1.00  0.00    -0.249 A  
HETATM    6  C   UNL     1      -7.707   9.977  68.985  1.00  0.00    -0.094 C  
HETATM    7  C   UNL     1     -10.189  10.646  69.259  1.00  0.00    -0.235 A  
HETATM    8  C   UNL     1      -7.642   8.899  67.862  1.00  0.00    -0.093 C  
HETATM    9  C   UNL     1     -11.379  10.651  69.988  1.00  0.00    -0.400 A  
HETATM   10  C   UNL     1      -7.121  11.354  68.623  1.00  0.00    -0.095 A  
HETATM   11  C   UNL     1      -7.747  12.578  68.923  1.00  0.00     0.085 A  
HETATM   12  C   UNL     1      -5.260  12.648  67.682  1.00  0.00    -0.110 A  
HETATM   13  F   UNL     1      -5.391  15.001  67.606  1.00  0.00    -0.125 F  
HETATM   14  C   UNL     1      -7.179  13.802  68.557  1.00  0.00    -0.108 A  
HETATM   15  C   UNL     1      -5.939  13.827  67.940  1.00  0.00    -0.142 A  
HETATM   16  C   UNL     1      -5.845  11.424  68.023  1.00  0.00    -0.042 A  
ENDROOT
BRANCH   8  17
HETATM   17  C   UNL     1      -8.695   8.951  66.742  1.00  0.00    -0.130 C  
BRANCH  17  18
HETATM   18  C   UNL     1      -8.842  10.283  65.994  1.00  0.00    -0.149 C  
BRANCH  18  19
HETATM   19  N   UNL     1     -10.032  10.384  65.151  1.00  0.00    -0.306 NA 
HETATM   20  C   UNL     1     -11.411  12.262  66.148  1.00  0.00    -0.402 C  
HETATM   21  C   UNL     1     -11.270  10.768  65.838  1.00  0.00     0.327 C  
HETATM   22  C   UNL     1     -11.089  13.137  64.932  1.00  0.00    -0.314 C  
HETATM   23  C   UNL     1      -9.810  12.705  64.207  1.00  0.00    -0.085 C  
HETATM   24  N   UNL     1     -11.086  14.610  65.226  1.00  0.00    -0.340 NA 
HETATM   25  O   UNL     1     -12.794  12.037  63.465  1.00  0.00    -0.749 OA 
HETATM   26  C   UNL     1      -9.797  11.198  63.949  1.00  0.00    -0.308 C  
HETATM   27  C   UNL     1     -11.966  15.317  64.304  1.00  0.00    -0.223 C  
HETATM   28  C   UNL     1     -12.275  13.034  63.941  1.00  0.00    -0.437 C  
HETATM   29  N   UNL     1     -12.690  14.301  63.639  1.00  0.00    -0.635 NA 
BRANCH  24  30
HETATM   30  C   UNL     1     -10.329  15.322  66.139  1.00  0.00    -0.302 A  
HETATM   31  C   UNL     1     -10.705  15.501  67.476  1.00  0.00    -0.300 A  
HETATM   32  C   UNL     1      -9.970  16.298  68.370  1.00  0.00    -0.234 A  
HETATM   33  C   UNL     1      -8.803  16.921  67.957  1.00  0.00    -0.216 A  
HETATM   34  C   UNL     1      -8.362  16.732  66.659  1.00  0.00    -0.296 A  
HETATM   35  C   UNL     1      -9.119  15.947  65.771  1.00  0.00    -0.188 A  
ENDBRANCH  24  30
ENDBRANCH  18  19
ENDBRANCH  17  18
ENDBRANCH   8  17
TORSDOF 4
ENDMDL
MODEL       19
REMARK 921   NORMALIZED FREE ENERGY PREDICTED BY IDOCK:   -7.04 KCAL/MOL
REMARK 922        TOTAL FREE ENERGY PREDICTED BY IDOCK:  -10.57 KCAL/MOL
REMARK 923 INTER-LIGAND FREE ENERGY PREDICTED BY IDOCK:   -8.68 KCAL/MOL
REMARK 924 INTRA-LIGAND FREE ENERGY PREDICTED BY IDOCK:   -1.89 KCAL/MOL
REMARK 927      BINDING AFFINITY PREDICTED BY RF-SCORE:    0.00 PKD
ROOT
HETATM    1  F   UNL     1     -12.653  14.866  63.738  1.00  0.00    -0.389 F  
HETATM    2  C   UNL     1     -11.929  14.204  64.650  1.00  0.00    -0.445 A  
HETATM    3  C   UNL     1     -10.820  14.811  65.221  1.00  0.00    -0.395 A  
HETATM    4  C   UNL     1     -10.034  14.098  66.130  1.00  0.00    -0.328 A  
HETATM    5  C   UNL     1     -10.358  12.773  66.485  1.00  0.00    -0.262 A  
HETATM    6  C   UNL     1      -9.441  12.000  67.448  1.00  0.00    -0.177 C  
HETATM    7  C   UNL     1     -11.540  12.225  65.957  1.00  0.00    -0.451 A  
HETATM    8  C   UNL     1      -9.900  12.201  68.924  1.00  0.00     0.068 C  
HETATM    9  C   UNL     1     -12.300  12.920  65.015  1.00  0.00    -0.541 A  
HETATM   10  C   UNL     1      -9.023  10.567  67.068  1.00  0.00    -0.149 A  
HETATM   11  C   UNL     1      -9.420   9.922  65.883  1.00  0.00    -0.272 A  
HETATM   12  C   UNL     1      -7.708   8.566  67.604  1.00  0.00    -0.102 A  
HETATM   13  F   UNL     1      -7.783   6.698  66.167  1.00  0.00    -0.086 F  
HETATM   14  C   UNL     1      -9.025   8.612  65.593  1.00  0.00    -0.231 A  
HETATM   15  C   UNL     1      -8.171   7.945  66.456  1.00  0.00    -0.113 A  
HETATM   16  C   UNL     1      -8.129   9.866  67.905  1.00  0.00    -0.109 A  
ENDROOT
BRANCH   8  17
HETATM   17  C   UNL     1     -11.331  11.781  69.304  1.00  0.00    -0.348 C  
BRANCH  17  18
HETATM   18  C   UNL     1     -11.588  10.278  69.468  1.00  0.00    -0.168 C  
BRANCH  18  19
HETATM   19  N   UNL     1     -11.467   9.782  70.838  1.00  0.00    -0.339 NA 
HETATM   20  C   UNL     1     -12.050   7.319  70.722  1.00  0.00    -0.284 C  
HETATM   21  C   UNL     1     -12.407   8.723  71.220  1.00  0.00    -0.270 C  
HETATM   22  C   UNL     1     -10.584   6.964  70.999  1.00  0.00    -0.220 C  
HETATM   23  C   UNL     1      -9.616   8.092  70.623  1.00  0.00    -0.172 C  
HETATM   24  N   UNL     1     -10.155   5.650  70.411  1.00  0.00    -0.204 NA 
HETATM   25  O   UNL     1     -10.764   7.369  73.462  1.00  0.00    -0.385 OA 
HETATM   26  C   UNL     1     -10.081   9.436  71.186  1.00  0.00    -0.265 C  
HETATM   27  C   UNL     1      -9.559   4.803  71.435  1.00  0.00    -0.163 C  
HETATM   28  C   UNL     1     -10.439   6.675  72.513  1.00  0.00    -0.205 C  
HETATM   29  N   UNL     1      -9.846   5.452  72.658  1.00  0.00    -0.158 NA 
BRANCH  24  30
HETATM   30  C   UNL     1     -10.176   5.229  69.094  1.00  0.00    -0.210 A  
HETATM   31  C   UNL     1      -9.473   4.109  68.633  1.00  0.00    -0.221 A  
HETATM   32  C   UNL     1      -9.434   3.742  67.277  1.00  0.00    -0.238 A  
HETATM   33  C   UNL     1     -10.135   4.477  66.333  1.00  0.00    -0.271 A  
HETATM   34  C   UNL     1     -10.887   5.562  66.746  1.00  0.00    -0.252 A  
HETATM   35  C   UNL     1     -10.901   5.927  68.104  1.00  0.00    -0.323 A  
ENDBRANCH  24  30
ENDBRANCH  18  19
ENDBRANCH  17  18
ENDBRANCH   8  17
TORSDOF 4
ENDMDL
MODEL       20
REMARK 921   NORMALIZED FREE ENERGY PREDICTED BY IDOCK:   -7.01 KCAL/MOL
REMARK 922        TOTAL FREE ENERGY PREDICTED BY IDOCK:  -10.52 KCAL/MOL
REMARK 923 INTER-LIGAND FREE ENERGY PREDICTED BY IDOCK:   -9.97 KCAL/MOL
REMARK 924 INTRA-LIGAND FREE ENERGY PREDICTED BY IDOCK:   -0.55 KCAL/MOL
REMARK 927      BINDING AFFINITY PREDICTED BY RF-SCORE:    0.00 PKD
ROOT
HETATM    1  F   UNL     1     -12.302  16.347  71.388  1.00  0.00    -0.429 F  
HETATM    2  C   UNL     1     -11.739  15.503  70.514  1.00  0.00    -0.349 A  
HETATM    3  C   UNL     1     -10.427  15.704  70.110  1.00  0.00    -0.316 A  
HETATM    4  C   UNL     1      -9.860  14.855  69.156  1.00  0.00    -0.200 A  
HETATM    5  C   UNL     1     -10.599  13.789  68.605  1.00  0.00    -0.263 A  
HETATM    6  C   UNL     1      -9.961  12.906  67.518  1.00  0.00    -0.215 C  
HETATM    7  C   UNL     1     -11.893  13.562  69.106  1.00  0.00    -0.386 A  
HETATM    8  C   UNL     1      -9.232  11.687  68.158  1.00  0.00    -0.184 C  
HETATM    9  C   UNL     1     -12.475  14.436  70.025  1.00  0.00    -0.353 A  
HETATM   10  C   UNL     1     -10.780  12.603  66.249  1.00  0.00    -0.280 A  
HETATM   11  C   UNL     1     -12.077  13.096  66.014  1.00  0.00    -0.495 A  
HETATM   12  C   UNL     1     -10.882  11.555  64.033  1.00  0.00    -0.453 A  
HETATM   13  F   UNL     1     -12.854  11.719  62.750  1.00  0.00    -0.532 F  
HETATM   14  C   UNL     1     -12.784  12.777  64.851  1.00  0.00    -0.479 A  
HETATM   15  C   UNL     1     -12.180  12.009  63.869  1.00  0.00    -0.453 A  
HETATM   16  C   UNL     1     -10.188  11.852  65.211  1.00  0.00    -0.309 A  
ENDROOT
BRANCH   8  17
HETATM   17  C   UNL     1     -10.055  10.723  69.030  1.00  0.00    -0.225 C  
BRANCH  17  18
HETATM   18  C   UNL     1      -9.288   9.583  69.712  1.00  0.00    -0.211 C  
BRANCH  18  19
HETATM   19  N   UNL     1      -9.750   9.254  71.060  1.00  0.00    -0.282 NA 
HETATM   20  C   UNL     1     -11.162   7.167  70.802  1.00  0.00    -0.309 C  
HETATM   21  C   UNL     1     -11.086   8.657  71.149  1.00  0.00    -0.266 C  
HETATM   22  C   UNL     1     -10.079   6.351  71.517  1.00  0.00    -0.192 C  
HETATM   23  C   UNL     1      -8.694   7.002  71.441  1.00  0.00    -0.125 C  
HETATM   24  N   UNL     1     -10.033   4.907  71.105  1.00  0.00    -0.197 NA 
HETATM   25  O   UNL     1     -10.770   7.101  73.803  1.00  0.00    -0.361 OA 
HETATM   26  C   UNL     1      -8.753   8.483  71.818  1.00  0.00    -0.201 C  
HETATM   27  C   UNL     1     -10.111   4.040  72.273  1.00  0.00    -0.170 C  
HETATM   28  C   UNL     1     -10.481   6.223  73.007  1.00  0.00    -0.228 C  
HETATM   29  N   UNL     1     -10.459   4.898  73.342  1.00  0.00    -0.193 NA 
BRANCH  24  30
HETATM   30  C   UNL     1      -9.844   4.358  69.850  1.00  0.00    -0.220 A  
HETATM   31  C   UNL     1      -9.392   3.049  69.642  1.00  0.00    -0.214 A  
HETATM   32  C   UNL     1      -9.123   2.533  68.364  1.00  0.00    -0.227 A  
HETATM   33  C   UNL     1      -9.333   3.311  67.236  1.00  0.00    -0.229 A  
HETATM   34  C   UNL     1      -9.828   4.594  67.385  1.00  0.00    -0.207 A  
HETATM   35  C   UNL     1     -10.075   5.103  68.673  1.00  0.00    -0.220 A  
ENDBRANCH  24  30
ENDBRANCH  18  19
ENDBRANCH  17  18
ENDBRANCH   8  17
TORSDOF 4
ENDMDL
MODEL       21
REMARK 921   NORMALIZED FREE ENERGY PREDICTED BY IDOCK:   -6.99 KCAL/MOL
REMARK 922        TOTAL FREE ENERGY PREDICTED BY IDOCK:  -10.51 KCAL/MOL
REMARK 923 INTER-LIGAND FREE ENERGY PREDICTED BY IDOCK:   -9.76 KCAL/MOL
REMARK 924 INTRA-LIGAND FREE ENERGY PREDICTED BY IDOCK:   -0.74 KCAL/MOL
REMARK 927      BINDING AFFINITY PREDICTED BY RF-SCORE:    0.00 PKD
ROOT
HETATM    1  F   UNL     1     -10.409   7.643  73.771  1.00  0.00    -0.378 F  
HETATM    2  C   UNL     1     -10.473   7.379  72.460  1.00  0.00    -0.236 A  
HETATM    3  C   UNL     1     -11.704   7.140  71.864  1.00  0.00    -0.328 A  
HETATM    4  C   UNL     1     -11.763   6.810  70.508  1.00  0.00    -0.430 A  
HETATM    5  C   UNL     1     -10.590   6.727  69.731  1.00  0.00    -0.263 A  
HETATM    6  C   UNL     1     -10.687   6.309  68.254  1.00  0.00    -0.356 C  
HETATM    7  C   UNL     1      -9.372   7.066  70.347  1.00  0.00    -0.159 A  
HETATM    8  C   UNL     1     -10.857   7.560  67.339  1.00  0.00    -0.272 C  
HETATM    9  C   UNL     1      -9.307   7.351  71.711  1.00  0.00    -0.161 A  
HETATM   10  C   UNL     1      -9.720   5.229  67.735  1.00  0.00    -0.170 A  
HETATM   11  C   UNL     1      -8.756   4.587  68.534  1.00  0.00    -0.117 A  
HETATM   12  C   UNL     1      -8.993   3.798  65.878  1.00  0.00    -0.135 A  
HETATM   13  F   UNL     1      -7.197   2.301  66.189  1.00  0.00    -0.055 F  
HETATM   14  C   UNL     1      -7.891   3.623  68.008  1.00  0.00    -0.068 A  
HETATM   15  C   UNL     1      -8.017   3.236  66.685  1.00  0.00    -0.080 A  
HETATM   16  C   UNL     1      -9.837   4.783  66.400  1.00  0.00    -0.236 A  
ENDROOT
BRANCH   8  17
HETATM   17  C   UNL     1      -9.767   8.645  67.382  1.00  0.00    -0.227 C  
BRANCH  17  18
HETATM   18  C   UNL     1     -10.204  10.045  67.831  1.00  0.00    -0.188 C  
BRANCH  18  19
HETATM   19  N   UNL     1      -9.957  11.106  66.856  1.00  0.00    -0.193 NA 
HETATM   20  C   UNL     1     -11.873  12.740  67.132  1.00  0.00    -0.415 C  
HETATM   21  C   UNL     1     -11.150  11.712  66.256  1.00  0.00    -0.290 C  
HETATM   22  C   UNL     1     -10.907  13.763  67.739  1.00  0.00    -0.250 C  
HETATM   23  C   UNL     1      -9.651  13.117  68.335  1.00  0.00    -0.186 C  
HETATM   24  N   UNL     1     -11.553  14.710  68.710  1.00  0.00    -0.300 NA 
HETATM   25  O   UNL     1      -9.996  14.485  65.522  1.00  0.00    -0.342 OA 
HETATM   26  C   UNL     1      -9.021  12.121  67.360  1.00  0.00    -0.180 C  
HETATM   27  C   UNL     1     -11.274  16.091  68.339  1.00  0.00    -0.364 C  
HETATM   28  C   UNL     1     -10.474  14.738  66.616  1.00  0.00    -0.286 C  
HETATM   29  N   UNL     1     -10.706  16.014  67.047  1.00  0.00    -0.308 NA 
BRANCH  24  30
HETATM   30  C   UNL     1     -12.248  14.435  69.875  1.00  0.00    -0.340 A  
HETATM   31  C   UNL     1     -12.872  15.421  70.648  1.00  0.00    -0.484 A  
HETATM   32  C   UNL     1     -13.500  15.139  71.873  1.00  0.00    -0.522 A  
HETATM   33  C   UNL     1     -13.551  13.839  72.352  1.00  0.00    -0.690 A  
HETATM   34  C   UNL     1     -12.993  12.821  71.597  1.00  0.00    -0.402 A  
HETATM   35  C   UNL     1     -12.352  13.123  70.382  1.00  0.00    -0.351 A  
ENDBRANCH  24  30
ENDBRANCH  18  19
ENDBRANCH  17  18
ENDBRANCH   8  17
TORSDOF 4
ENDMDL
MODEL       22
REMARK 921   NORMALIZED FREE ENERGY PREDICTED BY IDOCK:   -6.98 KCAL/MOL
REMARK 922        TOTAL FREE ENERGY PREDICTED BY IDOCK:  -10.49 KCAL/MOL
REMARK 923 INTER-LIGAND FREE ENERGY PREDICTED BY IDOCK:   -9.06 KCAL/MOL
REMARK 924 INTRA-LIGAND FREE ENERGY PREDICTED BY IDOCK:   -1.43 KCAL/MOL
REMARK 927      BINDING AFFINITY PREDICTED BY RF-SCORE:    0.00 PKD
ROOT
HETATM    1  F   UNL     1     -10.374  10.956  63.234  1.00  0.00    -0.370 F  
HETATM    2  C   UNL     1      -9.835  10.735  64.440  1.00  0.00    -0.315 A  
HETATM    3  C   UNL     1      -8.787   9.833  64.570  1.00  0.00    -0.248 A  
HETATM    4  C   UNL     1      -8.263   9.562  65.837  1.00  0.00    -0.115 A  
HETATM    5  C   UNL     1      -8.776  10.199  66.984  1.00  0.00    -0.137 A  
HETATM    6  C   UNL     1      -8.211   9.837  68.369  1.00  0.00    -0.105 C  
HETATM    7  C   UNL     1      -9.773  11.174  66.801  1.00  0.00    -0.220 A  
HETATM    8  C   UNL     1      -7.018  10.771  68.737  1.00  0.00    -0.075 C  
HETATM    9  C   UNL     1     -10.327  11.412  65.543  1.00  0.00    -0.317 A  
HETATM   10  C   UNL     1      -9.203   9.540  69.508  1.00  0.00    -0.198 A  
HETATM   11  C   UNL     1     -10.602   9.568  69.359  1.00  0.00    -0.235 A  
HETATM   12  C   UNL     1      -9.562   8.850  71.836  1.00  0.00    -0.326 A  
HETATM   13  F   UNL     1     -11.757   8.683  72.682  1.00  0.00    -0.432 F  
HETATM   14  C   UNL     1     -11.459   9.306  70.432  1.00  0.00    -0.255 A  
HETATM   15  C   UNL     1     -10.933   8.948  71.662  1.00  0.00    -0.345 A  
HETATM   16  C   UNL     1      -8.706   9.141  70.768  1.00  0.00    -0.285 A  
ENDROOT
BRANCH   8  17
HETATM   17  C   UNL     1      -7.272  12.287  68.788  1.00  0.00    -0.098 C  
BRANCH  17  18
HETATM   18  C   UNL     1      -6.306  13.176  67.993  1.00  0.00    -0.127 C  
BRANCH  18  19
HETATM   19  N   UNL     1      -6.186  14.546  68.488  1.00  0.00    -0.084 NA 
HETATM   20  C   UNL     1      -7.545  15.966  66.889  1.00  0.00    -0.255 C  
HETATM   21  C   UNL     1      -6.174  15.596  67.465  1.00  0.00    -0.131 C  
HETATM   22  C   UNL     1      -8.590  16.194  67.987  1.00  0.00    -0.171 C  
HETATM   23  C   UNL     1      -8.570  15.105  69.065  1.00  0.00    -0.219 C  
HETATM   24  N   UNL     1      -9.979  16.430  67.466  1.00  0.00    -0.245 NA 
HETATM   25  O   UNL     1      -7.246  17.958  69.148  1.00  0.00    -0.240 OA 
HETATM   26  C   UNL     1      -7.149  14.837  69.561  1.00  0.00    -0.172 C  
HETATM   27  C   UNL     1     -10.528  17.662  68.014  1.00  0.00    -0.394 C  
HETATM   28  C   UNL     1      -8.289  17.557  68.658  1.00  0.00    -0.258 C  
HETATM   29  N   UNL     1      -9.433  18.305  68.638  1.00  0.00    -0.332 NA 
BRANCH  24  30
HETATM   30  C   UNL     1     -10.764  15.622  66.663  1.00  0.00    -0.296 A  
HETATM   31  C   UNL     1     -10.773  15.702  65.266  1.00  0.00    -0.444 A  
HETATM   32  C   UNL     1     -11.639  14.935  64.467  1.00  0.00    -0.356 A  
HETATM   33  C   UNL     1     -12.510  14.028  65.050  1.00  0.00    -0.446 A  
HETATM   34  C   UNL     1     -12.502  13.875  66.425  1.00  0.00    -0.414 A  
HETATM   35  C   UNL     1     -11.643  14.663  67.212  1.00  0.00    -0.404 A  
ENDBRANCH  24  30
ENDBRANCH  18  19
ENDBRANCH  17  18
ENDBRANCH   8  17
TORSDOF 4
ENDMDL
MODEL       23
REMARK 921   NORMALIZED FREE ENERGY PREDICTED BY IDOCK:   -6.97 KCAL/MOL
REMARK 922        TOTAL FREE ENERGY PREDICTED BY IDOCK:  -10.47 KCAL/MOL
REMARK 923 INTER-LIGAND FREE ENERGY PREDICTED BY IDOCK:   -9.40 KCAL/MOL
REMARK 924 INTRA-LIGAND FREE ENERGY PREDICTED BY IDOCK:   -1.07 KCAL/MOL
REMARK 927      BINDING AFFINITY PREDICTED BY RF-SCORE:    0.00 PKD
ROOT
HETATM    1  F   UNL     1     -12.349   6.278  71.806  1.00  0.00    -0.377 F  
HETATM    2  C   UNL     1     -11.616   6.824  70.826  1.00  0.00    -0.366 A  
HETATM    3  C   UNL     1     -10.999   6.006  69.891  1.00  0.00    -0.458 A  
HETATM    4  C   UNL     1     -10.190   6.575  68.903  1.00  0.00    -0.206 A  
HETATM    5  C   UNL     1     -10.001   7.969  68.836  1.00  0.00    -0.199 A  
HETATM    6  C   UNL     1      -9.062   8.557  67.769  1.00  0.00    -0.143 C  
HETATM    7  C   UNL     1     -10.716   8.771  69.744  1.00  0.00    -0.220 A  
HETATM    8  C   UNL     1      -9.851   8.893  66.468  1.00  0.00    -0.344 C  
HETATM    9  C   UNL     1     -11.488   8.202  70.757  1.00  0.00    -0.272 A  
HETATM   10  C   UNL     1      -8.021   9.604  68.207  1.00  0.00    -0.096 A  
HETATM   11  C   UNL     1      -7.865  10.050  69.533  1.00  0.00    -0.155 A  
HETATM   12  C   UNL     1      -6.133  11.050  67.601  1.00  0.00    -0.048 A  
HETATM   13  F   UNL     1      -5.134  12.419  69.241  1.00  0.00    -0.066 F  
HETATM   14  C   UNL     1      -6.914  11.015  69.875  1.00  0.00    -0.055 A  
HETATM   15  C   UNL     1      -6.054  11.507  68.907  1.00  0.00    -0.052 A  
HETATM   16  C   UNL     1      -7.106  10.105  67.257  1.00  0.00    -0.088 A  
ENDROOT
BRANCH   8  17
HETATM   17  C   UNL     1     -11.024   9.885  66.565  1.00  0.00     0.148 C  
BRANCH  17  18
HETATM   18  C   UNL     1     -10.790  11.151  67.400  1.00  0.00    -0.266 C  
BRANCH  18  19
HETATM   19  N   UNL     1     -10.473  12.348  66.622  1.00  0.00    -0.228 NA 
HETATM   20  C   UNL     1     -12.036  14.148  67.480  1.00  0.00    -0.419 C  
HETATM   21  C   UNL     1     -11.602  13.236  66.328  1.00  0.00    -0.346 C  
HETATM   22  C   UNL     1     -10.846  14.865  68.129  1.00  0.00    -0.256 C  
HETATM   23  C   UNL     1      -9.663  13.930  68.402  1.00  0.00    -0.226 C  
HETATM   24  N   UNL     1     -11.209  15.667  69.346  1.00  0.00    -0.288 NA 
HETATM   25  O   UNL     1     -10.074  15.902  65.985  1.00  0.00    -0.291 OA 
HETATM   26  C   UNL     1      -9.326  13.084  67.174  1.00  0.00    -0.230 C  
HETATM   27  C   UNL     1     -10.739  17.039  69.212  1.00  0.00    -0.226 C  
HETATM   28  C   UNL     1     -10.378  15.982  67.164  1.00  0.00    -0.295 C  
HETATM   29  N   UNL     1     -10.337  17.158  67.861  1.00  0.00    -0.335 NA 
BRANCH  24  30
HETATM   30  C   UNL     1     -11.808  15.254  70.523  1.00  0.00    -0.324 A  
HETATM   31  C   UNL     1     -12.440  14.014  70.671  1.00  0.00    -0.435 A  
HETATM   32  C   UNL     1     -13.119  13.643  71.844  1.00  0.00    -0.476 A  
HETATM   33  C   UNL     1     -13.157  14.502  72.932  1.00  0.00    -0.614 A  
HETATM   34  C   UNL     1     -12.502  15.719  72.853  1.00  0.00    -0.566 A  
HETATM   35  C   UNL     1     -11.844  16.082  71.665  1.00  0.00    -0.582 A  
ENDBRANCH  24  30
ENDBRANCH  18  19
ENDBRANCH  17  18
ENDBRANCH   8  17
TORSDOF 4
ENDMDL
MODEL       24
REMARK 921   NORMALIZED FREE ENERGY PREDICTED BY IDOCK:   -6.94 KCAL/MOL
REMARK 922        TOTAL FREE ENERGY PREDICTED BY IDOCK:  -10.43 KCAL/MOL
REMARK 923 INTER-LIGAND FREE ENERGY PREDICTED BY IDOCK:   -9.66 KCAL/MOL
REMARK 924 INTRA-LIGAND FREE ENERGY PREDICTED BY IDOCK:   -0.77 KCAL/MOL
REMARK 927      BINDING AFFINITY PREDICTED BY RF-SCORE:    0.00 PKD
ROOT
HETATM    1  F   UNL     1     -12.633  12.685  63.011  1.00  0.00    -0.517 F  
HETATM    2  C   UNL     1     -12.064  13.131  64.138  1.00  0.00    -0.430 A  
HETATM    3  C   UNL     1     -12.855  13.420  65.241  1.00  0.00    -0.398 A  
HETATM    4  C   UNL     1     -12.266  13.939  66.397  1.00  0.00    -0.487 A  
HETATM    5  C   UNL     1     -10.876  14.162  66.464  1.00  0.00    -0.298 A  
HETATM    6  C   UNL     1     -10.268  14.783  67.733  1.00  0.00    -0.232 C  
HETATM    7  C   UNL     1     -10.097  13.770  65.360  1.00  0.00    -0.307 A  
HETATM    8  C   UNL     1      -9.845  13.671  68.740  1.00  0.00    -0.069 C  
HETATM    9  C   UNL     1     -10.689  13.295  64.190  1.00  0.00    -0.350 A  
HETATM   10  C   UNL     1      -9.276  15.950  67.573  1.00  0.00    -0.210 A  
HETATM   11  C   UNL     1      -8.899  16.496  66.332  1.00  0.00    -0.345 A  
HETATM   12  C   UNL     1      -7.863  17.649  68.640  1.00  0.00    -0.280 A  
HETATM   13  F   UNL     1      -6.606  19.132  67.306  1.00  0.00    -0.191 F  
HETATM   14  C   UNL     1      -7.982  17.547  66.241  1.00  0.00    -0.303 A  
HETATM   15  C   UNL     1      -7.471  18.115  67.396  1.00  0.00    -0.212 A  
HETATM   16  C   UNL     1      -8.759  16.578  68.726  1.00  0.00    -0.259 A  
ENDROOT
BRANCH   8  17
HETATM   17  C   UNL     1      -8.823  12.619  68.275  1.00  0.00    -0.172 C  
BRANCH  17  18
HETATM   18  C   UNL     1      -9.354  11.200  68.034  1.00  0.00    -0.166 C  
BRANCH  18  19
HETATM   19  N   UNL     1      -8.401  10.131  68.329  1.00  0.00    -0.113 NA 
HETATM   20  C   UNL     1      -9.021   9.287  70.635  1.00  0.00    -0.296 C  
HETATM   21  C   UNL     1      -8.006   9.998  69.735  1.00  0.00    -0.180 C  
HETATM   22  C   UNL     1      -9.528   7.980  70.016  1.00  0.00    -0.160 C  
HETATM   23  C   UNL     1      -9.907   8.128  68.538  1.00  0.00    -0.190 C  
HETATM   24  N   UNL     1     -10.621   7.316  70.802  1.00  0.00    -0.220 NA 
HETATM   25  O   UNL     1      -7.237   7.003  69.764  1.00  0.00    -0.075 OA 
HETATM   26  C   UNL     1      -8.810   8.843  67.749  1.00  0.00    -0.135 C  
HETATM   27  C   UNL     1     -10.276   5.931  71.091  1.00  0.00    -0.212 C  
HETATM   28  C   UNL     1      -8.398   6.927  70.130  1.00  0.00    -0.135 C  
HETATM   29  N   UNL     1      -8.913   5.813  70.732  1.00  0.00    -0.146 NA 
BRANCH  24  30
HETATM   30  C   UNL     1     -11.861   7.809  71.171  1.00  0.00    -0.291 A  
HETATM   31  C   UNL     1     -12.104   9.163  71.430  1.00  0.00    -0.409 A  
HETATM   32  C   UNL     1     -13.345   9.637  71.887  1.00  0.00    -0.526 A  
HETATM   33  C   UNL     1     -14.405   8.763  72.069  1.00  0.00    -0.466 A  
HETATM   34  C   UNL     1     -14.230   7.421  71.776  1.00  0.00    -0.544 A  
HETATM   35  C   UNL     1     -12.976   6.960  71.338  1.00  0.00    -0.339 A  
ENDBRANCH  24  30
ENDBRANCH  18  19
ENDBRANCH  17  18
ENDBRANCH   8  17
TORSDOF 4
ENDMDL
MODEL       25
REMARK 921   NORMALIZED FREE ENERGY PREDICTED BY IDOCK:   -6.92 KCAL/MOL
REMARK 922        TOTAL FREE ENERGY PREDICTED BY IDOCK:  -10.42 KCAL/MOL
REMARK 923 INTER-LIGAND FREE ENERGY PREDICTED BY IDOCK:   -8.78 KCAL/MOL
REMARK 924 INTRA-LIGAND FREE ENERGY PREDICTED BY IDOCK:   -1.64 KCAL/MOL
REMARK 927      BINDING AFFINITY PREDICTED BY RF-SCORE:    0.00 PKD
ROOT
HETATM    1  F   UNL     1      -5.170  13.159  67.996  1.00  0.00    -0.073 F  
HETATM    2  C   UNL     1      -6.251  12.388  67.822  1.00  0.00    -0.111 A  
HETATM    3  C   UNL     1      -7.267  12.404  68.767  1.00  0.00    -0.094 A  
HETATM    4  C   UNL     1      -8.368  11.558  68.612  1.00  0.00    -0.123 A  
HETATM    5  C   UNL     1      -8.468  10.695  67.502  1.00  0.00    -0.121 A  
HETATM    6  C   UNL     1      -9.668   9.740  67.390  1.00  0.00    -0.202 C  
HETATM    7  C   UNL     1      -7.465  10.774  66.520  1.00  0.00    -0.139 A  
HETATM    8  C   UNL     1     -10.835  10.412  66.605  1.00  0.00    -0.140 C  
HETATM    9  C   UNL     1      -6.343  11.585  66.697  1.00  0.00    -0.103 A  
HETATM   10  C   UNL     1      -9.397   8.263  67.048  1.00  0.00    -0.203 A  
HETATM   11  C   UNL     1      -8.113   7.727  66.842  1.00  0.00    -0.116 A  
HETATM   12  C   UNL     1     -10.289   6.001  66.711  1.00  0.00    -0.296 A  
HETATM   13  F   UNL     1      -8.825   4.237  66.159  1.00  0.00    -0.112 F  
HETATM   14  C   UNL     1      -7.923   6.381  66.517  1.00  0.00    -0.109 A  
HETATM   15  C   UNL     1      -9.013   5.528  66.455  1.00  0.00    -0.131 A  
HETATM   16  C   UNL     1     -10.478   7.356  67.007  1.00  0.00    -0.404 A  
ENDROOT
BRANCH   8  17
HETATM   17  C   UNL     1     -10.563  10.890  65.168  1.00  0.00    -0.268 C  
BRANCH  17  18
HETATM   18  C   UNL     1     -11.712  11.613  64.452  1.00  0.00    -0.143 C  
BRANCH  18  19
HETATM   19  N   UNL     1     -11.412  12.983  64.042  1.00  0.00    -0.398 NA 
HETATM   20  C   UNL     1     -12.533  14.467  65.762  1.00  0.00    -0.222 C  
HETATM   21  C   UNL     1     -12.457  13.975  64.313  1.00  0.00    -0.262 C  
HETATM   22  C   UNL     1     -11.157  14.864  66.309  1.00  0.00    -0.340 C  
HETATM   23  C   UNL     1     -10.069  13.832  65.992  1.00  0.00    -0.320 C  
HETATM   24  N   UNL     1     -11.164  15.228  67.767  1.00  0.00    -0.320 NA 
HETATM   25  O   UNL     1     -10.710  16.520  64.487  1.00  0.00    -0.721 OA 
HETATM   26  C   UNL     1     -10.094  13.432  64.516  1.00  0.00    -0.192 C  
HETATM   27  C   UNL     1     -10.563  16.539  67.968  1.00  0.00    -0.328 C  
HETATM   28  C   UNL     1     -10.758  16.215  65.667  1.00  0.00    -0.310 C  
HETATM   29  N   UNL     1     -10.430  17.084  66.670  1.00  0.00    -0.288 NA 
BRANCH  24  30
HETATM   30  C   UNL     1     -11.560  14.475  68.858  1.00  0.00    -0.309 A  
HETATM   31  C   UNL     1     -11.384  13.089  68.941  1.00  0.00    -0.333 A  
HETATM   32  C   UNL     1     -11.868  12.325  70.016  1.00  0.00    -0.372 A  
HETATM   33  C   UNL     1     -12.522  12.939  71.073  1.00  0.00    -0.374 A  
HETATM   34  C   UNL     1     -12.675  14.315  71.062  1.00  0.00    -0.430 A  
HETATM   35  C   UNL     1     -12.201  15.062  69.969  1.00  0.00    -0.373 A  
ENDBRANCH  24  30
ENDBRANCH  18  19
ENDBRANCH  17  18
ENDBRANCH   8  17
TORSDOF 4
ENDMDL
MODEL       26
REMARK 921   NORMALIZED FREE ENERGY PREDICTED BY IDOCK:   -6.92 KCAL/MOL
REMARK 922        TOTAL FREE ENERGY PREDICTED BY IDOCK:  -10.42 KCAL/MOL
REMARK 923 INTER-LIGAND FREE ENERGY PREDICTED BY IDOCK:   -8.71 KCAL/MOL
REMARK 924 INTRA-LIGAND FREE ENERGY PREDICTED BY IDOCK:   -1.71 KCAL/MOL
REMARK 927      BINDING AFFINITY PREDICTED BY RF-SCORE:    0.00 PKD
ROOT
HETATM    1  F   UNL     1     -12.769  16.210  71.704  1.00  0.00    -0.497 F  
HETATM    2  C   UNL     1     -12.094  15.505  70.788  1.00  0.00    -0.390 A  
HETATM    3  C   UNL     1     -10.835  15.927  70.385  1.00  0.00    -0.325 A  
HETATM    4  C   UNL     1     -10.155  15.222  69.388  1.00  0.00    -0.266 A  
HETATM    5  C   UNL     1     -10.726  14.079  68.793  1.00  0.00    -0.272 A  
HETATM    6  C   UNL     1      -9.973  13.357  67.662  1.00  0.00    -0.229 C  
HETATM    7  C   UNL     1     -11.961  13.629  69.292  1.00  0.00    -0.384 A  
HETATM    8  C   UNL     1      -9.052  12.241  68.240  1.00  0.00    -0.187 C  
HETATM    9  C   UNL     1     -12.660  14.358  70.255  1.00  0.00    -0.380 A  
HETATM   10  C   UNL     1     -10.752  12.986  66.386  1.00  0.00    -0.295 A  
HETATM   11  C   UNL     1     -12.113  13.278  66.184  1.00  0.00    -0.477 A  
HETATM   12  C   UNL     1     -10.719  12.035  64.124  1.00  0.00    -0.405 A  
HETATM   13  F   UNL     1     -12.711  11.944  62.864  1.00  0.00    -0.586 F  
HETATM   14  C   UNL     1     -12.778  12.904  65.012  1.00  0.00    -0.474 A  
HETATM   15  C   UNL     1     -12.075  12.286  63.991  1.00  0.00    -0.471 A  
HETATM   16  C   UNL     1     -10.065  12.384  65.310  1.00  0.00    -0.285 A  
ENDROOT
BRANCH   8  17
HETATM   17  C   UNL     1      -9.702  11.121  69.072  1.00  0.00    -0.113 C  
BRANCH  17  18
HETATM   18  C   UNL     1      -8.798   9.948  69.476  1.00  0.00    -0.197 C  
BRANCH  18  19
HETATM   19  N   UNL     1      -9.404   8.627  69.322  1.00  0.00    -0.153 NA 
HETATM   20  C   UNL     1     -10.006   8.439  66.868  1.00  0.00    -0.341 C  
HETATM   21  C   UNL     1     -10.474   8.528  68.324  1.00  0.00    -0.171 C  
HETATM   22  C   UNL     1      -8.896   7.398  66.680  1.00  0.00    -0.143 C  
HETATM   23  C   UNL     1      -7.801   7.495  67.748  1.00  0.00    -0.117 C  
HETATM   24  N   UNL     1      -8.316   7.371  65.295  1.00  0.00    -0.131 NA 
HETATM   25  O   UNL     1     -10.249   5.522  67.636  1.00  0.00    -0.168 OA 
HETATM   26  C   UNL     1      -8.398   7.568  69.154  1.00  0.00    -0.135 C  
HETATM   27  C   UNL     1      -8.361   6.021  64.750  1.00  0.00    -0.086 C  
HETATM   28  C   UNL     1      -9.540   5.993  66.761  1.00  0.00    -0.149 C  
HETATM   29  N   UNL     1      -9.175   5.291  65.646  1.00  0.00    -0.155 NA 
BRANCH  24  30
HETATM   30  C   UNL     1      -7.707   8.385  64.578  1.00  0.00    -0.121 A  
HETATM   31  C   UNL     1      -8.374   9.157  63.620  1.00  0.00    -0.187 A  
HETATM   32  C   UNL     1      -7.723  10.126  62.838  1.00  0.00    -0.148 A  
HETATM   33  C   UNL     1      -6.371  10.377  63.017  1.00  0.00    -0.121 A  
HETATM   34  C   UNL     1      -5.679   9.676  63.988  1.00  0.00    -0.087 A  
HETATM   35  C   UNL     1      -6.341   8.697  64.750  1.00  0.00    -0.065 A  
ENDBRANCH  24  30
ENDBRANCH  18  19
ENDBRANCH  17  18
ENDBRANCH   8  17
TORSDOF 4
ENDMDL
MODEL       27
REMARK 921   NORMALIZED FREE ENERGY PREDICTED BY IDOCK:   -6.89 KCAL/MOL
REMARK 922        TOTAL FREE ENERGY PREDICTED BY IDOCK:  -10.38 KCAL/MOL
REMARK 923 INTER-LIGAND FREE ENERGY PREDICTED BY IDOCK:   -9.72 KCAL/MOL
REMARK 924 INTRA-LIGAND FREE ENERGY PREDICTED BY IDOCK:   -0.66 KCAL/MOL
REMARK 927      BINDING AFFINITY PREDICTED BY RF-SCORE:    0.00 PKD
ROOT
HETATM    1  F   UNL     1     -11.180  16.176  63.904  1.00  0.00    -0.248 F  
HETATM    2  C   UNL     1     -11.360  15.429  65.000  1.00  0.00    -0.333 A  
HETATM    3  C   UNL     1     -12.278  14.388  64.980  1.00  0.00    -0.418 A  
HETATM    4  C   UNL     1     -12.505  13.645  66.142  1.00  0.00    -0.449 A  
HETATM    5  C   UNL     1     -11.806  13.929  67.332  1.00  0.00    -0.437 A  
HETATM    6  C   UNL     1     -12.118  13.126  68.605  1.00  0.00    -0.222 C  
HETATM    7  C   UNL     1     -10.818  14.929  67.287  1.00  0.00    -0.306 A  
HETATM    8  C   UNL     1     -11.196  11.873  68.705  1.00  0.00    -0.311 C  
HETATM    9  C   UNL     1     -10.623  15.701  66.141  1.00  0.00    -0.325 A  
HETATM   10  C   UNL     1     -12.341  13.896  69.920  1.00  0.00    -0.358 A  
HETATM   11  C   UNL     1     -12.290  15.298  70.027  1.00  0.00    -0.366 A  
HETATM   12  C   UNL     1     -12.920  13.833  72.304  1.00  0.00    -0.432 A  
HETATM   13  F   UNL     1     -12.999  15.838  73.543  1.00  0.00    -0.495 F  
HETATM   14  C   UNL     1     -12.484  15.948  71.249  1.00  0.00    -0.442 A  
HETATM   15  C   UNL     1     -12.798  15.210  72.378  1.00  0.00    -0.356 A  
HETATM   16  C   UNL     1     -12.696  13.183  71.085  1.00  0.00    -0.386 A  
ENDROOT
BRANCH   8  17
HETATM   17  C   UNL     1      -9.673  12.092  68.729  1.00  0.00    -0.029 C  
BRANCH  17  18
HETATM   18  C   UNL     1      -8.801  10.849  68.950  1.00  0.00    -0.138 C  
BRANCH  18  19
HETATM   19  N   UNL     1      -8.500  10.089  67.738  1.00  0.00    -0.114 NA 
HETATM   20  C   UNL     1      -8.126   7.705  68.507  1.00  0.00    -0.124 C  
HETATM   21  C   UNL     1      -7.548   8.985  67.896  1.00  0.00    -0.093 C  
HETATM   22  C   UNL     1      -9.440   7.287  67.839  1.00  0.00    -0.135 C  
HETATM   23  C   UNL     1     -10.413   8.458  67.653  1.00  0.00    -0.307 C  
HETATM   24  N   UNL     1     -10.110   6.113  68.492  1.00  0.00    -0.150 NA 
HETATM   25  O   UNL     1      -8.451   7.195  65.542  1.00  0.00    -0.138 OA 
HETATM   26  C   UNL     1      -9.716   9.667  67.027  1.00  0.00    -0.181 C  
HETATM   27  C   UNL     1     -10.389   5.073  67.511  1.00  0.00    -0.089 C  
HETATM   28  C   UNL     1      -9.104   6.701  66.446  1.00  0.00    -0.152 C  
HETATM   29  N   UNL     1      -9.686   5.468  66.350  1.00  0.00    -0.157 NA 
BRANCH  24  30
HETATM   30  C   UNL     1     -10.540   5.962  69.799  1.00  0.00    -0.303 A  
HETATM   31  C   UNL     1     -11.642   6.644  70.329  1.00  0.00    -0.454 A  
HETATM   32  C   UNL     1     -12.015   6.547  71.680  1.00  0.00    -0.387 A  
HETATM   33  C   UNL     1     -11.307   5.728  72.546  1.00  0.00    -0.358 A  
HETATM   34  C   UNL     1     -10.242   4.993  72.057  1.00  0.00    -0.262 A  
HETATM   35  C   UNL     1      -9.869   5.115  70.707  1.00  0.00    -0.270 A  
ENDBRANCH  24  30
ENDBRANCH  18  19
ENDBRANCH  17  18
ENDBRANCH   8  17
TORSDOF 4
ENDMDL
MODEL       28
REMARK 921   NORMALIZED FREE ENERGY PREDICTED BY IDOCK:   -6.86 KCAL/MOL
REMARK 922        TOTAL FREE ENERGY PREDICTED BY IDOCK:  -10.34 KCAL/MOL
REMARK 923 INTER-LIGAND FREE ENERGY PREDICTED BY IDOCK:   -9.58 KCAL/MOL
REMARK 924 INTRA-LIGAND FREE ENERGY PREDICTED BY IDOCK:   -0.76 KCAL/MOL
REMARK 927      BINDING AFFINITY PREDICTED BY RF-SCORE:    0.00 PKD
ROOT
HETATM    1  F   UNL     1      -6.785   7.543  74.540  1.00  0.00    -0.095 F  
HETATM    2  C   UNL     1      -7.601   7.702  73.490  1.00  0.00    -0.114 A  
HETATM    3  C   UNL     1      -8.969   7.821  73.692  1.00  0.00    -0.335 A  
HETATM    4  C   UNL     1      -9.823   7.931  72.592  1.00  0.00    -0.316 A  
HETATM    5  C   UNL     1      -9.314   7.935  71.278  1.00  0.00    -0.172 A  
HETATM    6  C   UNL     1     -10.287   8.005  70.088  1.00  0.00    -0.215 C  
HETATM    7  C   UNL     1      -7.917   7.907  71.117  1.00  0.00    -0.091 A  
HETATM    8  C   UNL     1     -10.552   9.486  69.681  1.00  0.00    -0.245 C  
HETATM    9  C   UNL     1      -7.067   7.751  72.212  1.00  0.00    -0.079 A  
HETATM   10  C   UNL     1     -10.089   7.017  68.923  1.00  0.00    -0.174 A  
HETATM   11  C   UNL     1      -9.076   6.041  68.884  1.00  0.00    -0.121 A  
HETATM   12  C   UNL     1     -10.885   6.138  66.775  1.00  0.00    -0.360 A  
HETATM   13  F   UNL     1      -9.703   4.396  65.713  1.00  0.00    -0.149 F  
HETATM   14  C   UNL     1      -8.930   5.179  67.793  1.00  0.00    -0.114 A  
HETATM   15  C   UNL     1      -9.837   5.234  66.748  1.00  0.00    -0.176 A  
HETATM   16  C   UNL     1     -11.011   7.020  67.854  1.00  0.00    -0.202 A  
ENDROOT
BRANCH   8  17
HETATM   17  C   UNL     1      -9.349  10.353  69.271  1.00  0.00    -0.202 C  
BRANCH  17  18
HETATM   18  C   UNL     1      -9.659  11.645  68.503  1.00  0.00    -0.178 C  
BRANCH  18  19
HETATM   19  N   UNL     1     -10.797  11.556  67.590  1.00  0.00    -0.213 NA 
HETATM   20  C   UNL     1     -11.673  13.922  67.365  1.00  0.00    -0.422 C  
HETATM   21  C   UNL     1     -11.899  12.487  67.850  1.00  0.00    -0.323 C  
HETATM   22  C   UNL     1     -11.160  13.970  65.922  1.00  0.00    -0.301 C  
HETATM   23  C   UNL     1     -10.029  12.971  65.657  1.00  0.00    -0.239 C  
HETATM   24  N   UNL     1     -10.800  15.350  65.449  1.00  0.00    -0.369 NA 
HETATM   25  O   UNL     1     -13.092  12.670  65.003  1.00  0.00    -0.808 OA 
HETATM   26  C   UNL     1     -10.383  11.578  66.179  1.00  0.00    -0.245 C  
HETATM   27  C   UNL     1     -11.490  15.660  64.205  1.00  0.00    -0.193 C  
HETATM   28  C   UNL     1     -12.344  13.634  64.982  1.00  0.00    -0.427 C  
HETATM   29  N   UNL     1     -12.444  14.628  64.049  1.00  0.00    -0.813 NA 
BRANCH  24  30
HETATM   30  C   UNL     1      -9.886  16.246  65.974  1.00  0.00    -0.343 A  
HETATM   31  C   UNL     1     -10.193  17.584  66.251  1.00  0.00    -0.356 A  
HETATM   32  C   UNL     1      -9.232  18.505  66.703  1.00  0.00    -0.306 A  
HETATM   33  C   UNL     1      -7.925  18.101  66.924  1.00  0.00    -0.250 A  
HETATM   34  C   UNL     1      -7.584  16.777  66.713  1.00  0.00    -0.283 A  
HETATM   35  C   UNL     1      -8.552  15.872  66.244  1.00  0.00    -0.348 A  
ENDBRANCH  24  30
ENDBRANCH  18  19
ENDBRANCH  17  18
ENDBRANCH   8  17
TORSDOF 4
ENDMDL
MODEL       29
REMARK 921   NORMALIZED FREE ENERGY PREDICTED BY IDOCK:   -6.83 KCAL/MOL
REMARK 922        TOTAL FREE ENERGY PREDICTED BY IDOCK:  -10.31 KCAL/MOL
REMARK 923 INTER-LIGAND FREE ENERGY PREDICTED BY IDOCK:   -8.96 KCAL/MOL
REMARK 924 INTRA-LIGAND FREE ENERGY PREDICTED BY IDOCK:   -1.35 KCAL/MOL
REMARK 927      BINDING AFFINITY PREDICTED BY RF-SCORE:    0.00 PKD
ROOT
HETATM    1  F   UNL     1     -11.818  12.009  62.608  1.00  0.00    -0.011 F  
HETATM    2  C   UNL     1     -11.674  12.622  63.790  1.00  0.00    -0.491 A  
HETATM    3  C   UNL     1     -12.725  12.622  64.697  1.00  0.00    -0.458 A  
HETATM    4  C   UNL     1     -12.593  13.309  65.907  1.00  0.00    -0.349 A  
HETATM    5  C   UNL     1     -11.403  13.994  66.225  1.00  0.00    -0.336 A  
HETATM    6  C   UNL     1     -11.312  14.785  67.541  1.00  0.00    -0.355 C  
HETATM    7  C   UNL     1     -10.329  13.894  65.322  1.00  0.00    -0.396 A  
HETATM    8  C   UNL     1     -10.756  13.883  68.685  1.00  0.00    -0.272 C  
HETATM    9  C   UNL     1     -10.476  13.246  64.095  1.00  0.00    -0.281 A  
HETATM   10  C   UNL     1     -10.758  16.221  67.495  1.00  0.00    -0.300 A  
HETATM   11  C   UNL     1     -10.341  16.865  66.315  1.00  0.00    -0.312 A  
HETATM   12  C   UNL     1     -10.246  18.300  68.695  1.00  0.00    -0.377 A  
HETATM   13  F   UNL     1      -9.314  20.125  67.528  1.00  0.00    -0.406 F  
HETATM   14  C   UNL     1      -9.830  18.166  66.331  1.00  0.00    -0.353 A  
HETATM   15  C   UNL     1      -9.788  18.874  67.520  1.00  0.00    -0.327 A  
HETATM   16  C   UNL     1     -10.729  16.987  68.680  1.00  0.00    -0.333 A  
ENDROOT
BRANCH   8  17
HETATM   17  C   UNL     1      -9.368  13.246  68.499  1.00  0.00    -0.091 C  
BRANCH  17  18
HETATM   18  C   UNL     1      -9.276  11.726  68.689  1.00  0.00    -0.083 C  
BRANCH  18  19
HETATM   19  N   UNL     1      -8.895  10.981  67.490  1.00  0.00    -0.130 NA 
HETATM   20  C   UNL     1      -8.235   8.675  68.304  1.00  0.00    -0.122 C  
HETATM   21  C   UNL     1      -7.818  10.002  67.662  1.00  0.00    -0.095 C  
HETATM   22  C   UNL     1      -9.496   8.091  67.656  1.00  0.00    -0.145 C  
HETATM   23  C   UNL     1     -10.601   9.133  67.454  1.00  0.00    -0.315 C  
HETATM   24  N   UNL     1     -10.017   6.859  68.339  1.00  0.00    -0.143 NA 
HETATM   25  O   UNL     1      -8.516   8.068  65.352  1.00  0.00    -0.149 OA 
HETATM   26  C   UNL     1     -10.057  10.403  66.799  1.00  0.00    -0.214 C  
HETATM   27  C   UNL     1     -10.177   5.773  67.381  1.00  0.00    -0.200 C  
HETATM   28  C   UNL     1      -9.100   7.519  66.272  1.00  0.00    -0.157 C  
HETATM   29  N   UNL     1      -9.533   6.224  66.206  1.00  0.00    -0.137 NA 
BRANCH  24  30
HETATM   30  C   UNL     1     -10.418   6.686  69.652  1.00  0.00    -0.213 A  
HETATM   31  C   UNL     1      -9.599   6.125  70.639  1.00  0.00    -0.195 A  
HETATM   32  C   UNL     1     -10.049   5.876  71.946  1.00  0.00    -0.222 A  
HETATM   33  C   UNL     1     -11.339   6.217  72.320  1.00  0.00    -0.337 A  
HETATM   34  C   UNL     1     -12.171   6.823  71.394  1.00  0.00    -0.413 A  
HETATM   35  C   UNL     1     -11.712   7.048  70.085  1.00  0.00    -0.238 A  
ENDBRANCH  24  30
ENDBRANCH  18  19
ENDBRANCH  17  18
ENDBRANCH   8  17
TORSDOF 4
ENDMDL
MODEL       30
REMARK 921   NORMALIZED FREE ENERGY PREDICTED BY IDOCK:   -6.83 KCAL/MOL
REMARK 922        TOTAL FREE ENERGY PREDICTED BY IDOCK:  -10.31 KCAL/MOL
REMARK 923 INTER-LIGAND FREE ENERGY PREDICTED BY IDOCK:   -8.97 KCAL/MOL
REMARK 924 INTRA-LIGAND FREE ENERGY PREDICTED BY IDOCK:   -1.34 KCAL/MOL
REMARK 927      BINDING AFFINITY PREDICTED BY RF-SCORE:    0.00 PKD
ROOT
HETATM    1  F   UNL     1     -12.076  12.611  63.054  1.00  0.00    -0.543 F  
HETATM    2  C   UNL     1     -11.235  11.918  63.832  1.00  0.00    -0.420 A  
HETATM    3  C   UNL     1     -10.005  11.517  63.330  1.00  0.00    -0.445 A  
HETATM    4  C   UNL     1      -9.152  10.747  64.125  1.00  0.00    -0.215 A  
HETATM    5  C   UNL     1      -9.518  10.381  65.435  1.00  0.00    -0.285 A  
HETATM    6  C   UNL     1      -8.578   9.488  66.264  1.00  0.00    -0.141 C  
HETATM    7  C   UNL     1     -10.731  10.883  65.941  1.00  0.00    -0.193 A  
HETATM    8  C   UNL     1      -7.586  10.357  67.095  1.00  0.00    -0.096 C  
HETATM    9  C   UNL     1     -11.602  11.614  65.133  1.00  0.00    -0.122 A  
HETATM   10  C   UNL     1      -9.180   8.276  66.999  1.00  0.00    -0.187 A  
HETATM   11  C   UNL     1     -10.541   7.924  66.949  1.00  0.00    -0.333 A  
HETATM   12  C   UNL     1      -8.815   6.285  68.386  1.00  0.00    -0.114 A  
HETATM   13  F   UNL     1     -10.651   4.945  69.016  1.00  0.00    -0.229 F  
HETATM   14  C   UNL     1     -11.040   6.821  67.649  1.00  0.00    -0.309 A  
HETATM   15  C   UNL     1     -10.173   6.009  68.361  1.00  0.00    -0.181 A  
HETATM   16  C   UNL     1      -8.325   7.406  67.709  1.00  0.00    -0.118 A  
ENDROOT
BRANCH   8  17
HETATM   17  C   UNL     1      -8.169  11.369  68.096  1.00  0.00    -0.143 C  
BRANCH  17  18
HETATM   18  C   UNL     1      -7.328  12.620  68.383  1.00  0.00    -0.118 C  
BRANCH  18  19
HETATM   19  N   UNL     1      -7.433  13.673  67.374  1.00  0.00    -0.158 NA 
HETATM   20  C   UNL     1      -9.890  14.286  67.287  1.00  0.00    -0.244 C  
HETATM   21  C   UNL     1      -8.669  13.681  66.586  1.00  0.00     0.004 C  
HETATM   22  C   UNL     1      -9.570  15.637  67.938  1.00  0.00    -0.206 C  
HETATM   23  C   UNL     1      -8.260  15.621  68.733  1.00  0.00    -0.183 C  
HETATM   24  N   UNL     1     -10.701  16.204  68.748  1.00  0.00    -0.275 NA 
HETATM   25  O   UNL     1      -8.757  16.673  65.810  1.00  0.00    -0.482 OA 
HETATM   26  C   UNL     1      -7.122  15.002  67.920  1.00  0.00    -0.151 C  
HETATM   27  C   UNL     1     -11.006  17.562  68.319  1.00  0.00    -0.099 C  
HETATM   28  C   UNL     1      -9.451  16.694  66.813  1.00  0.00    -0.244 C  
HETATM   29  N   UNL     1     -10.279  17.737  67.118  1.00  0.00    -0.339 NA 
BRANCH  24  30
HETATM   30  C   UNL     1     -11.365  15.658  69.832  1.00  0.00    -0.337 A  
HETATM   31  C   UNL     1     -12.148  14.500  69.750  1.00  0.00    -0.380 A  
HETATM   32  C   UNL     1     -12.887  14.005  70.837  1.00  0.00    -0.389 A  
HETATM   33  C   UNL     1     -12.837  14.643  72.067  1.00  0.00    -0.403 A  
HETATM   34  C   UNL     1     -12.036  15.762  72.212  1.00  0.00    -0.592 A  
HETATM   35  C   UNL     1     -11.318  16.256  71.109  1.00  0.00    -0.297 A  
ENDBRANCH  24  30
ENDBRANCH  18  19
ENDBRANCH  17  18
ENDBRANCH   8  17
TORSDOF 4
ENDMDL
MODEL       31
REMARK 921   NORMALIZED FREE ENERGY PREDICTED BY IDOCK:   -6.82 KCAL/MOL
REMARK 922        TOTAL FREE ENERGY PREDICTED BY IDOCK:  -10.29 KCAL/MOL
REMARK 923 INTER-LIGAND FREE ENERGY PREDICTED BY IDOCK:   -8.57 KCAL/MOL
REMARK 924 INTRA-LIGAND FREE ENERGY PREDICTED BY IDOCK:   -1.72 KCAL/MOL
REMARK 927      BINDING AFFINITY PREDICTED BY RF-SCORE:    0.00 PKD
ROOT
HETATM    1  F   UNL     1      -9.851   2.562  65.041  1.00  0.00    -0.088 F  
HETATM    2  C   UNL     1      -9.425   3.739  65.518  1.00  0.00    -0.169 A  
HETATM    3  C   UNL     1      -8.064   4.004  65.580  1.00  0.00    -0.101 A  
HETATM    4  C   UNL     1      -7.620   5.210  66.129  1.00  0.00    -0.087 A  
HETATM    5  C   UNL     1      -8.535   6.166  66.613  1.00  0.00    -0.116 A  
HETATM    6  C   UNL     1      -8.009   7.459  67.260  1.00  0.00    -0.115 C  
HETATM    7  C   UNL     1      -9.906   5.901  66.449  1.00  0.00    -0.161 A  
HETATM    8  C   UNL     1      -7.845   8.581  66.191  1.00  0.00    -0.098 C  
HETATM    9  C   UNL     1     -10.350   4.679  65.941  1.00  0.00    -0.315 A  
HETATM   10  C   UNL     1      -8.614   7.902  68.605  1.00  0.00    -0.128 A  
HETATM   11  C   UNL     1      -9.615   7.187  69.290  1.00  0.00    -0.155 A  
HETATM   12  C   UNL     1      -8.604   9.490  70.476  1.00  0.00    -0.231 A  
HETATM   13  F   UNL     1     -10.128   9.213  72.254  1.00  0.00    -0.366 F  
HETATM   14  C   UNL     1     -10.142   7.642  70.502  1.00  0.00    -0.189 A  
HETATM   15  C   UNL     1      -9.632   8.789  71.086  1.00  0.00    -0.242 A  
HETATM   16  C   UNL     1      -8.099   9.048  69.248  1.00  0.00    -0.105 A  
ENDROOT
BRANCH   8  17
HETATM   17  C   UNL     1      -9.087   9.007  65.388  1.00  0.00    -0.250 C  
BRANCH  17  18
HETATM   18  C   UNL     1     -10.025  10.022  66.054  1.00  0.00    -0.267 C  
BRANCH  18  19
HETATM   19  N   UNL     1      -9.730  11.421  65.748  1.00  0.00    -0.224 NA 
HETATM   20  C   UNL     1     -11.592  12.759  66.826  1.00  0.00    -0.431 C  
HETATM   21  C   UNL     1     -10.894  12.289  65.545  1.00  0.00    -0.282 C  
HETATM   22  C   UNL     1     -10.598  13.298  67.861  1.00  0.00    -0.238 C  
HETATM   23  C   UNL     1      -9.373  12.395  68.040  1.00  0.00    -0.204 C  
HETATM   24  N   UNL     1     -11.224  13.647  69.181  1.00  0.00    -0.263 NA 
HETATM   25  O   UNL     1      -9.635  15.009  66.308  1.00  0.00    -0.269 OA 
HETATM   26  C   UNL     1      -8.766  12.007  66.691  1.00  0.00    -0.171 C  
HETATM   27  C   UNL     1     -10.893  15.014  69.558  1.00  0.00    -0.262 C  
HETATM   28  C   UNL     1     -10.118  14.690  67.383  1.00  0.00    -0.232 C  
HETATM   29  N   UNL     1     -10.311  15.581  68.401  1.00  0.00    -0.227 NA 
BRANCH  24  30
HETATM   30  C   UNL     1     -11.942  12.846  70.052  1.00  0.00    -0.309 A  
HETATM   31  C   UNL     1     -12.646  13.345  71.153  1.00  0.00    -0.430 A  
HETATM   32  C   UNL     1     -13.300  12.513  72.077  1.00  0.00    -0.528 A  
HETATM   33  C   UNL     1     -13.295  11.137  71.906  1.00  0.00    -0.409 A  
HETATM   34  C   UNL     1     -12.656  10.598  70.803  1.00  0.00    -0.479 A  
HETATM   35  C   UNL     1     -11.991  11.443  69.898  1.00  0.00    -0.434 A  
ENDBRANCH  24  30
ENDBRANCH  18  19
ENDBRANCH  17  18
ENDBRANCH   8  17
TORSDOF 4
ENDMDL
MODEL       32
REMARK 921   NORMALIZED FREE ENERGY PREDICTED BY IDOCK:   -6.82 KCAL/MOL
REMARK 922        TOTAL FREE ENERGY PREDICTED BY IDOCK:  -10.29 KCAL/MOL
REMARK 923 INTER-LIGAND FREE ENERGY PREDICTED BY IDOCK:   -9.07 KCAL/MOL
REMARK 924 INTRA-LIGAND FREE ENERGY PREDICTED BY IDOCK:   -1.21 KCAL/MOL
REMARK 927      BINDING AFFINITY PREDICTED BY RF-SCORE:    0.00 PKD
ROOT
HETATM    1  F   UNL     1     -12.263   9.632  72.153  1.00  0.00    -0.425 F  
HETATM    2  C   UNL     1     -11.653  10.051  71.037  1.00  0.00    -0.393 A  
HETATM    3  C   UNL     1     -12.278  10.982  70.219  1.00  0.00    -0.447 A  
HETATM    4  C   UNL     1     -11.665  11.375  69.026  1.00  0.00    -0.409 A  
HETATM    5  C   UNL     1     -10.415  10.849  68.646  1.00  0.00    -0.216 A  
HETATM    6  C   UNL     1      -9.794  11.264  67.301  1.00  0.00    -0.203 C  
HETATM    7  C   UNL     1      -9.771   9.978  69.544  1.00  0.00    -0.253 A  
HETATM    8  C   UNL     1      -8.886  12.518  67.480  1.00  0.00    -0.184 C  
HETATM    9  C   UNL     1     -10.402   9.551  70.713  1.00  0.00    -0.377 A  
HETATM   10  C   UNL     1      -9.237  10.161  66.382  1.00  0.00    -0.190 A  
HETATM   11  C   UNL     1      -9.272   8.789  66.690  1.00  0.00    -0.223 A  
HETATM   12  C   UNL     1      -8.215   9.554  64.235  1.00  0.00    -0.157 A  
HETATM   13  F   UNL     1      -7.716   7.296  63.774  1.00  0.00    -0.094 F  
HETATM   14  C   UNL     1      -8.736   7.829  65.826  1.00  0.00    -0.160 A  
HETATM   15  C   UNL     1      -8.213   8.219  64.605  1.00  0.00    -0.142 A  
HETATM   16  C   UNL     1      -8.725  10.515  65.115  1.00  0.00    -0.197 A  
ENDROOT
BRANCH   8  17
HETATM   17  C   UNL     1      -7.703  12.426  68.459  1.00  0.00    -0.120 C  
BRANCH  17  18
HETATM   18  C   UNL     1      -6.394  13.098  68.026  1.00  0.00    -0.127 C  
BRANCH  18  19
HETATM   19  N   UNL     1      -6.238  14.481  68.474  1.00  0.00    -0.084 NA 
HETATM   20  C   UNL     1      -7.591  15.876  66.849  1.00  0.00    -0.255 C  
HETATM   21  C   UNL     1      -6.220  15.496  67.416  1.00  0.00    -0.037 C  
HETATM   22  C   UNL     1      -8.614  16.163  67.954  1.00  0.00    -0.168 C  
HETATM   23  C   UNL     1      -8.600  15.109  69.067  1.00  0.00    -0.219 C  
HETATM   24  N   UNL     1     -10.006  16.411  67.446  1.00  0.00    -0.246 NA 
HETATM   25  O   UNL     1      -7.216  17.934  69.037  1.00  0.00    -0.261 OA 
HETATM   26  C   UNL     1      -7.177  14.827  69.551  1.00  0.00    -0.160 C  
HETATM   27  C   UNL     1     -10.520  17.672  67.962  1.00  0.00    -0.394 C  
HETATM   28  C   UNL     1      -8.274  17.539  68.576  1.00  0.00    -0.278 C  
HETATM   29  N   UNL     1      -9.403  18.310  68.547  1.00  0.00    -0.313 NA 
BRANCH  24  30
HETATM   30  C   UNL     1     -10.820  15.594  66.682  1.00  0.00    -0.266 A  
HETATM   31  C   UNL     1     -11.722  14.675  67.232  1.00  0.00    -0.406 A  
HETATM   32  C   UNL     1     -12.480  13.792  66.446  1.00  0.00    -0.404 A  
HETATM   33  C   UNL     1     -12.382  13.824  65.063  1.00  0.00    -0.456 A  
HETATM   34  C   UNL     1     -11.542  14.751  64.469  1.00  0.00    -0.366 A  
HETATM   35  C   UNL     1     -10.776  15.615  65.272  1.00  0.00    -0.444 A  
ENDBRANCH  24  30
ENDBRANCH  18  19
ENDBRANCH  17  18
ENDBRANCH   8  17
TORSDOF 4
ENDMDL
MODEL       33
REMARK 921   NORMALIZED FREE ENERGY PREDICTED BY IDOCK:   -6.79 KCAL/MOL
REMARK 922        TOTAL FREE ENERGY PREDICTED BY IDOCK:  -10.26 KCAL/MOL
REMARK 923 INTER-LIGAND FREE ENERGY PREDICTED BY IDOCK:   -8.04 KCAL/MOL
REMARK 924 INTRA-LIGAND FREE ENERGY PREDICTED BY IDOCK:   -2.22 KCAL/MOL
REMARK 927      BINDING AFFINITY PREDICTED BY RF-SCORE:    0.00 PKD
ROOT
HETATM    1  F   UNL     1     -11.924  13.073  69.282  1.00  0.00    -0.317 F  
HETATM    2  C   UNL     1     -11.906  11.921  69.964  1.00  0.00    -0.328 A  
HETATM    3  C   UNL     1     -12.850  11.693  70.956  1.00  0.00    -0.339 A  
HETATM    4  C   UNL     1     -12.795  10.515  71.704  1.00  0.00    -0.581 A  
HETATM    5  C   UNL     1     -11.800   9.547  71.460  1.00  0.00    -0.478 A  
HETATM    6  C   UNL     1     -11.737   8.286  72.338  1.00  0.00    -0.463 C  
HETATM    7  C   UNL     1     -10.918   9.771  70.387  1.00  0.00    -0.371 A  
HETATM    8  C   UNL     1     -12.594   7.141  71.717  1.00  0.00    -0.381 C  
HETATM    9  C   UNL     1     -10.945  10.968  69.669  1.00  0.00    -0.286 A  
HETATM   10  C   UNL     1     -10.372   7.862  72.912  1.00  0.00    -0.413 A  
HETATM   11  C   UNL     1      -9.174   8.567  72.693  1.00  0.00    -0.269 A  
HETATM   12  C   UNL     1      -9.093   6.323  74.332  1.00  0.00    -0.168 A  
HETATM   13  F   UNL     1      -6.763   6.605  74.561  1.00  0.00    -0.085 F  
HETATM   14  C   UNL     1      -7.958   8.130  73.224  1.00  0.00    -0.234 A  
HETATM   15  C   UNL     1      -7.927   7.012  74.041  1.00  0.00    -0.110 A  
HETATM   16  C   UNL     1     -10.304   6.747  73.774  1.00  0.00    -0.397 A  
ENDROOT
BRANCH   8  17
HETATM   17  C   UNL     1     -12.247   6.662  70.297  1.00  0.00    -0.049 C  
BRANCH  17  18
HETATM   18  C   UNL     1     -10.830   6.115  70.079  1.00  0.00    -0.341 C  
BRANCH  18  19
HETATM   19  N   UNL     1     -10.599   5.520  68.764  1.00  0.00    -0.197 NA 
HETATM   20  C   UNL     1     -10.343   7.474  67.172  1.00  0.00    -0.384 C  
HETATM   21  C   UNL     1     -11.154   6.256  67.624  1.00  0.00    -0.266 C  
HETATM   22  C   UNL     1      -8.851   7.152  67.024  1.00  0.00    -0.124 C  
HETATM   23  C   UNL     1      -8.292   6.356  68.209  1.00  0.00    -0.116 C  
HETATM   24  N   UNL     1      -7.998   8.347  66.710  1.00  0.00    -0.097 NA 
HETATM   25  O   UNL     1      -9.233   5.280  65.406  1.00  0.00    -0.152 OA 
HETATM   26  C   UNL     1      -9.188   5.165  68.553  1.00  0.00    -0.116 C  
HETATM   27  C   UNL     1      -7.192   8.102  65.522  1.00  0.00    -0.071 C  
HETATM   28  C   UNL     1      -8.669   6.311  65.737  1.00  0.00    -0.139 C  
HETATM   29  N   UNL     1      -7.714   6.912  64.965  1.00  0.00    -0.104 NA 
BRANCH  24  30
HETATM   30  C   UNL     1      -7.838   9.523  67.423  1.00  0.00    -0.102 A  
HETATM   31  C   UNL     1      -8.149  10.785  66.904  1.00  0.00    -0.132 A  
HETATM   32  C   UNL     1      -7.901  11.976  67.607  1.00  0.00    -0.149 A  
HETATM   33  C   UNL     1      -7.356  11.938  68.881  1.00  0.00    -0.080 A  
HETATM   34  C   UNL     1      -7.079  10.711  69.458  1.00  0.00    -0.127 A  
HETATM   35  C   UNL     1      -7.316   9.529  68.734  1.00  0.00    -0.074 A  
ENDBRANCH  24  30
ENDBRANCH  18  19
ENDBRANCH  17  18
ENDBRANCH   8  17
TORSDOF 4
ENDMDL
MODEL       34
REMARK 921   NORMALIZED FREE ENERGY PREDICTED BY IDOCK:   -6.77 KCAL/MOL
REMARK 922        TOTAL FREE ENERGY PREDICTED BY IDOCK:  -10.23 KCAL/MOL
REMARK 923 INTER-LIGAND FREE ENERGY PREDICTED BY IDOCK:   -7.93 KCAL/MOL
REMARK 924 INTRA-LIGAND FREE ENERGY PREDICTED BY IDOCK:   -2.30 KCAL/MOL
REMARK 927      BINDING AFFINITY PREDICTED BY RF-SCORE:    0.00 PKD
ROOT
HETATM    1  F   UNL     1      -9.662  10.798  62.407  1.00  0.00    -0.252 F  
HETATM    2  C   UNL     1      -9.357  10.552  63.687  1.00  0.00    -0.289 A  
HETATM    3  C   UNL     1      -8.744   9.355  64.031  1.00  0.00    -0.225 A  
HETATM    4  C   UNL     1      -8.476   9.077  65.374  1.00  0.00    -0.175 A  
HETATM    5  C   UNL     1      -8.810  10.000  66.385  1.00  0.00    -0.158 A  
HETATM    6  C   UNL     1      -8.549   9.639  67.857  1.00  0.00    -0.122 C  
HETATM    7  C   UNL     1      -9.345  11.239  65.989  1.00  0.00    -0.234 A  
HETATM    8  C   UNL     1      -7.131  10.112  68.296  1.00  0.00    -0.075 C  
HETATM    9  C   UNL     1      -9.653  11.499  64.654  1.00  0.00    -0.186 A  
HETATM   10  C   UNL     1      -9.677   9.875  68.879  1.00  0.00    -0.176 A  
HETATM   11  C   UNL     1     -10.943  10.392  68.546  1.00  0.00    -0.302 A  
HETATM   12  C   UNL     1     -10.476   9.670  71.190  1.00  0.00    -0.281 A  
HETATM   13  F   UNL     1     -12.637  10.427  71.753  1.00  0.00    -0.448 F  
HETATM   14  C   UNL     1     -11.928  10.602  69.516  1.00  0.00    -0.319 A  
HETATM   15  C   UNL     1     -11.687  10.239  70.830  1.00  0.00    -0.379 A  
HETATM   16  C   UNL     1      -9.483   9.488  70.222  1.00  0.00    -0.307 A  
ENDROOT
BRANCH   8  17
HETATM   17  C   UNL     1      -6.796  11.609  68.182  1.00  0.00    -0.068 C  
BRANCH  17  18
HETATM   18  C   UNL     1      -7.157  12.491  69.385  1.00  0.00     0.172 C  
BRANCH  18  19
HETATM   19  N   UNL     1      -6.616  13.848  69.334  1.00  0.00    -0.117 NA 
HETATM   20  C   UNL     1      -7.399  14.808  67.125  1.00  0.00    -0.020 C  
HETATM   21  C   UNL     1      -6.238  14.335  68.004  1.00  0.00    -0.152 C  
HETATM   22  C   UNL     1      -8.345  15.752  67.875  1.00  0.00    -0.149 C  
HETATM   23  C   UNL     1      -8.708  15.244  69.275  1.00  0.00    -0.237 C  
HETATM   24  N   UNL     1      -9.569  16.135  67.094  1.00  0.00    -0.227 NA 
HETATM   25  O   UNL     1      -6.538  17.376  68.474  1.00  0.00    -0.171 OA 
HETATM   26  C   UNL     1      -7.463  14.813  70.052  1.00  0.00     0.173 C  
HETATM   27  C   UNL     1      -9.707  17.584  67.039  1.00  0.00    -0.284 C  
HETATM   28  C   UNL     1      -7.640  17.123  68.016  1.00  0.00    -0.191 C  
HETATM   29  N   UNL     1      -8.482  18.087  67.534  1.00  0.00    -0.235 NA 
BRANCH  24  30
HETATM   30  C   UNL     1     -10.550  15.328  66.546  1.00  0.00    -0.304 A  
HETATM   31  C   UNL     1     -11.300  14.413  67.294  1.00  0.00    -0.357 A  
HETATM   32  C   UNL     1     -12.232  13.538  66.711  1.00  0.00    -0.392 A  
HETATM   33  C   UNL     1     -12.470  13.577  65.346  1.00  0.00    -0.540 A  
HETATM   34  C   UNL     1     -11.792  14.501  64.570  1.00  0.00    -0.459 A  
HETATM   35  C   UNL     1     -10.848  15.356  65.166  1.00  0.00    -0.447 A  
ENDBRANCH  24  30
ENDBRANCH  18  19
ENDBRANCH  17  18
ENDBRANCH   8  17
TORSDOF 4
ENDMDL
MODEL       35
REMARK 921   NORMALIZED FREE ENERGY PREDICTED BY IDOCK:   -6.68 KCAL/MOL
REMARK 922        TOTAL FREE ENERGY PREDICTED BY IDOCK:  -10.11 KCAL/MOL
REMARK 923 INTER-LIGAND FREE ENERGY PREDICTED BY IDOCK:   -8.61 KCAL/MOL
REMARK 924 INTRA-LIGAND FREE ENERGY PREDICTED BY IDOCK:   -1.50 KCAL/MOL
REMARK 927      BINDING AFFINITY PREDICTED BY RF-SCORE:    0.00 PKD
ROOT
HETATM    1  F   UNL     1     -12.607  12.653  62.850  1.00  0.00    -0.451 F  
HETATM    2  C   UNL     1     -11.647  12.097  63.601  1.00  0.00    -0.486 A  
HETATM    3  C   UNL     1     -10.457  11.695  63.010  1.00  0.00    -0.256 A  
HETATM    4  C   UNL     1      -9.480  11.065  63.785  1.00  0.00    -0.286 A  
HETATM    5  C   UNL     1      -9.680  10.841  65.161  1.00  0.00    -0.319 A  
HETATM    6  C   UNL     1      -8.605  10.098  65.973  1.00  0.00    -0.150 C  
HETATM    7  C   UNL     1     -10.858  11.345  65.742  1.00  0.00    -0.290 A  
HETATM    8  C   UNL     1      -7.581  11.104  66.580  1.00  0.00    -0.147 C  
HETATM    9  C   UNL     1     -11.853  11.934  64.961  1.00  0.00    -0.213 A  
HETATM   10  C   UNL     1      -9.052   8.956  66.904  1.00  0.00    -0.163 A  
HETATM   11  C   UNL     1     -10.388   8.539  67.051  1.00  0.00    -0.379 A  
HETATM   12  C   UNL     1      -8.423   7.163  68.458  1.00  0.00    -0.125 A  
HETATM   13  F   UNL     1     -10.099   5.827  69.442  1.00  0.00    -0.194 F  
HETATM   14  C   UNL     1     -10.742   7.506  67.924  1.00  0.00    -0.200 A  
HETATM   15  C   UNL     1      -9.757   6.826  68.620  1.00  0.00    -0.131 A  
HETATM   16  C   UNL     1      -8.075   8.217  67.606  1.00  0.00    -0.127 A  
ENDROOT
BRANCH   8  17
HETATM   17  C   UNL     1      -8.111  12.201  67.521  1.00  0.00    -0.163 C  
BRANCH  17  18
HETATM   18  C   UNL     1      -7.249  13.462  67.664  1.00  0.00    -0.161 C  
BRANCH  18  19
HETATM   19  N   UNL     1      -7.969  14.720  67.472  1.00  0.00    -0.173 NA 
HETATM   20  C   UNL     1     -10.426  14.101  67.463  1.00  0.00    -0.249 C  
HETATM   21  C   UNL     1      -9.211  14.634  66.697  1.00  0.00    -0.267 C  
HETATM   22  C   UNL     1     -10.599  14.790  68.821  1.00  0.00    -0.251 C  
HETATM   23  C   UNL     1      -9.288  14.900  69.607  1.00  0.00     0.084 C  
HETATM   24  N   UNL     1     -11.699  14.209  69.663  1.00  0.00    -0.297 NA 
HETATM   25  O   UNL     1     -10.696  17.092  67.842  1.00  0.00    -0.356 OA 
HETATM   26  C   UNL     1      -8.160  15.451  68.733  1.00  0.00    -0.166 C  
HETATM   27  C   UNL     1     -12.623  15.251  70.089  1.00  0.00    -0.296 C  
HETATM   28  C   UNL     1     -11.142  16.218  68.567  1.00  0.00    -0.368 C  
HETATM   29  N   UNL     1     -12.266  16.388  69.327  1.00  0.00     0.194 NA 
BRANCH  24  30
HETATM   30  C   UNL     1     -11.864  12.913  70.119  1.00  0.00    -0.245 A  
HETATM   31  C   UNL     1     -11.167  11.818  69.594  1.00  0.00    -0.225 A  
HETATM   32  C   UNL     1     -11.407  10.497  70.007  1.00  0.00    -0.392 A  
HETATM   33  C   UNL     1     -12.342  10.231  70.995  1.00  0.00    -0.483 A  
HETATM   34  C   UNL     1     -13.020  11.285  71.583  1.00  0.00    -0.537 A  
HETATM   35  C   UNL     1     -12.781  12.600  71.145  1.00  0.00    -0.347 A  
ENDBRANCH  24  30
ENDBRANCH  18  19
ENDBRANCH  17  18
ENDBRANCH   8  17
TORSDOF 4
ENDMDL
MODEL       36
REMARK 921   NORMALIZED FREE ENERGY PREDICTED BY IDOCK:   -6.64 KCAL/MOL
REMARK 922        TOTAL FREE ENERGY PREDICTED BY IDOCK:  -10.07 KCAL/MOL
REMARK 923 INTER-LIGAND FREE ENERGY PREDICTED BY IDOCK:   -8.59 KCAL/MOL
REMARK 924 INTRA-LIGAND FREE ENERGY PREDICTED BY IDOCK:   -1.48 KCAL/MOL
REMARK 927      BINDING AFFINITY PREDICTED BY RF-SCORE:    0.00 PKD
ROOT
HETATM    1  F   UNL     1     -10.911  11.120  62.897  1.00  0.00    -0.275 F  
HETATM    2  C   UNL     1     -11.104  11.934  63.943  1.00  0.00    -0.412 A  
HETATM    3  C   UNL     1     -12.355  12.495  64.157  1.00  0.00    -0.548 A  
HETATM    4  C   UNL     1     -12.540  13.388  65.216  1.00  0.00    -0.518 A  
HETATM    5  C   UNL     1     -11.475  13.719  66.078  1.00  0.00    -0.336 A  
HETATM    6  C   UNL     1     -11.701  14.746  67.201  1.00  0.00    -0.351 C  
HETATM    7  C   UNL     1     -10.248  13.060  65.885  1.00  0.00    -0.298 A  
HETATM    8  C   UNL     1     -12.158  14.035  68.511  1.00  0.00    -0.329 C  
HETATM    9  C   UNL     1     -10.051  12.204  64.801  1.00  0.00    -0.276 A  
HETATM   10  C   UNL     1     -10.667  15.873  67.379  1.00  0.00    -0.313 A  
HETATM   11  C   UNL     1      -9.529  16.032  66.567  1.00  0.00    -0.297 A  
HETATM   12  C   UNL     1      -9.989  17.916  68.559  1.00  0.00    -0.379 A  
HETATM   13  F   UNL     1      -7.978  18.996  67.968  1.00  0.00    -0.279 F  
HETATM   14  C   UNL     1      -8.612  17.065  66.782  1.00  0.00    -0.266 A  
HETATM   15  C   UNL     1      -8.850  17.999  67.776  1.00  0.00    -0.255 A  
HETATM   16  C   UNL     1     -10.890  16.864  68.360  1.00  0.00    -0.347 A  
ENDROOT
BRANCH   8  17
HETATM   17  C   UNL     1     -11.233  12.967  69.120  1.00  0.00    -0.293 C  
BRANCH  17  18
HETATM   18  C   UNL     1     -11.857  12.022  70.155  1.00  0.00    -0.301 C  
BRANCH  18  19
HETATM   19  N   UNL     1     -11.956  10.627  69.730  1.00  0.00    -0.299 NA 
HETATM   20  C   UNL     1     -10.132  10.314  67.999  1.00  0.00    -0.189 C  
HETATM   21  C   UNL     1     -11.629  10.363  68.325  1.00  0.00    -0.021 C  
HETATM   22  C   UNL     1      -9.355   9.434  68.985  1.00  0.00    -0.153 C  
HETATM   23  C   UNL     1      -9.730   9.701  70.447  1.00  0.00    -0.304 C  
HETATM   24  N   UNL     1      -7.867   9.463  68.783  1.00  0.00    -0.083 NA 
HETATM   25  O   UNL     1     -10.756   7.405  68.556  1.00  0.00    -0.182 OA 
HETATM   26  C   UNL     1     -11.247   9.715  70.639  1.00  0.00    -0.320 C  
HETATM   27  C   UNL     1      -7.344   8.111  68.642  1.00  0.00    -0.089 C  
HETATM   28  C   UNL     1      -9.671   7.955  68.657  1.00  0.00    -0.158 C  
HETATM   29  N   UNL     1      -8.487   7.291  68.494  1.00  0.00    -0.125 NA 
BRANCH  24  30
HETATM   30  C   UNL     1      -6.998  10.539  68.809  1.00  0.00    -0.070 A  
HETATM   31  C   UNL     1      -6.322  10.955  69.962  1.00  0.00    -0.142 A  
HETATM   32  C   UNL     1      -5.510  12.100  69.995  1.00  0.00    -0.111 A  
HETATM   33  C   UNL     1      -5.319  12.857  68.849  1.00  0.00    -0.067 A  
HETATM   34  C   UNL     1      -5.924  12.457  67.670  1.00  0.00    -0.128 A  
HETATM   35  C   UNL     1      -6.749  11.319  67.659  1.00  0.00    -0.073 A  
ENDBRANCH  24  30
ENDBRANCH  18  19
ENDBRANCH  17  18
ENDBRANCH   8  17
TORSDOF 4
ENDMDL
MODEL       37
REMARK 921   NORMALIZED FREE ENERGY PREDICTED BY IDOCK:   -6.64 KCAL/MOL
REMARK 922        TOTAL FREE ENERGY PREDICTED BY IDOCK:  -10.07 KCAL/MOL
REMARK 923 INTER-LIGAND FREE ENERGY PREDICTED BY IDOCK:   -8.74 KCAL/MOL
REMARK 924 INTRA-LIGAND FREE ENERGY PREDICTED BY IDOCK:   -1.33 KCAL/MOL
REMARK 927      BINDING AFFINITY PREDICTED BY RF-SCORE:    0.00 PKD
ROOT
HETATM    1  F   UNL     1     -12.464  12.822  63.249  1.00  0.00    -0.556 F  
HETATM    2  C   UNL     1     -12.046  13.478  64.339  1.00  0.00    -0.420 A  
HETATM    3  C   UNL     1     -12.743  13.346  65.532  1.00  0.00    -0.469 A  
HETATM    4  C   UNL     1     -12.339  14.076  66.653  1.00  0.00    -0.408 A  
HETATM    5  C   UNL     1     -11.225  14.937  66.593  1.00  0.00    -0.340 A  
HETATM    6  C   UNL     1     -10.839  15.765  67.831  1.00  0.00    -0.314 C  
HETATM    7  C   UNL     1     -10.490  14.974  65.395  1.00  0.00    -0.406 A  
HETATM    8  C   UNL     1      -9.823  14.985  68.719  1.00  0.00    -0.233 C  
HETATM    9  C   UNL     1     -10.919  14.280  64.263  1.00  0.00    -0.049 A  
HETATM   10  C   UNL     1     -10.548  17.266  67.645  1.00  0.00    -0.350 A  
HETATM   11  C   UNL     1     -10.625  17.934  66.409  1.00  0.00    -0.238 A  
HETATM   12  C   UNL     1      -9.996  19.427  68.669  1.00  0.00    -0.527 A  
HETATM   13  F   UNL     1      -9.761  21.339  67.309  1.00  0.00    -0.599 F  
HETATM   14  C   UNL     1     -10.335  19.296  66.292  1.00  0.00    -0.566 A  
HETATM   15  C   UNL     1     -10.023  20.032  67.423  1.00  0.00    -0.433 A  
HETATM   16  C   UNL     1     -10.258  18.057  68.778  1.00  0.00    -0.362 A  
ENDROOT
BRANCH   8  17
HETATM   17  C   UNL     1      -8.487  14.554  68.089  1.00  0.00    -0.157 C  
BRANCH  17  18
HETATM   18  C   UNL     1      -8.400  13.111  67.575  1.00  0.00    -0.185 C  
BRANCH  18  19
HETATM   19  N   UNL     1      -9.004  12.111  68.454  1.00  0.00    -0.176 NA 
HETATM   20  C   UNL     1     -10.013  10.373  66.911  1.00  0.00    -0.254 C  
HETATM   21  C   UNL     1     -10.227  11.476  67.953  1.00  0.00    -0.184 C  
HETATM   22  C   UNL     1      -8.937   9.371  67.343  1.00  0.00    -0.124 C  
HETATM   23  C   UNL     1      -7.677  10.049  67.893  1.00  0.00    -0.090 C  
HETATM   24  N   UNL     1      -8.601   8.349  66.295  1.00  0.00    -0.128 NA 
HETATM   25  O   UNL     1     -10.079   8.801  69.496  1.00  0.00    -0.191 OA 
HETATM   26  C   UNL     1      -8.026  11.120  68.927  1.00  0.00    -0.126 C  
HETATM   27  C   UNL     1      -8.719   7.003  66.838  1.00  0.00    -0.122 C  
HETATM   28  C   UNL     1      -9.537   8.474  68.453  1.00  0.00    -0.147 C  
HETATM   29  N   UNL     1      -9.358   7.168  68.089  1.00  0.00    -0.130 NA 
BRANCH  24  30
HETATM   30  C   UNL     1      -8.138   8.534  65.004  1.00  0.00    -0.148 A  
HETATM   31  C   UNL     1      -6.800   8.358  64.634  1.00  0.00    -0.069 A  
HETATM   32  C   UNL     1      -6.327   8.632  63.340  1.00  0.00    -0.085 A  
HETATM   33  C   UNL     1      -7.200   9.066  62.353  1.00  0.00    -0.097 A  
HETATM   34  C   UNL     1      -8.543   9.205  62.656  1.00  0.00    -0.215 A  
HETATM   35  C   UNL     1      -8.996   8.945  63.961  1.00  0.00     0.155 A  
ENDBRANCH  24  30
ENDBRANCH  18  19
ENDBRANCH  17  18
ENDBRANCH   8  17
TORSDOF 4
ENDMDL
MODEL       38
REMARK 921   NORMALIZED FREE ENERGY PREDICTED BY IDOCK:   -6.64 KCAL/MOL
REMARK 922        TOTAL FREE ENERGY PREDICTED BY IDOCK:  -10.07 KCAL/MOL
REMARK 923 INTER-LIGAND FREE ENERGY PREDICTED BY IDOCK:   -9.16 KCAL/MOL
REMARK 924 INTRA-LIGAND FREE ENERGY PREDICTED BY IDOCK:   -0.91 KCAL/MOL
REMARK 927      BINDING AFFINITY PREDICTED BY RF-SCORE:    0.00 PKD
ROOT
HETATM    1  F   UNL     1     -12.671  11.891  62.740  1.00  0.00    -0.473 F  
HETATM    2  C   UNL     1     -12.056  12.280  63.864  1.00  0.00    -0.506 A  
HETATM    3  C   UNL     1     -12.784  12.405  65.039  1.00  0.00    -0.170 A  
HETATM    4  C   UNL     1     -12.152  12.865  66.197  1.00  0.00    -0.458 A  
HETATM    5  C   UNL     1     -10.782  13.192  66.194  1.00  0.00    -0.289 A  
HETATM    6  C   UNL     1     -10.130  13.745  67.473  1.00  0.00    -0.241 C  
HETATM    7  C   UNL     1     -10.058  12.964  65.009  1.00  0.00    -0.235 A  
HETATM    8  C   UNL     1      -9.554  12.586  68.341  1.00  0.00    -0.176 C  
HETATM    9  C   UNL     1     -10.697  12.549  63.841  1.00  0.00    -0.473 A  
HETATM   10  C   UNL     1      -9.243  14.998  67.358  1.00  0.00    -0.200 A  
HETATM   11  C   UNL     1      -8.999  15.681  66.152  1.00  0.00    -0.362 A  
HETATM   12  C   UNL     1      -7.886  16.704  68.486  1.00  0.00    -0.218 A  
HETATM   13  F   UNL     1      -6.843  18.396  67.217  1.00  0.00    -0.189 F  
HETATM   14  C   UNL     1      -8.171  16.806  66.101  1.00  0.00    -0.300 A  
HETATM   15  C   UNL     1      -7.622  17.310  67.268  1.00  0.00    -0.180 A  
HETATM   16  C   UNL     1      -8.691  15.561  68.529  1.00  0.00    -0.184 A  
ENDROOT
BRANCH   8  17
HETATM   17  C   UNL     1      -8.493  11.666  67.713  1.00  0.00    -0.144 C  
BRANCH  17  18
HETATM   18  C   UNL     1      -7.508  10.990  68.676  1.00  0.00    -0.112 C  
BRANCH  18  19
HETATM   19  N   UNL     1      -7.334   9.553  68.465  1.00  0.00    -0.078 NA 
HETATM   20  C   UNL     1      -8.497   8.435  70.419  1.00  0.00    -0.130 C  
HETATM   21  C   UNL     1      -7.191   8.743  69.678  1.00  0.00    -0.055 C  
HETATM   22  C   UNL     1      -9.593   7.932  69.473  1.00  0.00    -0.160 C  
HETATM   23  C   UNL     1      -9.710   8.772  68.196  1.00  0.00    -0.177 C  
HETATM   24  N   UNL     1     -10.928   7.744  70.134  1.00  0.00    -0.256 NA 
HETATM   25  O   UNL     1      -8.217   6.032  68.601  1.00  0.00    -0.106 OA 
HETATM   26  C   UNL     1      -8.343   8.998  67.550  1.00  0.00    -0.116 C  
HETATM   27  C   UNL     1     -11.433   6.399  69.893  1.00  0.00    -0.415 C  
HETATM   28  C   UNL     1      -9.250   6.476  69.075  1.00  0.00    -0.130 C  
HETATM   29  N   UNL     1     -10.341   5.694  69.334  1.00  0.00    -0.246 NA 
BRANCH  24  30
HETATM   30  C   UNL     1     -11.711   8.663  70.810  1.00  0.00    -0.210 A  
HETATM   31  C   UNL     1     -12.719   8.300  71.711  1.00  0.00    -0.364 A  
HETATM   32  C   UNL     1     -13.562   9.241  72.326  1.00  0.00    -0.544 A  
HETATM   33  C   UNL     1     -13.398  10.595  72.079  1.00  0.00    -0.409 A  
HETATM   34  C   UNL     1     -12.382  11.008  71.236  1.00  0.00    -0.426 A  
HETATM   35  C   UNL     1     -11.558  10.053  70.614  1.00  0.00    -0.422 A  
ENDBRANCH  24  30
ENDBRANCH  18  19
ENDBRANCH  17  18
ENDBRANCH   8  17
TORSDOF 4
ENDMDL
MODEL       39
REMARK 921   NORMALIZED FREE ENERGY PREDICTED BY IDOCK:   -6.60 KCAL/MOL
REMARK 922        TOTAL FREE ENERGY PREDICTED BY IDOCK:  -10.02 KCAL/MOL
REMARK 923 INTER-LIGAND FREE ENERGY PREDICTED BY IDOCK:   -9.19 KCAL/MOL
REMARK 924 INTRA-LIGAND FREE ENERGY PREDICTED BY IDOCK:   -0.84 KCAL/MOL
REMARK 927      BINDING AFFINITY PREDICTED BY RF-SCORE:    0.00 PKD
ROOT
HETATM    1  F   UNL     1     -12.579  12.708  63.217  1.00  0.00    -0.545 F  
HETATM    2  C   UNL     1     -11.917  12.297  64.307  1.00  0.00    -0.407 A  
HETATM    3  C   UNL     1     -11.013  11.249  64.209  1.00  0.00    -0.358 A  
HETATM    4  C   UNL     1     -10.366  10.785  65.357  1.00  0.00    -0.315 A  
HETATM    5  C   UNL     1     -10.609  11.374  66.614  1.00  0.00    -0.302 A  
HETATM    6  C   UNL     1      -9.920  10.805  67.865  1.00  0.00    -0.196 C  
HETATM    7  C   UNL     1     -11.461  12.493  66.658  1.00  0.00    -0.417 A  
HETATM    8  C   UNL     1      -8.559  11.522  68.117  1.00  0.00    -0.156 C  
HETATM    9  C   UNL     1     -12.142  12.927  65.520  1.00  0.00    -0.507 A  
HETATM   10  C   UNL     1     -10.777  10.542  69.117  1.00  0.00    -0.266 A  
HETATM   11  C   UNL     1     -12.162  10.780  69.185  1.00  0.00    -0.122 A  
HETATM   12  C   UNL     1     -10.910   9.688  71.414  1.00  0.00    -0.294 A  
HETATM   13  F   UNL     1     -12.965   9.751  72.569  1.00  0.00    -0.443 F  
HETATM   14  C   UNL     1     -12.892  10.540  70.353  1.00  0.00    -0.274 A  
HETATM   15  C   UNL     1     -12.260   9.994  71.458  1.00  0.00    -0.405 A  
HETATM   16  C   UNL     1     -10.177   9.957  70.253  1.00  0.00    -0.322 A  
ENDROOT
BRANCH   8  17
HETATM   17  C   UNL     1      -8.567  13.047  68.319  1.00  0.00    -0.167 C  
BRANCH  17  18
HETATM   18  C   UNL     1      -7.471  13.845  67.600  1.00  0.00    -0.176 C  
BRANCH  18  19
HETATM   19  N   UNL     1      -6.542  14.545  68.485  1.00  0.00    -0.087 NA 
HETATM   20  C   UNL     1      -6.341  16.887  67.541  1.00  0.00    -0.179 C  
HETATM   21  C   UNL     1      -5.677  15.540  67.844  1.00  0.00    -0.140 C  
HETATM   22  C   UNL     1      -7.115  17.434  68.746  1.00  0.00    -0.246 C  
HETATM   23  C   UNL     1      -7.991  16.375  69.423  1.00  0.00    -0.020 C  
HETATM   24  N   UNL     1      -7.890  18.687  68.454  1.00  0.00    -0.309 NA 
HETATM   25  O   UNL     1      -5.132  17.376  70.272  1.00  0.00    -0.184 OA 
HETATM   26  C   UNL     1      -7.210  15.085  69.679  1.00  0.00    -0.192 C  
HETATM   27  C   UNL     1      -7.548  19.733  69.408  1.00  0.00    -0.043 C  
HETATM   28  C   UNL     1      -6.086  17.955  69.779  1.00  0.00    -0.209 C  
HETATM   29  N   UNL     1      -6.416  19.243  70.098  1.00  0.00    -0.113 NA 
BRANCH  24  30
HETATM   30  C   UNL     1      -8.882  18.907  67.514  1.00  0.00    -0.278 A  
HETATM   31  C   UNL     1      -9.627  17.878  66.927  1.00  0.00    -0.300 A  
HETATM   32  C   UNL     1     -10.570  18.109  65.911  1.00  0.00    -0.247 A  
HETATM   33  C   UNL     1     -10.824  19.398  65.471  1.00  0.00    -0.204 A  
HETATM   34  C   UNL     1     -10.150  20.455  66.057  1.00  0.00    -0.263 A  
HETATM   35  C   UNL     1      -9.196  20.206  67.059  1.00  0.00    -0.503 A  
ENDBRANCH  24  30
ENDBRANCH  18  19
ENDBRANCH  17  18
ENDBRANCH   8  17
TORSDOF 4
ENDMDL
MODEL       40
REMARK 921   NORMALIZED FREE ENERGY PREDICTED BY IDOCK:   -6.59 KCAL/MOL
REMARK 922        TOTAL FREE ENERGY PREDICTED BY IDOCK:  -10.00 KCAL/MOL
REMARK 923 INTER-LIGAND FREE ENERGY PREDICTED BY IDOCK:   -9.11 KCAL/MOL
REMARK 924 INTRA-LIGAND FREE ENERGY PREDICTED BY IDOCK:   -0.89 KCAL/MOL
REMARK 927      BINDING AFFINITY PREDICTED BY RF-SCORE:    0.00 PKD
ROOT
HETATM    1  F   UNL     1      -7.704   5.472  66.162  1.00  0.00    -0.089 F  
HETATM    2  C   UNL     1      -8.259   6.462  66.872  1.00  0.00    -0.110 A  
HETATM    3  C   UNL     1      -7.449   7.371  67.536  1.00  0.00    -0.100 A  
HETATM    4  C   UNL     1      -8.030   8.370  68.322  1.00  0.00    -0.119 A  
HETATM    5  C   UNL     1      -9.430   8.474  68.441  1.00  0.00    -0.141 A  
HETATM    6  C   UNL     1     -10.035   9.553  69.356  1.00  0.00    -0.199 C  
HETATM    7  C   UNL     1     -10.219   7.593  67.680  1.00  0.00    -0.277 A  
HETATM    8  C   UNL     1     -10.296  10.867  68.559  1.00  0.00    -0.203 C  
HETATM    9  C   UNL     1      -9.639   6.568  66.932  1.00  0.00    -0.191 A  
HETATM   10  C   UNL     1     -11.145   9.138  70.340  1.00  0.00    -0.293 A  
HETATM   11  C   UNL     1     -11.634   7.824  70.464  1.00  0.00    -0.173 A  
HETATM   12  C   UNL     1     -12.668   9.774  72.156  1.00  0.00    -0.410 A  
HETATM   13  F   UNL     1     -14.130   8.167  73.074  1.00  0.00    -0.002 F  
HETATM   14  C   UNL     1     -12.656   7.504  71.363  1.00  0.00    -0.382 A  
HETATM   15  C   UNL     1     -13.164   8.481  72.203  1.00  0.00    -0.352 A  
HETATM   16  C   UNL     1     -11.666  10.097  71.235  1.00  0.00    -0.426 A  
ENDROOT
BRANCH   8  17
HETATM   17  C   UNL     1     -11.229  10.803  67.337  1.00  0.00    -0.315 C  
BRANCH  17  18
HETATM   18  C   UNL     1     -10.626  11.210  65.986  1.00  0.00    -0.239 C  
BRANCH  18  19
HETATM   19  N   UNL     1     -11.501  12.026  65.146  1.00  0.00    -0.313 NA 
HETATM   20  C   UNL     1     -11.860  14.179  66.431  1.00  0.00    -0.440 C  
HETATM   21  C   UNL     1     -12.450  12.886  65.859  1.00  0.00    -0.184 C  
HETATM   22  C   UNL     1     -11.008  14.930  65.402  1.00  0.00    -0.364 C  
HETATM   23  C   UNL     1     -10.042  14.012  64.643  1.00  0.00    -0.102 C  
HETATM   24  N   UNL     1     -10.303  16.134  65.957  1.00  0.00    -0.341 NA 
HETATM   25  O   UNL     1     -12.853  15.080  63.718  1.00  0.00    -0.651 OA 
HETATM   26  C   UNL     1     -10.756  12.766  64.118  1.00  0.00    -0.412 C  
HETATM   27  C   UNL     1     -10.599  17.314  65.157  1.00  0.00     0.128 C  
HETATM   28  C   UNL     1     -11.964  15.591  64.379  1.00  0.00    -0.183 C  
HETATM   29  N   UNL     1     -11.653  16.920  64.300  1.00  0.00    -0.912 NA 
BRANCH  24  30
HETATM   30  C   UNL     1      -9.401  16.219  67.003  1.00  0.00    -0.221 A  
HETATM   31  C   UNL     1      -9.516  15.470  68.180  1.00  0.00    -0.198 A  
HETATM   32  C   UNL     1      -8.643  15.629  69.270  1.00  0.00    -0.262 A  
HETATM   33  C   UNL     1      -7.593  16.531  69.200  1.00  0.00    -0.210 A  
HETATM   34  C   UNL     1      -7.406  17.258  68.037  1.00  0.00    -0.193 A  
HETATM   35  C   UNL     1      -8.300  17.101  66.963  1.00  0.00    -0.232 A  
ENDBRANCH  24  30
ENDBRANCH  18  19
ENDBRANCH  17  18
ENDBRANCH   8  17
TORSDOF 4
ENDMDL
MODEL       41
REMARK 921   NORMALIZED FREE ENERGY PREDICTED BY IDOCK:   -6.53 KCAL/MOL
REMARK 922        TOTAL FREE ENERGY PREDICTED BY IDOCK:   -9.94 KCAL/MOL
REMARK 923 INTER-LIGAND FREE ENERGY PREDICTED BY IDOCK:   -8.57 KCAL/MOL
REMARK 924 INTRA-LIGAND FREE ENERGY PREDICTED BY IDOCK:   -1.37 KCAL/MOL
REMARK 927      BINDING AFFINITY PREDICTED BY RF-SCORE:    0.00 PKD
ROOT
HETATM    1  F   UNL     1     -13.037  14.116  66.256  1.00  0.00    -0.381 F  
HETATM    2  C   UNL     1     -11.851  13.504  66.357  1.00  0.00    -0.394 A  
HETATM    3  C   UNL     1     -10.685  14.257  66.349  1.00  0.00    -0.297 A  
HETATM    4  C   UNL     1      -9.446  13.612  66.397  1.00  0.00    -0.248 A  
HETATM    5  C   UNL     1      -9.362  12.208  66.466  1.00  0.00    -0.229 A  
HETATM    6  C   UNL     1      -7.982  11.529  66.464  1.00  0.00    -0.095 C  
HETATM    7  C   UNL     1     -10.565  11.485  66.565  1.00  0.00    -0.301 A  
HETATM    8  C   UNL     1      -7.460  11.342  67.921  1.00  0.00    -0.094 C  
HETATM    9  C   UNL     1     -11.801  12.124  66.471  1.00  0.00    -0.322 A  
HETATM   10  C   UNL     1      -7.754  10.338  65.515  1.00  0.00    -0.149 A  
HETATM   11  C   UNL     1      -8.730   9.836  64.635  1.00  0.00    -0.218 A  
HETATM   12  C   UNL     1      -6.208   8.667  64.599  1.00  0.00    -0.066 A  
HETATM   13  F   UNL     1      -6.972   7.127  62.985  1.00  0.00    -0.051 F  
HETATM   14  C   UNL     1      -8.476   8.741  63.805  1.00  0.00    -0.109 A  
HETATM   15  C   UNL     1      -7.216   8.165  63.792  1.00  0.00    -0.095 A  
HETATM   16  C   UNL     1      -6.474   9.745  65.450  1.00  0.00    -0.083 A  
ENDROOT
BRANCH   8  17
HETATM   17  C   UNL     1      -8.315  10.516  68.899  1.00  0.00    -0.147 C  
BRANCH  17  18
HETATM   18  C   UNL     1      -7.560   9.652  69.917  1.00  0.00    -0.138 C  
BRANCH  18  19
HETATM   19  N   UNL     1      -8.234   8.408  70.284  1.00  0.00    -0.117 NA 
HETATM   20  C   UNL     1     -10.027   9.074  71.945  1.00  0.00    -0.304 C  
HETATM   21  C   UNL     1      -8.718   8.329  71.666  1.00  0.00    -0.163 C  
HETATM   22  C   UNL     1     -11.104   8.761  70.900  1.00  0.00    -0.268 C  
HETATM   23  C   UNL     1     -10.576   8.818  69.463  1.00  0.00    -0.224 C  
HETATM   24  N   UNL     1     -12.360   9.569  71.059  1.00  0.00    -0.299 NA 
HETATM   25  O   UNL     1     -11.010   6.289  71.283  1.00  0.00    -0.253 OA 
HETATM   26  C   UNL     1      -9.273   8.030  69.316  1.00  0.00    -0.152 C  
HETATM   27  C   UNL     1     -13.524   8.697  71.126  1.00  0.00    -0.015 C  
HETATM   28  C   UNL     1     -11.634   7.332  71.173  1.00  0.00    -0.293 C  
HETATM   29  N   UNL     1     -12.996   7.394  71.272  1.00  0.00    -0.338 NA 
BRANCH  24  30
HETATM   30  C   UNL     1     -12.526  10.943  71.053  1.00  0.00    -0.411 A  
HETATM   31  C   UNL     1     -11.980  11.780  70.073  1.00  0.00    -0.421 A  
HETATM   32  C   UNL     1     -12.084  13.180  70.127  1.00  0.00    -0.392 A  
HETATM   33  C   UNL     1     -12.776  13.792  71.161  1.00  0.00    -0.438 A  
HETATM   34  C   UNL     1     -13.379  13.005  72.126  1.00  0.00    -0.622 A  
HETATM   35  C   UNL     1     -13.250  11.606  72.068  1.00  0.00    -0.443 A  
ENDBRANCH  24  30
ENDBRANCH  18  19
ENDBRANCH  17  18
ENDBRANCH   8  17
TORSDOF 4
ENDMDL
MODEL       42
REMARK 921   NORMALIZED FREE ENERGY PREDICTED BY IDOCK:   -6.52 KCAL/MOL
REMARK 922        TOTAL FREE ENERGY PREDICTED BY IDOCK:   -9.92 KCAL/MOL
REMARK 923 INTER-LIGAND FREE ENERGY PREDICTED BY IDOCK:   -8.78 KCAL/MOL
REMARK 924 INTRA-LIGAND FREE ENERGY PREDICTED BY IDOCK:   -1.14 KCAL/MOL
REMARK 927      BINDING AFFINITY PREDICTED BY RF-SCORE:    0.00 PKD
ROOT
HETATM    1  F   UNL     1     -10.822  20.489  64.965  1.00  0.00    -0.340 F  
HETATM    2  C   UNL     1     -10.516  19.649  65.962  1.00  0.00    -0.523 A  
HETATM    3  C   UNL     1     -10.277  20.148  67.235  1.00  0.00    -0.540 A  
HETATM    4  C   UNL     1      -9.904  19.276  68.260  1.00  0.00    -0.482 A  
HETATM    5  C   UNL     1      -9.778  17.893  68.025  1.00  0.00    -0.303 A  
HETATM    6  C   UNL     1      -9.314  16.968  69.163  1.00  0.00    -0.088 C  
HETATM    7  C   UNL     1     -10.118  17.413  66.747  1.00  0.00    -0.313 A  
HETATM    8  C   UNL     1     -10.536  16.426  69.964  1.00  0.00    -0.203 C  
HETATM    9  C   UNL     1     -10.447  18.288  65.711  1.00  0.00    -0.228 A  
HETATM   10  C   UNL     1      -8.203  15.944  68.867  1.00  0.00    -0.213 A  
HETATM   11  C   UNL     1      -7.573  15.808  67.616  1.00  0.00    -0.177 A  
HETATM   12  C   UNL     1      -6.702  14.192  69.705  1.00  0.00    -0.092 A  
HETATM   13  F   UNL     1      -5.189  13.144  68.230  1.00  0.00    -0.063 F  
HETATM   14  C   UNL     1      -6.580  14.849  67.395  1.00  0.00    -0.039 A  
HETATM   15  C   UNL     1      -6.151  14.050  68.441  1.00  0.00    -0.100 A  
HETATM   16  C   UNL     1      -7.716  15.133  69.915  1.00  0.00     0.041 A  
ENDROOT
BRANCH   8  17
HETATM   17  C   UNL     1     -11.606  15.624  69.202  1.00  0.00    -0.393 C  
BRANCH  17  18
HETATM   18  C   UNL     1     -11.437  14.099  69.177  1.00  0.00    -0.296 C  
BRANCH  18  19
HETATM   19  N   UNL     1     -10.943  13.559  67.912  1.00  0.00    -0.250 NA 
HETATM   20  C   UNL     1      -9.432  11.626  68.543  1.00  0.00    -0.175 C  
HETATM   21  C   UNL     1      -9.578  13.024  67.935  1.00  0.00    -0.215 C  
HETATM   22  C   UNL     1     -10.465  10.641  67.983  1.00  0.00    -0.196 C  
HETATM   23  C   UNL     1     -11.881  11.225  67.936  1.00  0.00    -0.209 C  
HETATM   24  N   UNL     1     -10.444   9.294  68.646  1.00  0.00    -0.212 NA 
HETATM   25  O   UNL     1      -9.783  11.005  65.602  1.00  0.00    -0.209 OA 
HETATM   26  C   UNL     1     -11.891  12.615  67.300  1.00  0.00    -0.328 C  
HETATM   27  C   UNL     1     -10.309   8.237  67.653  1.00  0.00    -0.248 C  
HETATM   28  C   UNL     1     -10.038  10.270  66.541  1.00  0.00    -0.231 C  
HETATM   29  N   UNL     1      -9.990   8.906  66.449  1.00  0.00    -0.283 NA 
BRANCH  24  30
HETATM   30  C   UNL     1     -10.621   8.969  69.979  1.00  0.00    -0.228 A  
HETATM   31  C   UNL     1      -9.736   8.156  70.697  1.00  0.00    -0.184 A  
HETATM   32  C   UNL     1      -9.972   7.764  72.025  1.00  0.00    -0.231 A  
HETATM   33  C   UNL     1     -11.102   8.207  72.696  1.00  0.00    -0.450 A  
HETATM   34  C   UNL     1     -11.981   9.055  72.046  1.00  0.00    -0.433 A  
HETATM   35  C   UNL     1     -11.740   9.423  70.711  1.00  0.00    -0.349 A  
ENDBRANCH  24  30
ENDBRANCH  18  19
ENDBRANCH  17  18
ENDBRANCH   8  17
TORSDOF 4
ENDMDL
MODEL       43
REMARK 921   NORMALIZED FREE ENERGY PREDICTED BY IDOCK:   -6.48 KCAL/MOL
REMARK 922        TOTAL FREE ENERGY PREDICTED BY IDOCK:   -9.87 KCAL/MOL
REMARK 923 INTER-LIGAND FREE ENERGY PREDICTED BY IDOCK:   -7.76 KCAL/MOL
REMARK 924 INTRA-LIGAND FREE ENERGY PREDICTED BY IDOCK:   -2.11 KCAL/MOL
REMARK 927      BINDING AFFINITY PREDICTED BY RF-SCORE:    0.00 PKD
ROOT
HETATM    1  F   UNL     1     -10.477  21.062  65.592  1.00  0.00     0.244 F  
HETATM    2  C   UNL     1     -10.289  20.046  66.443  1.00  0.00    -0.455 A  
HETATM    3  C   UNL     1     -10.104  20.305  67.794  1.00  0.00    -0.505 A  
HETATM    4  C   UNL     1      -9.852  19.248  68.672  1.00  0.00    -0.500 A  
HETATM    5  C   UNL     1      -9.795  17.919  68.208  1.00  0.00    -0.348 A  
HETATM    6  C   UNL     1      -9.464  16.785  69.193  1.00  0.00    -0.162 C  
HETATM    7  C   UNL     1     -10.080  17.687  66.850  1.00  0.00    -0.331 A  
HETATM    8  C   UNL     1     -10.767  16.203  69.820  1.00  0.00    -0.336 C  
HETATM    9  C   UNL     1     -10.286  18.746  65.965  1.00  0.00    -0.467 A  
HETATM   10  C   UNL     1      -8.400  15.748  68.784  1.00  0.00    -0.195 A  
HETATM   11  C   UNL     1      -7.699  15.781  67.564  1.00  0.00    -0.186 A  
HETATM   12  C   UNL     1      -7.066  13.778  69.386  1.00  0.00     0.052 A  
HETATM   13  F   UNL     1      -5.527  12.890  67.836  1.00  0.00    -0.073 F  
HETATM   14  C   UNL     1      -6.754  14.806  67.235  1.00  0.00     0.101 A  
HETATM   15  C   UNL     1      -6.444  13.812  68.149  1.00  0.00    -0.124 A  
HETATM   16  C   UNL     1      -8.033  14.740  69.700  1.00  0.00     0.058 A  
ENDROOT
BRANCH   8  17
HETATM   17  C   UNL     1     -11.831  15.619  68.874  1.00  0.00    -0.368 C  
BRANCH  17  18
HETATM   18  C   UNL     1     -11.486  14.295  68.181  1.00  0.00    -0.308 C  
BRANCH  18  19
HETATM   19  N   UNL     1     -11.837  14.236  66.763  1.00  0.00    -0.412 NA 
HETATM   20  C   UNL     1      -9.686  13.659  65.554  1.00  0.00    -0.086 C  
HETATM   21  C   UNL     1     -10.797  14.678  65.829  1.00  0.00    -0.323 C  
HETATM   22  C   UNL     1     -10.245  12.268  65.235  1.00  0.00    -0.278 C  
HETATM   23  C   UNL     1     -11.352  11.833  66.201  1.00  0.00    -0.342 C  
HETATM   24  N   UNL     1      -9.191  11.208  65.089  1.00  0.00    -0.212 NA 
HETATM   25  O   UNL     1     -11.649  13.074  63.326  1.00  0.00    -0.446 OA 
HETATM   26  C   UNL     1     -12.399  12.932  66.381  1.00  0.00    -0.075 C  
HETATM   27  C   UNL     1      -9.339  10.512  63.818  1.00  0.00    -0.281 C  
HETATM   28  C   UNL     1     -10.830  12.305  63.801  1.00  0.00    -0.442 C  
HETATM   29  N   UNL     1     -10.274  11.280  63.087  1.00  0.00    -0.342 NA 
BRANCH  24  30
HETATM   30  C   UNL     1      -8.234  10.791  65.996  1.00  0.00    -0.164 A  
HETATM   31  C   UNL     1      -6.950  10.375  65.624  1.00  0.00    -0.132 A  
HETATM   32  C   UNL     1      -6.017   9.873  66.546  1.00  0.00    -0.059 A  
HETATM   33  C   UNL     1      -6.333   9.802  67.894  1.00  0.00    -0.056 A  
HETATM   34  C   UNL     1      -7.572  10.250  68.320  1.00  0.00    -0.091 A  
HETATM   35  C   UNL     1      -8.501  10.732  67.381  1.00  0.00    -0.119 A  
ENDBRANCH  24  30
ENDBRANCH  18  19
ENDBRANCH  17  18
ENDBRANCH   8  17
TORSDOF 4
ENDMDL
MODEL       44
REMARK 921   NORMALIZED FREE ENERGY PREDICTED BY IDOCK:   -6.42 KCAL/MOL
REMARK 922        TOTAL FREE ENERGY PREDICTED BY IDOCK:   -9.80 KCAL/MOL
REMARK 923 INTER-LIGAND FREE ENERGY PREDICTED BY IDOCK:   -8.60 KCAL/MOL
REMARK 924 INTRA-LIGAND FREE ENERGY PREDICTED BY IDOCK:   -1.20 KCAL/MOL
REMARK 927      BINDING AFFINITY PREDICTED BY RF-SCORE:    0.00 PKD
ROOT
HETATM    1  F   UNL     1     -12.422  12.164  62.999  1.00  0.00    -0.574 F  
HETATM    2  C   UNL     1     -12.028  12.801  64.109  1.00  0.00    -0.427 A  
HETATM    3  C   UNL     1     -12.897  12.909  65.185  1.00  0.00    -0.295 A  
HETATM    4  C   UNL     1     -12.505  13.622  66.321  1.00  0.00    -0.420 A  
HETATM    5  C   UNL     1     -11.233  14.223  66.396  1.00  0.00    -0.337 A  
HETATM    6  C   UNL     1     -10.853  15.045  67.640  1.00  0.00    -0.291 C  
HETATM    7  C   UNL     1     -10.346  14.013  65.324  1.00  0.00    -0.403 A  
HETATM    8  C   UNL     1     -10.168  14.140  68.707  1.00  0.00    -0.216 C  
HETATM    9  C   UNL     1     -10.754  13.340  64.171  1.00  0.00    -0.350 A  
HETATM   10  C   UNL     1     -10.218  16.432  67.434  1.00  0.00    -0.281 A  
HETATM   11  C   UNL     1      -9.973  17.005  66.172  1.00  0.00    -0.314 A  
HETATM   12  C   UNL     1      -9.357  18.502  68.432  1.00  0.00    -0.359 A  
HETATM   13  F   UNL     1      -8.521  20.213  67.041  1.00  0.00    -0.326 F  
HETATM   14  C   UNL     1      -9.378  18.263  66.040  1.00  0.00    -0.016 A  
HETATM   15  C   UNL     1      -9.076  19.002  67.172  1.00  0.00    -0.283 A  
HETATM   16  C   UNL     1      -9.925  17.230  68.561  1.00  0.00    -0.320 A  
ENDROOT
BRANCH   8  17
HETATM   17  C   UNL     1      -8.883  13.392  68.310  1.00  0.00    -0.172 C  
BRANCH  17  18
HETATM   18  C   UNL     1      -8.807  11.905  68.680  1.00  0.00    -0.038 C  
BRANCH  18  19
HETATM   19  N   UNL     1      -9.232  10.988  67.623  1.00  0.00    -0.148 NA 
HETATM   20  C   UNL     1      -8.415   8.700  68.341  1.00  0.00    -0.131 C  
HETATM   21  C   UNL     1      -8.329   9.866  67.351  1.00  0.00    -0.118 C  
HETATM   22  C   UNL     1      -9.863   8.271  68.603  1.00  0.00    -0.176 C  
HETATM   23  C   UNL     1     -10.801   9.456  68.857  1.00  0.00    -0.151 C  
HETATM   24  N   UNL     1     -10.003   7.220  69.667  1.00  0.00    -0.174 NA 
HETATM   25  O   UNL     1     -10.365   7.849  66.188  1.00  0.00     0.110 OA 
HETATM   26  C   UNL     1     -10.623  10.544  67.796  1.00  0.00    -0.243 C  
HETATM   27  C   UNL     1     -10.764   6.083  69.165  1.00  0.00    -0.331 C  
HETATM   28  C   UNL     1     -10.368   7.502  67.358  1.00  0.00    -0.276 C  
HETATM   29  N   UNL     1     -10.863   6.297  67.771  1.00  0.00    -0.310 NA 
BRANCH  24  30
HETATM   30  C   UNL     1      -9.604   7.252  70.991  1.00  0.00    -0.158 A  
HETATM   31  C   UNL     1      -8.341   6.830  71.424  1.00  0.00    -0.119 A  
HETATM   32  C   UNL     1      -7.979   6.787  72.781  1.00  0.00    -0.099 A  
HETATM   33  C   UNL     1      -8.871   7.202  73.758  1.00  0.00    -0.214 A  
HETATM   34  C   UNL     1     -10.114   7.677  73.376  1.00  0.00    -0.379 A  
HETATM   35  C   UNL     1     -10.468   7.696  72.016  1.00  0.00    -0.258 A  
ENDBRANCH  24  30
ENDBRANCH  18  19
ENDBRANCH  17  18
ENDBRANCH   8  17
TORSDOF 4
ENDMDL
MODEL       45
REMARK 921   NORMALIZED FREE ENERGY PREDICTED BY IDOCK:   -6.41 KCAL/MOL
REMARK 922        TOTAL FREE ENERGY PREDICTED BY IDOCK:   -9.78 KCAL/MOL
REMARK 923 INTER-LIGAND FREE ENERGY PREDICTED BY IDOCK:   -7.81 KCAL/MOL
REMARK 924 INTRA-LIGAND FREE ENERGY PREDICTED BY IDOCK:   -1.97 KCAL/MOL
REMARK 927      BINDING AFFINITY PREDICTED BY RF-SCORE:    0.00 PKD
ROOT
HETATM    1  F   UNL     1     -10.182   4.381  66.551  1.00  0.00    -0.230 F  
HETATM    2  C   UNL     1      -9.694   5.604  66.309  1.00  0.00    -0.135 A  
HETATM    3  C   UNL     1      -8.705   5.774  65.350  1.00  0.00    -0.122 A  
HETATM    4  C   UNL     1      -8.157   7.042  65.140  1.00  0.00    -0.124 A  
HETATM    5  C   UNL     1      -8.603   8.155  65.879  1.00  0.00    -0.171 A  
HETATM    6  C   UNL     1      -7.941   9.526  65.659  1.00  0.00    -0.108 C  
HETATM    7  C   UNL     1      -9.669   7.961  66.775  1.00  0.00    -0.303 A  
HETATM    8  C   UNL     1      -8.692  10.327  64.552  1.00  0.00    -0.205 C  
HETATM    9  C   UNL     1     -10.185   6.688  67.019  1.00  0.00    -0.288 A  
HETATM   10  C   UNL     1      -7.512  10.339  66.895  1.00  0.00    -0.101 A  
HETATM   11  C   UNL     1      -7.676   9.897  68.221  1.00  0.00    -0.085 A  
HETATM   12  C   UNL     1      -6.422  12.342  67.800  1.00  0.00    -0.115 A  
HETATM   13  F   UNL     1      -6.269  12.638  70.134  1.00  0.00    -0.140 F  
HETATM   14  C   UNL     1      -7.283  10.681  69.309  1.00  0.00    -0.113 A  
HETATM   15  C   UNL     1      -6.658  11.898  69.090  1.00  0.00    -0.103 A  
HETATM   16  C   UNL     1      -6.843  11.568  66.713  1.00  0.00    -0.114 A  
ENDROOT
BRANCH   8  17
HETATM   17  C   UNL     1     -10.187  10.628  64.760  1.00  0.00    -0.401 C  
BRANCH  17  18
HETATM   18  C   UNL     1     -10.554  12.069  65.141  1.00  0.00    -0.288 C  
BRANCH  18  19
HETATM   19  N   UNL     1     -11.352  12.195  66.359  1.00  0.00    -0.339 NA 
HETATM   20  C   UNL     1      -9.871  13.409  68.017  1.00  0.00    -0.229 C  
HETATM   21  C   UNL     1     -10.607  12.126  67.620  1.00  0.00    -0.210 C  
HETATM   22  C   UNL     1     -10.766  14.648  67.903  1.00  0.00    -0.250 C  
HETATM   23  C   UNL     1     -11.560  14.691  66.593  1.00  0.00    -0.359 C  
HETATM   24  N   UNL     1     -10.048  15.943  68.155  1.00  0.00    -0.226 NA 
HETATM   25  O   UNL     1     -12.526  13.738  69.431  1.00  0.00    -0.255 OA 
HETATM   26  C   UNL     1     -12.253  13.356  66.317  1.00  0.00    -0.398 C  
HETATM   27  C   UNL     1     -10.736  16.717  69.179  1.00  0.00    -0.329 C  
HETATM   28  C   UNL     1     -11.766  14.627  69.085  1.00  0.00    -0.309 C  
HETATM   29  N   UNL     1     -11.687  15.829  69.732  1.00  0.00    -0.345 NA 
BRANCH  24  30
HETATM   30  C   UNL     1      -8.949  16.479  67.507  1.00  0.00    -0.196 A  
HETATM   31  C   UNL     1      -7.668  15.920  67.574  1.00  0.00    -0.183 A  
HETATM   32  C   UNL     1      -6.545  16.521  66.982  1.00  0.00    -0.234 A  
HETATM   33  C   UNL     1      -6.678  17.701  66.266  1.00  0.00    -0.317 A  
HETATM   34  C   UNL     1      -7.934  18.266  66.127  1.00  0.00    -0.219 A  
HETATM   35  C   UNL     1      -9.044  17.662  66.741  1.00  0.00    -0.273 A  
ENDBRANCH  24  30
ENDBRANCH  18  19
ENDBRANCH  17  18
ENDBRANCH   8  17
TORSDOF 4
ENDMDL
MODEL       46
REMARK 921   NORMALIZED FREE ENERGY PREDICTED BY IDOCK:   -6.40 KCAL/MOL
REMARK 922        TOTAL FREE ENERGY PREDICTED BY IDOCK:   -9.77 KCAL/MOL
REMARK 923 INTER-LIGAND FREE ENERGY PREDICTED BY IDOCK:   -9.02 KCAL/MOL
REMARK 924 INTRA-LIGAND FREE ENERGY PREDICTED BY IDOCK:   -0.75 KCAL/MOL
REMARK 927      BINDING AFFINITY PREDICTED BY RF-SCORE:    0.00 PKD
ROOT
HETATM    1  F   UNL     1     -12.688  16.131  71.490  1.00  0.00    -0.496 F  
HETATM    2  C   UNL     1     -12.064  15.315  70.631  1.00  0.00    -0.354 A  
HETATM    3  C   UNL     1     -10.739  15.554  70.293  1.00  0.00    -0.352 A  
HETATM    4  C   UNL     1     -10.107  14.735  69.354  1.00  0.00    -0.120 A  
HETATM    5  C   UNL     1     -10.792  13.661  68.753  1.00  0.00    -0.279 A  
HETATM    6  C   UNL     1     -10.082  12.812  67.684  1.00  0.00    -0.220 C  
HETATM    7  C   UNL     1     -12.102  13.393  69.189  1.00  0.00    -0.306 A  
HETATM    8  C   UNL     1      -9.352  11.601  68.340  1.00  0.00    -0.191 C  
HETATM    9  C   UNL     1     -12.749  14.238  70.092  1.00  0.00    -0.246 A  
HETATM   10  C   UNL     1     -10.832  12.509  66.374  1.00  0.00    -0.290 A  
HETATM   11  C   UNL     1     -12.129  12.973  66.085  1.00  0.00    -0.473 A  
HETATM   12  C   UNL     1     -10.803  11.494  64.140  1.00  0.00    -0.435 A  
HETATM   13  F   UNL     1     -12.716  11.630  62.768  1.00  0.00    -0.525 F  
HETATM   14  C   UNL     1     -12.772  12.655  64.885  1.00  0.00    -0.450 A  
HETATM   15  C   UNL     1     -12.104  11.919  63.922  1.00  0.00    -0.401 A  
HETATM   16  C   UNL     1     -10.174  11.789  65.354  1.00  0.00    -0.301 A  
ENDROOT
BRANCH   8  17
HETATM   17  C   UNL     1     -10.191  10.603  69.158  1.00  0.00    -0.238 C  
BRANCH  17  18
HETATM   18  C   UNL     1      -9.788   9.125  69.066  1.00  0.00    -0.174 C  
BRANCH  18  19
HETATM   19  N   UNL     1      -9.489   8.655  67.715  1.00  0.00    -0.140 NA 
HETATM   20  C   UNL     1      -8.151   6.525  68.019  1.00  0.00    -0.113 C  
HETATM   21  C   UNL     1      -8.198   7.981  67.545  1.00  0.00    -0.123 C  
HETATM   22  C   UNL     1      -9.340   5.709  67.498  1.00  0.00    -0.109 C  
HETATM   23  C   UNL     1     -10.679   6.439  67.655  1.00  0.00    -0.387 C  
HETATM   24  N   UNL     1      -9.406   4.312  68.044  1.00  0.00    -0.142 NA 
HETATM   25  O   UNL     1      -8.865   6.218  65.093  1.00  0.00    -0.028 OA 
HETATM   26  C   UNL     1     -10.594   7.876  67.138  1.00  0.00    -0.313 C  
HETATM   27  C   UNL     1      -9.492   3.343  66.960  1.00  0.00    -0.156 C  
HETATM   28  C   UNL     1      -9.106   5.429  65.993  1.00  0.00    -0.154 C  
HETATM   29  N   UNL     1      -9.222   4.083  65.786  1.00  0.00    -0.142 NA 
BRANCH  24  30
HETATM   30  C   UNL     1      -9.484   3.886  69.359  1.00  0.00    -0.190 A  
HETATM   31  C   UNL     1      -9.300   2.554  69.747  1.00  0.00    -0.176 A  
HETATM   32  C   UNL     1      -9.466   2.120  71.073  1.00  0.00    -0.211 A  
HETATM   33  C   UNL     1      -9.794   3.026  72.071  1.00  0.00    -0.242 A  
HETATM   34  C   UNL     1      -9.935   4.364  71.745  1.00  0.00    -0.257 A  
HETATM   35  C   UNL     1      -9.783   4.778  70.410  1.00  0.00    -0.289 A  
ENDBRANCH  24  30
ENDBRANCH  18  19
ENDBRANCH  17  18
ENDBRANCH   8  17
TORSDOF 4
ENDMDL
MODEL       47
REMARK 921   NORMALIZED FREE ENERGY PREDICTED BY IDOCK:   -6.38 KCAL/MOL
REMARK 922        TOTAL FREE ENERGY PREDICTED BY IDOCK:   -9.75 KCAL/MOL
REMARK 923 INTER-LIGAND FREE ENERGY PREDICTED BY IDOCK:   -8.80 KCAL/MOL
REMARK 924 INTRA-LIGAND FREE ENERGY PREDICTED BY IDOCK:   -0.96 KCAL/MOL
REMARK 927      BINDING AFFINITY PREDICTED BY RF-SCORE:    0.00 PKD
ROOT
HETATM    1  F   UNL     1      -9.276   3.881  65.586  1.00  0.00    -0.127 F  
HETATM    2  C   UNL     1      -9.505   5.105  66.077  1.00  0.00    -0.160 A  
HETATM    3  C   UNL     1     -10.607   5.327  66.890  1.00  0.00    -0.283 A  
HETATM    4  C   UNL     1     -10.875   6.617  67.355  1.00  0.00    -0.434 A  
HETATM    5  C   UNL     1     -10.033   7.697  67.020  1.00  0.00    -0.310 A  
HETATM    6  C   UNL     1     -10.387   9.113  67.506  1.00  0.00    -0.324 C  
HETATM    7  C   UNL     1      -8.876   7.417  66.272  1.00  0.00    -0.182 A  
HETATM    8  C   UNL     1      -9.724   9.401  68.887  1.00  0.00    -0.166 C  
HETATM    9  C   UNL     1      -8.633   6.138  65.770  1.00  0.00    -0.153 A  
HETATM   10  C   UNL     1     -10.340  10.268  66.489  1.00  0.00    -0.276 A  
HETATM   11  C   UNL     1     -10.005  10.106  65.132  1.00  0.00    -0.379 A  
HETATM   12  C   UNL     1     -10.712  12.647  66.014  1.00  0.00    -0.295 A  
HETATM   13  F   UNL     1     -10.289  13.488  63.852  1.00  0.00    -0.344 F  
HETATM   14  C   UNL     1      -9.961  11.192  64.253  1.00  0.00    -0.359 A  
HETATM   15  C   UNL     1     -10.316  12.454  64.700  1.00  0.00    -0.307 A  
HETATM   16  C   UNL     1     -10.726  11.562  66.898  1.00  0.00    -0.304 A  
ENDROOT
BRANCH   8  17
HETATM   17  C   UNL     1      -8.191   9.309  68.990  1.00  0.00    -0.111 C  
BRANCH  17  18
HETATM   18  C   UNL     1      -7.576   9.571  70.371  1.00  0.00    -0.159 C  
BRANCH  18  19
HETATM   19  N   UNL     1      -7.117   8.374  71.075  1.00  0.00    -0.055 NA 
HETATM   20  C   UNL     1      -8.822   7.968  72.904  1.00  0.00    -0.287 C  
HETATM   21  C   UNL     1      -7.387   8.338  72.515  1.00  0.00    -0.109 C  
HETATM   22  C   UNL     1      -9.322   6.726  72.156  1.00  0.00    -0.140 C  
HETATM   23  C   UNL     1      -9.006   6.766  70.657  1.00  0.00    -0.151 C  
HETATM   24  N   UNL     1     -10.767   6.405  72.407  1.00  0.00    -0.217 NA 
HETATM   25  O   UNL     1      -7.440   5.276  72.943  1.00  0.00    -0.092 OA 
HETATM   26  C   UNL     1      -7.543   7.137  70.405  1.00  0.00    -0.089 C  
HETATM   27  C   UNL     1     -10.915   5.025  72.848  1.00  0.00    -0.277 C  
HETATM   28  C   UNL     1      -8.630   5.486  72.773  1.00  0.00    -0.120 C  
HETATM   29  N   UNL     1      -9.598   4.585  73.118  1.00  0.00    -0.129 NA 
BRANCH  24  30
HETATM   30  C   UNL     1     -11.890   7.184  72.191  1.00  0.00    -0.277 A  
HETATM   31  C   UNL     1     -11.912   8.571  72.380  1.00  0.00    -0.434 A  
HETATM   32  C   UNL     1     -13.082   9.337  72.241  1.00  0.00    -0.517 A  
HETATM   33  C   UNL     1     -14.274   8.735  71.870  1.00  0.00    -0.467 A  
HETATM   34  C   UNL     1     -14.292   7.374  71.621  1.00  0.00    -0.614 A  
HETATM   35  C   UNL     1     -13.117   6.618  71.783  1.00  0.00    -0.147 A  
ENDBRANCH  24  30
ENDBRANCH  18  19
ENDBRANCH  17  18
ENDBRANCH   8  17
TORSDOF 4
ENDMDL
MODEL       48
REMARK 921   NORMALIZED FREE ENERGY PREDICTED BY IDOCK:   -6.38 KCAL/MOL
REMARK 922        TOTAL FREE ENERGY PREDICTED BY IDOCK:   -9.75 KCAL/MOL
REMARK 923 INTER-LIGAND FREE ENERGY PREDICTED BY IDOCK:   -8.56 KCAL/MOL
REMARK 924 INTRA-LIGAND FREE ENERGY PREDICTED BY IDOCK:   -1.19 KCAL/MOL
REMARK 927      BINDING AFFINITY PREDICTED BY RF-SCORE:    0.00 PKD
ROOT
HETATM    1  F   UNL     1     -12.669  10.682  72.100  1.00  0.00    -0.484 F  
HETATM    2  C   UNL     1     -11.999  10.370  70.984  1.00  0.00    -0.382 A  
HETATM    3  C   UNL     1     -12.522  10.719  69.746  1.00  0.00    -0.231 A  
HETATM    4  C   UNL     1     -11.849  10.343  68.581  1.00  0.00     0.052 A  
HETATM    5  C   UNL     1     -10.640   9.623  68.643  1.00  0.00    -0.246 A  
HETATM    6  C   UNL     1      -9.953   9.179  67.340  1.00  0.00    -0.262 C  
HETATM    7  C   UNL     1     -10.094   9.368  69.915  1.00  0.00    -0.243 A  
HETATM    8  C   UNL     1      -8.946  10.264  66.853  1.00  0.00    -0.149 C  
HETATM    9  C   UNL     1     -10.788   9.704  71.078  1.00  0.00    -0.412 A  
HETATM   10  C   UNL     1      -9.469   7.721  67.228  1.00  0.00    -0.187 A  
HETATM   11  C   UNL     1      -9.629   6.760  68.243  1.00  0.00    -0.127 A  
HETATM   12  C   UNL     1      -8.451   5.961  65.855  1.00  0.00    -0.141 A  
HETATM   13  F   UNL     1      -8.136   3.806  66.761  1.00  0.00    -0.093 F  
HETATM   14  C   UNL     1      -9.157   5.453  68.097  1.00  0.00    -0.115 A  
HETATM   15  C   UNL     1      -8.572   5.063  66.903  1.00  0.00    -0.105 A  
HETATM   16  C   UNL     1      -8.898   7.276  66.016  1.00  0.00    -0.161 A  
ENDROOT
BRANCH   8  17
HETATM   17  C   UNL     1      -7.799  10.668  67.797  1.00  0.00    -0.108 C  
BRANCH  17  18
HETATM   18  C   UNL     1      -7.847  12.089  68.373  1.00  0.00    -0.147 C  
BRANCH  18  19
HETATM   19  N   UNL     1      -7.911  13.153  67.373  1.00  0.00    -0.177 NA 
HETATM   20  C   UNL     1     -10.297  14.002  67.438  1.00  0.00    -0.259 C  
HETATM   21  C   UNL     1      -9.186  13.286  66.663  1.00  0.00    -0.215 C  
HETATM   22  C   UNL     1      -9.809  15.311  68.069  1.00  0.00    -0.216 C  
HETATM   23  C   UNL     1      -8.461  15.164  68.782  1.00  0.00    -0.180 C  
HETATM   24  N   UNL     1     -10.827  15.980  68.947  1.00  0.00    -0.266 NA 
HETATM   25  O   UNL     1      -9.030  16.277  65.895  1.00  0.00    -0.398 OA 
HETATM   26  C   UNL     1      -7.440  14.443  67.900  1.00  0.00    -0.152 C  
HETATM   27  C   UNL     1     -11.025  17.364  68.538  1.00  0.00    -0.072 C  
HETATM   28  C   UNL     1      -9.657  16.359  66.939  1.00  0.00    -0.244 C  
HETATM   29  N   UNL     1     -10.360  17.476  67.295  1.00  0.00    -0.332 NA 
BRANCH  24  30
HETATM   30  C   UNL     1     -11.475  15.494  70.069  1.00  0.00    -0.331 A  
HETATM   31  C   UNL     1     -12.272  14.343  70.059  1.00  0.00    -0.408 A  
HETATM   32  C   UNL     1     -12.992  13.908  71.184  1.00  0.00    -0.388 A  
HETATM   33  C   UNL     1     -12.909  14.604  72.380  1.00  0.00    -0.442 A  
HETATM   34  C   UNL     1     -12.093  15.719  72.455  1.00  0.00    -0.591 A  
HETATM   35  C   UNL     1     -11.393  16.152  71.315  1.00  0.00    -0.347 A  
ENDBRANCH  24  30
ENDBRANCH  18  19
ENDBRANCH  17  18
ENDBRANCH   8  17
TORSDOF 4
ENDMDL
MODEL       49
REMARK 921   NORMALIZED FREE ENERGY PREDICTED BY IDOCK:   -6.36 KCAL/MOL
REMARK 922        TOTAL FREE ENERGY PREDICTED BY IDOCK:   -9.73 KCAL/MOL
REMARK 923 INTER-LIGAND FREE ENERGY PREDICTED BY IDOCK:   -8.55 KCAL/MOL
REMARK 924 INTRA-LIGAND FREE ENERGY PREDICTED BY IDOCK:   -1.17 KCAL/MOL
REMARK 927      BINDING AFFINITY PREDICTED BY RF-SCORE:    0.00 PKD
ROOT
HETATM    1  F   UNL     1     -14.160  10.558  72.593  1.00  0.00    -0.060 F  
HETATM    2  C   UNL     1     -13.438   9.576  72.038  1.00  0.00    -0.443 A  
HETATM    3  C   UNL     1     -14.004   8.322  71.861  1.00  0.00    -0.468 A  
HETATM    4  C   UNL     1     -13.232   7.284  71.333  1.00  0.00    -0.404 A  
HETATM    5  C   UNL     1     -11.888   7.495  70.967  1.00  0.00    -0.319 A  
HETATM    6  C   UNL     1     -11.052   6.317  70.438  1.00  0.00    -0.416 C  
HETATM    7  C   UNL     1     -11.378   8.801  71.075  1.00  0.00    -0.332 A  
HETATM    8  C   UNL     1     -11.157   6.222  68.886  1.00  0.00    -0.434 C  
HETATM    9  C   UNL     1     -12.134   9.827  71.644  1.00  0.00    -0.475 A  
HETATM   10  C   UNL     1      -9.646   6.096  71.027  1.00  0.00    -0.194 A  
HETATM   11  C   UNL     1      -9.080   6.901  72.033  1.00  0.00    -0.141 A  
HETATM   12  C   UNL     1      -7.611   4.727  71.112  1.00  0.00    -0.081 A  
HETATM   13  F   UNL     1      -5.841   5.350  72.540  1.00  0.00    -0.019 F  
HETATM   14  C   UNL     1      -7.791   6.667  72.521  1.00  0.00    -0.102 A  
HETATM   15  C   UNL     1      -7.067   5.581  72.058  1.00  0.00    -0.086 A  
HETATM   16  C   UNL     1      -8.889   4.982  70.604  1.00  0.00    -0.152 A  
ENDROOT
BRANCH   8  17
HETATM   17  C   UNL     1     -10.716   7.437  68.051  1.00  0.00    -0.191 C  
BRANCH  17  18
HETATM   18  C   UNL     1      -9.343   7.346  67.372  1.00  0.00    -0.132 C  
BRANCH  18  19
HETATM   19  N   UNL     1      -8.310   8.195  67.962  1.00  0.00    -0.128 NA 
HETATM   20  C   UNL     1      -7.952  10.079  66.307  1.00  0.00    -0.111 C  
HETATM   21  C   UNL     1      -7.395   8.841  67.015  1.00  0.00    -0.080 C  
HETATM   22  C   UNL     1      -8.609  11.059  67.286  1.00  0.00    -0.130 C  
HETATM   23  C   UNL     1      -9.539  10.366  68.289  1.00  0.00    -0.152 C  
HETATM   24  N   UNL     1      -9.285  12.223  66.621  1.00  0.00    -0.206 NA 
HETATM   25  O   UNL     1      -6.561  11.292  68.706  1.00  0.00    -0.053 OA 
HETATM   26  C   UNL     1      -8.862   9.154  68.931  1.00  0.00    -0.139 C  
HETATM   27  C   UNL     1      -8.802  13.480  67.177  1.00  0.00    -0.226 C  
HETATM   28  C   UNL     1      -7.485  11.776  68.072  1.00  0.00    -0.101 C  
HETATM   29  N   UNL     1      -7.682  13.124  67.964  1.00  0.00    -0.131 NA 
BRANCH  24  30
HETATM   30  C   UNL     1     -10.302  12.230  65.683  1.00  0.00    -0.257 A  
HETATM   31  C   UNL     1     -10.126  11.819  64.356  1.00  0.00    -0.319 A  
HETATM   32  C   UNL     1     -11.144  11.912  63.392  1.00  0.00    -0.463 A  
HETATM   33  C   UNL     1     -12.396  12.395  63.739  1.00  0.00    -0.625 A  
HETATM   34  C   UNL     1     -12.635  12.765  65.051  1.00  0.00    -0.538 A  
HETATM   35  C   UNL     1     -11.600  12.684  66.000  1.00  0.00    -0.443 A  
ENDBRANCH  24  30
ENDBRANCH  18  19
ENDBRANCH  17  18
ENDBRANCH   8  17
TORSDOF 4
ENDMDL
MODEL       50
REMARK 921   NORMALIZED FREE ENERGY PREDICTED BY IDOCK:   -6.36 KCAL/MOL
REMARK 922        TOTAL FREE ENERGY PREDICTED BY IDOCK:   -9.72 KCAL/MOL
REMARK 923 INTER-LIGAND FREE ENERGY PREDICTED BY IDOCK:   -8.19 KCAL/MOL
REMARK 924 INTRA-LIGAND FREE ENERGY PREDICTED BY IDOCK:   -1.53 KCAL/MOL
REMARK 927      BINDING AFFINITY PREDICTED BY RF-SCORE:    0.00 PKD
ROOT
HETATM    1  F   UNL     1      -9.765  14.762  64.835  1.00  0.00    -0.302 F  
HETATM    2  C   UNL     1     -10.393  14.358  65.947  1.00  0.00    -0.314 A  
HETATM    3  C   UNL     1     -11.716  13.945  65.878  1.00  0.00    -0.372 A  
HETATM    4  C   UNL     1     -12.386  13.577  67.048  1.00  0.00    -0.260 A  
HETATM    5  C   UNL     1     -11.734  13.608  68.296  1.00  0.00    -0.398 A  
HETATM    6  C   UNL     1     -12.518  13.247  69.570  1.00  0.00     0.030 C  
HETATM    7  C   UNL     1     -10.368  13.942  68.313  1.00  0.00    -0.249 A  
HETATM    8  C   UNL     1     -12.402  11.722  69.873  1.00  0.00    -0.200 C  
HETATM    9  C   UNL     1      -9.711  14.353  67.153  1.00  0.00    -0.248 A  
HETATM   10  C   UNL     1     -12.401  14.180  70.790  1.00  0.00    -0.439 A  
HETATM   11  C   UNL     1     -11.629  15.356  70.808  1.00  0.00    -0.381 A  
HETATM   12  C   UNL     1     -13.105  14.722  73.077  1.00  0.00    -0.614 A  
HETATM   13  F   UNL     1     -12.213  16.619  74.157  1.00  0.00    -0.553 F  
HETATM   14  C   UNL     1     -11.544  16.160  71.948  1.00  0.00    -0.491 A  
HETATM   15  C   UNL     1     -12.284  15.838  73.073  1.00  0.00    -0.488 A  
HETATM   16  C   UNL     1     -13.164  13.903  71.944  1.00  0.00    -0.480 A  
ENDROOT
BRANCH   8  17
HETATM   17  C   UNL     1     -10.998  11.127  70.080  1.00  0.00    -0.079 C  
BRANCH  17  18
HETATM   18  C   UNL     1     -10.912   9.605  70.253  1.00  0.00    -0.285 C  
BRANCH  18  19
HETATM   19  N   UNL     1     -10.717   8.857  69.012  1.00  0.00    -0.176 NA 
HETATM   20  C   UNL     1      -9.656  10.493  67.394  1.00  0.00    -0.181 C  
HETATM   21  C   UNL     1     -10.862   9.627  67.773  1.00  0.00    -0.217 C  
HETATM   22  C   UNL     1      -8.338   9.715  67.480  1.00  0.00    -0.118 C  
HETATM   23  C   UNL     1      -8.214   8.891  68.767  1.00  0.00    -0.115 C  
HETATM   24  N   UNL     1      -7.117  10.558  67.246  1.00  0.00    -0.086 NA 
HETATM   25  O   UNL     1      -9.086   7.921  65.904  1.00  0.00    -0.161 OA 
HETATM   26  C   UNL     1      -9.476   8.068  69.025  1.00  0.00    -0.151 C  
HETATM   27  C   UNL     1      -6.287   9.976  66.200  1.00  0.00    -0.081 C  
HETATM   28  C   UNL     1      -8.271   8.752  66.270  1.00  0.00    -0.115 C  
HETATM   29  N   UNL     1      -7.085   8.961  65.623  1.00  0.00    -0.083 NA 
BRANCH  24  30
HETATM   30  C   UNL     1      -6.683  11.684  67.924  1.00  0.00    -0.066 A  
HETATM   31  C   UNL     1      -6.470  12.921  67.304  1.00  0.00    -0.035 A  
HETATM   32  C   UNL     1      -5.947  14.032  67.987  1.00  0.00    -0.145 A  
HETATM   33  C   UNL     1      -5.650  13.947  69.339  1.00  0.00    -0.086 A  
HETATM   34  C   UNL     1      -5.893  12.760  70.008  1.00  0.00    -0.149 A  
HETATM   35  C   UNL     1      -6.399  11.652  69.306  1.00  0.00    -0.098 A  
ENDBRANCH  24  30
ENDBRANCH  18  19
ENDBRANCH  17  18
ENDBRANCH   8  17
TORSDOF 4
ENDMDL
MODEL       51
REMARK 921   NORMALIZED FREE ENERGY PREDICTED BY IDOCK:   -6.35 KCAL/MOL
REMARK 922        TOTAL FREE ENERGY PREDICTED BY IDOCK:   -9.71 KCAL/MOL
REMARK 923 INTER-LIGAND FREE ENERGY PREDICTED BY IDOCK:   -8.18 KCAL/MOL
REMARK 924 INTRA-LIGAND FREE ENERGY PREDICTED BY IDOCK:   -1.52 KCAL/MOL
REMARK 927      BINDING AFFINITY PREDICTED BY RF-SCORE:    0.00 PKD
ROOT
HETATM    1  F   UNL     1     -12.827  14.085  66.358  1.00  0.00    -0.444 F  
HETATM    2  C   UNL     1     -11.991  13.180  66.882  1.00  0.00    -0.362 A  
HETATM    3  C   UNL     1     -11.516  12.143  66.092  1.00  0.00    -0.429 A  
HETATM    4  C   UNL     1     -10.688  11.168  66.656  1.00  0.00    -0.322 A  
HETATM    5  C   UNL     1     -10.318  11.229  68.014  1.00  0.00    -0.204 A  
HETATM    6  C   UNL     1      -9.448  10.111  68.614  1.00  0.00    -0.164 C  
HETATM    7  C   UNL     1     -10.743  12.345  68.758  1.00  0.00    -0.242 A  
HETATM    8  C   UNL     1      -7.935  10.463  68.485  1.00  0.00    -0.114 C  
HETATM    9  C   UNL     1     -11.606  13.293  68.208  1.00  0.00    -0.369 A  
HETATM   10  C   UNL     1      -9.878   9.493  69.957  1.00  0.00    -0.269 A  
HETATM   11  C   UNL     1     -11.029   9.879  70.668  1.00  0.00    -0.405 A  
HETATM   12  C   UNL     1      -9.482   7.814  71.703  1.00  0.00    -0.179 A  
HETATM   13  F   UNL     1     -10.923   7.699  73.565  1.00  0.00    -0.426 F  
HETATM   14  C   UNL     1     -11.365   9.295  71.893  1.00  0.00    -0.359 A  
HETATM   15  C   UNL     1     -10.589   8.267  72.400  1.00  0.00    -0.337 A  
HETATM   16  C   UNL     1      -9.132   8.420  70.491  1.00  0.00    -0.163 A  
ENDROOT
BRANCH   8  17
HETATM   17  C   UNL     1      -7.433  11.762  69.140  1.00  0.00     0.035 C  
BRANCH  17  18
HETATM   18  C   UNL     1      -6.554  12.676  68.275  1.00  0.00    -0.079 C  
BRANCH  18  19
HETATM   19  N   UNL     1      -5.921  13.778  68.997  1.00  0.00    -0.079 NA 
HETATM   20  C   UNL     1      -6.149  15.798  67.485  1.00  0.00    -0.162 C  
HETATM   21  C   UNL     1      -5.236  14.774  68.168  1.00  0.00    -0.119 C  
HETATM   22  C   UNL     1      -7.164  16.407  68.459  1.00  0.00    -0.170 C  
HETATM   23  C   UNL     1      -7.850  15.357  69.339  1.00  0.00    -0.232 C  
HETATM   24  N   UNL     1      -8.164  17.317  67.805  1.00  0.00    -0.200 NA 
HETATM   25  O   UNL     1      -5.416  17.216  70.056  1.00  0.00    -0.197 OA 
HETATM   26  C   UNL     1      -6.831  14.405  69.968  1.00  0.00    -0.028 C  
HETATM   27  C   UNL     1      -8.185  18.613  68.469  1.00  0.00    -0.341 C  
HETATM   28  C   UNL     1      -6.411  17.402  69.375  1.00  0.00    -0.246 C  
HETATM   29  N   UNL     1      -7.061  18.603  69.326  1.00  0.00    -0.218 NA 
BRANCH  24  30
HETATM   30  C   UNL     1      -9.061  17.049  66.786  1.00  0.00    -0.246 A  
HETATM   31  C   UNL     1      -9.922  18.011  66.246  1.00  0.00    -0.338 A  
HETATM   32  C   UNL     1     -10.886  17.706  65.271  1.00  0.00     0.193 A  
HETATM   33  C   UNL     1     -10.998  16.415  64.777  1.00  0.00    -0.246 A  
HETATM   34  C   UNL     1     -10.134  15.439  65.242  1.00  0.00    -0.354 A  
HETATM   35  C   UNL     1      -9.187  15.757  66.231  1.00  0.00    -0.368 A  
ENDBRANCH  24  30
ENDBRANCH  18  19
ENDBRANCH  17  18
ENDBRANCH   8  17
TORSDOF 4
ENDMDL
MODEL       52
REMARK 921   NORMALIZED FREE ENERGY PREDICTED BY IDOCK:   -6.33 KCAL/MOL
REMARK 922        TOTAL FREE ENERGY PREDICTED BY IDOCK:   -9.68 KCAL/MOL
REMARK 923 INTER-LIGAND FREE ENERGY PREDICTED BY IDOCK:   -8.89 KCAL/MOL
REMARK 924 INTRA-LIGAND FREE ENERGY PREDICTED BY IDOCK:   -0.79 KCAL/MOL
REMARK 927      BINDING AFFINITY PREDICTED BY RF-SCORE:    0.00 PKD
ROOT
HETATM    1  F   UNL     1      -9.868  15.474  64.742  1.00  0.00    -0.210 F  
HETATM    2  C   UNL     1     -10.423  14.851  65.789  1.00  0.00    -0.330 A  
HETATM    3  C   UNL     1     -11.641  14.203  65.638  1.00  0.00    -0.339 A  
HETATM    4  C   UNL     1     -12.246  13.601  66.745  1.00  0.00    -0.416 A  
HETATM    5  C   UNL     1     -11.631  13.634  68.012  1.00  0.00    -0.368 A  
HETATM    6  C   UNL     1     -12.349  13.007  69.219  1.00  0.00     0.017 C  
HETATM    7  C   UNL     1     -10.356  14.219  68.106  1.00  0.00    -0.233 A  
HETATM    8  C   UNL     1     -11.946  11.511  69.383  1.00  0.00    -0.392 C  
HETATM    9  C   UNL     1      -9.772  14.859  67.012  1.00  0.00    -0.240 A  
HETATM   10  C   UNL     1     -12.434  13.822  70.524  1.00  0.00    -0.409 A  
HETATM   11  C   UNL     1     -11.903  15.117  70.677  1.00  0.00    -0.371 A  
HETATM   12  C   UNL     1     -13.264  13.995  72.826  1.00  0.00    -0.580 A  
HETATM   13  F   UNL     1     -12.771  15.912  74.107  1.00  0.00    -0.553 F  
HETATM   14  C   UNL     1     -11.993  15.807  71.889  1.00  0.00    -0.552 A  
HETATM   15  C   UNL     1     -12.673  15.241  72.954  1.00  0.00    -0.421 A  
HETATM   16  C   UNL     1     -13.147  13.294  71.621  1.00  0.00    -0.453 A  
ENDROOT
BRANCH   8  17
HETATM   17  C   UNL     1     -10.457  11.177  69.581  1.00  0.00     0.003 C  
BRANCH  17  18
HETATM   18  C   UNL     1     -10.114   9.715  69.895  1.00  0.00    -0.246 C  
BRANCH  18  19
HETATM   19  N   UNL     1     -11.217   8.932  70.449  1.00  0.00    -0.249 NA 
HETATM   20  C   UNL     1     -10.420   6.527  70.429  1.00  0.00    -0.256 C  
HETATM   21  C   UNL     1     -11.388   7.586  69.893  1.00  0.00    -0.037 C  
HETATM   22  C   UNL     1     -10.329   6.549  71.959  1.00  0.00    -0.199 C  
HETATM   23  C   UNL     1     -10.180   7.965  72.527  1.00  0.00    -0.342 C  
HETATM   24  N   UNL     1      -9.293   5.618  72.521  1.00  0.00    -0.143 NA 
HETATM   25  O   UNL     1     -12.788   6.221  72.288  1.00  0.00    -0.127 OA 
HETATM   26  C   UNL     1     -11.208   8.920  71.920  1.00  0.00    -0.377 C  
HETATM   27  C   UNL     1      -9.885   4.740  73.521  1.00  0.00    -0.145 C  
HETATM   28  C   UNL     1     -11.628   5.926  72.524  1.00  0.00    -0.277 C  
HETATM   29  N   UNL     1     -11.280   4.932  73.396  1.00  0.00    -0.339 NA 
BRANCH  24  30
HETATM   30  C   UNL     1      -7.932   5.571  72.280  1.00  0.00    -0.107 A  
HETATM   31  C   UNL     1      -7.093   6.686  72.386  1.00  0.00    -0.073 A  
HETATM   32  C   UNL     1      -5.728   6.644  72.056  1.00  0.00    -0.037 A  
HETATM   33  C   UNL     1      -5.146   5.458  71.635  1.00  0.00    -0.009 A  
HETATM   34  C   UNL     1      -5.922   4.314  71.564  1.00  0.00    -0.017 A  
HETATM   35  C   UNL     1      -7.291   4.378  71.881  1.00  0.00    -0.069 A  
ENDBRANCH  24  30
ENDBRANCH  18  19
ENDBRANCH  17  18
ENDBRANCH   8  17
TORSDOF 4
ENDMDL
MODEL       53
REMARK 921   NORMALIZED FREE ENERGY PREDICTED BY IDOCK:   -6.30 KCAL/MOL
REMARK 922        TOTAL FREE ENERGY PREDICTED BY IDOCK:   -9.64 KCAL/MOL
REMARK 923 INTER-LIGAND FREE ENERGY PREDICTED BY IDOCK:   -9.07 KCAL/MOL
REMARK 924 INTRA-LIGAND FREE ENERGY PREDICTED BY IDOCK:   -0.57 KCAL/MOL
REMARK 927      BINDING AFFINITY PREDICTED BY RF-SCORE:    0.00 PKD
ROOT
HETATM    1  F   UNL     1     -11.984  16.559  71.044  1.00  0.00    -0.342 F  
HETATM    2  C   UNL     1     -11.486  15.634  70.214  1.00  0.00    -0.349 A  
HETATM    3  C   UNL     1     -10.159  15.709  69.816  1.00  0.00    -0.291 A  
HETATM    4  C   UNL     1      -9.656  14.775  68.905  1.00  0.00    -0.210 A  
HETATM    5  C   UNL     1     -10.476  13.750  68.393  1.00  0.00    -0.256 A  
HETATM    6  C   UNL     1      -9.905  12.771  67.353  1.00  0.00    -0.210 C  
HETATM    7  C   UNL     1     -11.788  13.651  68.890  1.00  0.00    -0.402 A  
HETATM    8  C   UNL     1      -9.282  11.526  68.054  1.00  0.00    -0.175 C  
HETATM    9  C   UNL     1     -12.303  14.609  69.764  1.00  0.00    -0.306 A  
HETATM   10  C   UNL     1     -10.737  12.479  66.090  1.00  0.00    -0.290 A  
HETATM   11  C   UNL     1     -11.987  13.065  65.820  1.00  0.00    -0.482 A  
HETATM   12  C   UNL     1     -10.908  11.345  63.921  1.00  0.00    -0.463 A  
HETATM   13  F   UNL     1     -12.851  11.612  62.611  1.00  0.00    -0.390 F  
HETATM   14  C   UNL     1     -12.709  12.753  64.665  1.00  0.00    -0.439 A  
HETATM   15  C   UNL     1     -12.164  11.896  63.723  1.00  0.00    -0.444 A  
HETATM   16  C   UNL     1     -10.201  11.637  65.092  1.00  0.00    -0.319 A  
ENDROOT
BRANCH   8  17
HETATM   17  C   UNL     1     -10.188  10.672  68.958  1.00  0.00    -0.231 C  
BRANCH  17  18
HETATM   18  C   UNL     1      -9.895   9.166  69.004  1.00  0.00    -0.174 C  
BRANCH  18  19
HETATM   19  N   UNL     1     -10.216   8.518  70.274  1.00  0.00    -0.189 NA 
HETATM   20  C   UNL     1     -11.191   6.262  69.657  1.00  0.00    -0.506 C  
HETATM   21  C   UNL     1     -11.399   7.652  70.268  1.00  0.00    -0.181 C  
HETATM   22  C   UNL     1      -9.932   5.576  70.200  1.00  0.00    -0.221 C  
HETATM   23  C   UNL     1      -8.712   6.502  70.229  1.00  0.00    -0.151 C  
HETATM   24  N   UNL     1      -9.617   4.268  69.533  1.00  0.00    -0.192 NA 
HETATM   25  O   UNL     1     -10.650   5.754  72.592  1.00  0.00    -0.201 OA 
HETATM   26  C   UNL     1      -9.050   7.849  70.869  1.00  0.00    -0.151 C  
HETATM   27  C   UNL     1      -9.463   3.212  70.525  1.00  0.00    -0.165 C  
HETATM   28  C   UNL     1     -10.229   5.108  71.646  1.00  0.00    -0.212 C  
HETATM   29  N   UNL     1      -9.925   3.778  71.735  1.00  0.00    -0.179 NA 
BRANCH  24  30
HETATM   30  C   UNL     1      -9.381   3.998  68.196  1.00  0.00    -0.164 A  
HETATM   31  C   UNL     1      -9.492   4.961  67.186  1.00  0.00    -0.154 A  
HETATM   32  C   UNL     1      -9.334   4.654  65.824  1.00  0.00    -0.158 A  
HETATM   33  C   UNL     1      -9.025   3.362  65.429  1.00  0.00    -0.142 A  
HETATM   34  C   UNL     1      -8.854   2.385  66.394  1.00  0.00    -0.135 A  
HETATM   35  C   UNL     1      -9.033   2.704  67.752  1.00  0.00    -0.198 A  
ENDBRANCH  24  30
ENDBRANCH  18  19
ENDBRANCH  17  18
ENDBRANCH   8  17
TORSDOF 4
ENDMDL
MODEL       54
REMARK 921   NORMALIZED FREE ENERGY PREDICTED BY IDOCK:   -6.29 KCAL/MOL
REMARK 922        TOTAL FREE ENERGY PREDICTED BY IDOCK:   -9.64 KCAL/MOL
REMARK 923 INTER-LIGAND FREE ENERGY PREDICTED BY IDOCK:   -9.09 KCAL/MOL
REMARK 924 INTRA-LIGAND FREE ENERGY PREDICTED BY IDOCK:   -0.54 KCAL/MOL
REMARK 927      BINDING AFFINITY PREDICTED BY RF-SCORE:    0.00 PKD
ROOT
HETATM    1  F   UNL     1     -11.381  16.411  63.464  1.00  0.00     0.258 F  
HETATM    2  C   UNL     1     -11.498  15.649  64.558  1.00  0.00    -0.300 A  
HETATM    3  C   UNL     1     -12.506  14.697  64.629  1.00  0.00    -0.302 A  
HETATM    4  C   UNL     1     -12.662  13.941  65.794  1.00  0.00    -0.503 A  
HETATM    5  C   UNL     1     -11.802  14.123  66.895  1.00  0.00    -0.458 A  
HETATM    6  C   UNL     1     -12.034  13.311  68.181  1.00  0.00    -0.340 C  
HETATM    7  C   UNL     1     -10.736  15.030  66.751  1.00  0.00    -0.308 A  
HETATM    8  C   UNL     1     -11.229  11.977  68.141  1.00  0.00    -0.316 C  
HETATM    9  C   UNL     1     -10.608  15.816  65.606  1.00  0.00    -0.393 A  
HETATM   10  C   UNL     1     -12.024  14.056  69.528  1.00  0.00    -0.390 A  
HETATM   11  C   UNL     1     -11.828  15.444  69.657  1.00  0.00    -0.368 A  
HETATM   12  C   UNL     1     -12.317  13.969  71.963  1.00  0.00    -0.173 A  
HETATM   13  F   UNL     1     -12.058  15.933  73.244  1.00  0.00    -0.472 F  
HETATM   14  C   UNL     1     -11.812  16.069  70.907  1.00  0.00    -0.409 A  
HETATM   15  C   UNL     1     -12.058  15.327  72.050  1.00  0.00    -0.385 A  
HETATM   16  C   UNL     1     -12.302  13.341  70.713  1.00  0.00    -0.425 A  
ENDROOT
BRANCH   8  17
HETATM   17  C   UNL     1      -9.700  12.055  67.983  1.00  0.00    -0.198 C  
BRANCH  17  18
HETATM   18  C   UNL     1      -9.109  13.434  67.666  1.00  0.00    -0.203 C  
BRANCH  18  19
HETATM   19  N   UNL     1      -7.822  13.710  68.303  1.00  0.00    -0.133 NA 
HETATM   20  C   UNL     1      -7.032  15.905  67.315  1.00  0.00    -0.241 C  
HETATM   21  C   UNL     1      -6.830  14.394  67.468  1.00  0.00    -0.139 C  
HETATM   22  C   UNL     1      -7.278  16.594  68.663  1.00  0.00    -0.192 C  
HETATM   23  C   UNL     1      -8.294  15.850  69.536  1.00  0.00    -0.077 C  
HETATM   24  N   UNL     1      -7.612  18.054  68.548  1.00  0.00    -0.283 NA 
HETATM   25  O   UNL     1      -5.152  15.752  69.682  1.00  0.00    -0.102 OA 
HETATM   26  C   UNL     1      -7.975  14.357  69.614  1.00  0.00     0.335 C  
HETATM   27  C   UNL     1      -6.723  18.848  69.385  1.00  0.00    -0.245 C  
HETATM   28  C   UNL     1      -5.929  16.656  69.420  1.00  0.00    -0.184 C  
HETATM   29  N   UNL     1      -5.709  17.952  69.795  1.00  0.00    -0.230 NA 
BRANCH  24  30
HETATM   30  C   UNL     1      -8.647  18.666  67.865  1.00  0.00    -0.284 A  
HETATM   31  C   UNL     1      -9.920  18.864  68.412  1.00  0.00    -0.447 A  
HETATM   32  C   UNL     1     -10.986  19.409  67.678  1.00  0.00    -0.366 A  
HETATM   33  C   UNL     1     -10.799  19.810  66.364  1.00  0.00    -0.395 A  
HETATM   34  C   UNL     1      -9.544  19.683  65.794  1.00  0.00    -0.103 A  
HETATM   35  C   UNL     1      -8.493  19.118  66.536  1.00  0.00    -0.324 A  
ENDBRANCH  24  30
ENDBRANCH  18  19
ENDBRANCH  17  18
ENDBRANCH   8  17
TORSDOF 4
ENDMDL
MODEL       55
REMARK 921   NORMALIZED FREE ENERGY PREDICTED BY IDOCK:   -6.29 KCAL/MOL
REMARK 922        TOTAL FREE ENERGY PREDICTED BY IDOCK:   -9.63 KCAL/MOL
REMARK 923 INTER-LIGAND FREE ENERGY PREDICTED BY IDOCK:   -8.39 KCAL/MOL
REMARK 924 INTRA-LIGAND FREE ENERGY PREDICTED BY IDOCK:   -1.24 KCAL/MOL
REMARK 927      BINDING AFFINITY PREDICTED BY RF-SCORE:    0.00 PKD
ROOT
HETATM    1  F   UNL     1     -12.405  14.460  66.129  1.00  0.00    -0.419 F  
HETATM    2  C   UNL     1     -11.610  13.522  66.659  1.00  0.00    -0.363 A  
HETATM    3  C   UNL     1     -10.499  13.899  67.400  1.00  0.00    -0.263 A  
HETATM    4  C   UNL     1      -9.640  12.920  67.905  1.00  0.00    -0.215 A  
HETATM    5  C   UNL     1      -9.891  11.551  67.681  1.00  0.00    -0.192 A  
HETATM    6  C   UNL     1      -8.896  10.502  68.206  1.00  0.00    -0.139 C  
HETATM    7  C   UNL     1     -11.075  11.205  67.006  1.00  0.00    -0.339 A  
HETATM    8  C   UNL     1      -9.289  10.043  69.643  1.00  0.00    -0.242 C  
HETATM    9  C   UNL     1     -11.909  12.184  66.463  1.00  0.00    -0.322 A  
HETATM   10  C   UNL     1      -8.439   9.385  67.249  1.00  0.00    -0.125 A  
HETATM   11  C   UNL     1      -8.867   9.270  65.914  1.00  0.00    -0.199 A  
HETATM   12  C   UNL     1      -7.017   7.423  66.860  1.00  0.00    -0.082 A  
HETATM   13  F   UNL     1      -7.087   6.323  64.776  1.00  0.00    -0.050 F  
HETATM   14  C   UNL     1      -8.434   8.226  65.092  1.00  0.00    -0.164 A  
HETATM   15  C   UNL     1      -7.512   7.311  65.571  1.00  0.00    -0.085 A  
HETATM   16  C   UNL     1      -7.476   8.452  67.690  1.00  0.00    -0.094 A  
ENDROOT
BRANCH   8  17
HETATM   17  C   UNL     1     -10.681   9.420  69.851  1.00  0.00    -0.258 C  
BRANCH  17  18
HETATM   18  C   UNL     1     -11.454   9.862  71.100  1.00  0.00    -0.383 C  
BRANCH  18  19
HETATM   19  N   UNL     1     -11.433   8.904  72.205  1.00  0.00    -0.356 NA 
HETATM   20  C   UNL     1     -12.134   6.689  71.194  1.00  0.00    -0.391 C  
HETATM   21  C   UNL     1     -12.446   7.845  72.151  1.00  0.00    -0.267 C  
HETATM   22  C   UNL     1     -10.706   6.161  71.372  1.00  0.00    -0.255 C  
HETATM   23  C   UNL     1      -9.663   7.281  71.457  1.00  0.00    -0.168 C  
HETATM   24  N   UNL     1     -10.313   5.117  70.367  1.00  0.00    -0.271 NA 
HETATM   25  O   UNL     1     -10.998   5.674  73.810  1.00  0.00    -0.238 OA 
HETATM   26  C   UNL     1     -10.087   8.364  72.449  1.00  0.00    -0.316 C  
HETATM   27  C   UNL     1      -9.818   3.923  71.037  1.00  0.00    -0.149 C  
HETATM   28  C   UNL     1     -10.658   5.343  72.685  1.00  0.00    -0.228 C  
HETATM   29  N   UNL     1     -10.137   4.111  72.402  1.00  0.00    -0.172 NA 
BRANCH  24  30
HETATM   30  C   UNL     1     -10.285   5.194  68.985  1.00  0.00    -0.171 A  
HETATM   31  C   UNL     1     -10.884   6.231  68.260  1.00  0.00    -0.397 A  
HETATM   32  C   UNL     1     -10.922   6.252  66.856  1.00  0.00    -0.404 A  
HETATM   33  C   UNL     1     -10.323   5.239  66.124  1.00  0.00    -0.238 A  
HETATM   34  C   UNL     1      -9.672   4.218  66.795  1.00  0.00    -0.241 A  
HETATM   35  C   UNL     1      -9.659   4.202  68.201  1.00  0.00    -0.195 A  
ENDBRANCH  24  30
ENDBRANCH  18  19
ENDBRANCH  17  18
ENDBRANCH   8  17
TORSDOF 4
ENDMDL
MODEL       56
REMARK 921   NORMALIZED FREE ENERGY PREDICTED BY IDOCK:   -6.28 KCAL/MOL
REMARK 922        TOTAL FREE ENERGY PREDICTED BY IDOCK:   -9.63 KCAL/MOL
REMARK 923 INTER-LIGAND FREE ENERGY PREDICTED BY IDOCK:   -8.56 KCAL/MOL
REMARK 924 INTRA-LIGAND FREE ENERGY PREDICTED BY IDOCK:   -1.07 KCAL/MOL
REMARK 927      BINDING AFFINITY PREDICTED BY RF-SCORE:    0.00 PKD
ROOT
HETATM    1  F   UNL     1      -6.079  11.036  70.834  1.00  0.00    -0.119 F  
HETATM    2  C   UNL     1      -6.846  10.267  70.051  1.00  0.00    -0.146 A  
HETATM    3  C   UNL     1      -7.823   9.463  70.620  1.00  0.00    -0.178 A  
HETATM    4  C   UNL     1      -8.584   8.619  69.806  1.00  0.00    -0.131 A  
HETATM    5  C   UNL     1      -8.382   8.581  68.413  1.00  0.00    -0.124 A  
HETATM    6  C   UNL     1      -9.201   7.603  67.554  1.00  0.00    -0.145 C  
HETATM    7  C   UNL     1      -7.447   9.477  67.862  1.00  0.00    -0.083 A  
HETATM    8  C   UNL     1     -10.513   8.277  67.053  1.00  0.00    -0.384 C  
HETATM    9  C   UNL     1      -6.656  10.287  68.678  1.00  0.00    -0.052 A  
HETATM   10  C   UNL     1      -8.456   6.740  66.518  1.00  0.00    -0.124 A  
HETATM   11  C   UNL     1      -7.065   6.781  66.315  1.00  0.00    -0.067 A  
HETATM   12  C   UNL     1      -8.554   4.970  64.820  1.00  0.00    -0.150 A  
HETATM   13  F   UNL     1      -6.586   4.317  63.697  1.00  0.00    -0.036 F  
HETATM   14  C   UNL     1      -6.440   5.987  65.349  1.00  0.00    -0.043 A  
HETATM   15  C   UNL     1      -7.189   5.087  64.609  1.00  0.00    -0.062 A  
HETATM   16  C   UNL     1      -9.180   5.788  65.767  1.00  0.00    -0.086 A  
ENDROOT
BRANCH   8  17
HETATM   17  C   UNL     1     -10.396   9.557  66.206  1.00  0.00    -0.226 C  
BRANCH  17  18
HETATM   18  C   UNL     1     -11.122  10.802  66.732  1.00  0.00    -0.082 C  
BRANCH  18  19
HETATM   19  N   UNL     1     -10.711  12.059  66.110  1.00  0.00    -0.265 NA 
HETATM   20  C   UNL     1     -12.280  13.819  67.037  1.00  0.00    -0.381 C  
HETATM   21  C   UNL     1     -11.787  13.015  65.830  1.00  0.00    -0.416 C  
HETATM   22  C   UNL     1     -11.123  14.420  67.843  1.00  0.00    -0.274 C  
HETATM   23  C   UNL     1      -9.992  13.418  68.102  1.00  0.00    -0.237 C  
HETATM   24  N   UNL     1     -11.553  15.106  69.108  1.00  0.00    -0.304 NA 
HETATM   25  O   UNL     1     -10.158  15.643  65.883  1.00  0.00    -0.302 OA 
HETATM   26  C   UNL     1      -9.588  12.690  66.819  1.00  0.00    -0.241 C  
HETATM   27  C   UNL     1     -11.033  16.466  69.154  1.00  0.00    -0.324 C  
HETATM   28  C   UNL     1     -10.549  15.613  67.039  1.00  0.00    -0.311 C  
HETATM   29  N   UNL     1     -10.526  16.707  67.857  1.00  0.00    -0.310 NA 
BRANCH  24  30
HETATM   30  C   UNL     1     -12.252  14.597  70.188  1.00  0.00    -0.335 A  
HETATM   31  C   UNL     1     -12.260  13.240  70.529  1.00  0.00    -0.416 A  
HETATM   32  C   UNL     1     -13.043  12.725  71.576  1.00  0.00    -0.380 A  
HETATM   33  C   UNL     1     -13.827  13.570  72.345  1.00  0.00    -0.687 A  
HETATM   34  C   UNL     1     -13.813  14.929  72.081  1.00  0.00    -0.576 A  
HETATM   35  C   UNL     1     -13.039  15.426  71.018  1.00  0.00    -0.565 A  
ENDBRANCH  24  30
ENDBRANCH  18  19
ENDBRANCH  17  18
ENDBRANCH   8  17
TORSDOF 4
ENDMDL
MODEL       57
REMARK 921   NORMALIZED FREE ENERGY PREDICTED BY IDOCK:   -6.28 KCAL/MOL
REMARK 922        TOTAL FREE ENERGY PREDICTED BY IDOCK:   -9.62 KCAL/MOL
REMARK 923 INTER-LIGAND FREE ENERGY PREDICTED BY IDOCK:   -8.00 KCAL/MOL
REMARK 924 INTRA-LIGAND FREE ENERGY PREDICTED BY IDOCK:   -1.62 KCAL/MOL
REMARK 927      BINDING AFFINITY PREDICTED BY RF-SCORE:    0.00 PKD
ROOT
HETATM    1  F   UNL     1     -13.619  12.126  72.390  1.00  0.00    -0.600 F  
HETATM    2  C   UNL     1     -12.842  12.546  71.384  1.00  0.00    -0.260 A  
HETATM    3  C   UNL     1     -12.283  13.816  71.429  1.00  0.00    -0.243 A  
HETATM    4  C   UNL     1     -11.519  14.273  70.352  1.00  0.00    -0.188 A  
HETATM    5  C   UNL     1     -11.296  13.458  69.225  1.00  0.00    -0.314 A  
HETATM    6  C   UNL     1     -10.493  14.013  68.035  1.00  0.00    -0.241 C  
HETATM    7  C   UNL     1     -11.800  12.146  69.256  1.00  0.00    -0.370 A  
HETATM    8  C   UNL     1      -8.976  13.698  68.202  1.00  0.00    -0.191 C  
HETATM    9  C   UNL     1     -12.601  11.705  70.310  1.00  0.00    -0.159 A  
HETATM   10  C   UNL     1     -11.063  13.823  66.617  1.00  0.00    -0.316 A  
HETATM   11  C   UNL     1     -12.284  13.181  66.340  1.00  0.00    -0.396 A  
HETATM   12  C   UNL     1     -10.852  14.249  64.209  1.00  0.00     0.013 A  
HETATM   13  F   UNL     1     -12.485  13.415  62.726  1.00  0.00    -0.462 F  
HETATM   14  C   UNL     1     -12.748  13.021  65.031  1.00  0.00    -0.475 A  
HETATM   15  C   UNL     1     -12.029  13.557  63.976  1.00  0.00    -0.449 A  
HETATM   16  C   UNL     1     -10.376  14.383  65.518  1.00  0.00    -0.382 A  
ENDROOT
BRANCH   8  17
HETATM   17  C   UNL     1      -8.549  12.225  68.326  1.00  0.00    -0.172 C  
BRANCH  17  18
HETATM   18  C   UNL     1      -7.429  11.913  69.328  1.00  0.00     0.151 C  
BRANCH  18  19
HETATM   19  N   UNL     1      -7.463  10.562  69.883  1.00  0.00    -0.131 NA 
HETATM   20  C   UNL     1      -9.228   9.325  68.552  1.00  0.00    -0.135 C  
HETATM   21  C   UNL     1      -8.775   9.909  69.894  1.00  0.00    -0.201 C  
HETATM   22  C   UNL     1      -8.132   8.484  67.889  1.00  0.00    -0.115 C  
HETATM   23  C   UNL     1      -6.760   9.167  67.911  1.00  0.00    -0.068 C  
HETATM   24  N   UNL     1      -8.485   8.002  66.511  1.00  0.00    -0.130 NA 
HETATM   25  O   UNL     1      -7.871   6.952  69.851  1.00  0.00    -0.109 OA 
HETATM   26  C   UNL     1      -6.424   9.695  69.306  1.00  0.00    -0.044 C  
HETATM   27  C   UNL     1      -8.321   6.557  66.418  1.00  0.00    -0.120 C  
HETATM   28  C   UNL     1      -8.028   7.143  68.656  1.00  0.00    -0.123 C  
HETATM   29  N   UNL     1      -8.132   6.124  67.750  1.00  0.00    -0.112 NA 
BRANCH  24  30
HETATM   30  C   UNL     1      -8.830   8.731  65.387  1.00  0.00    -0.178 A  
HETATM   31  C   UNL     1      -8.315   8.469  64.112  1.00  0.00    -0.102 A  
HETATM   32  C   UNL     1      -8.607   9.270  62.995  1.00  0.00    -0.217 A  
HETATM   33  C   UNL     1      -9.462  10.355  63.116  1.00  0.00    -0.362 A  
HETATM   34  C   UNL     1     -10.038  10.624  64.345  1.00  0.00    -0.418 A  
HETATM   35  C   UNL     1      -9.721   9.823  65.457  1.00  0.00    -0.382 A  
ENDBRANCH  24  30
ENDBRANCH  18  19
ENDBRANCH  17  18
ENDBRANCH   8  17
TORSDOF 4
ENDMDL
MODEL       58
REMARK 921   NORMALIZED FREE ENERGY PREDICTED BY IDOCK:   -6.28 KCAL/MOL
REMARK 922        TOTAL FREE ENERGY PREDICTED BY IDOCK:   -9.62 KCAL/MOL
REMARK 923 INTER-LIGAND FREE ENERGY PREDICTED BY IDOCK:   -8.11 KCAL/MOL
REMARK 924 INTRA-LIGAND FREE ENERGY PREDICTED BY IDOCK:   -1.51 KCAL/MOL
REMARK 927      BINDING AFFINITY PREDICTED BY RF-SCORE:    0.00 PKD
ROOT
HETATM    1  F   UNL     1     -13.400  12.231  71.256  1.00  0.00    -0.344 F  
HETATM    2  C   UNL     1     -12.915  11.008  71.503  1.00  0.00    -0.448 A  
HETATM    3  C   UNL     1     -13.657  10.113  72.262  1.00  0.00    -0.224 A  
HETATM    4  C   UNL     1     -13.125   8.857  72.565  1.00  0.00    -0.426 A  
HETATM    5  C   UNL     1     -11.849   8.480  72.102  1.00  0.00    -0.448 A  
HETATM    6  C   UNL     1     -11.273   7.110  72.499  1.00  0.00    -0.327 C  
HETATM    7  C   UNL     1     -11.167   9.377  71.260  1.00  0.00    -0.437 A  
HETATM    8  C   UNL     1     -11.656   6.027  71.446  1.00  0.00    -0.211 C  
HETATM    9  C   UNL     1     -11.678  10.648  70.995  1.00  0.00    -0.329 A  
HETATM   10  C   UNL     1      -9.825   7.050  73.023  1.00  0.00    -0.217 A  
HETATM   11  C   UNL     1      -8.997   8.177  73.174  1.00  0.00    -0.330 A  
HETATM   12  C   UNL     1      -7.996   5.701  73.949  1.00  0.00    -0.107 A  
HETATM   13  F   UNL     1      -5.941   6.727  74.484  1.00  0.00    -0.067 F  
HETATM   14  C   UNL     1      -7.683   8.065  73.639  1.00  0.00    -0.223 A  
HETATM   15  C   UNL     1      -7.194   6.828  74.024  1.00  0.00    -0.089 A  
HETATM   16  C   UNL     1      -9.300   5.813  73.455  1.00  0.00    -0.134 A  
ENDROOT
BRANCH   8  17
HETATM   17  C   UNL     1     -11.216   6.243  69.987  1.00  0.00    -0.480 C  
BRANCH  17  18
HETATM   18  C   UNL     1      -9.706   6.336  69.729  1.00  0.00    -0.160 C  
BRANCH  18  19
HETATM   19  N   UNL     1      -9.281   5.867  68.410  1.00  0.00    -0.117 NA 
HETATM   20  C   UNL     1     -10.444   7.381  66.745  1.00  0.00    -0.316 C  
HETATM   21  C   UNL     1     -10.278   5.980  67.341  1.00  0.00    -0.189 C  
HETATM   22  C   UNL     1      -9.097   8.024  66.396  1.00  0.00    -0.183 C  
HETATM   23  C   UNL     1      -8.057   7.872  67.511  1.00  0.00    -0.124 C  
HETATM   24  N   UNL     1      -9.205   9.449  65.932  1.00  0.00    -0.195 NA 
HETATM   25  O   UNL     1      -8.386   6.147  64.901  1.00  0.00    -0.140 OA 
HETATM   26  C   UNL     1      -7.982   6.429  68.011  1.00  0.00    -0.109 C  
HETATM   27  C   UNL     1      -8.537   9.620  64.649  1.00  0.00    -0.183 C  
HETATM   28  C   UNL     1      -8.555   7.336  65.120  1.00  0.00     0.061 C  
HETATM   29  N   UNL     1      -8.258   8.307  64.205  1.00  0.00    -0.140 NA 
BRANCH  24  30
HETATM   30  C   UNL     1      -9.742  10.546  66.582  1.00  0.00    -0.189 A  
HETATM   31  C   UNL     1      -9.245  11.042  67.794  1.00  0.00    -0.155 A  
HETATM   32  C   UNL     1      -9.853  12.102  68.486  1.00  0.00    -0.167 A  
HETATM   33  C   UNL     1     -10.973  12.730  67.963  1.00  0.00    -0.266 A  
HETATM   34  C   UNL     1     -11.472  12.310  66.742  1.00  0.00    -0.421 A  
HETATM   35  C   UNL     1     -10.863  11.235  66.071  1.00  0.00    -0.273 A  
ENDBRANCH  24  30
ENDBRANCH  18  19
ENDBRANCH  17  18
ENDBRANCH   8  17
TORSDOF 4
ENDMDL
MODEL       59
REMARK 921   NORMALIZED FREE ENERGY PREDICTED BY IDOCK:   -6.27 KCAL/MOL
REMARK 922        TOTAL FREE ENERGY PREDICTED BY IDOCK:   -9.61 KCAL/MOL
REMARK 923 INTER-LIGAND FREE ENERGY PREDICTED BY IDOCK:   -8.29 KCAL/MOL
REMARK 924 INTRA-LIGAND FREE ENERGY PREDICTED BY IDOCK:   -1.33 KCAL/MOL
REMARK 927      BINDING AFFINITY PREDICTED BY RF-SCORE:    0.00 PKD
ROOT
HETATM    1  F   UNL     1      -9.971  14.680  64.494  1.00  0.00    -0.314 F  
HETATM    2  C   UNL     1     -10.505  14.214  65.630  1.00  0.00    -0.321 A  
HETATM    3  C   UNL     1     -11.760  13.622  65.609  1.00  0.00    -0.360 A  
HETATM    4  C   UNL     1     -12.339  13.187  66.804  1.00  0.00    -0.173 A  
HETATM    5  C   UNL     1     -11.661  13.330  68.031  1.00  0.00    -0.394 A  
HETATM    6  C   UNL     1     -12.350  12.888  69.333  1.00  0.00     0.003 C  
HETATM    7  C   UNL     1     -10.354  13.849  68.000  1.00  0.00    -0.245 A  
HETATM    8  C   UNL     1     -12.017  11.399  69.654  1.00  0.00    -0.416 C  
HETATM    9  C   UNL     1      -9.794  14.325  66.814  1.00  0.00    -0.274 A  
HETATM   10  C   UNL     1     -12.328  13.850  70.535  1.00  0.00    -0.439 A  
HETATM   11  C   UNL     1     -11.724  15.121  70.513  1.00  0.00    -0.344 A  
HETATM   12  C   UNL     1     -13.032  14.333  72.836  1.00  0.00    -0.548 A  
HETATM   13  F   UNL     1     -12.379  16.353  73.861  1.00  0.00    -0.524 F  
HETATM   14  C   UNL     1     -11.718  15.951  71.638  1.00  0.00    -0.563 A  
HETATM   15  C   UNL     1     -12.373  15.550  72.791  1.00  0.00    -0.420 A  
HETATM   16  C   UNL     1     -13.011  13.493  71.717  1.00  0.00    -0.439 A  
ENDROOT
BRANCH   8  17
HETATM   17  C   UNL     1     -10.539  11.006  69.825  1.00  0.00    -0.055 C  
BRANCH  17  18
HETATM   18  C   UNL     1      -9.985   9.961  68.847  1.00  0.00    -0.181 C  
BRANCH  18  19
HETATM   19  N   UNL     1      -9.226  10.512  67.726  1.00  0.00    -0.145 NA 
HETATM   20  C   UNL     1      -7.528   8.733  67.117  1.00  0.00    -0.088 C  
HETATM   21  C   UNL     1      -7.810  10.135  67.667  1.00  0.00    -0.098 C  
HETATM   22  C   UNL     1      -8.289   8.460  65.815  1.00  0.00    -0.146 C  
HETATM   23  C   UNL     1      -9.759   8.887  65.882  1.00  0.00    -0.259 C  
HETATM   24  N   UNL     1      -8.146   7.053  65.310  1.00  0.00    -0.130 NA 
HETATM   25  O   UNL     1      -7.330  10.444  64.628  1.00  0.00    -0.119 OA 
HETATM   26  C   UNL     1      -9.903  10.304  66.438  1.00  0.00    -0.217 C  
HETATM   27  C   UNL     1      -7.691   7.050  63.926  1.00  0.00    -0.119 C  
HETATM   28  C   UNL     1      -7.596   9.255  64.680  1.00  0.00    -0.106 C  
HETATM   29  N   UNL     1      -7.311   8.387  63.664  1.00  0.00    -0.099 NA 
BRANCH  24  30
HETATM   30  C   UNL     1      -8.463   5.859  65.934  1.00  0.00    -0.141 A  
HETATM   31  C   UNL     1      -9.664   5.174  65.718  1.00  0.00    -0.124 A  
HETATM   32  C   UNL     1     -10.011   4.009  66.423  1.00  0.00    -0.114 A  
HETATM   33  C   UNL     1      -9.138   3.468  67.355  1.00  0.00    -0.193 A  
HETATM   34  C   UNL     1      -7.915   4.080  67.566  1.00  0.00    -0.091 A  
HETATM   35  C   UNL     1      -7.591   5.256  66.866  1.00  0.00    -0.088 A  
ENDBRANCH  24  30
ENDBRANCH  18  19
ENDBRANCH  17  18
ENDBRANCH   8  17
TORSDOF 4
ENDMDL
MODEL       60
REMARK 921   NORMALIZED FREE ENERGY PREDICTED BY IDOCK:   -6.27 KCAL/MOL
REMARK 922        TOTAL FREE ENERGY PREDICTED BY IDOCK:   -9.61 KCAL/MOL
REMARK 923 INTER-LIGAND FREE ENERGY PREDICTED BY IDOCK:   -8.32 KCAL/MOL
REMARK 924 INTRA-LIGAND FREE ENERGY PREDICTED BY IDOCK:   -1.29 KCAL/MOL
REMARK 927      BINDING AFFINITY PREDICTED BY RF-SCORE:    0.00 PKD
ROOT
HETATM    1  F   UNL     1     -13.692   9.001  72.734  1.00  0.00    -0.470 F  
HETATM    2  C   UNL     1     -12.737   8.245  72.177  1.00  0.00    -0.329 A  
HETATM    3  C   UNL     1     -13.005   7.552  71.005  1.00  0.00    -0.160 A  
HETATM    4  C   UNL     1     -12.026   6.719  70.456  1.00  0.00    -0.385 A  
HETATM    5  C   UNL     1     -10.765   6.581  71.069  1.00  0.00    -0.289 A  
HETATM    6  C   UNL     1      -9.730   5.616  70.467  1.00  0.00    -0.233 C  
HETATM    7  C   UNL     1     -10.500   7.369  72.204  1.00  0.00    -0.243 A  
HETATM    8  C   UNL     1      -8.825   6.354  69.436  1.00  0.00    -0.132 C  
HETATM    9  C   UNL     1     -11.491   8.166  72.777  1.00  0.00    -0.397 A  
HETATM   10  C   UNL     1      -9.006   4.638  71.411  1.00  0.00    -0.163 A  
HETATM   11  C   UNL     1      -9.242   4.563  72.796  1.00  0.00    -0.145 A  
HETATM   12  C   UNL     1      -7.425   2.780  71.679  1.00  0.00    -0.040 A  
HETATM   13  F   UNL     1      -6.989   1.915  73.829  1.00  0.00    -0.020 F  
HETATM   14  C   UNL     1      -8.545   3.667  73.612  1.00  0.00    -0.083 A  
HETATM   15  C   UNL     1      -7.643   2.782  73.047  1.00  0.00    -0.050 A  
HETATM   16  C   UNL     1      -8.103   3.698  70.869  1.00  0.00    -0.070 A  
ENDROOT
BRANCH   8  17
HETATM   17  C   UNL     1      -8.011   7.567  69.921  1.00  0.00    -0.123 C  
BRANCH  17  18
HETATM   18  C   UNL     1      -8.637   8.951  69.699  1.00  0.00    -0.131 C  
BRANCH  18  19
HETATM   19  N   UNL     1      -8.820   9.322  68.297  1.00  0.00    -0.129 NA 
HETATM   20  C   UNL     1     -11.204  10.161  68.123  1.00  0.00    -0.245 C  
HETATM   21  C   UNL     1     -10.161   9.103  67.748  1.00  0.00    -0.224 C  
HETATM   22  C   UNL     1     -10.682  11.587  67.911  1.00  0.00    -0.200 C  
HETATM   23  C   UNL     1      -9.267  11.792  68.463  1.00  0.00    -0.152 C  
HETATM   24  N   UNL     1     -11.621  12.657  68.389  1.00  0.00    -0.306 NA 
HETATM   25  O   UNL     1     -10.140  11.221  65.495  1.00  0.00    -0.234 OA 
HETATM   26  C   UNL     1      -8.324  10.677  68.010  1.00  0.00    -0.118 C  
HETATM   27  C   UNL     1     -11.885  13.617  67.327  1.00  0.00    -0.391 C  
HETATM   28  C   UNL     1     -10.662  11.867  66.388  1.00  0.00    -0.266 C  
HETATM   29  N   UNL     1     -11.348  13.027  66.159  1.00  0.00    -0.303 NA 
BRANCH  24  30
HETATM   30  C   UNL     1     -12.145  12.864  69.653  1.00  0.00    -0.226 A  
HETATM   31  C   UNL     1     -12.378  14.136  70.190  1.00  0.00    -0.413 A  
HETATM   32  C   UNL     1     -12.829  14.334  71.506  1.00  0.00    -0.419 A  
HETATM   33  C   UNL     1     -13.096  13.248  72.325  1.00  0.00    -0.474 A  
HETATM   34  C   UNL     1     -12.932  11.969  71.823  1.00  0.00    -0.445 A  
HETATM   35  C   UNL     1     -12.462  11.788  70.510  1.00  0.00    -0.317 A  
ENDBRANCH  24  30
ENDBRANCH  18  19
ENDBRANCH  17  18
ENDBRANCH   8  17
TORSDOF 4
ENDMDL
MODEL       61
REMARK 921   NORMALIZED FREE ENERGY PREDICTED BY IDOCK:   -6.26 KCAL/MOL
REMARK 922        TOTAL FREE ENERGY PREDICTED BY IDOCK:   -9.60 KCAL/MOL
REMARK 923 INTER-LIGAND FREE ENERGY PREDICTED BY IDOCK:   -8.83 KCAL/MOL
REMARK 924 INTRA-LIGAND FREE ENERGY PREDICTED BY IDOCK:   -0.76 KCAL/MOL
REMARK 927      BINDING AFFINITY PREDICTED BY RF-SCORE:    0.00 PKD
ROOT
HETATM    1  F   UNL     1      -5.664  10.532  63.450  1.00  0.00    -0.126 F  
HETATM    2  C   UNL     1      -6.344  10.037  64.492  1.00  0.00    -0.130 A  
HETATM    3  C   UNL     1      -5.900  10.281  65.783  1.00  0.00    -0.092 A  
HETATM    4  C   UNL     1      -6.579   9.716  66.866  1.00  0.00    -0.067 A  
HETATM    5  C   UNL     1      -7.717   8.910  66.666  1.00  0.00    -0.100 A  
HETATM    6  C   UNL     1      -8.410   8.262  67.877  1.00  0.00    -0.128 C  
HETATM    7  C   UNL     1      -8.191   8.762  65.350  1.00  0.00    -0.137 A  
HETATM    8  C   UNL     1      -9.526   9.194  68.437  1.00  0.00    -0.150 C  
HETATM    9  C   UNL     1      -7.488   9.288  64.266  1.00  0.00    -0.107 A  
HETATM   10  C   UNL     1      -8.766   6.765  67.801  1.00  0.00    -0.120 A  
HETATM   11  C   UNL     1      -8.486   5.947  66.691  1.00  0.00    -0.111 A  
HETATM   12  C   UNL     1      -9.675   4.777  68.916  1.00  0.00    -0.244 A  
HETATM   13  F   UNL     1      -9.766   2.725  67.758  1.00  0.00    -0.258 F  
HETATM   14  C   UNL     1      -8.846   4.596  66.666  1.00  0.00    -0.111 A  
HETATM   15  C   UNL     1      -9.437   4.022  67.779  1.00  0.00    -0.178 A  
HETATM   16  C   UNL     1      -9.340   6.136  68.926  1.00  0.00    -0.126 A  
ENDROOT
BRANCH   8  17
HETATM   17  C   UNL     1     -10.668   9.609  67.493  1.00  0.00    -0.321 C  
BRANCH  17  18
HETATM   18  C   UNL     1     -11.300  10.986  67.736  1.00  0.00    -0.292 C  
BRANCH  18  19
HETATM   19  N   UNL     1     -10.800  12.050  66.867  1.00  0.00    -0.247 NA 
HETATM   20  C   UNL     1     -12.130  14.114  67.490  1.00  0.00    -0.363 C  
HETATM   21  C   UNL     1     -11.789  13.047  66.446  1.00  0.00    -0.405 C  
HETATM   22  C   UNL     1     -10.875  14.727  68.121  1.00  0.00    -0.254 C  
HETATM   23  C   UNL     1      -9.838  13.675  68.529  1.00  0.00    -0.196 C  
HETATM   24  N   UNL     1     -11.162  15.683  69.244  1.00  0.00    -0.295 NA 
HETATM   25  O   UNL     1      -9.905  15.444  65.928  1.00  0.00    -0.303 OA 
HETATM   26  C   UNL     1      -9.581  12.678  67.398  1.00  0.00    -0.194 C  
HETATM   27  C   UNL     1     -10.506  16.961  69.007  1.00  0.00    -0.341 C  
HETATM   28  C   UNL     1     -10.231  15.676  67.081  1.00  0.00    -0.270 C  
HETATM   29  N   UNL     1     -10.052  16.896  67.669  1.00  0.00    -0.269 NA 
BRANCH  24  30
HETATM   30  C   UNL     1     -11.846  15.467  70.427  1.00  0.00    -0.351 A  
HETATM   31  C   UNL     1     -12.874  14.527  70.561  1.00  0.00    -0.361 A  
HETATM   32  C   UNL     1     -13.619  14.378  71.743  1.00  0.00    -0.479 A  
HETATM   33  C   UNL     1     -13.330  15.156  72.854  1.00  0.00    -0.603 A  
HETATM   34  C   UNL     1     -12.288  16.064  72.789  1.00  0.00    -0.603 A  
HETATM   35  C   UNL     1     -11.565  16.213  71.592  1.00  0.00    -0.503 A  
ENDBRANCH  24  30
ENDBRANCH  18  19
ENDBRANCH  17  18
ENDBRANCH   8  17
TORSDOF 4
ENDMDL
MODEL       62
REMARK 921   NORMALIZED FREE ENERGY PREDICTED BY IDOCK:   -6.24 KCAL/MOL
REMARK 922        TOTAL FREE ENERGY PREDICTED BY IDOCK:   -9.58 KCAL/MOL
REMARK 923 INTER-LIGAND FREE ENERGY PREDICTED BY IDOCK:   -7.02 KCAL/MOL
REMARK 924 INTRA-LIGAND FREE ENERGY PREDICTED BY IDOCK:   -2.56 KCAL/MOL
REMARK 927      BINDING AFFINITY PREDICTED BY RF-SCORE:    0.00 PKD
ROOT
HETATM    1  F   UNL     1     -12.316  13.367  68.651  1.00  0.00    -0.364 F  
HETATM    2  C   UNL     1     -11.596  12.434  68.015  1.00  0.00    -0.347 A  
HETATM    3  C   UNL     1     -11.540  12.434  66.628  1.00  0.00    -0.447 A  
HETATM    4  C   UNL     1     -10.834  11.427  65.965  1.00  0.00    -0.306 A  
HETATM    5  C   UNL     1     -10.167  10.416  66.685  1.00  0.00    -0.292 A  
HETATM    6  C   UNL     1      -9.444   9.293  65.922  1.00  0.00    -0.325 C  
HETATM    7  C   UNL     1     -10.169  10.502  68.089  1.00  0.00    -0.187 A  
HETATM    8  C   UNL     1      -7.958   9.680  65.653  1.00  0.00    -0.113 C  
HETATM    9  C   UNL     1     -10.911  11.481  68.751  1.00  0.00    -0.258 A  
HETATM   10  C   UNL     1      -9.685   7.837  66.361  1.00  0.00    -0.219 A  
HETATM   11  C   UNL     1     -10.541   7.466  67.415  1.00  0.00    -0.371 A  
HETATM   12  C   UNL     1      -9.277   5.448  65.981  1.00  0.00    -0.166 A  
HETATM   13  F   UNL     1     -10.259   3.850  67.411  1.00  0.00    -0.140 F  
HETATM   14  C   UNL     1     -10.712   6.129  67.785  1.00  0.00    -0.382 A  
HETATM   15  C   UNL     1     -10.080   5.130  67.064  1.00  0.00    -0.217 A  
HETATM   16  C   UNL     1      -9.084   6.789  65.632  1.00  0.00     0.093 A  
ENDROOT
BRANCH   8  17
HETATM   17  C   UNL     1      -7.058   9.992  66.862  1.00  0.00    -0.090 C  
BRANCH  17  18
HETATM   18  C   UNL     1      -6.584   8.795  67.696  1.00  0.00    -0.062 C  
BRANCH  18  19
HETATM   19  N   UNL     1      -5.808   9.146  68.884  1.00  0.00    -0.040 NA 
HETATM   20  C   UNL     1      -7.495  10.005  70.568  1.00  0.00     0.043 C  
HETATM   21  C   UNL     1      -6.300  10.293  69.653  1.00  0.00    -0.062 C  
HETATM   22  C   UNL     1      -7.283   8.746  71.416  1.00  0.00    -0.090 C  
HETATM   23  C   UNL     1      -6.739   7.565  70.605  1.00  0.00    -0.043 C  
HETATM   24  N   UNL     1      -8.481   8.351  72.231  1.00  0.00    -0.223 NA 
HETATM   25  O   UNL     1      -5.150   9.574  72.431  1.00  0.00    -0.072 OA 
HETATM   26  C   UNL     1      -5.546   7.981  69.744  1.00  0.00    -0.023 C  
HETATM   27  C   UNL     1      -8.119   8.201  73.633  1.00  0.00    -0.212 C  
HETATM   28  C   UNL     1      -6.264   9.087  72.532  1.00  0.00     0.060 C  
HETATM   29  N   UNL     1      -6.814   8.737  73.733  1.00  0.00    -0.347 NA 
BRANCH  24  30
HETATM   30  C   UNL     1      -9.765   8.048  71.813  1.00  0.00    -0.176 A  
HETATM   31  C   UNL     1     -10.705   9.020  71.448  1.00  0.00    -0.401 A  
HETATM   32  C   UNL     1     -12.031   8.703  71.109  1.00  0.00    -0.320 A  
HETATM   33  C   UNL     1     -12.454   7.383  71.093  1.00  0.00    -0.343 A  
HETATM   34  C   UNL     1     -11.548   6.382  71.397  1.00  0.00    -0.368 A  
HETATM   35  C   UNL     1     -10.229   6.717  71.752  1.00  0.00    -0.206 A  
ENDBRANCH  24  30
ENDBRANCH  18  19
ENDBRANCH  17  18
ENDBRANCH   8  17
TORSDOF 4
ENDMDL
MODEL       63
REMARK 921   NORMALIZED FREE ENERGY PREDICTED BY IDOCK:   -6.22 KCAL/MOL
REMARK 922        TOTAL FREE ENERGY PREDICTED BY IDOCK:   -9.55 KCAL/MOL
REMARK 923 INTER-LIGAND FREE ENERGY PREDICTED BY IDOCK:   -7.91 KCAL/MOL
REMARK 924 INTRA-LIGAND FREE ENERGY PREDICTED BY IDOCK:   -1.65 KCAL/MOL
REMARK 927      BINDING AFFINITY PREDICTED BY RF-SCORE:    0.00 PKD
ROOT
HETATM    1  F   UNL     1     -13.553  12.099  71.608  1.00  0.00    -0.388 F  
HETATM    2  C   UNL     1     -12.949  10.910  71.492  1.00  0.00    -0.451 A  
HETATM    3  C   UNL     1     -13.538   9.781  72.043  1.00  0.00    -0.436 A  
HETATM    4  C   UNL     1     -12.879   8.551  71.969  1.00  0.00    -0.414 A  
HETATM    5  C   UNL     1     -11.628   8.437  71.331  1.00  0.00    -0.332 A  
HETATM    6  C   UNL     1     -10.906   7.079  71.314  1.00  0.00    -0.260 C  
HETATM    7  C   UNL     1     -11.106   9.583  70.704  1.00  0.00    -0.364 A  
HETATM    8  C   UNL     1     -11.301   6.263  70.047  1.00  0.00    -0.486 C  
HETATM    9  C   UNL     1     -11.742  10.820  70.817  1.00  0.00    -0.400 A  
HETATM   10  C   UNL     1      -9.415   7.039  71.696  1.00  0.00    -0.160 A  
HETATM   11  C   UNL     1      -8.669   8.171  72.074  1.00  0.00    -0.221 A  
HETATM   12  C   UNL     1      -7.400   5.697  72.103  1.00  0.00    -0.091 A  
HETATM   13  F   UNL     1      -5.393   6.762  72.733  1.00  0.00    -0.034 F  
HETATM   14  C   UNL     1      -7.312   8.082  72.396  1.00  0.00    -0.115 A  
HETATM   15  C   UNL     1      -6.688   6.846  72.409  1.00  0.00    -0.061 A  
HETATM   16  C   UNL     1      -8.751   5.794  71.752  1.00  0.00    -0.136 A  
ENDROOT
BRANCH   8  17
HETATM   17  C   UNL     1     -11.024   6.885  68.667  1.00  0.00    -0.203 C  
BRANCH  17  18
HETATM   18  C   UNL     1     -10.506   5.939  67.575  1.00  0.00    -0.243 C  
BRANCH  18  19
HETATM   19  N   UNL     1      -9.072   6.037  67.310  1.00  0.00    -0.112 NA 
HETATM   20  C   UNL     1      -8.830   7.837  65.544  1.00  0.00    -0.048 C  
HETATM   21  C   UNL     1      -8.698   6.361  65.930  1.00  0.00    -0.145 C  
HETATM   22  C   UNL     1      -8.191   8.765  66.584  1.00  0.00    -0.107 C  
HETATM   23  C   UNL     1      -8.567   8.396  68.023  1.00  0.00    -0.135 C  
HETATM   24  N   UNL     1      -8.412  10.226  66.314  1.00  0.00    -0.132 NA 
HETATM   25  O   UNL     1      -5.945   7.671  66.444  1.00  0.00    -0.038 OA 
HETATM   26  C   UNL     1      -8.383   6.900  68.281  1.00  0.00    -0.123 C  
HETATM   27  C   UNL     1      -7.142  10.940  66.298  1.00  0.00    -0.119 C  
HETATM   28  C   UNL     1      -6.654   8.664  66.435  1.00  0.00    -0.062 C  
HETATM   29  N   UNL     1      -6.154   9.929  66.293  1.00  0.00    -0.063 NA 
BRANCH  24  30
HETATM   30  C   UNL     1      -9.598  10.925  66.182  1.00  0.00    -0.202 A  
HETATM   31  C   UNL     1     -10.235  11.137  64.954  1.00  0.00    -0.361 A  
HETATM   32  C   UNL     1     -11.393  11.921  64.824  1.00  0.00    -0.344 A  
HETATM   33  C   UNL     1     -11.976  12.500  65.941  1.00  0.00    -0.472 A  
HETATM   34  C   UNL     1     -11.414  12.277  67.186  1.00  0.00    -0.419 A  
HETATM   35  C   UNL     1     -10.244  11.504  67.296  1.00  0.00    -0.229 A  
ENDBRANCH  24  30
ENDBRANCH  18  19
ENDBRANCH  17  18
ENDBRANCH   8  17
TORSDOF 4
ENDMDL
MODEL       64
REMARK 921   NORMALIZED FREE ENERGY PREDICTED BY IDOCK:   -6.19 KCAL/MOL
REMARK 922        TOTAL FREE ENERGY PREDICTED BY IDOCK:   -9.52 KCAL/MOL
REMARK 923 INTER-LIGAND FREE ENERGY PREDICTED BY IDOCK:   -7.69 KCAL/MOL
REMARK 924 INTRA-LIGAND FREE ENERGY PREDICTED BY IDOCK:   -1.82 KCAL/MOL
REMARK 927      BINDING AFFINITY PREDICTED BY RF-SCORE:    0.00 PKD
ROOT
HETATM    1  F   UNL     1     -11.095   3.902  64.162  1.00  0.00    -0.304 F  
HETATM    2  C   UNL     1     -10.307   4.256  65.185  1.00  0.00    -0.195 A  
HETATM    3  C   UNL     1      -9.014   3.756  65.264  1.00  0.00    -0.133 A  
HETATM    4  C   UNL     1      -8.213   4.082  66.361  1.00  0.00    -0.101 A  
HETATM    5  C   UNL     1      -8.695   4.920  67.386  1.00  0.00    -0.103 A  
HETATM    6  C   UNL     1      -7.805   5.216  68.606  1.00  0.00    -0.079 C  
HETATM    7  C   UNL     1      -9.975   5.481  67.225  1.00  0.00    -0.190 A  
HETATM    8  C   UNL     1      -6.945   6.492  68.362  1.00  0.00    -0.080 C  
HETATM    9  C   UNL     1     -10.791   5.121  66.153  1.00  0.00    -0.163 A  
HETATM   10  C   UNL     1      -8.423   5.085  70.010  1.00  0.00    -0.096 A  
HETATM   11  C   UNL     1      -9.755   4.698  70.250  1.00  0.00    -0.295 A  
HETATM   12  C   UNL     1      -8.112   5.170  72.443  1.00  0.00    -0.110 A  
HETATM   13  F   UNL     1      -9.939   4.746  73.872  1.00  0.00    -0.137 F  
HETATM   14  C   UNL     1     -10.271   4.611  71.546  1.00  0.00    -0.224 A  
HETATM   15  C   UNL     1      -9.445   4.847  72.632  1.00  0.00    -0.137 A  
HETATM   16  C   UNL     1      -7.606   5.286  71.144  1.00  0.00    -0.096 A  
ENDROOT
BRANCH   8  17
HETATM   17  C   UNL     1      -7.674   7.814  68.065  1.00  0.00    -0.126 C  
BRANCH  17  18
HETATM   18  C   UNL     1      -7.051   8.721  66.995  1.00  0.00    -0.078 C  
BRANCH  18  19
HETATM   19  N   UNL     1      -8.003   9.567  66.279  1.00  0.00    -0.107 NA 
HETATM   20  C   UNL     1     -10.272   9.021  67.266  1.00  0.00    -0.323 C  
HETATM   21  C   UNL     1      -9.332   8.987  66.057  1.00  0.00    -0.242 C  
HETATM   22  C   UNL     1     -10.310  10.402  67.929  1.00  0.00    -0.190 C  
HETATM   23  C   UNL     1      -8.917  11.008  68.127  1.00  0.00    -0.152 C  
HETATM   24  N   UNL     1     -11.116  10.447  69.196  1.00  0.00    -0.234 NA 
HETATM   25  O   UNL     1     -10.989  11.588  65.832  1.00  0.00    -0.284 OA 
HETATM   26  C   UNL     1      -8.084  10.921  66.848  1.00  0.00    -0.137 C  
HETATM   27  C   UNL     1     -12.114  11.506  69.129  1.00  0.00    -0.263 C  
HETATM   28  C   UNL     1     -11.133  11.347  67.020  1.00  0.00    -0.303 C  
HETATM   29  N   UNL     1     -12.110  11.927  67.780  1.00  0.00    -0.527 NA 
BRANCH  24  30
HETATM   30  C   UNL     1     -10.964   9.715  70.360  1.00  0.00    -0.299 A  
HETATM   31  C   UNL     1      -9.718   9.341  70.876  1.00  0.00    -0.346 A  
HETATM   32  C   UNL     1      -9.580   8.525  72.012  1.00  0.00    -0.371 A  
HETATM   33  C   UNL     1     -10.701   8.079  72.694  1.00  0.00    -0.426 A  
HETATM   34  C   UNL     1     -11.955   8.464  72.253  1.00  0.00    -0.455 A  
HETATM   35  C   UNL     1     -12.076   9.266  71.104  1.00  0.00    -0.389 A  
ENDBRANCH  24  30
ENDBRANCH  18  19
ENDBRANCH  17  18
ENDBRANCH   8  17
TORSDOF 4
ENDMDL
MODEL       65
REMARK 921   NORMALIZED FREE ENERGY PREDICTED BY IDOCK:   -6.08 KCAL/MOL
REMARK 922        TOTAL FREE ENERGY PREDICTED BY IDOCK:   -9.38 KCAL/MOL
REMARK 923 INTER-LIGAND FREE ENERGY PREDICTED BY IDOCK:   -8.10 KCAL/MOL
REMARK 924 INTRA-LIGAND FREE ENERGY PREDICTED BY IDOCK:   -1.28 KCAL/MOL
REMARK 927      BINDING AFFINITY PREDICTED BY RF-SCORE:    0.00 PKD
ROOT
HETATM    1  F   UNL     1      -5.163  13.478  67.684  1.00  0.00    -0.107 F  
HETATM    2  C   UNL     1      -6.020  12.481  67.940  1.00  0.00    -0.101 A  
HETATM    3  C   UNL     1      -6.437  12.249  69.243  1.00  0.00    -0.109 A  
HETATM    4  C   UNL     1      -7.287  11.174  69.515  1.00  0.00    -0.023 A  
HETATM    5  C   UNL     1      -7.738  10.327  68.483  1.00  0.00    -0.091 A  
HETATM    6  C   UNL     1      -8.630   9.122  68.825  1.00  0.00    -0.131 C  
HETATM    7  C   UNL     1      -7.369  10.650  67.164  1.00  0.00    -0.098 A  
HETATM    8  C   UNL     1     -10.136   9.519  68.764  1.00  0.00    -0.202 C  
HETATM    9  C   UNL     1      -6.484  11.695  66.898  1.00  0.00    -0.134 A  
HETATM   10  C   UNL     1      -8.275   7.753  68.217  1.00  0.00    -0.124 A  
HETATM   11  C   UNL     1      -7.172   7.531  67.372  1.00  0.00    -0.087 A  
HETATM   12  C   UNL     1      -8.758   5.352  68.057  1.00  0.00    -0.106 A  
HETATM   13  F   UNL     1      -7.428   3.981  66.674  1.00  0.00    -0.077 F  
HETATM   14  C   UNL     1      -6.903   6.270  66.832  1.00  0.00    -0.062 A  
HETATM   15  C   UNL     1      -7.698   5.190  67.180  1.00  0.00    -0.092 A  
HETATM   16  C   UNL     1      -9.041   6.622  68.572  1.00  0.00    -0.128 A  
ENDROOT
BRANCH   8  17
HETATM   17  C   UNL     1     -10.690  10.067  67.437  1.00  0.00    -0.336 C  
BRANCH  17  18
HETATM   18  C   UNL     1     -11.563  11.326  67.521  1.00  0.00    -0.175 C  
BRANCH  18  19
HETATM   19  N   UNL     1     -11.099  12.449  66.709  1.00  0.00    -0.270 NA 
HETATM   20  C   UNL     1     -12.387  14.466  67.539  1.00  0.00    -0.044 C  
HETATM   21  C   UNL     1     -12.101  13.476  66.406  1.00  0.00    -0.417 C  
HETATM   22  C   UNL     1     -11.100  15.029  68.153  1.00  0.00    -0.291 C  
HETATM   23  C   UNL     1     -10.051  13.948  68.436  1.00  0.00    -0.237 C  
HETATM   24  N   UNL     1     -11.330  15.902  69.354  1.00  0.00    -0.326 NA 
HETATM   25  O   UNL     1     -10.229  15.899  65.974  1.00  0.00    -0.292 OA 
HETATM   26  C   UNL     1      -9.853  13.034  67.226  1.00  0.00    -0.227 C  
HETATM   27  C   UNL     1     -10.679  17.193  69.178  1.00  0.00    -0.184 C  
HETATM   28  C   UNL     1     -10.500  16.048  67.154  1.00  0.00    -0.308 C  
HETATM   29  N   UNL     1     -10.287  17.223  67.820  1.00  0.00    -0.342 NA 
BRANCH  24  30
HETATM   30  C   UNL     1     -11.960  15.604  70.549  1.00  0.00    -0.385 A  
HETATM   31  C   UNL     1     -11.761  16.334  71.727  1.00  0.00    -0.504 A  
HETATM   32  C   UNL     1     -12.340  15.969  72.953  1.00  0.00    -0.609 A  
HETATM   33  C   UNL     1     -13.175  14.865  73.032  1.00  0.00    -0.596 A  
HETATM   34  C   UNL     1     -13.445  14.141  71.884  1.00  0.00    -0.489 A  
HETATM   35  C   UNL     1     -12.842  14.509  70.668  1.00  0.00    -0.399 A  
ENDBRANCH  24  30
ENDBRANCH  18  19
ENDBRANCH  17  18
ENDBRANCH   8  17
TORSDOF 4
ENDMDL
MODEL       66
REMARK 921   NORMALIZED FREE ENERGY PREDICTED BY IDOCK:   -6.04 KCAL/MOL
REMARK 922        TOTAL FREE ENERGY PREDICTED BY IDOCK:   -9.33 KCAL/MOL
REMARK 923 INTER-LIGAND FREE ENERGY PREDICTED BY IDOCK:   -8.77 KCAL/MOL
REMARK 924 INTRA-LIGAND FREE ENERGY PREDICTED BY IDOCK:   -0.56 KCAL/MOL
REMARK 927      BINDING AFFINITY PREDICTED BY RF-SCORE:    0.00 PKD
ROOT
HETATM    1  F   UNL     1      -9.380  20.889  67.206  1.00  0.00    -0.532 F  
HETATM    2  C   UNL     1      -9.589  19.566  67.222  1.00  0.00    -0.337 A  
HETATM    3  C   UNL     1     -10.185  18.950  66.131  1.00  0.00    -0.485 A  
HETATM    4  C   UNL     1     -10.453  17.580  66.172  1.00  0.00    -0.288 A  
HETATM    5  C   UNL     1     -10.116  16.810  67.303  1.00  0.00    -0.281 A  
HETATM    6  C   UNL     1     -10.474  15.314  67.336  1.00  0.00    -0.270 C  
HETATM    7  C   UNL     1      -9.430  17.450  68.350  1.00  0.00    -0.293 A  
HETATM    8  C   UNL     1      -9.304  14.457  66.763  1.00  0.00    -0.285 C  
HETATM    9  C   UNL     1      -9.203  18.827  68.328  1.00  0.00    -0.366 A  
HETATM   10  C   UNL     1     -11.157  14.753  68.597  1.00  0.00    -0.274 A  
HETATM   11  C   UNL     1     -11.489  15.529  69.722  1.00  0.00    -0.339 A  
HETATM   12  C   UNL     1     -12.187  12.838  69.735  1.00  0.00    -0.213 A  
HETATM   13  F   UNL     1     -13.035  13.094  71.921  1.00  0.00    -0.430 F  
HETATM   14  C   UNL     1     -12.095  14.967  70.849  1.00  0.00    -0.377 A  
HETATM   15  C   UNL     1     -12.440  13.626  70.846  1.00  0.00    -0.371 A  
HETATM   16  C   UNL     1     -11.554  13.398  68.620  1.00  0.00    -0.362 A  
ENDROOT
BRANCH   8  17
HETATM   17  C   UNL     1      -7.928  14.559  67.444  1.00  0.00    -0.221 C  
BRANCH  17  18
HETATM   18  C   UNL     1      -7.777  13.864  68.804  1.00  0.00    -0.096 C  
BRANCH  18  19
HETATM   19  N   UNL     1      -7.259  12.499  68.740  1.00  0.00    -0.106 NA 
HETATM   20  C   UNL     1      -9.211  11.065  67.999  1.00  0.00    -0.159 C  
HETATM   21  C   UNL     1      -8.207  11.438  69.094  1.00  0.00     0.108 C  
HETATM   22  C   UNL     1      -8.532  10.851  66.641  1.00  0.00    -0.151 C  
HETATM   23  C   UNL     1      -7.522  11.951  66.299  1.00  0.00     0.397 C  
HETATM   24  N   UNL     1      -9.493  10.613  65.511  1.00  0.00    -0.200 NA 
HETATM   25  O   UNL     1      -6.967   9.097  67.500  1.00  0.00    -0.076 OA 
HETATM   26  C   UNL     1      -6.574  12.221  67.468  1.00  0.00    -0.141 C  
HETATM   27  C   UNL     1      -9.153   9.387  64.801  1.00  0.00    -0.193 C  
HETATM   28  C   UNL     1      -7.786   9.495  66.688  1.00  0.00    -0.101 C  
HETATM   29  N   UNL     1      -8.188   8.749  65.615  1.00  0.00    -0.114 NA 
BRANCH  24  30
HETATM   30  C   UNL     1     -10.523  11.414  65.051  1.00  0.00    -0.303 A  
HETATM   31  C   UNL     1     -10.658  11.799  63.712  1.00  0.00    -0.470 A  
HETATM   32  C   UNL     1     -11.658  12.682  63.273  1.00  0.00    -0.419 A  
HETATM   33  C   UNL     1     -12.588  13.188  64.169  1.00  0.00    -0.261 A  
HETATM   34  C   UNL     1     -12.528  12.796  65.495  1.00  0.00    -0.419 A  
HETATM   35  C   UNL     1     -11.509  11.926  65.921  1.00  0.00    -0.340 A  
ENDBRANCH  24  30
ENDBRANCH  18  19
ENDBRANCH  17  18
ENDBRANCH   8  17
TORSDOF 4
ENDMDL
MODEL       67
REMARK 921   NORMALIZED FREE ENERGY PREDICTED BY IDOCK:   -6.03 KCAL/MOL
REMARK 922        TOTAL FREE ENERGY PREDICTED BY IDOCK:   -9.32 KCAL/MOL
REMARK 923 INTER-LIGAND FREE ENERGY PREDICTED BY IDOCK:  -10.31 KCAL/MOL
REMARK 924 INTRA-LIGAND FREE ENERGY PREDICTED BY IDOCK:    0.99 KCAL/MOL
REMARK 927      BINDING AFFINITY PREDICTED BY RF-SCORE:    0.00 PKD
ROOT
HETATM    1  F   UNL     1     -12.671  12.772  62.655  1.00  0.00    -0.089 F  
HETATM    2  C   UNL     1     -11.927  12.364  63.691  1.00  0.00    -0.539 A  
HETATM    3  C   UNL     1     -11.077  11.276  63.542  1.00  0.00    -0.261 A  
HETATM    4  C   UNL     1     -10.344  10.818  64.639  1.00  0.00    -0.394 A  
HETATM    5  C   UNL     1     -10.445  11.451  65.894  1.00  0.00    -0.309 A  
HETATM    6  C   UNL     1      -9.663  10.887  67.093  1.00  0.00    -0.199 C  
HETATM    7  C   UNL     1     -11.244  12.605  65.982  1.00  0.00    -0.345 A  
HETATM    8  C   UNL     1      -8.258  11.553  67.195  1.00  0.00    -0.161 C  
HETATM    9  C   UNL     1     -12.011  13.036  64.899  1.00  0.00    -0.441 A  
HETATM   10  C   UNL     1     -10.409  10.695  68.427  1.00  0.00    -0.197 A  
HETATM   11  C   UNL     1     -11.771  10.993  68.615  1.00  0.00    -0.367 A  
HETATM   12  C   UNL     1     -10.359   9.910  70.751  1.00  0.00    -0.198 A  
HETATM   13  F   UNL     1     -12.292  10.091  72.090  1.00  0.00    -0.431 F  
HETATM   14  C   UNL     1     -12.397  10.815  69.853  1.00  0.00    -0.340 A  
HETATM   15  C   UNL     1     -11.686  10.275  70.911  1.00  0.00    -0.379 A  
HETATM   16  C   UNL     1      -9.728  10.117  69.520  1.00  0.00    -0.251 A  
ENDROOT
BRANCH   8  17
HETATM   17  C   UNL     1      -8.187  13.082  67.349  1.00  0.00    -0.183 C  
BRANCH  17  18
HETATM   18  C   UNL     1      -9.391  13.765  68.011  1.00  0.00    -0.199 C  
BRANCH  18  19
HETATM   19  N   UNL     1     -10.085  14.736  67.167  1.00  0.00    -0.239 NA 
HETATM   20  C   UNL     1      -9.881  16.954  68.374  1.00  0.00    -0.266 C  
HETATM   21  C   UNL     1     -10.778  15.817  67.874  1.00  0.00    -0.302 C  
HETATM   22  C   UNL     1      -8.919  17.451  67.289  1.00  0.00    -0.236 C  
HETATM   23  C   UNL     1      -8.225  16.309  66.538  1.00  0.00    -0.344 C  
HETATM   24  N   UNL     1      -7.931  18.473  67.773  1.00  0.00    -0.247 NA 
HETATM   25  O   UNL     1     -10.746  17.975  65.659  1.00  0.00    -0.533 OA 
HETATM   26  C   UNL     1      -9.230  15.247  66.086  1.00  0.00    -0.310 C  
HETATM   27  C   UNL     1      -7.977  19.664  66.935  1.00  0.00    -0.283 C  
HETATM   28  C   UNL     1      -9.736  18.284  66.271  1.00  0.00    -0.291 C  
HETATM   29  N   UNL     1      -9.127  19.500  66.129  1.00  0.00    -0.390 NA 
BRANCH  24  30
HETATM   30  C   UNL     1      -6.994  18.378  68.786  1.00  0.00    -0.277 A  
HETATM   31  C   UNL     1      -6.372  17.178  69.148  1.00  0.00    -0.220 A  
HETATM   32  C   UNL     1      -5.487  17.079  70.235  1.00  0.00    -0.225 A  
HETATM   33  C   UNL     1      -5.166  18.203  70.981  1.00  0.00    -0.260 A  
HETATM   34  C   UNL     1      -5.715  19.424  70.630  1.00  0.00    -0.239 A  
HETATM   35  C   UNL     1      -6.614  19.502  69.551  1.00  0.00    -0.365 A  
ENDBRANCH  24  30
ENDBRANCH  18  19
ENDBRANCH  17  18
ENDBRANCH   8  17
TORSDOF 4
ENDMDL
MODEL       68
REMARK 921   NORMALIZED FREE ENERGY PREDICTED BY IDOCK:   -5.97 KCAL/MOL
REMARK 922        TOTAL FREE ENERGY PREDICTED BY IDOCK:   -9.24 KCAL/MOL
REMARK 923 INTER-LIGAND FREE ENERGY PREDICTED BY IDOCK:   -8.50 KCAL/MOL
REMARK 924 INTRA-LIGAND FREE ENERGY PREDICTED BY IDOCK:   -0.74 KCAL/MOL
REMARK 927      BINDING AFFINITY PREDICTED BY RF-SCORE:    0.00 PKD
ROOT
HETATM    1  F   UNL     1      -6.731  16.863  69.660  1.00  0.00    -0.233 F  
HETATM    2  C   UNL     1      -7.288  15.778  69.108  1.00  0.00    -0.194 A  
HETATM    3  C   UNL     1      -6.482  14.725  68.696  1.00  0.00    -0.084 A  
HETATM    4  C   UNL     1      -7.059  13.618  68.069  1.00  0.00    -0.132 A  
HETATM    5  C   UNL     1      -8.451  13.549  67.859  1.00  0.00    -0.179 A  
HETATM    6  C   UNL     1      -9.046  12.339  67.118  1.00  0.00    -0.193 C  
HETATM    7  C   UNL     1      -9.243  14.591  68.372  1.00  0.00    -0.196 A  
HETATM    8  C   UNL     1      -9.435  11.215  68.126  1.00  0.00    -0.180 C  
HETATM    9  C   UNL     1      -8.663  15.717  68.957  1.00  0.00    -0.237 A  
HETATM   10  C   UNL     1     -10.057  12.600  65.986  1.00  0.00    -0.274 A  
HETATM   11  C   UNL     1     -10.463  13.883  65.576  1.00  0.00    -0.333 A  
HETATM   12  C   UNL     1     -11.477  11.687  64.205  1.00  0.00    -0.364 A  
HETATM   13  F   UNL     1     -12.779  13.143  62.884  1.00  0.00    -0.338 F  
HETATM   14  C   UNL     1     -11.398  14.064  64.552  1.00  0.00    -0.365 A  
HETATM   15  C   UNL     1     -11.897  12.965  63.874  1.00  0.00    -0.473 A  
HETATM   16  C   UNL     1     -10.564  11.508  65.250  1.00  0.00    -0.339 A  
ENDROOT
BRANCH   8  17
HETATM   17  C   UNL     1     -10.450  11.551  69.233  1.00  0.00    -0.066 C  
BRANCH  17  18
HETATM   18  C   UNL     1     -11.471  10.462  69.586  1.00  0.00    -0.262 C  
BRANCH  18  19
HETATM   19  N   UNL     1     -11.350   9.925  70.941  1.00  0.00    -0.344 NA 
HETATM   20  C   UNL     1     -12.027   7.490  70.769  1.00  0.00    -0.224 C  
HETATM   21  C   UNL     1     -12.324   8.893  71.308  1.00  0.00    -0.291 C  
HETATM   22  C   UNL     1     -10.572   7.073  71.013  1.00  0.00    -0.218 C  
HETATM   23  C   UNL     1      -9.568   8.174  70.653  1.00  0.00    -0.179 C  
HETATM   24  N   UNL     1     -10.201   5.761  70.385  1.00  0.00    -0.208 NA 
HETATM   25  O   UNL     1     -10.702   7.418  73.489  1.00  0.00    -0.385 OA 
HETATM   26  C   UNL     1      -9.973   9.518  71.258  1.00  0.00    -0.082 C  
HETATM   27  C   UNL     1      -9.622   4.865  71.377  1.00  0.00    -0.166 C  
HETATM   28  C   UNL     1     -10.417   6.738  72.517  1.00  0.00    -0.209 C  
HETATM   29  N   UNL     1      -9.868   5.490  72.621  1.00  0.00    -0.161 NA 
BRANCH  24  30
HETATM   30  C   UNL     1     -10.256   5.376  69.057  1.00  0.00    -0.221 A  
HETATM   31  C   UNL     1      -9.598   4.247  68.555  1.00  0.00    -0.202 A  
HETATM   32  C   UNL     1      -9.593   3.916  67.190  1.00  0.00    -0.226 A  
HETATM   33  C   UNL     1     -10.283   4.698  66.277  1.00  0.00    -0.306 A  
HETATM   34  C   UNL     1     -10.992   5.796  66.731  1.00  0.00    -0.239 A  
HETATM   35  C   UNL     1     -10.973   6.124  68.098  1.00  0.00    -0.398 A  
ENDBRANCH  24  30
ENDBRANCH  18  19
ENDBRANCH  17  18
ENDBRANCH   8  17
TORSDOF 4
ENDMDL
MODEL       69
REMARK 921   NORMALIZED FREE ENERGY PREDICTED BY IDOCK:   -5.96 KCAL/MOL
REMARK 922        TOTAL FREE ENERGY PREDICTED BY IDOCK:   -9.22 KCAL/MOL
REMARK 923 INTER-LIGAND FREE ENERGY PREDICTED BY IDOCK:   -7.85 KCAL/MOL
REMARK 924 INTRA-LIGAND FREE ENERGY PREDICTED BY IDOCK:   -1.37 KCAL/MOL
REMARK 927      BINDING AFFINITY PREDICTED BY RF-SCORE:    0.00 PKD
ROOT
HETATM    1  F   UNL     1     -10.166  18.491  68.581  1.00  0.00    -0.358 F  
HETATM    2  C   UNL     1     -10.368  17.172  68.468  1.00  0.00    -0.364 A  
HETATM    3  C   UNL     1     -10.990  16.665  67.336  1.00  0.00    -0.103 A  
HETATM    4  C   UNL     1     -11.250  15.295  67.246  1.00  0.00    -0.306 A  
HETATM    5  C   UNL     1     -10.878  14.418  68.283  1.00  0.00    -0.250 A  
HETATM    6  C   UNL     1     -11.226  12.923  68.174  1.00  0.00    -0.305 C  
HETATM    7  C   UNL     1     -10.167  14.955  69.372  1.00  0.00    -0.180 A  
HETATM    8  C   UNL     1     -10.068  12.138  67.487  1.00  0.00    -0.204 C  
HETATM    9  C   UNL     1      -9.948  16.328  69.483  1.00  0.00    -0.190 A  
HETATM   10  C   UNL     1     -11.873  12.232  69.389  1.00  0.00    -0.370 A  
HETATM   11  C   UNL     1     -12.178  12.889  70.596  1.00  0.00    -0.386 A  
HETATM   12  C   UNL     1     -12.862  10.204  70.355  1.00  0.00    -0.155 A  
HETATM   13  F   UNL     1     -13.651  10.231  72.577  1.00  0.00    -0.433 F  
HETATM   14  C   UNL     1     -12.750  12.210  71.676  1.00  0.00    -0.314 A  
HETATM   15  C   UNL     1     -13.088  10.874  71.546  1.00  0.00    -0.399 A  
HETATM   16  C   UNL     1     -12.262  10.879  69.286  1.00  0.00    -0.240 A  
ENDROOT
BRANCH   8  17
HETATM   17  C   UNL     1      -8.675  12.182  68.138  1.00  0.00    -0.185 C  
BRANCH  17  18
HETATM   18  C   UNL     1      -8.153  10.870  68.740  1.00  0.00    -0.145 C  
BRANCH  18  19
HETATM   19  N   UNL     1      -7.617   9.920  67.767  1.00  0.00    -0.090 NA 
HETATM   20  C   UNL     1      -7.488   7.702  68.984  1.00  0.00    -0.095 C  
HETATM   21  C   UNL     1      -6.755   8.867  68.311  1.00  0.00    -0.065 C  
HETATM   22  C   UNL     1      -8.637   7.167  68.122  1.00  0.00    -0.129 C  
HETATM   23  C   UNL     1      -9.512   8.281  67.536  1.00  0.00    -0.182 C  
HETATM   24  N   UNL     1      -9.466   6.113  68.799  1.00  0.00    -0.122 NA 
HETATM   25  O   UNL     1      -7.174   6.699  66.146  1.00  0.00    -0.068 OA 
HETATM   26  C   UNL     1      -8.661   9.374  66.887  1.00  0.00    -0.127 C  
HETATM   27  C   UNL     1      -9.555   4.921  67.967  1.00  0.00    -0.146 C  
HETATM   28  C   UNL     1      -8.022   6.358  66.954  1.00  0.00    -0.109 C  
HETATM   29  N   UNL     1      -8.605   5.121  66.939  1.00  0.00    -0.106 NA 
BRANCH  24  30
HETATM   30  C   UNL     1     -10.175   6.181  69.985  1.00  0.00    -0.196 A  
HETATM   31  C   UNL     1     -11.479   6.681  70.075  1.00  0.00    -0.434 A  
HETATM   32  C   UNL     1     -12.155   6.823  71.299  1.00  0.00    -0.421 A  
HETATM   33  C   UNL     1     -11.549   6.434  72.483  1.00  0.00    -0.259 A  
HETATM   34  C   UNL     1     -10.279   5.885  72.441  1.00  0.00    -0.217 A  
HETATM   35  C   UNL     1      -9.609   5.767  71.210  1.00  0.00    -0.198 A  
ENDBRANCH  24  30
ENDBRANCH  18  19
ENDBRANCH  17  18
ENDBRANCH   8  17
TORSDOF 4
ENDMDL
MODEL       70
REMARK 921   NORMALIZED FREE ENERGY PREDICTED BY IDOCK:   -5.93 KCAL/MOL
REMARK 922        TOTAL FREE ENERGY PREDICTED BY IDOCK:   -9.20 KCAL/MOL
REMARK 923 INTER-LIGAND FREE ENERGY PREDICTED BY IDOCK:   -8.09 KCAL/MOL
REMARK 924 INTRA-LIGAND FREE ENERGY PREDICTED BY IDOCK:   -1.11 KCAL/MOL
REMARK 927      BINDING AFFINITY PREDICTED BY RF-SCORE:    0.00 PKD
ROOT
HETATM    1  F   UNL     1     -12.614  12.424  63.151  1.00  0.00    -0.582 F  
HETATM    2  C   UNL     1     -12.036  12.932  64.246  1.00  0.00    -0.419 A  
HETATM    3  C   UNL     1     -12.778  13.085  65.409  1.00  0.00    -0.369 A  
HETATM    4  C   UNL     1     -12.188  13.667  66.534  1.00  0.00    -0.454 A  
HETATM    5  C   UNL     1     -10.845  14.092  66.509  1.00  0.00    -0.298 A  
HETATM    6  C   UNL     1     -10.244  14.777  67.748  1.00  0.00    -0.232 C  
HETATM    7  C   UNL     1     -10.100  13.837  65.344  1.00  0.00    -0.307 A  
HETATM    8  C   UNL     1      -9.590  13.726  68.695  1.00  0.00    -0.121 C  
HETATM    9  C   UNL     1     -10.700  13.297  64.207  1.00  0.00    -0.408 A  
HETATM   10  C   UNL     1      -9.449  16.081  67.549  1.00  0.00    -0.223 A  
HETATM   11  C   UNL     1      -9.247  16.696  66.299  1.00  0.00    -0.328 A  
HETATM   12  C   UNL     1      -8.225  17.954  68.558  1.00  0.00    -0.300 A  
HETATM   13  F   UNL     1      -7.300  19.627  67.177  1.00  0.00    -0.224 F  
HETATM   14  C   UNL     1      -8.503  17.872  66.171  1.00  0.00    -0.147 A  
HETATM   15  C   UNL     1      -7.998  18.492  67.302  1.00  0.00    -0.236 A  
HETATM   16  C   UNL     1      -8.946  16.761  68.679  1.00  0.00    -0.251 A  
ENDROOT
BRANCH   8  17
HETATM   17  C   UNL     1      -8.461  12.844  68.132  1.00  0.00    -0.176 C  
BRANCH  17  18
HETATM   18  C   UNL     1      -8.757  11.344  68.001  1.00  0.00    -0.148 C  
BRANCH  18  19
HETATM   19  N   UNL     1      -9.767  10.836  68.929  1.00  0.00    -0.195 NA 
HETATM   20  C   UNL     1     -10.783   8.816  67.785  1.00  0.00    -0.193 C  
HETATM   21  C   UNL     1     -10.958  10.244  68.314  1.00  0.00    -0.264 C  
HETATM   22  C   UNL     1     -10.104   7.900  68.810  1.00  0.00    -0.193 C  
HETATM   23  C   UNL     1      -8.878   8.545  69.466  1.00  0.00    -0.141 C  
HETATM   24  N   UNL     1      -9.792   6.527  68.288  1.00  0.00    -0.130 NA 
HETATM   25  O   UNL     1     -11.808   8.333  70.592  1.00  0.00    -0.221 OA 
HETATM   26  C   UNL     1      -9.187   9.959  69.958  1.00  0.00    -0.183 C  
HETATM   27  C   UNL     1     -10.349   5.508  69.166  1.00  0.00    -0.248 C  
HETATM   28  C   UNL     1     -11.137   7.571  69.915  1.00  0.00    -0.171 C  
HETATM   29  N   UNL     1     -11.197   6.212  70.052  1.00  0.00    -0.395 NA 
BRANCH  24  30
HETATM   30  C   UNL     1      -9.018   6.155  67.203  1.00  0.00    -0.111 A  
HETATM   31  C   UNL     1      -7.623   6.271  67.178  1.00  0.00    -0.096 A  
HETATM   32  C   UNL     1      -6.856   5.970  66.040  1.00  0.00    -0.061 A  
HETATM   33  C   UNL     1      -7.469   5.507  64.885  1.00  0.00    -0.074 A  
HETATM   34  C   UNL     1      -8.841   5.327  64.877  1.00  0.00    -0.090 A  
HETATM   35  C   UNL     1      -9.595   5.650  66.018  1.00  0.00    -0.104 A  
ENDBRANCH  24  30
ENDBRANCH  18  19
ENDBRANCH  17  18
ENDBRANCH   8  17
TORSDOF 4
ENDMDL
MODEL       71
REMARK 921   NORMALIZED FREE ENERGY PREDICTED BY IDOCK:   -5.93 KCAL/MOL
REMARK 922        TOTAL FREE ENERGY PREDICTED BY IDOCK:   -9.19 KCAL/MOL
REMARK 923 INTER-LIGAND FREE ENERGY PREDICTED BY IDOCK:   -7.28 KCAL/MOL
REMARK 924 INTRA-LIGAND FREE ENERGY PREDICTED BY IDOCK:   -1.91 KCAL/MOL
REMARK 927      BINDING AFFINITY PREDICTED BY RF-SCORE:    0.00 PKD
ROOT
HETATM    1  F   UNL     1     -12.772  10.989  70.580  1.00  0.00    -0.375 F  
HETATM    2  C   UNL     1     -11.796  10.773  69.690  1.00  0.00    -0.320 A  
HETATM    3  C   UNL     1     -12.034  10.992  68.340  1.00  0.00    -0.158 A  
HETATM    4  C   UNL     1     -11.031  10.713  67.407  1.00  0.00    -0.361 A  
HETATM    5  C   UNL     1      -9.776  10.223  67.818  1.00  0.00    -0.178 A  
HETATM    6  C   UNL     1      -8.714   9.877  66.761  1.00  0.00    -0.137 C  
HETATM    7  C   UNL     1      -9.541  10.102  69.200  1.00  0.00    -0.222 A  
HETATM    8  C   UNL     1      -7.811  11.112  66.464  1.00  0.00    -0.151 C  
HETATM    9  C   UNL     1     -10.556  10.337  70.128  1.00  0.00    -0.303 A  
HETATM   10  C   UNL     1      -7.982   8.526  66.874  1.00  0.00    -0.095 A  
HETATM   11  C   UNL     1      -8.234   7.579  67.883  1.00  0.00    -0.123 A  
HETATM   12  C   UNL     1      -6.366   6.942  65.924  1.00  0.00    -0.050 A  
HETATM   13  F   UNL     1      -5.940   4.903  67.028  1.00  0.00    -0.022 F  
HETATM   14  C   UNL     1      -7.529   6.374  67.950  1.00  0.00    -0.094 A  
HETATM   15  C   UNL     1      -6.601   6.064  66.970  1.00  0.00    -0.056 A  
HETATM   16  C   UNL     1      -7.053   8.160  65.877  1.00  0.00    -0.064 A  
ENDROOT
BRANCH   8  17
HETATM   17  C   UNL     1      -7.029  11.738  67.632  1.00  0.00    -0.103 C  
BRANCH  17  18
HETATM   18  C   UNL     1      -6.268  13.037  67.336  1.00  0.00    -0.074 C  
BRANCH  18  19
HETATM   19  N   UNL     1      -6.727  14.201  68.092  1.00  0.00    -0.108 NA 
HETATM   20  C   UNL     1      -8.409  15.362  66.595  1.00  0.00    -0.255 C  
HETATM   21  C   UNL     1      -7.048  15.391  67.299  1.00  0.00    -0.171 C  
HETATM   22  C   UNL     1      -9.538  14.932  67.539  1.00  0.00    -0.204 C  
HETATM   23  C   UNL     1      -9.176  13.705  68.383  1.00  0.00    -0.169 C  
HETATM   24  N   UNL     1     -10.867  14.762  66.861  1.00  0.00    -0.309 NA 
HETATM   25  O   UNL     1      -9.074  16.740  69.207  1.00  0.00    -0.175 OA 
HETATM   26  C   UNL     1      -7.802  13.864  69.037  1.00  0.00     0.062 C  
HETATM   27  C   UNL     1     -11.891  15.547  67.538  1.00  0.00     0.134 C  
HETATM   28  C   UNL     1      -9.840  16.114  68.493  1.00  0.00    -0.226 C  
HETATM   29  N   UNL     1     -11.180  16.378  68.434  1.00  0.00    -0.361 NA 
BRANCH  24  30
HETATM   30  C   UNL     1     -11.216  13.935  65.807  1.00  0.00    -0.303 A  
HETATM   31  C   UNL     1     -12.527  13.510  65.565  1.00  0.00    -0.538 A  
HETATM   32  C   UNL     1     -12.854  12.602  64.544  1.00  0.00    -0.356 A  
HETATM   33  C   UNL     1     -11.869  12.111  63.701  1.00  0.00    -0.608 A  
HETATM   34  C   UNL     1     -10.564  12.543  63.867  1.00  0.00    -0.472 A  
HETATM   35  C   UNL     1     -10.251  13.437  64.906  1.00  0.00    -0.339 A  
ENDBRANCH  24  30
ENDBRANCH  18  19
ENDBRANCH  17  18
ENDBRANCH   8  17
TORSDOF 4
ENDMDL
MODEL       72
REMARK 921   NORMALIZED FREE ENERGY PREDICTED BY IDOCK:   -5.85 KCAL/MOL
REMARK 922        TOTAL FREE ENERGY PREDICTED BY IDOCK:   -9.10 KCAL/MOL
REMARK 923 INTER-LIGAND FREE ENERGY PREDICTED BY IDOCK:   -7.55 KCAL/MOL
REMARK 924 INTRA-LIGAND FREE ENERGY PREDICTED BY IDOCK:   -1.55 KCAL/MOL
REMARK 927      BINDING AFFINITY PREDICTED BY RF-SCORE:    0.00 PKD
ROOT
HETATM    1  F   UNL     1     -12.763  14.316  66.991  1.00  0.00    -0.337 F  
HETATM    2  C   UNL     1     -11.561  13.728  66.961  1.00  0.00    -0.365 A  
HETATM    3  C   UNL     1     -10.430  14.486  66.695  1.00  0.00    -0.274 A  
HETATM    4  C   UNL     1      -9.183  13.860  66.609  1.00  0.00    -0.253 A  
HETATM    5  C   UNL     1      -9.056  12.470  66.800  1.00  0.00    -0.214 A  
HETATM    6  C   UNL     1      -7.676  11.807  66.646  1.00  0.00    -0.023 C  
HETATM    7  C   UNL     1     -10.210  11.750  67.159  1.00  0.00    -0.236 A  
HETATM    8  C   UNL     1      -6.928  11.771  68.012  1.00  0.00    -0.076 C  
HETATM    9  C   UNL     1     -11.461  12.367  67.201  1.00  0.00    -0.423 A  
HETATM   10  C   UNL     1      -7.571  10.528  65.793  1.00  0.00    -0.142 A  
HETATM   11  C   UNL     1      -8.661   9.933  65.132  1.00  0.00    -0.187 A  
HETATM   12  C   UNL     1      -6.148   8.787  64.810  1.00  0.00    -0.065 A  
HETATM   13  F   UNL     1      -7.119   7.087  63.496  1.00  0.00    -0.052 F  
HETATM   14  C   UNL     1      -8.514   8.762  64.383  1.00  0.00    -0.146 A  
HETATM   15  C   UNL     1      -7.259   8.199  64.227  1.00  0.00    -0.089 A  
HETATM   16  C   UNL     1      -6.304   9.943  65.584  1.00  0.00    -0.083 A  
ENDROOT
BRANCH   8  17
HETATM   17  C   UNL     1      -7.599  11.040  69.189  1.00  0.00    -0.113 C  
BRANCH  17  18
HETATM   18  C   UNL     1      -6.675  10.259  70.133  1.00  0.00    -0.146 C  
BRANCH  18  19
HETATM   19  N   UNL     1      -6.673   8.811  69.929  1.00  0.00    -0.044 NA 
HETATM   20  C   UNL     1      -8.543   7.918  71.385  1.00  0.00    -0.141 C  
HETATM   21  C   UNL     1      -7.042   8.001  71.094  1.00  0.00    -0.055 C  
HETATM   22  C   UNL     1      -9.358   7.589  70.129  1.00  0.00    -0.157 C  
HETATM   23  C   UNL     1      -8.941   8.422  68.912  1.00  0.00    -0.146 C  
HETATM   24  N   UNL     1     -10.845   7.627  70.341  1.00  0.00    -0.241 NA 
HETATM   25  O   UNL     1      -8.097   5.481  69.646  1.00  0.00    -0.097 OA 
HETATM   26  C   UNL     1      -7.423   8.417  68.727  1.00  0.00    -0.092 C  
HETATM   27  C   UNL     1     -11.455   6.379  69.903  1.00  0.00    -0.415 C  
HETATM   28  C   UNL     1      -9.143   6.092  69.798  1.00  0.00    -0.140 C  
HETATM   29  N   UNL     1     -10.370   5.500  69.679  1.00  0.00    -0.263 NA 
BRANCH  24  30
HETATM   30  C   UNL     1     -11.643   8.668  70.781  1.00  0.00    -0.242 A  
HETATM   31  C   UNL     1     -11.496   9.989  70.341  1.00  0.00    -0.389 A  
HETATM   32  C   UNL     1     -12.256  11.050  70.860  1.00  0.00    -0.471 A  
HETATM   33  C   UNL     1     -13.222  10.813  71.825  1.00  0.00    -0.523 A  
HETATM   34  C   UNL     1     -13.441   9.516  72.255  1.00  0.00    -0.521 A  
HETATM   35  C   UNL     1     -12.659   8.468  71.740  1.00  0.00    -0.387 A  
ENDBRANCH  24  30
ENDBRANCH  18  19
ENDBRANCH  17  18
ENDBRANCH   8  17
TORSDOF 4
ENDMDL
MODEL       73
REMARK 921   NORMALIZED FREE ENERGY PREDICTED BY IDOCK:   -5.82 KCAL/MOL
REMARK 922        TOTAL FREE ENERGY PREDICTED BY IDOCK:   -9.05 KCAL/MOL
REMARK 923 INTER-LIGAND FREE ENERGY PREDICTED BY IDOCK:   -6.60 KCAL/MOL
REMARK 924 INTRA-LIGAND FREE ENERGY PREDICTED BY IDOCK:   -2.45 KCAL/MOL
REMARK 927      BINDING AFFINITY PREDICTED BY RF-SCORE:    0.00 PKD
ROOT
HETATM    1  F   UNL     1      -8.805  17.875  66.764  1.00  0.00    -0.230 F  
HETATM    2  C   UNL     1      -9.378  16.665  66.787  1.00  0.00    -0.244 A  
HETATM    3  C   UNL     1     -10.729  16.548  67.086  1.00  0.00    -0.220 A  
HETATM    4  C   UNL     1     -11.312  15.281  67.164  1.00  0.00    -0.247 A  
HETATM    5  C   UNL     1     -10.551  14.118  66.933  1.00  0.00    -0.280 A  
HETATM    6  C   UNL     1     -11.213  12.737  67.080  1.00  0.00    -0.336 C  
HETATM    7  C   UNL     1      -9.209  14.280  66.543  1.00  0.00    -0.259 A  
HETATM    8  C   UNL     1     -11.810  12.267  65.719  1.00  0.00    -0.417 C  
HETATM    9  C   UNL     1      -8.616  15.543  66.508  1.00  0.00    -0.320 A  
HETATM   10  C   UNL     1     -10.477  11.657  67.895  1.00  0.00    -0.217 A  
HETATM   11  C   UNL     1      -9.237  11.859  68.529  1.00  0.00    -0.136 A  
HETATM   12  C   UNL     1     -10.481   9.391  68.838  1.00  0.00    -0.236 A  
HETATM   13  F   UNL     1      -8.630   8.643  70.093  1.00  0.00    -0.118 F  
HETATM   14  C   UNL     1      -8.604  10.838  69.244  1.00  0.00    -0.047 A  
HETATM   15  C   UNL     1      -9.232   9.613  69.394  1.00  0.00    -0.189 A  
HETATM   16  C   UNL     1     -11.098  10.406  68.098  1.00  0.00    -0.344 A  
ENDROOT
BRANCH   8  17
HETATM   17  C   UNL     1     -10.861  12.134  64.516  1.00  0.00    -0.356 C  
BRANCH  17  18
HETATM   18  C   UNL     1     -10.353  10.723  64.189  1.00  0.00    -0.311 C  
BRANCH  18  19
HETATM   19  N   UNL     1      -8.917  10.634  63.930  1.00  0.00    -0.192 NA 
HETATM   20  C   UNL     1      -7.911   9.633  66.029  1.00  0.00    -0.102 C  
HETATM   21  C   UNL     1      -8.045  10.837  65.091  1.00  0.00     0.004 C  
HETATM   22  C   UNL     1      -7.620   8.336  65.265  1.00  0.00    -0.094 C  
HETATM   23  C   UNL     1      -8.519   8.152  64.038  1.00  0.00     0.082 C  
HETATM   24  N   UNL     1      -7.611   7.109  66.131  1.00  0.00    -0.089 NA 
HETATM   25  O   UNL     1      -5.569   9.240  64.151  1.00  0.00    -0.066 OA 
HETATM   26  C   UNL     1      -8.561   9.419  63.182  1.00  0.00    -0.219 C  
HETATM   27  C   UNL     1      -6.370   6.368  65.954  1.00  0.00    -0.039 C  
HETATM   28  C   UNL     1      -6.146   8.378  64.794  1.00  0.00    -0.063 C  
HETATM   29  N   UNL     1      -5.531   7.232  65.215  1.00  0.00    -0.032 NA 
BRANCH  24  30
HETATM   30  C   UNL     1      -8.611   6.598  66.940  1.00  0.00    -0.115 A  
HETATM   31  C   UNL     1      -9.966   6.608  66.589  1.00  0.00    -0.203 A  
HETATM   32  C   UNL     1     -10.978   6.165  67.456  1.00  0.00    -0.404 A  
HETATM   33  C   UNL     1     -10.658   5.659  68.707  1.00  0.00    -0.286 A  
HETATM   34  C   UNL     1      -9.327   5.580  69.080  1.00  0.00    -0.158 A  
HETATM   35  C   UNL     1      -8.327   6.045  68.208  1.00  0.00    -0.113 A  
ENDBRANCH  24  30
ENDBRANCH  18  19
ENDBRANCH  17  18
ENDBRANCH   8  17
TORSDOF 4
ENDMDL
MODEL       74
REMARK 921   NORMALIZED FREE ENERGY PREDICTED BY IDOCK:   -5.75 KCAL/MOL
REMARK 922        TOTAL FREE ENERGY PREDICTED BY IDOCK:   -8.97 KCAL/MOL
REMARK 923 INTER-LIGAND FREE ENERGY PREDICTED BY IDOCK:   -7.13 KCAL/MOL
REMARK 924 INTRA-LIGAND FREE ENERGY PREDICTED BY IDOCK:   -1.84 KCAL/MOL
REMARK 927      BINDING AFFINITY PREDICTED BY RF-SCORE:    0.00 PKD
ROOT
HETATM    1  F   UNL     1     -12.264  11.215  71.640  1.00  0.00    -0.346 F  
HETATM    2  C   UNL     1     -11.650  10.669  70.583  1.00  0.00    -0.336 A  
HETATM    3  C   UNL     1     -12.056  11.008  69.300  1.00  0.00    -0.363 A  
HETATM    4  C   UNL     1     -11.451  10.396  68.199  1.00  0.00    -0.194 A  
HETATM    5  C   UNL     1     -10.425   9.446  68.372  1.00  0.00    -0.256 A  
HETATM    6  C   UNL     1      -9.817   8.753  67.141  1.00  0.00    -0.268 C  
HETATM    7  C   UNL     1      -9.977   9.198  69.682  1.00  0.00    -0.198 A  
HETATM    8  C   UNL     1      -8.591   9.553  66.609  1.00  0.00    -0.141 C  
HETATM    9  C   UNL     1     -10.611   9.775  70.783  1.00  0.00    -0.371 A  
HETATM   10  C   UNL     1      -9.653   7.222  67.170  1.00  0.00    -0.203 A  
HETATM   11  C   UNL     1     -10.038   6.411  68.254  1.00  0.00    -0.169 A  
HETATM   12  C   UNL     1      -9.001   5.170  65.993  1.00  0.00    -0.140 A  
HETATM   13  F   UNL     1      -9.174   3.088  67.086  1.00  0.00    -0.160 F  
HETATM   14  C   UNL     1      -9.852   5.026  68.236  1.00  0.00    -0.211 A  
HETATM   15  C   UNL     1      -9.336   4.416  67.105  1.00  0.00    -0.155 A  
HETATM   16  C   UNL     1      -9.161   6.559  66.025  1.00  0.00    -0.077 A  
ENDROOT
BRANCH   8  17
HETATM   17  C   UNL     1      -7.407   9.790  67.564  1.00  0.00    -0.090 C  
BRANCH  17  18
HETATM   18  C   UNL     1      -6.361  10.822  67.124  1.00  0.00    -0.072 C  
BRANCH  18  19
HETATM   19  N   UNL     1      -6.162  11.928  68.060  1.00  0.00    -0.051 NA 
HETATM   20  C   UNL     1      -7.449  13.881  67.085  1.00  0.00     0.094 C  
HETATM   21  C   UNL     1      -6.097  13.266  67.463  1.00  0.00    -0.089 C  
HETATM   22  C   UNL     1      -8.472  13.767  68.221  1.00  0.00    -0.173 C  
HETATM   23  C   UNL     1      -8.507  12.372  68.855  1.00  0.00     0.263 C  
HETATM   24  N   UNL     1      -9.849  14.238  67.849  1.00  0.00    -0.221 NA 
HETATM   25  O   UNL     1      -7.024  14.948  69.886  1.00  0.00    -0.178 OA 
HETATM   26  C   UNL     1      -7.099  11.877  69.191  1.00  0.00    -0.053 C  
HETATM   27  C   UNL     1     -10.325  15.230  68.803  1.00  0.00    -0.232 C  
HETATM   28  C   UNL     1      -8.091  14.795  69.314  1.00  0.00    -0.088 C  
HETATM   29  N   UNL     1      -9.192  15.560  69.582  1.00  0.00    -0.265 NA 
BRANCH  24  30
HETATM   30  C   UNL     1     -10.684  13.799  66.836  1.00  0.00    -0.280 A  
HETATM   31  C   UNL     1     -11.979  14.291  66.640  1.00  0.00    -0.454 A  
HETATM   32  C   UNL     1     -12.847  13.776  65.662  1.00  0.00    -0.456 A  
HETATM   33  C   UNL     1     -12.426  12.760  64.817  1.00  0.00    -0.539 A  
HETATM   34  C   UNL     1     -11.135  12.276  64.938  1.00  0.00    -0.356 A  
HETATM   35  C   UNL     1     -10.286  12.789  65.934  1.00  0.00    -0.300 A  
ENDBRANCH  24  30
ENDBRANCH  18  19
ENDBRANCH  17  18
ENDBRANCH   8  17
TORSDOF 4
ENDMDL
MODEL       75
REMARK 921   NORMALIZED FREE ENERGY PREDICTED BY IDOCK:   -5.73 KCAL/MOL
REMARK 922        TOTAL FREE ENERGY PREDICTED BY IDOCK:   -8.95 KCAL/MOL
REMARK 923 INTER-LIGAND FREE ENERGY PREDICTED BY IDOCK:   -8.15 KCAL/MOL
REMARK 924 INTRA-LIGAND FREE ENERGY PREDICTED BY IDOCK:   -0.80 KCAL/MOL
REMARK 927      BINDING AFFINITY PREDICTED BY RF-SCORE:    0.00 PKD
ROOT
HETATM    1  F   UNL     1     -10.464   3.943  64.808  1.00  0.00    -0.209 F  
HETATM    2  C   UNL     1     -10.014   4.799  65.735  1.00  0.00    -0.207 A  
HETATM    3  C   UNL     1      -8.660   4.833  66.040  1.00  0.00    -0.117 A  
HETATM    4  C   UNL     1      -8.201   5.686  67.047  1.00  0.00    -0.101 A  
HETATM    5  C   UNL     1      -9.091   6.522  67.750  1.00  0.00    -0.112 A  
HETATM    6  C   UNL     1      -8.558   7.410  68.888  1.00  0.00    -0.129 C  
HETATM    7  C   UNL     1     -10.439   6.527  67.350  1.00  0.00    -0.314 A  
HETATM    8  C   UNL     1      -8.135   8.807  68.342  1.00  0.00    -0.117 C  
HETATM    9  C   UNL     1     -10.906   5.643  66.376  1.00  0.00    -0.172 A  
HETATM   10  C   UNL     1      -9.321   7.420  70.226  1.00  0.00    -0.162 A  
HETATM   11  C   UNL     1     -10.473   6.653  70.479  1.00  0.00    -0.240 A  
HETATM   12  C   UNL     1      -9.457   8.213  72.544  1.00  0.00    -0.339 A  
HETATM   13  F   UNL     1     -11.254   7.529  73.911  1.00  0.00    -0.157 F  
HETATM   14  C   UNL     1     -11.138   6.711  71.707  1.00  0.00    -0.287 A  
HETATM   15  C   UNL     1     -10.624   7.489  72.731  1.00  0.00    -0.313 A  
HETATM   16  C   UNL     1      -8.811   8.175  71.304  1.00  0.00    -0.176 A  
ENDROOT
BRANCH   8  17
HETATM   17  C   UNL     1      -9.197   9.661  67.626  1.00  0.00    -0.144 C  
BRANCH  17  18
HETATM   18  C   UNL     1      -9.005   9.880  66.120  1.00  0.00    -0.150 C  
BRANCH  18  19
HETATM   19  N   UNL     1     -10.244  10.064  65.365  1.00  0.00    -0.243 NA 
HETATM   20  C   UNL     1     -11.350  12.112  66.366  1.00  0.00    -0.411 C  
HETATM   21  C   UNL     1     -11.380  10.599  66.123  1.00  0.00     0.590 C  
HETATM   22  C   UNL     1     -11.045  12.896  65.085  1.00  0.00    -0.292 C  
HETATM   23  C   UNL     1      -9.875  12.307  64.289  1.00  0.00    -0.153 C  
HETATM   24  N   UNL     1     -10.876  14.373  65.301  1.00  0.00    -0.338 NA 
HETATM   25  O   UNL     1     -12.959  11.910  63.810  1.00  0.00    -0.644 OA 
HETATM   26  C   UNL     1     -10.029  10.796  64.109  1.00  0.00    -0.343 C  
HETATM   27  C   UNL     1     -11.754  15.123  64.414  1.00  0.00    -0.295 C  
HETATM   28  C   UNL     1     -12.310  12.869  64.194  1.00  0.00    -0.376 C  
HETATM   29  N   UNL     1     -12.624  14.157  63.859  1.00  0.00    -0.776 NA 
BRANCH  24  30
HETATM   30  C   UNL     1      -9.983  15.044  66.118  1.00  0.00    -0.291 A  
HETATM   31  C   UNL     1      -8.901  14.421  66.751  1.00  0.00    -0.225 A  
HETATM   32  C   UNL     1      -8.053  15.096  67.644  1.00  0.00    -0.177 A  
HETATM   33  C   UNL     1      -8.245  16.444  67.910  1.00  0.00    -0.170 A  
HETATM   34  C   UNL     1      -9.269  17.117  67.268  1.00  0.00    -0.232 A  
HETATM   35  C   UNL     1     -10.121  16.422  66.391  1.00  0.00    -0.328 A  
ENDBRANCH  24  30
ENDBRANCH  18  19
ENDBRANCH  17  18
ENDBRANCH   8  17
TORSDOF 4
ENDMDL
MODEL       76
REMARK 921   NORMALIZED FREE ENERGY PREDICTED BY IDOCK:   -5.70 KCAL/MOL
REMARK 922        TOTAL FREE ENERGY PREDICTED BY IDOCK:   -8.91 KCAL/MOL
REMARK 923 INTER-LIGAND FREE ENERGY PREDICTED BY IDOCK:   -7.55 KCAL/MOL
REMARK 924 INTRA-LIGAND FREE ENERGY PREDICTED BY IDOCK:   -1.36 KCAL/MOL
REMARK 927      BINDING AFFINITY PREDICTED BY RF-SCORE:    0.00 PKD
ROOT
HETATM    1  F   UNL     1      -7.086   9.630  64.271  1.00  0.00    -0.100 F  
HETATM    2  C   UNL     1      -8.069  10.044  65.082  1.00  0.00    -0.144 A  
HETATM    3  C   UNL     1      -9.389   9.960  64.662  1.00  0.00    -0.338 A  
HETATM    4  C   UNL     1     -10.408  10.443  65.487  1.00  0.00    -0.265 A  
HETATM    5  C   UNL     1     -10.116  11.006  66.745  1.00  0.00    -0.260 A  
HETATM    6  C   UNL     1     -11.257  11.577  67.604  1.00  0.00    -0.343 C  
HETATM    7  C   UNL     1      -8.777  10.989  67.174  1.00  0.00    -0.135 A  
HETATM    8  C   UNL     1     -11.833  10.481  68.551  1.00  0.00     0.006 C  
HETATM    9  C   UNL     1      -7.755  10.548  66.333  1.00  0.00    -0.135 A  
HETATM   10  C   UNL     1     -11.074  12.971  68.231  1.00  0.00    -0.293 A  
HETATM   11  C   UNL     1      -9.926  13.766  68.057  1.00  0.00    -0.246 A  
HETATM   12  C   UNL     1     -12.027  14.808  69.550  1.00  0.00    -0.351 A  
HETATM   13  F   UNL     1     -10.740  16.739  69.968  1.00  0.00    -0.309 F  
HETATM   14  C   UNL     1      -9.803  15.020  68.662  1.00  0.00    -0.222 A  
HETATM   15  C   UNL     1     -10.855  15.532  69.403  1.00  0.00    -0.261 A  
HETATM   16  C   UNL     1     -12.135  13.541  68.967  1.00  0.00    -0.330 A  
ENDROOT
BRANCH   8  17
HETATM   17  C   UNL     1     -10.875   9.806  69.548  1.00  0.00    -0.264 C  
BRANCH  17  18
HETATM   18  C   UNL     1     -11.037  10.186  71.026  1.00  0.00    -0.171 C  
BRANCH  18  19
HETATM   19  N   UNL     1     -11.328   9.065  71.919  1.00  0.00    -0.369 NA 
HETATM   20  C   UNL     1     -11.683   7.066  70.403  1.00  0.00    -0.326 C  
HETATM   21  C   UNL     1     -12.270   8.066  71.404  1.00  0.00    -0.309 C  
HETATM   22  C   UNL     1     -10.362   6.464  70.896  1.00  0.00    -0.204 C  
HETATM   23  C   UNL     1      -9.400   7.516  71.459  1.00  0.00    -0.154 C  
HETATM   24  N   UNL     1      -9.684   5.578  69.890  1.00  0.00    -0.162 NA 
HETATM   25  O   UNL     1     -11.343   5.607  73.034  1.00  0.00    -0.280 OA 
HETATM   26  C   UNL     1     -10.105   8.443  72.449  1.00  0.00    -0.316 C  
HETATM   27  C   UNL     1      -9.392   4.275  70.472  1.00  0.00    -0.145 C  
HETATM   28  C   UNL     1     -10.688   5.446  72.016  1.00  0.00    -0.220 C  
HETATM   29  N   UNL     1     -10.095   4.257  71.699  1.00  0.00    -0.175 NA 
BRANCH  24  30
HETATM   30  C   UNL     1      -9.257   5.872  68.608  1.00  0.00    -0.118 A  
HETATM   31  C   UNL     1      -7.907   5.939  68.243  1.00  0.00    -0.105 A  
HETATM   32  C   UNL     1      -7.486   6.324  66.958  1.00  0.00    -0.084 A  
HETATM   33  C   UNL     1      -8.418   6.625  65.977  1.00  0.00    -0.142 A  
HETATM   34  C   UNL     1      -9.766   6.522  66.274  1.00  0.00    -0.067 A  
HETATM   35  C   UNL     1     -10.170   6.155  67.569  1.00  0.00    -0.218 A  
ENDBRANCH  24  30
ENDBRANCH  18  19
ENDBRANCH  17  18
ENDBRANCH   8  17
TORSDOF 4
ENDMDL
MODEL       77
REMARK 921   NORMALIZED FREE ENERGY PREDICTED BY IDOCK:   -5.70 KCAL/MOL
REMARK 922        TOTAL FREE ENERGY PREDICTED BY IDOCK:   -8.90 KCAL/MOL
REMARK 923 INTER-LIGAND FREE ENERGY PREDICTED BY IDOCK:   -7.64 KCAL/MOL
REMARK 924 INTRA-LIGAND FREE ENERGY PREDICTED BY IDOCK:   -1.26 KCAL/MOL
REMARK 927      BINDING AFFINITY PREDICTED BY RF-SCORE:    0.00 PKD
ROOT
HETATM    1  F   UNL     1      -5.882  10.594  63.178  1.00  0.00    -0.138 F  
HETATM    2  C   UNL     1      -6.169  10.171  64.415  1.00  0.00    -0.133 A  
HETATM    3  C   UNL     1      -5.427  10.638  65.492  1.00  0.00    -0.136 A  
HETATM    4  C   UNL     1      -5.692  10.154  66.775  1.00  0.00    -0.050 A  
HETATM    5  C   UNL     1      -6.710   9.205  66.995  1.00  0.00    -0.072 A  
HETATM    6  C   UNL     1      -6.939   8.653  68.413  1.00  0.00    -0.066 C  
HETATM    7  C   UNL     1      -7.500   8.825  65.895  1.00  0.00    -0.089 A  
HETATM    8  C   UNL     1      -7.983   9.522  69.178  1.00  0.00    -0.094 C  
HETATM    9  C   UNL     1      -7.207   9.274  64.607  1.00  0.00    -0.100 A  
HETATM   10  C   UNL     1      -7.079   7.130  68.591  1.00  0.00    -0.085 A  
HETATM   11  C   UNL     1      -6.997   6.204  67.535  1.00  0.00    -0.069 A  
HETATM   12  C   UNL     1      -7.344   5.223  70.113  1.00  0.00    -0.067 A  
HETATM   13  F   UNL     1      -7.446   3.035  69.240  1.00  0.00    -0.047 F  
HETATM   14  C   UNL     1      -7.148   4.831  67.749  1.00  0.00    -0.062 A  
HETATM   15  C   UNL     1      -7.319   4.351  69.037  1.00  0.00    -0.055 A  
HETATM   16  C   UNL     1      -7.222   6.599  69.891  1.00  0.00    -0.080 A  
ENDROOT
BRANCH   8  17
HETATM   17  C   UNL     1      -9.389   9.672  68.571  1.00  0.00    -0.138 C  
BRANCH  17  18
HETATM   18  C   UNL     1      -9.803  11.081  68.130  1.00  0.00    -0.176 C  
BRANCH  18  19
HETATM   19  N   UNL     1     -10.884  11.122  67.146  1.00  0.00    -0.259 NA 
HETATM   20  C   UNL     1     -11.818  13.474  67.261  1.00  0.00    -0.427 C  
HETATM   21  C   UNL     1     -12.027  11.974  67.488  1.00  0.00    -0.074 C  
HETATM   22  C   UNL     1     -11.224  13.773  65.879  1.00  0.00    -0.302 C  
HETATM   23  C   UNL     1     -10.050  12.855  65.524  1.00  0.00    -0.270 C  
HETATM   24  N   UNL     1     -10.880  15.218  65.664  1.00  0.00    -0.348 NA 
HETATM   25  O   UNL     1     -13.059  12.604  64.642  1.00  0.00    -0.821 OA 
HETATM   26  C   UNL     1     -10.390  11.387  65.786  1.00  0.00    -0.255 C  
HETATM   27  C   UNL     1     -11.507  15.718  64.448  1.00  0.00    -0.263 C  
HETATM   28  C   UNL     1     -12.342  13.573  64.826  1.00  0.00    -0.392 C  
HETATM   29  N   UNL     1     -12.418  14.706  64.065  1.00  0.00    -0.813 NA 
BRANCH  24  30
HETATM   30  C   UNL     1     -10.025  16.034  66.384  1.00  0.00    -0.295 A  
HETATM   31  C   UNL     1      -8.664  16.176  66.087  1.00  0.00    -0.358 A  
HETATM   32  C   UNL     1      -7.790  16.940  66.879  1.00  0.00    -0.252 A  
HETATM   33  C   UNL     1      -8.265  17.622  67.988  1.00  0.00    -0.242 A  
HETATM   34  C   UNL     1      -9.614  17.556  68.293  1.00  0.00    -0.299 A  
HETATM   35  C   UNL     1     -10.472  16.771  67.502  1.00  0.00    -0.319 A  
ENDBRANCH  24  30
ENDBRANCH  18  19
ENDBRANCH  17  18
ENDBRANCH   8  17
TORSDOF 4
ENDMDL
MODEL       78
REMARK 921   NORMALIZED FREE ENERGY PREDICTED BY IDOCK:   -5.70 KCAL/MOL
REMARK 922        TOTAL FREE ENERGY PREDICTED BY IDOCK:   -8.90 KCAL/MOL
REMARK 923 INTER-LIGAND FREE ENERGY PREDICTED BY IDOCK:   -7.78 KCAL/MOL
REMARK 924 INTRA-LIGAND FREE ENERGY PREDICTED BY IDOCK:   -1.12 KCAL/MOL
REMARK 927      BINDING AFFINITY PREDICTED BY RF-SCORE:    0.00 PKD
ROOT
HETATM    1  F   UNL     1     -12.966  10.176  72.528  1.00  0.00    -0.427 F  
HETATM    2  C   UNL     1     -12.426   9.104  71.934  1.00  0.00    -0.387 A  
HETATM    3  C   UNL     1     -13.203   8.320  71.093  1.00  0.00    -0.039 A  
HETATM    4  C   UNL     1     -12.654   7.170  70.518  1.00  0.00     0.024 A  
HETATM    5  C   UNL     1     -11.318   6.802  70.770  1.00  0.00    -0.374 A  
HETATM    6  C   UNL     1     -10.762   5.502  70.163  1.00  0.00    -0.348 C  
HETATM    7  C   UNL     1     -10.536   7.671  71.553  1.00  0.00    -0.231 A  
HETATM    8  C   UNL     1     -10.118   5.778  68.771  1.00  0.00    -0.231 C  
HETATM    9  C   UNL     1     -11.096   8.793  72.163  1.00  0.00    -0.406 A  
HETATM   10  C   UNL     1      -9.982   4.542  71.081  1.00  0.00    -0.257 A  
HETATM   11  C   UNL     1      -9.756   4.773  72.450  1.00  0.00    -0.202 A  
HETATM   12  C   UNL     1      -8.818   2.398  71.350  1.00  0.00    -0.125 A  
HETATM   13  F   UNL     1      -7.881   1.830  73.438  1.00  0.00    -0.038 F  
HETATM   14  C   UNL     1      -9.027   3.875  73.235  1.00  0.00    -0.111 A  
HETATM   15  C   UNL     1      -8.565   2.694  72.679  1.00  0.00    -0.070 A  
HETATM   16  C   UNL     1      -9.522   3.313  70.560  1.00  0.00    -0.242 A  
ENDROOT
BRANCH   8  17
HETATM   17  C   UNL     1      -8.960   6.788  68.692  1.00  0.00    -0.125 C  
BRANCH  17  18
HETATM   18  C   UNL     1      -9.315   8.211  68.241  1.00  0.00    -0.134 C  
BRANCH  18  19
HETATM   19  N   UNL     1      -8.450   9.259  68.781  1.00  0.00    -0.127 NA 
HETATM   20  C   UNL     1      -8.024  10.848  66.855  1.00  0.00    -0.138 C  
HETATM   21  C   UNL     1      -7.469   9.822  67.848  1.00  0.00    -0.086 C  
HETATM   22  C   UNL     1      -8.892  11.907  67.543  1.00  0.00    -0.169 C  
HETATM   23  C   UNL     1      -9.891  11.306  68.537  1.00  0.00    -0.198 C  
HETATM   24  N   UNL     1      -9.564  12.856  66.591  1.00  0.00    -0.252 NA 
HETATM   25  O   UNL     1      -7.090  12.609  69.132  1.00  0.00    -0.070 OA 
HETATM   26  C   UNL     1      -9.212  10.307  69.475  1.00  0.00    -0.170 C  
HETATM   27  C   UNL     1      -9.271  14.236  66.954  1.00  0.00    -0.254 C  
HETATM   28  C   UNL     1      -7.953  12.870  68.310  1.00  0.00    -0.151 C  
HETATM   29  N   UNL     1      -8.246  14.149  67.925  1.00  0.00    -0.142 NA 
BRANCH  24  30
HETATM   30  C   UNL     1     -10.435  12.586  65.551  1.00  0.00    -0.279 A  
HETATM   31  C   UNL     1     -10.012  12.244  64.262  1.00  0.00    -0.244 A  
HETATM   32  C   UNL     1     -10.905  12.056  63.194  1.00  0.00    -0.275 A  
HETATM   33  C   UNL     1     -12.272  12.175  63.395  1.00  0.00    -0.635 A  
HETATM   34  C   UNL     1     -12.743  12.461  64.664  1.00  0.00    -0.372 A  
HETATM   35  C   UNL     1     -11.835  12.663  65.718  1.00  0.00    -0.497 A  
ENDBRANCH  24  30
ENDBRANCH  18  19
ENDBRANCH  17  18
ENDBRANCH   8  17
TORSDOF 4
ENDMDL
MODEL       79
REMARK 921   NORMALIZED FREE ENERGY PREDICTED BY IDOCK:   -5.69 KCAL/MOL
REMARK 922        TOTAL FREE ENERGY PREDICTED BY IDOCK:   -8.90 KCAL/MOL
REMARK 923 INTER-LIGAND FREE ENERGY PREDICTED BY IDOCK:   -7.32 KCAL/MOL
REMARK 924 INTRA-LIGAND FREE ENERGY PREDICTED BY IDOCK:   -1.58 KCAL/MOL
REMARK 927      BINDING AFFINITY PREDICTED BY RF-SCORE:    0.00 PKD
ROOT
HETATM    1  F   UNL     1      -8.763   8.397  63.849  1.00  0.00    -0.105 F  
HETATM    2  C   UNL     1      -8.561   8.509  65.168  1.00  0.00    -0.152 A  
HETATM    3  C   UNL     1      -7.467   7.887  65.753  1.00  0.00    -0.078 A  
HETATM    4  C   UNL     1      -7.289   7.959  67.137  1.00  0.00    -0.091 A  
HETATM    5  C   UNL     1      -8.199   8.663  67.949  1.00  0.00    -0.115 A  
HETATM    6  C   UNL     1      -8.002   8.677  69.474  1.00  0.00    -0.097 C  
HETATM    7  C   UNL     1      -9.243   9.357  67.311  1.00  0.00    -0.151 A  
HETATM    8  C   UNL     1      -7.125   9.892  69.904  1.00  0.00    -0.118 C  
HETATM    9  C   UNL     1      -9.447   9.249  65.935  1.00  0.00    -0.325 A  
HETATM   10  C   UNL     1      -9.218   8.381  70.371  1.00  0.00    -0.161 A  
HETATM   11  C   UNL     1     -10.503   8.085  69.881  1.00  0.00    -0.233 A  
HETATM   12  C   UNL     1     -10.111   8.048  72.633  1.00  0.00    -0.370 A  
HETATM   13  F   UNL     1     -12.401   7.571  72.928  1.00  0.00    -0.076 F  
HETATM   14  C   UNL     1     -11.578   7.839  70.740  1.00  0.00    -0.270 A  
HETATM   15  C   UNL     1     -11.373   7.822  72.109  1.00  0.00    -0.302 A  
HETATM   16  C   UNL     1      -9.043   8.323  71.771  1.00  0.00    -0.255 A  
ENDROOT
BRANCH   8  17
HETATM   17  C   UNL     1      -7.617  11.306  69.547  1.00  0.00     0.126 C  
BRANCH  17  18
HETATM   18  C   UNL     1      -6.555  12.411  69.482  1.00  0.00    -0.048 C  
BRANCH  18  19
HETATM   19  N   UNL     1      -6.792  13.429  68.460  1.00  0.00    -0.091 NA 
HETATM   20  C   UNL     1      -9.179  13.074  67.691  1.00  0.00    -0.200 C  
HETATM   21  C   UNL     1      -7.683  13.038  67.364  1.00  0.00    -0.155 C  
HETATM   22  C   UNL     1      -9.590  14.383  68.375  1.00  0.00    -0.219 C  
HETATM   23  C   UNL     1      -8.632  14.794  69.499  1.00  0.00     0.101 C  
HETATM   24  N   UNL     1     -11.020  14.409  68.832  1.00  0.00    -0.247 NA 
HETATM   25  O   UNL     1      -8.716  15.831  66.529  1.00  0.00    -0.265 OA 
HETATM   26  C   UNL     1      -7.174  14.724  69.043  1.00  0.00    -0.135 C  
HETATM   27  C   UNL     1     -11.704  15.583  68.307  1.00  0.00    -0.274 C  
HETATM   28  C   UNL     1      -9.600  15.501  67.304  1.00  0.00    -0.213 C  
HETATM   29  N   UNL     1     -10.816  16.123  67.348  1.00  0.00    -0.302 NA 
BRANCH  24  30
HETATM   30  C   UNL     1     -11.679  13.559  69.703  1.00  0.00    -0.314 A  
HETATM   31  C   UNL     1     -12.375  14.005  70.833  1.00  0.00    -0.443 A  
HETATM   32  C   UNL     1     -12.966  13.125  71.756  1.00  0.00    -0.435 A  
HETATM   33  C   UNL     1     -12.906  11.755  71.555  1.00  0.00    -0.450 A  
HETATM   34  C   UNL     1     -12.274  11.267  70.425  1.00  0.00    -0.453 A  
HETATM   35  C   UNL     1     -11.671  12.159  69.521  1.00  0.00    -0.402 A  
ENDBRANCH  24  30
ENDBRANCH  18  19
ENDBRANCH  17  18
ENDBRANCH   8  17
TORSDOF 4
ENDMDL
MODEL       80
REMARK 921   NORMALIZED FREE ENERGY PREDICTED BY IDOCK:   -5.67 KCAL/MOL
REMARK 922        TOTAL FREE ENERGY PREDICTED BY IDOCK:   -8.87 KCAL/MOL
REMARK 923 INTER-LIGAND FREE ENERGY PREDICTED BY IDOCK:   -7.41 KCAL/MOL
REMARK 924 INTRA-LIGAND FREE ENERGY PREDICTED BY IDOCK:   -1.46 KCAL/MOL
REMARK 927      BINDING AFFINITY PREDICTED BY RF-SCORE:    0.00 PKD
ROOT
HETATM    1  F   UNL     1      -5.157  11.808  69.862  1.00  0.00    -0.064 F  
HETATM    2  C   UNL     1      -6.027  11.562  68.875  1.00  0.00    -0.049 A  
HETATM    3  C   UNL     1      -5.581  11.509  67.561  1.00  0.00    -0.062 A  
HETATM    4  C   UNL     1      -6.499  11.308  66.528  1.00  0.00    -0.111 A  
HETATM    5  C   UNL     1      -7.872  11.147  66.799  1.00  0.00    -0.153 A  
HETATM    6  C   UNL     1      -8.862  10.980  65.634  1.00  0.00    -0.187 C  
HETATM    7  C   UNL     1      -8.273  11.114  68.147  1.00  0.00    -0.131 A  
HETATM    8  C   UNL     1      -9.051   9.473  65.284  1.00  0.00    -0.276 C  
HETATM    9  C   UNL     1      -7.364  11.360  69.177  1.00  0.00    -0.081 A  
HETATM   10  C   UNL     1     -10.146  11.830  65.638  1.00  0.00    -0.278 A  
HETATM   11  C   UNL     1     -10.467  12.765  66.640  1.00  0.00    -0.270 A  
HETATM   12  C   UNL     1     -12.210  12.498  64.490  1.00  0.00    -0.528 A  
HETATM   13  F   UNL     1     -13.646  14.079  65.490  1.00  0.00    -0.357 F  
HETATM   14  C   UNL     1     -11.655  13.500  66.604  1.00  0.00    -0.396 A  
HETATM   15  C   UNL     1     -12.517  13.362  65.529  1.00  0.00    -0.483 A  
HETATM   16  C   UNL     1     -11.034  11.742  64.544  1.00  0.00    -0.382 A  
ENDROOT
BRANCH   8  17
HETATM   17  C   UNL     1      -9.563   8.530  66.387  1.00  0.00    -0.314 C  
BRANCH  17  18
HETATM   18  C   UNL     1      -9.432   7.024  66.123  1.00  0.00     0.003 C  
BRANCH  18  19
HETATM   19  N   UNL     1      -8.272   6.391  66.747  1.00  0.00    -0.109 NA 
HETATM   20  C   UNL     1      -8.045   7.484  69.022  1.00  0.00    -0.127 C  
HETATM   21  C   UNL     1      -7.469   7.252  67.622  1.00  0.00    -0.101 C  
HETATM   22  C   UNL     1      -8.487   6.176  69.688  1.00  0.00    -0.127 C  
HETATM   23  C   UNL     1      -9.300   5.274  68.753  1.00  0.00    -0.157 C  
HETATM   24  N   UNL     1      -9.179   6.368  71.007  1.00  0.00    -0.154 NA 
HETATM   25  O   UNL     1      -6.240   5.095  69.466  1.00  0.00    -0.024 OA 
HETATM   26  C   UNL     1      -8.613   5.116  67.395  1.00  0.00    -0.104 C  
HETATM   27  C   UNL     1      -8.540   5.565  72.041  1.00  0.00    -0.131 C  
HETATM   28  C   UNL     1      -7.215   5.410  70.129  1.00  0.00    -0.067 C  
HETATM   29  N   UNL     1      -7.341   5.101  71.454  1.00  0.00    -0.082 NA 
BRANCH  24  30
HETATM   30  C   UNL     1     -10.321   7.091  71.303  1.00  0.00    -0.202 A  
HETATM   31  C   UNL     1     -10.318   8.472  71.536  1.00  0.00    -0.321 A  
HETATM   32  C   UNL     1     -11.470   9.179  71.919  1.00  0.00    -0.423 A  
HETATM   33  C   UNL     1     -12.684   8.522  72.050  1.00  0.00    -0.421 A  
HETATM   34  C   UNL     1     -12.749   7.166  71.780  1.00  0.00    -0.374 A  
HETATM   35  C   UNL     1     -11.583   6.470  71.416  1.00  0.00    -0.371 A  
ENDBRANCH  24  30
ENDBRANCH  18  19
ENDBRANCH  17  18
ENDBRANCH   8  17
TORSDOF 4
ENDMDL
MODEL       81
REMARK 921   NORMALIZED FREE ENERGY PREDICTED BY IDOCK:   -5.64 KCAL/MOL
REMARK 922        TOTAL FREE ENERGY PREDICTED BY IDOCK:   -8.84 KCAL/MOL
REMARK 923 INTER-LIGAND FREE ENERGY PREDICTED BY IDOCK:   -6.52 KCAL/MOL
REMARK 924 INTRA-LIGAND FREE ENERGY PREDICTED BY IDOCK:   -2.32 KCAL/MOL
REMARK 927      BINDING AFFINITY PREDICTED BY RF-SCORE:    0.00 PKD
ROOT
HETATM    1  F   UNL     1     -11.412  11.836  66.342  1.00  0.00    -0.356 F  
HETATM    2  C   UNL     1     -11.294  11.133  67.476  1.00  0.00    -0.278 A  
HETATM    3  C   UNL     1     -12.023  11.507  68.597  1.00  0.00    -0.312 A  
HETATM    4  C   UNL     1     -11.857  10.806  69.794  1.00  0.00    -0.409 A  
HETATM    5  C   UNL     1     -10.967   9.717  69.879  1.00  0.00    -0.299 A  
HETATM    6  C   UNL     1     -10.769   9.002  71.226  1.00  0.00    -0.379 C  
HETATM    7  C   UNL     1     -10.316   9.311  68.700  1.00  0.00    -0.229 A  
HETATM    8  C   UNL     1     -11.773   7.820  71.373  1.00  0.00    -0.310 C  
HETATM    9  C   UNL     1     -10.448  10.037  67.516  1.00  0.00    -0.307 A  
HETATM   10  C   UNL     1      -9.331   8.720  71.700  1.00  0.00    -0.345 A  
HETATM   11  C   UNL     1      -8.180   9.088  70.979  1.00  0.00    -0.220 A  
HETATM   12  C   UNL     1      -7.842   7.856  73.448  1.00  0.00    -0.209 A  
HETATM   13  F   UNL     1      -5.506   7.914  73.130  1.00  0.00    -0.043 F  
HETATM   14  C   UNL     1      -6.896   8.793  71.447  1.00  0.00    -0.084 A  
HETATM   15  C   UNL     1      -6.737   8.180  72.678  1.00  0.00    -0.086 A  
HETATM   16  C   UNL     1      -9.126   8.126  72.964  1.00  0.00    -0.344 A  
ENDROOT
BRANCH   8  17
HETATM   17  C   UNL     1     -11.741   6.703  70.315  1.00  0.00    -0.432 C  
BRANCH  17  18
HETATM   18  C   UNL     1     -10.396   5.997  70.097  1.00  0.00    -0.224 C  
BRANCH  18  19
HETATM   19  N   UNL     1     -10.373   5.057  68.978  1.00  0.00    -0.141 NA 
HETATM   20  C   UNL     1      -9.724   6.431  66.951  1.00  0.00    -0.190 C  
HETATM   21  C   UNL     1     -10.784   5.599  67.680  1.00  0.00    -0.176 C  
HETATM   22  C   UNL     1      -8.362   5.729  66.917  1.00  0.00    -0.108 C  
HETATM   23  C   UNL     1      -7.959   5.141  68.274  1.00  0.00    -0.087 C  
HETATM   24  N   UNL     1      -7.261   6.564  66.329  1.00  0.00    -0.071 NA 
HETATM   25  O   UNL     1      -9.253   3.666  65.814  1.00  0.00    -0.145 OA 
HETATM   26  C   UNL     1      -9.099   4.328  68.889  1.00  0.00    -0.128 C  
HETATM   27  C   UNL     1      -6.590   5.844  65.256  1.00  0.00    -0.043 C  
HETATM   28  C   UNL     1      -8.444   4.577  65.886  1.00  0.00    -0.114 C  
HETATM   29  N   UNL     1      -7.407   4.717  65.006  1.00  0.00    -0.071 NA 
BRANCH  24  30
HETATM   30  C   UNL     1      -6.792   7.804  66.726  1.00  0.00    -0.071 A  
HETATM   31  C   UNL     1      -5.819   7.977  67.717  1.00  0.00    -0.042 A  
HETATM   32  C   UNL     1      -5.414   9.243  68.171  1.00  0.00    -0.038 A  
HETATM   33  C   UNL     1      -5.955  10.392  67.615  1.00  0.00    -0.048 A  
HETATM   34  C   UNL     1      -6.883  10.274  66.595  1.00  0.00    -0.091 A  
HETATM   35  C   UNL     1      -7.291   8.999  66.165  1.00  0.00    -0.091 A  
ENDBRANCH  24  30
ENDBRANCH  18  19
ENDBRANCH  17  18
ENDBRANCH   8  17
TORSDOF 4
ENDMDL
MODEL       82
REMARK 921   NORMALIZED FREE ENERGY PREDICTED BY IDOCK:   -5.63 KCAL/MOL
REMARK 922        TOTAL FREE ENERGY PREDICTED BY IDOCK:   -8.82 KCAL/MOL
REMARK 923 INTER-LIGAND FREE ENERGY PREDICTED BY IDOCK:   -6.80 KCAL/MOL
REMARK 924 INTRA-LIGAND FREE ENERGY PREDICTED BY IDOCK:   -2.02 KCAL/MOL
REMARK 927      BINDING AFFINITY PREDICTED BY RF-SCORE:    0.00 PKD
ROOT
HETATM    1  F   UNL     1     -12.288   5.702  72.856  1.00  0.00    -0.211 F  
HETATM    2  C   UNL     1     -11.543   6.603  72.204  1.00  0.00    -0.298 A  
HETATM    3  C   UNL     1     -10.656   7.404  72.910  1.00  0.00    -0.370 A  
HETATM    4  C   UNL     1      -9.920   8.382  72.235  1.00  0.00    -0.383 A  
HETATM    5  C   UNL     1     -10.056   8.559  70.844  1.00  0.00    -0.246 A  
HETATM    6  C   UNL     1      -9.270   9.679  70.141  1.00  0.00    -0.287 C  
HETATM    7  C   UNL     1     -10.893   7.667  70.149  1.00  0.00    -0.255 A  
HETATM    8  C   UNL     1      -7.888   9.154  69.648  1.00  0.00    -0.084 C  
HETATM    9  C   UNL     1     -11.662   6.722  70.829  1.00  0.00    -0.439 A  
HETATM   10  C   UNL     1     -10.023  10.598  69.162  1.00  0.00    -0.228 A  
HETATM   11  C   UNL     1     -11.397  10.485  68.877  1.00  0.00    -0.313 A  
HETATM   12  C   UNL     1      -9.973  12.545  67.669  1.00  0.00    -0.201 A  
HETATM   13  F   UNL     1     -11.926  13.183  66.511  1.00  0.00    -0.383 F  
HETATM   14  C   UNL     1     -12.029  11.336  67.966  1.00  0.00    -0.132 A  
HETATM   15  C   UNL     1     -11.313  12.360  67.370  1.00  0.00    -0.321 A  
HETATM   16  C   UNL     1      -9.336  11.673  68.559  1.00  0.00    -0.169 A  
ENDROOT
BRANCH   8  17
HETATM   17  C   UNL     1      -7.869   7.970  68.665  1.00  0.00    -0.118 C  
BRANCH  17  18
HETATM   18  C   UNL     1      -8.694   8.126  67.381  1.00  0.00    -0.124 C  
BRANCH  18  19
HETATM   19  N   UNL     1      -8.658   6.970  66.486  1.00  0.00    -0.124 NA 
HETATM   20  C   UNL     1      -7.550   5.118  67.813  1.00  0.00    -0.087 C  
HETATM   21  C   UNL     1      -7.496   6.088  66.628  1.00  0.00    -0.090 C  
HETATM   22  C   UNL     1      -8.891   4.381  67.894  1.00  0.00    -0.109 C  
HETATM   23  C   UNL     1     -10.096   5.311  67.714  1.00  0.00    -0.205 C  
HETATM   24  N   UNL     1      -9.039   3.518  69.115  1.00  0.00    -0.125 NA 
HETATM   25  O   UNL     1      -8.726   3.454  65.575  1.00  0.00    -0.112 OA 
HETATM   26  C   UNL     1      -9.922   6.218  66.495  1.00  0.00    -0.115 C  
HETATM   27  C   UNL     1      -9.400   2.158  68.739  1.00  0.00    -0.158 C  
HETATM   28  C   UNL     1      -8.920   3.315  66.772  1.00  0.00    -0.156 C  
HETATM   29  N   UNL     1      -9.224   2.108  67.337  1.00  0.00    -0.141 NA 
BRANCH  24  30
HETATM   30  C   UNL     1      -8.968   3.869  70.452  1.00  0.00    -0.097 A  
HETATM   31  C   UNL     1      -8.093   4.843  70.946  1.00  0.00    -0.095 A  
HETATM   32  C   UNL     1      -7.970   5.128  72.316  1.00  0.00    -0.109 A  
HETATM   33  C   UNL     1      -8.755   4.460  73.244  1.00  0.00    -0.100 A  
HETATM   34  C   UNL     1      -9.673   3.525  72.800  1.00  0.00    -0.192 A  
HETATM   35  C   UNL     1      -9.770   3.238  71.427  1.00  0.00    -0.226 A  
ENDBRANCH  24  30
ENDBRANCH  18  19
ENDBRANCH  17  18
ENDBRANCH   8  17
TORSDOF 4
ENDMDL
MODEL       83
REMARK 921   NORMALIZED FREE ENERGY PREDICTED BY IDOCK:   -5.60 KCAL/MOL
REMARK 922        TOTAL FREE ENERGY PREDICTED BY IDOCK:   -8.79 KCAL/MOL
REMARK 923 INTER-LIGAND FREE ENERGY PREDICTED BY IDOCK:   -7.87 KCAL/MOL
REMARK 924 INTRA-LIGAND FREE ENERGY PREDICTED BY IDOCK:   -0.91 KCAL/MOL
REMARK 927      BINDING AFFINITY PREDICTED BY RF-SCORE:    0.00 PKD
ROOT
HETATM    1  F   UNL     1     -10.949   5.443  74.156  1.00  0.00    -0.295 F  
HETATM    2  C   UNL     1     -10.874   5.700  72.844  1.00  0.00    -0.264 A  
HETATM    3  C   UNL     1     -11.964   6.252  72.187  1.00  0.00    -0.338 A  
HETATM    4  C   UNL     1     -11.903   6.468  70.808  1.00  0.00    -0.394 A  
HETATM    5  C   UNL     1     -10.745   6.143  70.075  1.00  0.00    -0.370 A  
HETATM    6  C   UNL     1     -10.731   6.345  68.550  1.00  0.00    -0.347 C  
HETATM    7  C   UNL     1      -9.629   5.672  70.789  1.00  0.00    -0.213 A  
HETATM    8  C   UNL     1     -10.210   7.768  68.188  1.00  0.00    -0.244 C  
HETATM    9  C   UNL     1      -9.704   5.415  72.159  1.00  0.00    -0.196 A  
HETATM   10  C   UNL     1     -10.208   5.198  67.665  1.00  0.00    -0.197 A  
HETATM   11  C   UNL     1      -9.751   3.965  68.166  1.00  0.00    -0.124 A  
HETATM   12  C   UNL     1      -9.797   4.323  65.410  1.00  0.00    -0.218 A  
HETATM   13  F   UNL     1      -8.852   2.179  65.140  1.00  0.00    -0.101 F  
HETATM   14  C   UNL     1      -9.270   2.962  67.320  1.00  0.00    -0.205 A  
HETATM   15  C   UNL     1      -9.298   3.148  65.948  1.00  0.00    -0.100 A  
HETATM   16  C   UNL     1     -10.250   5.336  66.261  1.00  0.00    -0.263 A  
ENDROOT
BRANCH   8  17
HETATM   17  C   UNL     1      -8.801   8.168  68.661  1.00  0.00    -0.134 C  
BRANCH  17  18
HETATM   18  C   UNL     1      -8.014   9.122  67.754  1.00  0.00    -0.101 C  
BRANCH  18  19
HETATM   19  N   UNL     1      -7.588  10.365  68.395  1.00  0.00    -0.090 NA 
HETATM   20  C   UNL     1      -7.862  12.166  66.634  1.00  0.00     0.088 C  
HETATM   21  C   UNL     1      -6.926  11.340  67.523  1.00  0.00    -0.091 C  
HETATM   22  C   UNL     1      -9.040  12.751  67.423  1.00  0.00    -0.192 C  
HETATM   23  C   UNL     1      -9.702  11.728  68.352  1.00  0.00    -0.197 C  
HETATM   24  N   UNL     1     -10.053  13.457  66.569  1.00  0.00    -0.274 NA 
HETATM   25  O   UNL     1      -7.578  13.934  69.074  1.00  0.00    -0.097 OA 
HETATM   26  C   UNL     1      -8.662  10.980  69.189  1.00  0.00     0.011 C  
HETATM   27  C   UNL     1     -10.288  14.806  67.065  1.00  0.00    -0.255 C  
HETATM   28  C   UNL     1      -8.505  13.923  68.281  1.00  0.00    -0.169 C  
HETATM   29  N   UNL     1      -9.272  15.025  68.023  1.00  0.00    -0.181 NA 
BRANCH  24  30
HETATM   30  C   UNL     1     -10.796  12.973  65.506  1.00  0.00    -0.278 A  
HETATM   31  C   UNL     1     -10.226  12.523  64.310  1.00  0.00    -0.359 A  
HETATM   32  C   UNL     1     -10.996  12.115  63.208  1.00  0.00    -0.398 A  
HETATM   33  C   UNL     1     -12.380  12.115  63.283  1.00  0.00    -0.547 A  
HETATM   34  C   UNL     1     -12.991  12.502  64.463  1.00  0.00    -0.215 A  
HETATM   35  C   UNL     1     -12.206  12.925  65.550  1.00  0.00    -0.527 A  
ENDBRANCH  24  30
ENDBRANCH  18  19
ENDBRANCH  17  18
ENDBRANCH   8  17
TORSDOF 4
ENDMDL
MODEL       84
REMARK 921   NORMALIZED FREE ENERGY PREDICTED BY IDOCK:   -5.57 KCAL/MOL
REMARK 922        TOTAL FREE ENERGY PREDICTED BY IDOCK:   -8.74 KCAL/MOL
REMARK 923 INTER-LIGAND FREE ENERGY PREDICTED BY IDOCK:   -7.85 KCAL/MOL
REMARK 924 INTRA-LIGAND FREE ENERGY PREDICTED BY IDOCK:   -0.89 KCAL/MOL
REMARK 927      BINDING AFFINITY PREDICTED BY RF-SCORE:    0.00 PKD
ROOT
HETATM    1  F   UNL     1      -9.651  12.522  63.733  1.00  0.00    -0.225 F  
HETATM    2  C   UNL     1     -10.210  12.371  64.941  1.00  0.00    -0.278 A  
HETATM    3  C   UNL     1     -11.537  11.979  65.041  1.00  0.00    -0.323 A  
HETATM    4  C   UNL     1     -12.134  11.877  66.300  1.00  0.00     0.275 A  
HETATM    5  C   UNL     1     -11.404  12.155  67.473  1.00  0.00    -0.392 A  
HETATM    6  C   UNL     1     -12.107  12.084  68.839  1.00  0.00    -0.201 C  
HETATM    7  C   UNL     1     -10.037  12.459  67.336  1.00  0.00    -0.205 A  
HETATM    8  C   UNL     1     -11.981  10.654  69.447  1.00  0.00    -0.298 C  
HETATM    9  C   UNL     1      -9.453  12.605  66.077  1.00  0.00    -0.140 A  
HETATM   10  C   UNL     1     -11.906  13.249  69.826  1.00  0.00    -0.394 A  
HETATM   11  C   UNL     1     -11.127  14.387  69.550  1.00  0.00    -0.267 A  
HETATM   12  C   UNL     1     -12.460  14.271  71.987  1.00  0.00    -0.337 A  
HETATM   13  F   UNL     1     -11.488  16.334  72.589  1.00  0.00    -0.505 F  
HETATM   14  C   UNL     1     -10.965  15.410  70.489  1.00  0.00    -0.350 A  
HETATM   15  C   UNL     1     -11.633  15.345  71.700  1.00  0.00    -0.423 A  
HETATM   16  C   UNL     1     -12.596  13.235  71.057  1.00  0.00    -0.408 A  
ENDROOT
BRANCH   8  17
HETATM   17  C   UNL     1     -10.571  10.088  69.688  1.00  0.00    -0.278 C  
BRANCH  17  18
HETATM   18  C   UNL     1     -10.219   9.704  71.132  1.00  0.00    -0.109 C  
BRANCH  18  19
HETATM   19  N   UNL     1     -10.383   8.286  71.446  1.00  0.00    -0.204 NA 
HETATM   20  C   UNL     1     -11.022   7.177  69.260  1.00  0.00    -0.163 C  
HETATM   21  C   UNL     1     -11.417   7.579  70.684  1.00  0.00    -0.269 C  
HETATM   22  C   UNL     1      -9.651   6.492  69.213  1.00  0.00    -0.139 C  
HETATM   23  C   UNL     1      -8.589   7.226  70.037  1.00  0.00    -0.140 C  
HETATM   24  N   UNL     1      -9.165   6.199  67.822  1.00  0.00    -0.113 NA 
HETATM   25  O   UNL     1     -10.289   4.705  70.845  1.00  0.00    -0.177 OA 
HETATM   26  C   UNL     1      -9.104   7.561  71.438  1.00  0.00    -0.137 C  
HETATM   27  C   UNL     1      -8.809   4.792  67.691  1.00  0.00    -0.104 C  
HETATM   28  C   UNL     1      -9.812   5.060  69.779  1.00  0.00    -0.216 C  
HETATM   29  N   UNL     1      -9.303   4.179  68.866  1.00  0.00    -0.151 NA 
BRANCH  24  30
HETATM   30  C   UNL     1      -8.946   7.067  66.767  1.00  0.00    -0.132 A  
HETATM   31  C   UNL     1      -7.963   6.861  65.793  1.00  0.00    -0.116 A  
HETATM   32  C   UNL     1      -7.694   7.793  64.776  1.00  0.00    -0.119 A  
HETATM   33  C   UNL     1      -8.436   8.961  64.683  1.00  0.00    -0.185 A  
HETATM   34  C   UNL     1      -9.455   9.186  65.593  1.00  0.00    -0.309 A  
HETATM   35  C   UNL     1      -9.698   8.252  66.615  1.00  0.00    -0.321 A  
ENDBRANCH  24  30
ENDBRANCH  18  19
ENDBRANCH  17  18
ENDBRANCH   8  17
TORSDOF 4
ENDMDL
MODEL       85
REMARK 921   NORMALIZED FREE ENERGY PREDICTED BY IDOCK:   -5.57 KCAL/MOL
REMARK 922        TOTAL FREE ENERGY PREDICTED BY IDOCK:   -8.74 KCAL/MOL
REMARK 923 INTER-LIGAND FREE ENERGY PREDICTED BY IDOCK:   -6.79 KCAL/MOL
REMARK 924 INTRA-LIGAND FREE ENERGY PREDICTED BY IDOCK:   -1.96 KCAL/MOL
REMARK 927      BINDING AFFINITY PREDICTED BY RF-SCORE:    0.00 PKD
ROOT
HETATM    1  F   UNL     1      -6.169  15.268  70.087  1.00  0.00    -0.140 F  
HETATM    2  C   UNL     1      -6.385  14.273  69.217  1.00  0.00    -0.110 A  
HETATM    3  C   UNL     1      -5.387  13.911  68.323  1.00  0.00    -0.111 A  
HETATM    4  C   UNL     1      -5.634  12.911  67.379  1.00  0.00    -0.026 A  
HETATM    5  C   UNL     1      -6.880  12.255  67.328  1.00  0.00    -0.140 A  
HETATM    6  C   UNL     1      -7.136  11.196  66.242  1.00  0.00    -0.049 C  
HETATM    7  C   UNL     1      -7.834  12.585  68.308  1.00  0.00    -0.144 A  
HETATM    8  C   UNL     1      -6.738   9.779  66.752  1.00  0.00    -0.079 C  
HETATM    9  C   UNL     1      -7.604  13.614  69.222  1.00  0.00     0.242 A  
HETATM   10  C   UNL     1      -8.450  11.273  65.441  1.00  0.00     0.128 A  
HETATM   11  C   UNL     1      -9.430  12.263  65.633  1.00  0.00    -0.078 A  
HETATM   12  C   UNL     1      -9.843  10.381  63.629  1.00  0.00    -0.288 A  
HETATM   13  F   UNL     1     -11.938  11.364  63.172  1.00  0.00    -0.449 F  
HETATM   14  C   UNL     1     -10.614  12.278  64.889  1.00  0.00    -0.329 A  
HETATM   15  C   UNL     1     -10.811  11.337  63.892  1.00  0.00    -0.354 A  
HETATM   16  C   UNL     1      -8.673  10.352  64.395  1.00  0.00    -0.209 A  
ENDROOT
BRANCH   8  17
HETATM   17  C   UNL     1      -7.432   9.239  68.015  1.00  0.00    -0.083 C  
BRANCH  17  18
HETATM   18  C   UNL     1      -8.613   8.283  67.798  1.00  0.00    -0.131 C  
BRANCH  18  19
HETATM   19  N   UNL     1      -9.052   7.570  68.996  1.00  0.00    -0.141 NA 
HETATM   20  C   UNL     1      -9.561   9.367  70.707  1.00  0.00    -0.322 C  
HETATM   21  C   UNL     1      -8.687   8.186  70.275  1.00  0.00    -0.133 C  
HETATM   22  C   UNL     1     -11.057   9.054  70.584  1.00  0.00    -0.265 C  
HETATM   23  C   UNL     1     -11.418   8.384  69.254  1.00  0.00     0.604 C  
HETATM   24  N   UNL     1     -11.950  10.227  70.870  1.00  0.00    -0.344 NA 
HETATM   25  O   UNL     1     -10.938   7.033  72.054  1.00  0.00    -0.224 OA 
HETATM   26  C   UNL     1     -10.478   7.218  68.944  1.00  0.00    -0.206 C  
HETATM   27  C   UNL     1     -12.936   9.883  71.885  1.00  0.00    -0.448 C  
HETATM   28  C   UNL     1     -11.442   8.098  71.738  1.00  0.00    -0.284 C  
HETATM   29  N   UNL     1     -12.509   8.638  72.402  1.00  0.00    -0.387 NA 
BRANCH  24  30
HETATM   30  C   UNL     1     -11.995  11.467  70.258  1.00  0.00    -0.368 A  
HETATM   31  C   UNL     1     -11.570  11.692  68.943  1.00  0.00    -0.377 A  
HETATM   32  C   UNL     1     -11.540  12.971  68.363  1.00  0.00    -0.370 A  
HETATM   33  C   UNL     1     -11.973  14.076  69.080  1.00  0.00    -0.400 A  
HETATM   34  C   UNL     1     -12.452  13.898  70.367  1.00  0.00    -0.404 A  
HETATM   35  C   UNL     1     -12.457  12.614  70.939  1.00  0.00    -0.368 A  
ENDBRANCH  24  30
ENDBRANCH  18  19
ENDBRANCH  17  18
ENDBRANCH   8  17
TORSDOF 4
ENDMDL
MODEL       86
REMARK 921   NORMALIZED FREE ENERGY PREDICTED BY IDOCK:   -5.53 KCAL/MOL
REMARK 922        TOTAL FREE ENERGY PREDICTED BY IDOCK:   -8.70 KCAL/MOL
REMARK 923 INTER-LIGAND FREE ENERGY PREDICTED BY IDOCK:   -7.06 KCAL/MOL
REMARK 924 INTRA-LIGAND FREE ENERGY PREDICTED BY IDOCK:   -1.64 KCAL/MOL
REMARK 927      BINDING AFFINITY PREDICTED BY RF-SCORE:    0.00 PKD
ROOT
HETATM    1  F   UNL     1      -6.290   5.626  70.573  1.00  0.00    -0.026 F  
HETATM    2  C   UNL     1      -6.880   6.715  70.065  1.00  0.00    -0.054 A  
HETATM    3  C   UNL     1      -8.067   7.177  70.616  1.00  0.00    -0.113 A  
HETATM    4  C   UNL     1      -8.709   8.280  70.049  1.00  0.00    -0.133 A  
HETATM    5  C   UNL     1      -8.163   8.940  68.930  1.00  0.00    -0.117 A  
HETATM    6  C   UNL     1      -8.924  10.119  68.299  1.00  0.00    -0.120 C  
HETATM    7  C   UNL     1      -6.913   8.501  68.457  1.00  0.00    -0.065 A  
HETATM    8  C   UNL     1      -8.483  11.466  68.945  1.00  0.00    -0.028 C  
HETATM    9  C   UNL     1      -6.294   7.372  68.995  1.00  0.00    -0.039 A  
HETATM   10  C   UNL     1      -9.102  10.139  66.769  1.00  0.00    -0.159 A  
HETATM   11  C   UNL     1      -8.620   9.135  65.909  1.00  0.00    -0.168 A  
HETATM   12  C   UNL     1     -10.056  11.238  64.793  1.00  0.00    -0.338 A  
HETATM   13  F   UNL     1      -9.691  10.320  62.652  1.00  0.00    -0.319 F  
HETATM   14  C   UNL     1      -8.795   9.209  64.524  1.00  0.00    -0.165 A  
HETATM   15  C   UNL     1      -9.512  10.260  63.977  1.00  0.00    -0.300 A  
HETATM   16  C   UNL     1      -9.854  11.176  66.177  1.00  0.00    -0.265 A  
ENDROOT
BRANCH   8  17
HETATM   17  C   UNL     1      -6.997  11.858  68.869  1.00  0.00    -0.110 C  
BRANCH  17  18
HETATM   18  C   UNL     1      -6.611  12.902  67.813  1.00  0.00    -0.140 C  
BRANCH  18  19
HETATM   19  N   UNL     1      -6.398  14.251  68.335  1.00  0.00    -0.092 NA 
HETATM   20  C   UNL     1      -7.629  15.795  66.749  1.00  0.00    -0.177 C  
HETATM   21  C   UNL     1      -6.296  15.315  67.332  1.00  0.00    -0.005 C  
HETATM   22  C   UNL     1      -8.668  16.080  67.841  1.00  0.00    -0.165 C  
HETATM   23  C   UNL     1      -8.741  14.972  68.898  1.00  0.00    -0.197 C  
HETATM   24  N   UNL     1     -10.029  16.426  67.310  1.00  0.00    -0.253 NA 
HETATM   25  O   UNL     1      -7.212  17.718  69.049  1.00  0.00    -0.255 OA 
HETATM   26  C   UNL     1      -7.348  14.592  69.404  1.00  0.00    -0.135 C  
HETATM   27  C   UNL     1     -10.493  17.685  67.875  1.00  0.00    -0.392 C  
HETATM   28  C   UNL     1      -8.276  17.404  68.540  1.00  0.00    -0.268 C  
HETATM   29  N   UNL     1      -9.362  18.234  68.522  1.00  0.00    -0.313 NA 
BRANCH  24  30
HETATM   30  C   UNL     1     -10.862  15.692  66.483  1.00  0.00    -0.260 A  
HETATM   31  C   UNL     1     -11.668  14.642  66.939  1.00  0.00    -0.366 A  
HETATM   32  C   UNL     1     -12.444  13.851  66.076  1.00  0.00    -0.501 A  
HETATM   33  C   UNL     1     -12.462  14.110  64.714  1.00  0.00    -0.395 A  
HETATM   34  C   UNL     1     -11.722  15.171  64.221  1.00  0.00    -0.234 A  
HETATM   35  C   UNL     1     -10.937  15.942  65.096  1.00  0.00    -0.389 A  
ENDBRANCH  24  30
ENDBRANCH  18  19
ENDBRANCH  17  18
ENDBRANCH   8  17
TORSDOF 4
ENDMDL
MODEL       87
REMARK 921   NORMALIZED FREE ENERGY PREDICTED BY IDOCK:   -5.50 KCAL/MOL
REMARK 922        TOTAL FREE ENERGY PREDICTED BY IDOCK:   -8.67 KCAL/MOL
REMARK 923 INTER-LIGAND FREE ENERGY PREDICTED BY IDOCK:   -7.72 KCAL/MOL
REMARK 924 INTRA-LIGAND FREE ENERGY PREDICTED BY IDOCK:   -0.95 KCAL/MOL
REMARK 927      BINDING AFFINITY PREDICTED BY RF-SCORE:    0.00 PKD
ROOT
HETATM    1  F   UNL     1     -12.563  13.650  62.892  1.00  0.00    -0.404 F  
HETATM    2  C   UNL     1     -12.115  13.022  63.986  1.00  0.00    -0.450 A  
HETATM    3  C   UNL     1     -12.839  13.095  65.167  1.00  0.00    -0.367 A  
HETATM    4  C   UNL     1     -12.341  12.485  66.322  1.00  0.00     0.062 A  
HETATM    5  C   UNL     1     -11.118  11.786  66.301  1.00  0.00    -0.364 A  
HETATM    6  C   UNL     1     -10.573  11.172  67.602  1.00  0.00    -0.250 C  
HETATM    7  C   UNL     1     -10.459  11.655  65.065  1.00  0.00    -0.336 A  
HETATM    8  C   UNL     1     -11.076   9.706  67.770  1.00  0.00    -0.089 C  
HETATM    9  C   UNL     1     -10.933  12.302  63.923  1.00  0.00    -0.464 A  
HETATM   10  C   UNL     1      -9.097  11.417  67.965  1.00  0.00    -0.171 A  
HETATM   11  C   UNL     1      -8.212  12.183  67.183  1.00  0.00    -0.182 A  
HETATM   12  C   UNL     1      -7.266  11.121  69.572  1.00  0.00    -0.058 A  
HETATM   13  F   UNL     1      -5.136  12.016  69.097  1.00  0.00    -0.052 F  
HETATM   14  C   UNL     1      -6.875  12.361  67.550  1.00  0.00    -0.143 A  
HETATM   15  C   UNL     1      -6.413  11.830  68.742  1.00  0.00    -0.066 A  
HETATM   16  C   UNL     1      -8.596  10.920  69.187  1.00  0.00    -0.060 A  
ENDROOT
BRANCH   8  17
HETATM   17  C   UNL     1     -10.731   8.689  66.668  1.00  0.00     0.033 C  
BRANCH  17  18
HETATM   18  C   UNL     1      -9.242   8.486  66.358  1.00  0.00    -0.199 C  
BRANCH  18  19
HETATM   19  N   UNL     1      -8.664   7.260  66.907  1.00  0.00    -0.122 NA 
HETATM   20  C   UNL     1      -8.740   7.542  69.423  1.00  0.00    -0.137 C  
HETATM   21  C   UNL     1      -7.900   7.415  68.149  1.00  0.00    -0.122 C  
HETATM   22  C   UNL     1      -9.831   6.468  69.506  1.00  0.00    -0.151 C  
HETATM   23  C   UNL     1     -10.600   6.297  68.191  1.00  0.00    -0.318 C  
HETATM   24  N   UNL     1     -10.762   6.634  70.672  1.00  0.00    -0.230 NA 
HETATM   25  O   UNL     1      -8.220   4.563  69.300  1.00  0.00    -0.068 OA 
HETATM   26  C   UNL     1      -9.649   6.172  67.001  1.00  0.00    -0.135 C  
HETATM   27  C   UNL     1     -10.829   5.405  71.452  1.00  0.00    -0.140 C  
HETATM   28  C   UNL     1      -9.151   5.122  69.857  1.00  0.00    -0.123 C  
HETATM   29  N   UNL     1      -9.783   4.597  70.949  1.00  0.00    -0.178 NA 
BRANCH  24  30
HETATM   30  C   UNL     1     -11.569   7.707  71.006  1.00  0.00    -0.282 A  
HETATM   31  C   UNL     1     -11.106   9.027  71.072  1.00  0.00    -0.356 A  
HETATM   32  C   UNL     1     -11.915  10.095  71.495  1.00  0.00    -0.404 A  
HETATM   33  C   UNL     1     -13.240   9.876  71.839  1.00  0.00    -0.558 A  
HETATM   34  C   UNL     1     -13.759   8.597  71.740  1.00  0.00    -0.456 A  
HETATM   35  C   UNL     1     -12.932   7.536  71.333  1.00  0.00    -0.379 A  
ENDBRANCH  24  30
ENDBRANCH  18  19
ENDBRANCH  17  18
ENDBRANCH   8  17
TORSDOF 4
ENDMDL
MODEL       88
REMARK 921   NORMALIZED FREE ENERGY PREDICTED BY IDOCK:   -5.50 KCAL/MOL
REMARK 922        TOTAL FREE ENERGY PREDICTED BY IDOCK:   -8.66 KCAL/MOL
REMARK 923 INTER-LIGAND FREE ENERGY PREDICTED BY IDOCK:   -7.88 KCAL/MOL
REMARK 924 INTRA-LIGAND FREE ENERGY PREDICTED BY IDOCK:   -0.78 KCAL/MOL
REMARK 927      BINDING AFFINITY PREDICTED BY RF-SCORE:    0.00 PKD
ROOT
HETATM    1  F   UNL     1      -9.467  19.010  68.764  1.00  0.00    -0.361 F  
HETATM    2  C   UNL     1      -9.610  17.708  68.487  1.00  0.00    -0.315 A  
HETATM    3  C   UNL     1      -8.503  16.871  68.519  1.00  0.00    -0.258 A  
HETATM    4  C   UNL     1      -8.644  15.524  68.176  1.00  0.00    -0.152 A  
HETATM    5  C   UNL     1      -9.898  14.999  67.808  1.00  0.00    -0.220 A  
HETATM    6  C   UNL     1     -10.008  13.524  67.385  1.00  0.00    -0.234 C  
HETATM    7  C   UNL     1     -11.012  15.854  67.876  1.00  0.00    -0.327 A  
HETATM    8  C   UNL     1     -10.315  12.620  68.617  1.00  0.00    -0.192 C  
HETATM    9  C   UNL     1     -10.864  17.209  68.175  1.00  0.00    -0.316 A  
HETATM   10  C   UNL     1     -10.787  13.187  66.100  1.00  0.00    -0.293 A  
HETATM   11  C   UNL     1     -11.398  14.151  65.276  1.00  0.00    -0.328 A  
HETATM   12  C   UNL     1     -11.527  11.487  64.493  1.00  0.00    -0.204 A  
HETATM   13  F   UNL     1     -12.834  12.122  62.635  1.00  0.00    -0.218 F  
HETATM   14  C   UNL     1     -12.108  13.791  64.128  1.00  0.00    -0.478 A  
HETATM   15  C   UNL     1     -12.167  12.461  63.744  1.00  0.00    -0.533 A  
HETATM   16  C   UNL     1     -10.842  11.848  65.658  1.00  0.00    -0.333 A  
ENDROOT
BRANCH   8  17
HETATM   17  C   UNL     1     -11.593  12.904  69.426  1.00  0.00    -0.363 C  
BRANCH  17  18
HETATM   18  C   UNL     1     -11.811  12.062  70.690  1.00  0.00    -0.002 C  
BRANCH  18  19
HETATM   19  N   UNL     1     -12.726  10.935  70.524  1.00  0.00    -0.308 NA 
HETATM   20  C   UNL     1     -11.248   8.895  70.252  1.00  0.00    -0.219 C  
HETATM   21  C   UNL     1     -12.265   9.862  69.637  1.00  0.00     0.385 C  
HETATM   22  C   UNL     1     -11.687   8.399  71.635  1.00  0.00    -0.298 C  
HETATM   23  C   UNL     1     -12.195   9.527  72.540  1.00  0.00     0.193 C  
HETATM   24  N   UNL     1     -10.660   7.553  72.332  1.00  0.00    -0.232 NA 
HETATM   25  O   UNL     1     -13.875   7.500  70.816  1.00  0.00     0.020 OA 
HETATM   26  C   UNL     1     -13.207  10.412  71.812  1.00  0.00    -0.424 C  
HETATM   27  C   UNL     1     -11.241   6.283  72.746  1.00  0.00    -0.237 C  
HETATM   28  C   UNL     1     -12.830   7.375  71.435  1.00  0.00    -0.365 C  
HETATM   29  N   UNL     1     -12.498   6.228  72.101  1.00  0.00    -0.203 NA 
BRANCH  24  30
HETATM   30  C   UNL     1      -9.357   7.861  72.679  1.00  0.00    -0.213 A  
HETATM   31  C   UNL     1      -8.900   7.897  74.002  1.00  0.00    -0.270 A  
HETATM   32  C   UNL     1      -7.597   8.295  74.345  1.00  0.00    -0.275 A  
HETATM   33  C   UNL     1      -6.689   8.643  73.358  1.00  0.00    -0.022 A  
HETATM   34  C   UNL     1      -7.076   8.574  72.031  1.00  0.00    -0.104 A  
HETATM   35  C   UNL     1      -8.389   8.191  71.705  1.00  0.00    -0.181 A  
ENDBRANCH  24  30
ENDBRANCH  18  19
ENDBRANCH  17  18
ENDBRANCH   8  17
TORSDOF 4
ENDMDL
MODEL       89
REMARK 921   NORMALIZED FREE ENERGY PREDICTED BY IDOCK:   -5.48 KCAL/MOL
REMARK 922        TOTAL FREE ENERGY PREDICTED BY IDOCK:   -8.64 KCAL/MOL
REMARK 923 INTER-LIGAND FREE ENERGY PREDICTED BY IDOCK:   -7.83 KCAL/MOL
REMARK 924 INTRA-LIGAND FREE ENERGY PREDICTED BY IDOCK:   -0.81 KCAL/MOL
REMARK 927      BINDING AFFINITY PREDICTED BY RF-SCORE:    0.00 PKD
ROOT
HETATM    1  F   UNL     1     -10.135  18.467  68.837  1.00  0.00    -0.368 F  
HETATM    2  C   UNL     1     -10.385  17.158  68.707  1.00  0.00    -0.353 A  
HETATM    3  C   UNL     1     -11.073  16.696  67.594  1.00  0.00    -0.107 A  
HETATM    4  C   UNL     1     -11.382  15.337  67.488  1.00  0.00    -0.300 A  
HETATM    5  C   UNL     1     -10.996  14.426  68.490  1.00  0.00    -0.264 A  
HETATM    6  C   UNL     1     -11.399  12.947  68.367  1.00  0.00    -0.329 C  
HETATM    7  C   UNL     1     -10.221  14.916  69.557  1.00  0.00    -0.143 A  
HETATM    8  C   UNL     1     -10.299  12.139  67.615  1.00  0.00    -0.215 C  
HETATM    9  C   UNL     1      -9.951  16.279  69.686  1.00  0.00    -0.137 A  
HETATM   10  C   UNL     1     -12.015  12.252  69.595  1.00  0.00    -0.347 A  
HETATM   11  C   UNL     1     -12.246  12.892  70.827  1.00  0.00    -0.348 A  
HETATM   12  C   UNL     1     -13.029  10.237  70.563  1.00  0.00    -0.251 A  
HETATM   13  F   UNL     1     -13.721  10.243  72.817  1.00  0.00    -0.217 F  
HETATM   14  C   UNL     1     -12.794  12.210  71.917  1.00  0.00    -0.327 A  
HETATM   15  C   UNL     1     -13.182  10.888  71.776  1.00  0.00    -0.408 A  
HETATM   16  C   UNL     1     -12.453  10.915  69.482  1.00  0.00    -0.126 A  
ENDROOT
BRANCH   8  17
HETATM   17  C   UNL     1      -8.878  12.122  68.204  1.00  0.00    -0.187 C  
BRANCH  17  18
HETATM   18  C   UNL     1      -8.464  10.861  68.974  1.00  0.00    -0.105 C  
BRANCH  18  19
HETATM   19  N   UNL     1      -7.874   9.807  68.150  1.00  0.00    -0.086 NA 
HETATM   20  C   UNL     1      -9.566   9.350  66.320  1.00  0.00    -0.297 C  
HETATM   21  C   UNL     1      -8.819   8.852  67.562  1.00  0.00    -0.130 C  
HETATM   22  C   UNL     1      -8.622   9.986  65.294  1.00  0.00    -0.154 C  
HETATM   23  C   UNL     1      -7.621  10.959  65.928  1.00  0.00    -0.057 C  
HETATM   24  N   UNL     1      -9.326  10.606  64.121  1.00  0.00    -0.236 NA 
HETATM   25  O   UNL     1      -7.171   7.956  65.104  1.00  0.00    -0.059 OA 
HETATM   26  C   UNL     1      -6.938  10.340  67.149  1.00  0.00    -0.088 C  
HETATM   27  C   UNL     1      -8.790  10.085  62.871  1.00  0.00    -0.237 C  
HETATM   28  C   UNL     1      -7.832   8.849  64.601  1.00  0.00    -0.124 C  
HETATM   29  N   UNL     1      -7.975   8.994  63.249  1.00  0.00    -0.140 NA 
BRANCH  24  30
HETATM   30  C   UNL     1     -10.283  11.605  64.099  1.00  0.00    -0.326 A  
HETATM   31  C   UNL     1      -9.997  12.950  64.362  1.00  0.00    -0.159 A  
HETATM   32  C   UNL     1     -10.993  13.940  64.421  1.00  0.00    -0.322 A  
HETATM   33  C   UNL     1     -12.319  13.614  64.182  1.00  0.00    -0.385 A  
HETATM   34  C   UNL     1     -12.645  12.307  63.866  1.00  0.00    -0.544 A  
HETATM   35  C   UNL     1     -11.640  11.325  63.830  1.00  0.00     0.043 A  
ENDBRANCH  24  30
ENDBRANCH  18  19
ENDBRANCH  17  18
ENDBRANCH   8  17
TORSDOF 4
ENDMDL
MODEL       90
REMARK 921   NORMALIZED FREE ENERGY PREDICTED BY IDOCK:   -5.47 KCAL/MOL
REMARK 922        TOTAL FREE ENERGY PREDICTED BY IDOCK:   -8.63 KCAL/MOL
REMARK 923 INTER-LIGAND FREE ENERGY PREDICTED BY IDOCK:   -6.13 KCAL/MOL
REMARK 924 INTRA-LIGAND FREE ENERGY PREDICTED BY IDOCK:   -2.51 KCAL/MOL
REMARK 927      BINDING AFFINITY PREDICTED BY RF-SCORE:    0.00 PKD
ROOT
HETATM    1  F   UNL     1     -12.616  15.449  69.975  1.00  0.00    -0.373 F  
HETATM    2  C   UNL     1     -11.612  14.732  69.453  1.00  0.00    -0.310 A  
HETATM    3  C   UNL     1     -10.373  15.325  69.255  1.00  0.00    -0.259 A  
HETATM    4  C   UNL     1      -9.344  14.591  68.659  1.00  0.00    -0.199 A  
HETATM    5  C   UNL     1      -9.542  13.253  68.267  1.00  0.00    -0.221 A  
HETATM    6  C   UNL     1      -8.403  12.492  67.566  1.00  0.00    -0.175 C  
HETATM    7  C   UNL     1     -10.781  12.659  68.568  1.00  0.00    -0.271 A  
HETATM    8  C   UNL     1      -7.514  11.750  68.610  1.00  0.00    -0.120 C  
HETATM    9  C   UNL     1     -11.823  13.403  69.121  1.00  0.00    -0.383 A  
HETATM   10  C   UNL     1      -8.732  11.700  66.287  1.00  0.00    -0.136 A  
HETATM   11  C   UNL     1     -10.013  11.639  65.708  1.00  0.00    -0.270 A  
HETATM   12  C   UNL     1      -7.929  10.325  64.419  1.00  0.00    -0.135 A  
HETATM   13  F   UNL     1      -9.456   9.540  62.803  1.00  0.00    -0.279 F  
HETATM   14  C   UNL     1     -10.261  10.891  64.553  1.00  0.00    -0.422 A  
HETATM   15  C   UNL     1      -9.217  10.241  63.917  1.00  0.00    -0.274 A  
HETATM   16  C   UNL     1      -7.689  11.050  65.591  1.00  0.00     0.090 A  
ENDROOT
BRANCH   8  17
HETATM   17  C   UNL     1      -8.185  10.716  69.531  1.00  0.00    -0.036 C  
BRANCH  17  18
HETATM   18  C   UNL     1      -7.870   9.240  69.255  1.00  0.00    -0.085 C  
BRANCH  18  19
HETATM   19  N   UNL     1      -9.032   8.353  69.273  1.00  0.00    -0.149 NA 
HETATM   20  C   UNL     1      -9.645   7.988  66.842  1.00  0.00    -0.265 C  
HETATM   21  C   UNL     1     -10.018   8.570  68.209  1.00  0.00    -0.184 C  
HETATM   22  C   UNL     1      -9.164   6.536  66.943  1.00  0.00    -0.140 C  
HETATM   23  C   UNL     1      -8.158   6.319  68.078  1.00  0.00    -0.115 C  
HETATM   24  N   UNL     1      -8.663   5.969  65.646  1.00  0.00    -0.153 NA 
HETATM   25  O   UNL     1     -11.250   5.737  68.073  1.00  0.00    -0.057 OA 
HETATM   26  C   UNL     1      -8.651   6.937  69.387  1.00  0.00    -0.133 C  
HETATM   27  C   UNL     1      -9.344   4.719  65.338  1.00  0.00    -0.156 C  
HETATM   28  C   UNL     1     -10.400   5.640  67.202  1.00  0.00    -0.248 C  
HETATM   29  N   UNL     1     -10.410   4.646  66.264  1.00  0.00    -0.280 NA 
BRANCH  24  30
HETATM   30  C   UNL     1      -7.643   6.418  64.826  1.00  0.00    -0.098 A  
HETATM   31  C   UNL     1      -6.326   6.599  65.266  1.00  0.00    -0.042 A  
HETATM   32  C   UNL     1      -5.320   7.138  64.447  1.00  0.00    -0.029 A  
HETATM   33  C   UNL     1      -5.597   7.485  63.134  1.00  0.00    -0.045 A  
HETATM   34  C   UNL     1      -6.871   7.277  62.636  1.00  0.00    -0.065 A  
HETATM   35  C   UNL     1      -7.872   6.754  63.474  1.00  0.00    -0.110 A  
ENDBRANCH  24  30
ENDBRANCH  18  19
ENDBRANCH  17  18
ENDBRANCH   8  17
TORSDOF 4
ENDMDL
MODEL       91
REMARK 921   NORMALIZED FREE ENERGY PREDICTED BY IDOCK:   -5.47 KCAL/MOL
REMARK 922        TOTAL FREE ENERGY PREDICTED BY IDOCK:   -8.62 KCAL/MOL
REMARK 923 INTER-LIGAND FREE ENERGY PREDICTED BY IDOCK:   -6.79 KCAL/MOL
REMARK 924 INTRA-LIGAND FREE ENERGY PREDICTED BY IDOCK:   -1.83 KCAL/MOL
REMARK 927      BINDING AFFINITY PREDICTED BY RF-SCORE:    0.00 PKD
ROOT
HETATM    1  F   UNL     1     -11.526   5.884  70.546  1.00  0.00    -0.379 F  
HETATM    2  C   UNL     1     -10.883   6.627  69.636  1.00  0.00    -0.286 A  
HETATM    3  C   UNL     1     -10.185   6.006  68.609  1.00  0.00    -0.233 A  
HETATM    4  C   UNL     1      -9.469   6.782  67.694  1.00  0.00    -0.126 A  
HETATM    5  C   UNL     1      -9.452   8.187  67.792  1.00  0.00    -0.164 A  
HETATM    6  C   UNL     1      -8.610   9.007  66.799  1.00  0.00    -0.129 C  
HETATM    7  C   UNL     1     -10.245   8.783  68.789  1.00  0.00    -0.224 A  
HETATM    8  C   UNL     1      -9.456   9.393  65.549  1.00  0.00    -0.328 C  
HETATM    9  C   UNL     1     -10.924   8.008  69.730  1.00  0.00    -0.138 A  
HETATM   10  C   UNL     1      -7.697  10.115  67.356  1.00  0.00    -0.095 A  
HETATM   11  C   UNL     1      -7.574  10.419  68.725  1.00  0.00    -0.097 A  
HETATM   12  C   UNL     1      -6.010  11.843  66.921  1.00  0.00    -0.115 A  
HETATM   13  F   UNL     1      -5.158  13.124  68.709  1.00  0.00    -0.063 F  
HETATM   14  C   UNL     1      -6.742  11.447  69.176  1.00  0.00    -0.106 A  
HETATM   15  C   UNL     1      -5.966  12.151  68.271  1.00  0.00    -0.052 A  
HETATM   16  C   UNL     1      -6.866  10.833  66.469  1.00  0.00    -0.130 A  
ENDROOT
BRANCH   8  17
HETATM   17  C   UNL     1     -10.739  10.215  65.765  1.00  0.00     0.115 C  
BRANCH  17  18
HETATM   18  C   UNL     1     -10.560  11.652  66.272  1.00  0.00    -0.258 C  
BRANCH  18  19
HETATM   19  N   UNL     1     -11.442  12.025  67.377  1.00  0.00    -0.365 NA 
HETATM   20  C   UNL     1     -10.031  13.461  68.916  1.00  0.00     0.032 C  
HETATM   21  C   UNL     1     -10.801  12.156  68.689  1.00  0.00    -0.235 C  
HETATM   22  C   UNL     1     -10.849  14.692  68.509  1.00  0.00    -0.250 C  
HETATM   23  C   UNL     1     -11.537  14.529  67.149  1.00  0.00    -0.406 C  
HETATM   24  N   UNL     1     -10.086  15.983  68.590  1.00  0.00    -0.213 NA 
HETATM   25  O   UNL     1     -12.767  14.138  70.019  1.00  0.00    -0.292 OA 
HETATM   26  C   UNL     1     -12.276  13.193  67.055  1.00  0.00    -0.210 C  
HETATM   27  C   UNL     1     -10.810  16.954  69.400  1.00  0.00    -0.186 C  
HETATM   28  C   UNL     1     -11.937  14.921  69.587  1.00  0.00    -0.320 C  
HETATM   29  N   UNL     1     -11.845  16.216  70.017  1.00  0.00    -0.214 NA 
BRANCH  24  30
HETATM   30  C   UNL     1      -8.915  16.352  67.953  1.00  0.00    -0.196 A  
HETATM   31  C   UNL     1      -8.834  17.415  67.045  1.00  0.00    -0.248 A  
HETATM   32  C   UNL     1      -7.658  17.724  66.341  1.00  0.00    -0.313 A  
HETATM   33  C   UNL     1      -6.502  16.990  66.553  1.00  0.00    -0.239 A  
HETATM   34  C   UNL     1      -6.516  15.962  67.480  1.00  0.00    -0.205 A  
HETATM   35  C   UNL     1      -7.706  15.653  68.162  1.00  0.00    -0.127 A  
ENDBRANCH  24  30
ENDBRANCH  18  19
ENDBRANCH  17  18
ENDBRANCH   8  17
TORSDOF 4
ENDMDL
MODEL       92
REMARK 921   NORMALIZED FREE ENERGY PREDICTED BY IDOCK:   -5.46 KCAL/MOL
REMARK 922        TOTAL FREE ENERGY PREDICTED BY IDOCK:   -8.62 KCAL/MOL
REMARK 923 INTER-LIGAND FREE ENERGY PREDICTED BY IDOCK:   -7.86 KCAL/MOL
REMARK 924 INTRA-LIGAND FREE ENERGY PREDICTED BY IDOCK:   -0.76 KCAL/MOL
REMARK 927      BINDING AFFINITY PREDICTED BY RF-SCORE:    0.00 PKD
ROOT
HETATM    1  F   UNL     1      -9.108   9.480  62.495  1.00  0.00    -0.233 F  
HETATM    2  C   UNL     1      -9.517  10.191  63.554  1.00  0.00    -0.260 A  
HETATM    3  C   UNL     1     -10.615  11.032  63.436  1.00  0.00    -0.249 A  
HETATM    4  C   UNL     1     -11.005  11.814  64.526  1.00  0.00    -0.382 A  
HETATM    5  C   UNL     1     -10.308  11.754  65.748  1.00  0.00    -0.293 A  
HETATM    6  C   UNL     1     -10.733  12.667  66.910  1.00  0.00    -0.264 C  
HETATM    7  C   UNL     1      -9.259  10.822  65.858  1.00  0.00    -0.214 A  
HETATM    8  C   UNL     1     -11.788  11.957  67.810  1.00  0.00    -0.289 C  
HETATM    9  C   UNL     1      -8.840  10.074  64.757  1.00  0.00    -0.222 A  
HETATM   10  C   UNL     1      -9.641  13.456  67.658  1.00  0.00    -0.219 A  
HETATM   11  C   UNL     1      -8.273  13.402  67.334  1.00  0.00    -0.188 A  
HETATM   12  C   UNL     1      -9.068  15.100  69.387  1.00  0.00    -0.180 A  
HETATM   13  F   UNL     1      -6.811  15.674  69.754  1.00  0.00    -0.168 F  
HETATM   14  C   UNL     1      -7.319  14.126  68.056  1.00  0.00    -0.142 A  
HETATM   15  C   UNL     1      -7.725  14.970  69.076  1.00  0.00    -0.170 A  
HETATM   16  C   UNL     1     -10.017  14.351  68.682  1.00  0.00    -0.241 A  
ENDROOT
BRANCH   8  17
HETATM   17  C   UNL     1     -11.401  10.620  68.468  1.00  0.00    -0.348 C  
BRANCH  17  18
HETATM   18  C   UNL     1     -10.158  10.628  69.367  1.00  0.00    -0.174 C  
BRANCH  18  19
HETATM   19  N   UNL     1     -10.364  10.070  70.702  1.00  0.00    -0.188 NA 
HETATM   20  C   UNL     1     -11.591   7.883  70.341  1.00  0.00    -0.092 C  
HETATM   21  C   UNL     1     -11.605   9.312  70.893  1.00  0.00    -0.301 C  
HETATM   22  C   UNL     1     -10.333   7.113  70.761  1.00  0.00    -0.206 C  
HETATM   23  C   UNL     1      -9.048   7.929  70.584  1.00  0.00    -0.153 C  
HETATM   24  N   UNL     1     -10.214   5.753  70.135  1.00  0.00    -0.216 NA 
HETATM   25  O   UNL     1     -10.720   7.464  73.209  1.00  0.00    -0.357 OA 
HETATM   26  C   UNL     1      -9.189   9.329  71.184  1.00  0.00    -0.155 C  
HETATM   27  C   UNL     1     -10.020   4.735  71.158  1.00  0.00    -0.202 C  
HETATM   28  C   UNL     1     -10.478   6.740  72.257  1.00  0.00    -0.208 C  
HETATM   29  N   UNL     1     -10.275   5.394  72.382  1.00  0.00    -0.189 NA 
BRANCH  24  30
HETATM   30  C   UNL     1     -10.176   5.403  68.797  1.00  0.00    -0.182 A  
HETATM   31  C   UNL     1     -10.945   6.036  67.813  1.00  0.00    -0.333 A  
HETATM   32  C   UNL     1     -10.961   5.614  66.474  1.00  0.00    -0.140 A  
HETATM   33  C   UNL     1     -10.171   4.551  66.065  1.00  0.00    -0.288 A  
HETATM   34  C   UNL     1      -9.353   3.925  66.989  1.00  0.00    -0.212 A  
HETATM   35  C   UNL     1      -9.363   4.348  68.330  1.00  0.00    -0.203 A  
ENDBRANCH  24  30
ENDBRANCH  18  19
ENDBRANCH  17  18
ENDBRANCH   8  17
TORSDOF 4
ENDMDL
MODEL       93
REMARK 921   NORMALIZED FREE ENERGY PREDICTED BY IDOCK:   -5.46 KCAL/MOL
REMARK 922        TOTAL FREE ENERGY PREDICTED BY IDOCK:   -8.61 KCAL/MOL
REMARK 923 INTER-LIGAND FREE ENERGY PREDICTED BY IDOCK:   -6.09 KCAL/MOL
REMARK 924 INTRA-LIGAND FREE ENERGY PREDICTED BY IDOCK:   -2.52 KCAL/MOL
REMARK 927      BINDING AFFINITY PREDICTED BY RF-SCORE:    0.00 PKD
ROOT
HETATM    1  F   UNL     1     -13.206  11.354  71.686  1.00  0.00    -0.489 F  
HETATM    2  C   UNL     1     -12.195  11.225  70.817  1.00  0.00    -0.380 A  
HETATM    3  C   UNL     1     -11.946  12.232  69.896  1.00  0.00    -0.377 A  
HETATM    4  C   UNL     1     -10.926  12.071  68.955  1.00  0.00    -0.277 A  
HETATM    5  C   UNL     1     -10.138  10.903  68.934  1.00  0.00    -0.211 A  
HETATM    6  C   UNL     1      -9.058  10.736  67.850  1.00  0.00    -0.150 C  
HETATM    7  C   UNL     1     -10.359   9.946  69.940  1.00  0.00    -0.298 A  
HETATM    8  C   UNL     1      -7.692  11.301  68.344  1.00  0.00    -0.125 C  
HETATM    9  C   UNL     1     -11.406  10.086  70.852  1.00  0.00    -0.439 A  
HETATM   10  C   UNL     1      -8.991   9.401  67.085  1.00  0.00    -0.144 A  
HETATM   11  C   UNL     1      -9.868   8.323  67.307  1.00  0.00    -0.258 A  
HETATM   12  C   UNL     1      -7.954   8.065  65.307  1.00  0.00    -0.124 A  
HETATM   13  F   UNL     1      -8.702   5.864  64.909  1.00  0.00    -0.149 F  
HETATM   14  C   UNL     1      -9.754   7.126  66.595  1.00  0.00    -0.233 A  
HETATM   15  C   UNL     1      -8.798   7.006  65.600  1.00  0.00    -0.012 A  
HETATM   16  C   UNL     1      -8.053   9.251  66.041  1.00  0.00    -0.110 A  
ENDROOT
BRANCH   8  17
HETATM   17  C   UNL     1      -7.078  10.703  69.622  1.00  0.00    -0.143 C  
BRANCH  17  18
HETATM   18  C   UNL     1      -6.346   9.362  69.475  1.00  0.00    -0.040 C  
BRANCH  18  19
HETATM   19  N   UNL     1      -5.709   8.875  70.697  1.00  0.00    -0.031 NA 
HETATM   20  C   UNL     1      -7.592   8.540  72.358  1.00  0.00    -0.088 C  
HETATM   21  C   UNL     1      -6.327   9.305  71.955  1.00  0.00     0.087 C  
HETATM   22  C   UNL     1      -7.406   7.021  72.254  1.00  0.00    -0.085 C  
HETATM   23  C   UNL     1      -6.731   6.591  70.947  1.00  0.00    -0.054 C  
HETATM   24  N   UNL     1      -8.660   6.236  72.512  1.00  0.00    -0.121 NA 
HETATM   25  O   UNL     1      -5.425   6.980  73.783  1.00  0.00    -0.046 OA 
HETATM   26  C   UNL     1      -5.480   7.423  70.666  1.00  0.00    -0.024 C  
HETATM   27  C   UNL     1      -8.431   5.234  73.544  1.00  0.00    -0.112 C  
HETATM   28  C   UNL     1      -6.520   6.566  73.439  1.00  0.00    -0.065 C  
HETATM   29  N   UNL     1      -7.169   5.557  74.094  1.00  0.00    -0.082 NA 
BRANCH  24  30
HETATM   30  C   UNL     1      -9.881   6.292  71.864  1.00  0.00    -0.155 A  
HETATM   31  C   UNL     1     -10.042   6.010  70.502  1.00  0.00    -0.244 A  
HETATM   32  C   UNL     1     -11.272   6.155  69.837  1.00  0.00    -0.484 A  
HETATM   33  C   UNL     1     -12.401   6.560  70.533  1.00  0.00     0.041 A  
HETATM   34  C   UNL     1     -12.304   6.800  71.893  1.00  0.00    -0.369 A  
HETATM   35  C   UNL     1     -11.062   6.669  72.539  1.00  0.00    -0.296 A  
ENDBRANCH  24  30
ENDBRANCH  18  19
ENDBRANCH  17  18
ENDBRANCH   8  17
TORSDOF 4
ENDMDL
MODEL       94
REMARK 921   NORMALIZED FREE ENERGY PREDICTED BY IDOCK:   -5.41 KCAL/MOL
REMARK 922        TOTAL FREE ENERGY PREDICTED BY IDOCK:   -8.55 KCAL/MOL
REMARK 923 INTER-LIGAND FREE ENERGY PREDICTED BY IDOCK:   -7.68 KCAL/MOL
REMARK 924 INTRA-LIGAND FREE ENERGY PREDICTED BY IDOCK:   -0.87 KCAL/MOL
REMARK 927      BINDING AFFINITY PREDICTED BY RF-SCORE:    0.00 PKD
ROOT
HETATM    1  F   UNL     1      -8.782  20.432  67.084  1.00  0.00    -0.373 F  
HETATM    2  C   UNL     1      -9.206  19.168  67.207  1.00  0.00    -0.290 A  
HETATM    3  C   UNL     1     -10.080  18.641  66.267  1.00  0.00    -0.431 A  
HETATM    4  C   UNL     1     -10.565  17.340  66.428  1.00  0.00    -0.179 A  
HETATM    5  C   UNL     1     -10.171  16.551  67.526  1.00  0.00    -0.283 A  
HETATM    6  C   UNL     1     -10.766  15.143  67.701  1.00  0.00    -0.285 C  
HETATM    7  C   UNL     1      -9.214  17.086  68.407  1.00  0.00    -0.259 A  
HETATM    8  C   UNL     1      -9.877  14.079  66.988  1.00  0.00    -0.260 C  
HETATM    9  C   UNL     1      -8.764  18.400  68.272  1.00  0.00    -0.321 A  
HETATM   10  C   UNL     1     -11.304  14.743  69.087  1.00  0.00    -0.302 A  
HETATM   11  C   UNL     1     -11.297  15.594  70.208  1.00  0.00    -0.357 A  
HETATM   12  C   UNL     1     -12.429  13.069  70.485  1.00  0.00    -0.306 A  
HETATM   13  F   UNL     1     -12.826  13.525  72.765  1.00  0.00    -0.403 F  
HETATM   14  C   UNL     1     -11.784  15.175  71.450  1.00  0.00    -0.428 A  
HETATM   15  C   UNL     1     -12.347  13.916  71.578  1.00  0.00    -0.237 A  
HETATM   16  C   UNL     1     -11.914  13.481  69.251  1.00  0.00    -0.378 A  
ENDROOT
BRANCH   8  17
HETATM   17  C   UNL     1      -8.406  13.953  67.422  1.00  0.00    -0.208 C  
BRANCH  17  18
HETATM   18  C   UNL     1      -7.926  12.556  67.837  1.00  0.00    -0.157 C  
BRANCH  18  19
HETATM   19  N   UNL     1      -7.777  11.607  66.735  1.00  0.00    -0.145 NA 
HETATM   20  C   UNL     1      -6.776   9.521  67.768  1.00  0.00    -0.067 C  
HETATM   21  C   UNL     1      -6.618  10.712  66.816  1.00  0.00    -0.091 C  
HETATM   22  C   UNL     1      -8.104   8.786  67.557  1.00  0.00    -0.106 C  
HETATM   23  C   UNL     1      -9.301   9.736  67.444  1.00  0.00    -0.155 C  
HETATM   24  N   UNL     1      -8.360   7.693  68.555  1.00  0.00    -0.128 NA 
HETATM   25  O   UNL     1      -7.683   8.350  65.128  1.00  0.00    -0.087 OA 
HETATM   26  C   UNL     1      -9.020  10.872  66.459  1.00  0.00    -0.168 C  
HETATM   27  C   UNL     1      -8.654   6.439  67.876  1.00  0.00    -0.116 C  
HETATM   28  C   UNL     1      -7.997   7.971  66.245  1.00  0.00    -0.105 C  
HETATM   29  N   UNL     1      -8.334   6.675  66.519  1.00  0.00    -0.113 NA 
BRANCH  24  30
HETATM   30  C   UNL     1      -8.433   7.764  69.935  1.00  0.00    -0.132 A  
HETATM   31  C   UNL     1      -9.629   7.624  70.650  1.00  0.00    -0.163 A  
HETATM   32  C   UNL     1      -9.703   7.783  72.044  1.00  0.00    -0.224 A  
HETATM   33  C   UNL     1      -8.560   8.059  72.779  1.00  0.00    -0.252 A  
HETATM   34  C   UNL     1      -7.345   8.156  72.124  1.00  0.00    -0.117 A  
HETATM   35  C   UNL     1      -7.291   8.012  70.726  1.00  0.00    -0.057 A  
ENDBRANCH  24  30
ENDBRANCH  18  19
ENDBRANCH  17  18
ENDBRANCH   8  17
TORSDOF 4
ENDMDL
MODEL       95
REMARK 921   NORMALIZED FREE ENERGY PREDICTED BY IDOCK:   -5.41 KCAL/MOL
REMARK 922        TOTAL FREE ENERGY PREDICTED BY IDOCK:   -8.55 KCAL/MOL
REMARK 923 INTER-LIGAND FREE ENERGY PREDICTED BY IDOCK:   -6.51 KCAL/MOL
REMARK 924 INTRA-LIGAND FREE ENERGY PREDICTED BY IDOCK:   -2.03 KCAL/MOL
REMARK 927      BINDING AFFINITY PREDICTED BY RF-SCORE:    0.00 PKD
ROOT
HETATM    1  F   UNL     1     -11.397   7.438  73.564  1.00  0.00    -0.324 F  
HETATM    2  C   UNL     1     -10.907   8.063  72.486  1.00  0.00    -0.349 A  
HETATM    3  C   UNL     1      -9.556   8.375  72.426  1.00  0.00    -0.373 A  
HETATM    4  C   UNL     1      -9.057   9.077  71.326  1.00  0.00    -0.302 A  
HETATM    5  C   UNL     1      -9.904   9.462  70.268  1.00  0.00    -0.290 A  
HETATM    6  C   UNL     1      -9.332  10.280  69.097  1.00  0.00    -0.214 C  
HETATM    7  C   UNL     1     -11.247   9.047  70.321  1.00  0.00    -0.232 A  
HETATM    8  C   UNL     1      -8.827   9.336  67.964  1.00  0.00    -0.128 C  
HETATM    9  C   UNL     1     -11.755   8.386  71.440  1.00  0.00    -0.332 A  
HETATM   10  C   UNL     1     -10.103  11.529  68.631  1.00  0.00    -0.214 A  
HETATM   11  C   UNL     1     -11.299  11.980  69.221  1.00  0.00    -0.330 A  
HETATM   12  C   UNL     1     -10.213  13.481  67.148  1.00  0.00    -0.247 A  
HETATM   13  F   UNL     1     -12.055  14.947  67.278  1.00  0.00    -0.375 F  
HETATM   14  C   UNL     1     -11.968  13.112  68.749  1.00  0.00    -0.316 A  
HETATM   15  C   UNL     1     -11.420  13.854  67.717  1.00  0.00    -0.323 A  
HETATM   16  C   UNL     1      -9.561  12.330  67.604  1.00  0.00    -0.191 A  
ENDROOT
BRANCH   8  17
HETATM   17  C   UNL     1      -9.834   8.364  67.324  1.00  0.00    -0.264 C  
BRANCH  17  18
HETATM   18  C   UNL     1      -9.278   7.375  66.292  1.00  0.00    -0.135 C  
BRANCH  18  19
HETATM   19  N   UNL     1      -9.606   5.973  66.549  1.00  0.00    -0.155 NA 
HETATM   20  C   UNL     1      -7.624   5.034  67.817  1.00  0.00    -0.083 C  
HETATM   21  C   UNL     1      -8.474   5.041  66.543  1.00  0.00    -0.110 C  
HETATM   22  C   UNL     1      -8.483   4.945  69.084  1.00  0.00    -0.081 C  
HETATM   23  C   UNL     1      -9.679   5.904  69.062  1.00  0.00    -0.170 C  
HETATM   24  N   UNL     1      -7.701   5.068  70.360  1.00  0.00    -0.069 NA 
HETATM   25  O   UNL     1      -9.626   2.834  68.377  1.00  0.00    -0.181 OA 
HETATM   26  C   UNL     1     -10.447   5.807  67.743  1.00  0.00    -0.226 C  
HETATM   27  C   UNL     1      -7.981   3.943  71.242  1.00  0.00    -0.067 C  
HETATM   28  C   UNL     1      -9.016   3.496  69.200  1.00  0.00    -0.120 C  
HETATM   29  N   UNL     1      -8.699   3.024  70.443  1.00  0.00    -0.064 NA 
BRANCH  24  30
HETATM   30  C   UNL     1      -6.883   6.097  70.793  1.00  0.00    -0.062 A  
HETATM   31  C   UNL     1      -6.502   6.266  72.129  1.00  0.00    -0.054 A  
HETATM   32  C   UNL     1      -5.742   7.363  72.569  1.00  0.00    -0.037 A  
HETATM   33  C   UNL     1      -5.307   8.321  71.666  1.00  0.00    -0.034 A  
HETATM   34  C   UNL     1      -5.615   8.171  70.325  1.00  0.00    -0.022 A  
HETATM   35  C   UNL     1      -6.391   7.077  69.904  1.00  0.00    -0.038 A  
ENDBRANCH  24  30
ENDBRANCH  18  19
ENDBRANCH  17  18
ENDBRANCH   8  17
TORSDOF 4
ENDMDL
MODEL       96
REMARK 921   NORMALIZED FREE ENERGY PREDICTED BY IDOCK:   -5.35 KCAL/MOL
REMARK 922        TOTAL FREE ENERGY PREDICTED BY IDOCK:   -8.47 KCAL/MOL
REMARK 923 INTER-LIGAND FREE ENERGY PREDICTED BY IDOCK:   -7.44 KCAL/MOL
REMARK 924 INTRA-LIGAND FREE ENERGY PREDICTED BY IDOCK:   -1.03 KCAL/MOL
REMARK 927      BINDING AFFINITY PREDICTED BY RF-SCORE:    0.00 PKD
ROOT
HETATM    1  F   UNL     1     -13.293  14.408  72.375  1.00  0.00    -0.385 F  
HETATM    2  C   UNL     1     -12.484  14.193  71.330  1.00  0.00    -0.359 A  
HETATM    3  C   UNL     1     -11.568  15.167  70.958  1.00  0.00    -0.390 A  
HETATM    4  C   UNL     1     -10.764  14.965  69.833  1.00  0.00    -0.198 A  
HETATM    5  C   UNL     1     -10.861  13.780  69.076  1.00  0.00    -0.247 A  
HETATM    6  C   UNL     1      -9.998  13.613  67.814  1.00  0.00    -0.235 C  
HETATM    7  C   UNL     1     -11.734  12.779  69.538  1.00  0.00    -0.383 A  
HETATM    8  C   UNL     1      -8.639  12.936  68.163  1.00  0.00    -0.188 C  
HETATM    9  C   UNL     1     -12.569  12.998  70.634  1.00  0.00    -0.270 A  
HETATM   10  C   UNL     1     -10.679  13.120  66.523  1.00  0.00    -0.288 A  
HETATM   11  C   UNL     1     -12.050  12.822  66.423  1.00  0.00    -0.370 A  
HETATM   12  C   UNL     1     -10.487  12.591  64.135  1.00  0.00    -0.429 A  
HETATM   13  F   UNL     1     -12.377  11.824  62.951  1.00  0.00    -0.498 F  
HETATM   14  C   UNL     1     -12.615  12.361  65.230  1.00  0.00    -0.114 A  
HETATM   15  C   UNL     1     -11.829  12.250  64.095  1.00  0.00    -0.419 A  
HETATM   16  C   UNL     1      -9.919  13.024  65.338  1.00  0.00    -0.201 A  
ENDROOT
BRANCH   8  17
HETATM   17  C   UNL     1      -8.668  11.544  68.819  1.00  0.00    -0.048 C  
BRANCH  17  18
HETATM   18  C   UNL     1      -7.524  10.587  68.459  1.00  0.00    -0.091 C  
BRANCH  18  19
HETATM   19  N   UNL     1      -7.898   9.499  67.556  1.00  0.00    -0.102 NA 
HETATM   20  C   UNL     1      -7.225   7.367  68.748  1.00  0.00    -0.090 C  
HETATM   21  C   UNL     1      -7.018   8.327  67.571  1.00  0.00    -0.075 C  
HETATM   22  C   UNL     1      -8.704   7.025  68.961  1.00  0.00    -0.128 C  
HETATM   23  C   UNL     1      -9.614   8.258  68.912  1.00  0.00    -0.153 C  
HETATM   24  N   UNL     1      -8.967   6.194  70.183  1.00  0.00    -0.147 NA 
HETATM   25  O   UNL     1      -9.027   6.173  66.629  1.00  0.00    -0.122 OA 
HETATM   26  C   UNL     1      -9.313   9.125  67.689  1.00  0.00    -0.135 C  
HETATM   27  C   UNL     1      -9.726   5.000  69.836  1.00  0.00    -0.196 C  
HETATM   28  C   UNL     1      -9.136   6.050  67.839  1.00  0.00    -0.117 C  
HETATM   29  N   UNL     1      -9.707   4.954  68.423  1.00  0.00    -0.149 NA 
BRANCH  24  30
HETATM   30  C   UNL     1      -8.672   6.462  71.508  1.00  0.00    -0.134 A  
HETATM   31  C   UNL     1      -7.443   6.151  72.102  1.00  0.00    -0.095 A  
HETATM   32  C   UNL     1      -7.188   6.351  73.469  1.00  0.00    -0.082 A  
HETATM   33  C   UNL     1      -8.158   6.907  74.288  1.00  0.00    -0.144 A  
HETATM   34  C   UNL     1      -9.372   7.280  73.738  1.00  0.00    -0.296 A  
HETATM   35  C   UNL     1      -9.618   7.056  72.371  1.00  0.00    -0.163 A  
ENDBRANCH  24  30
ENDBRANCH  18  19
ENDBRANCH  17  18
ENDBRANCH   8  17
TORSDOF 4
ENDMDL
MODEL       97
REMARK 921   NORMALIZED FREE ENERGY PREDICTED BY IDOCK:   -5.32 KCAL/MOL
REMARK 922        TOTAL FREE ENERGY PREDICTED BY IDOCK:   -8.44 KCAL/MOL
REMARK 923 INTER-LIGAND FREE ENERGY PREDICTED BY IDOCK:   -6.44 KCAL/MOL
REMARK 924 INTRA-LIGAND FREE ENERGY PREDICTED BY IDOCK:   -2.00 KCAL/MOL
REMARK 927      BINDING AFFINITY PREDICTED BY RF-SCORE:    0.00 PKD
ROOT
HETATM    1  F   UNL     1      -5.146  12.500  67.559  1.00  0.00    -0.072 F  
HETATM    2  C   UNL     1      -6.392  12.098  67.841  1.00  0.00    -0.078 A  
HETATM    3  C   UNL     1      -7.418  13.030  67.906  1.00  0.00    -0.137 A  
HETATM    4  C   UNL     1      -8.706  12.616  68.254  1.00  0.00    -0.169 A  
HETATM    5  C   UNL     1      -8.982  11.262  68.531  1.00  0.00    -0.166 A  
HETATM    6  C   UNL     1     -10.399  10.850  68.963  1.00  0.00    -0.230 C  
HETATM    7  C   UNL     1      -7.938  10.334  68.365  1.00  0.00    -0.108 A  
HETATM    8  C   UNL     1     -11.264  10.473  67.722  1.00  0.00    -0.344 C  
HETATM    9  C   UNL     1      -6.642  10.753  68.061  1.00  0.00    -0.063 A  
HETATM   10  C   UNL     1     -10.552   9.929  70.188  1.00  0.00    -0.350 A  
HETATM   11  C   UNL     1      -9.470   9.448  70.948  1.00  0.00    -0.279 A  
HETATM   12  C   UNL     1     -12.043   8.769  71.754  1.00  0.00    -0.418 A  
HETATM   13  F   UNL     1     -11.129   7.469  73.496  1.00  0.00    -0.420 F  
HETATM   14  C   UNL     1      -9.663   8.600  72.043  1.00  0.00    -0.391 A  
HETATM   15  C   UNL     1     -10.948   8.268  72.438  1.00  0.00    -0.368 A  
HETATM   16  C   UNL     1     -11.846   9.594  70.641  1.00  0.00    -0.331 A  
ENDROOT
BRANCH   8  17
HETATM   17  C   UNL     1     -10.772   9.333  66.812  1.00  0.00    -0.120 C  
BRANCH  17  18
HETATM   18  C   UNL     1     -10.590   7.957  67.467  1.00  0.00    -0.242 C  
BRANCH  18  19
HETATM   19  N   UNL     1      -9.824   6.998  66.672  1.00  0.00    -0.178 NA 
HETATM   20  C   UNL     1      -7.973   6.180  68.195  1.00  0.00    -0.107 C  
HETATM   21  C   UNL     1      -8.383   6.954  66.938  1.00  0.00    -0.114 C  
HETATM   22  C   UNL     1      -8.652   4.808  68.277  1.00  0.00    -0.101 C  
HETATM   23  C   UNL     1     -10.152   4.866  67.966  1.00  0.00    -0.141 C  
HETATM   24  N   UNL     1      -8.382   4.070  69.556  1.00  0.00    -0.057 NA 
HETATM   25  O   UNL     1      -7.792   4.051  66.051  1.00  0.00    -0.089 OA 
HETATM   26  C   UNL     1     -10.426   5.657  66.686  1.00  0.00    -0.279 C  
HETATM   27  C   UNL     1      -7.867   2.736  69.277  1.00  0.00    -0.045 C  
HETATM   28  C   UNL     1      -7.972   3.875  67.245  1.00  0.00    -0.091 C  
HETATM   29  N   UNL     1      -7.577   2.738  67.894  1.00  0.00    -0.056 NA 
BRANCH  24  30
HETATM   30  C   UNL     1      -8.637   4.452  70.861  1.00  0.00    -0.092 A  
HETATM   31  C   UNL     1      -7.663   4.993  71.709  1.00  0.00    -0.107 A  
HETATM   32  C   UNL     1      -7.913   5.296  73.057  1.00  0.00    -0.102 A  
HETATM   33  C   UNL     1      -9.174   5.096  73.598  1.00  0.00    -0.129 A  
HETATM   34  C   UNL     1     -10.186   4.612  72.786  1.00  0.00    -0.232 A  
HETATM   35  C   UNL     1      -9.913   4.296  71.443  1.00  0.00    -0.238 A  
ENDBRANCH  24  30
ENDBRANCH  18  19
ENDBRANCH  17  18
ENDBRANCH   8  17
TORSDOF 4
ENDMDL
MODEL       98
REMARK 921   NORMALIZED FREE ENERGY PREDICTED BY IDOCK:   -5.25 KCAL/MOL
REMARK 922        TOTAL FREE ENERGY PREDICTED BY IDOCK:   -8.35 KCAL/MOL
REMARK 923 INTER-LIGAND FREE ENERGY PREDICTED BY IDOCK:   -7.40 KCAL/MOL
REMARK 924 INTRA-LIGAND FREE ENERGY PREDICTED BY IDOCK:   -0.95 KCAL/MOL
REMARK 927      BINDING AFFINITY PREDICTED BY RF-SCORE:    0.00 PKD
ROOT
HETATM    1  F   UNL     1      -8.326   8.349  64.181  1.00  0.00    -0.161 F  
HETATM    2  C   UNL     1      -8.168   8.020  65.469  1.00  0.00    -0.138 A  
HETATM    3  C   UNL     1      -6.912   8.103  66.052  1.00  0.00    -0.058 A  
HETATM    4  C   UNL     1      -6.739   7.706  67.380  1.00  0.00    -0.068 A  
HETATM    5  C   UNL     1      -7.825   7.232  68.142  1.00  0.00    -0.118 A  
HETATM    6  C   UNL     1      -7.588   6.754  69.585  1.00  0.00    -0.101 C  
HETATM    7  C   UNL     1      -9.099   7.249  67.546  1.00  0.00    -0.125 A  
HETATM    8  C   UNL     1      -7.771   7.930  70.591  1.00  0.00    -0.090 C  
HETATM    9  C   UNL     1      -9.264   7.602  66.206  1.00  0.00    -0.204 A  
HETATM   10  C   UNL     1      -8.195   5.405  70.017  1.00  0.00    -0.095 A  
HETATM   11  C   UNL     1      -8.945   4.573  69.166  1.00  0.00    -0.145 A  
HETATM   12  C   UNL     1      -8.450   3.694  71.757  1.00  0.00    -0.100 A  
HETATM   13  F   UNL     1      -9.743   1.770  71.325  1.00  0.00    -0.180 F  
HETATM   14  C   UNL     1      -9.488   3.365  69.614  1.00  0.00    -0.223 A  
HETATM   15  C   UNL     1      -9.235   2.934  70.906  1.00  0.00    -0.136 A  
HETATM   16  C   UNL     1      -7.933   4.917  71.315  1.00  0.00    -0.101 A  
ENDROOT
BRANCH   8  17
HETATM   17  C   UNL     1      -9.128   8.654  70.623  1.00  0.00    -0.201 C  
BRANCH  17  18
HETATM   18  C   UNL     1      -9.149  10.103  70.118  1.00  0.00     0.127 C  
BRANCH  18  19
HETATM   19  N   UNL     1      -9.660  10.271  68.759  1.00  0.00    -0.167 NA 
HETATM   20  C   UNL     1     -11.869  11.486  69.009  1.00  0.00    -0.408 C  
HETATM   21  C   UNL     1     -11.117  10.211  68.612  1.00  0.00    -0.205 C  
HETATM   22  C   UNL     1     -11.243  12.742  68.391  1.00  0.00    -0.278 C  
HETATM   23  C   UNL     1      -9.717  12.775  68.526  1.00  0.00    -0.129 C  
HETATM   24  N   UNL     1     -11.867  14.026  68.858  1.00  0.00    -0.336 NA 
HETATM   25  O   UNL     1     -11.438  11.900  66.042  1.00  0.00    -0.341 OA 
HETATM   26  C   UNL     1      -9.089  11.450  68.091  1.00  0.00    -0.174 C  
HETATM   27  C   UNL     1     -12.284  14.834  67.721  1.00  0.00     0.024 C  
HETATM   28  C   UNL     1     -11.605  12.765  66.886  1.00  0.00    -0.366 C  
HETATM   29  N   UNL     1     -12.170  13.978  66.602  1.00  0.00    -0.448 NA 
BRANCH  24  30
HETATM   30  C   UNL     1     -11.992  14.525  70.143  1.00  0.00    -0.315 A  
HETATM   31  C   UNL     1     -11.459  15.755  70.545  1.00  0.00    -0.401 A  
HETATM   32  C   UNL     1     -11.519  16.210  71.873  1.00  0.00    -0.360 A  
HETATM   33  C   UNL     1     -12.151  15.451  72.846  1.00  0.00    -0.545 A  
HETATM   34  C   UNL     1     -12.739  14.251  72.487  1.00  0.00    -0.380 A  
HETATM   35  C   UNL     1     -12.654  13.801  71.157  1.00  0.00    -0.452 A  
ENDBRANCH  24  30
ENDBRANCH  18  19
ENDBRANCH  17  18
ENDBRANCH   8  17
TORSDOF 4
ENDMDL
MODEL       99
REMARK 921   NORMALIZED FREE ENERGY PREDICTED BY IDOCK:   -5.20 KCAL/MOL
REMARK 922        TOTAL FREE ENERGY PREDICTED BY IDOCK:   -8.29 KCAL/MOL
REMARK 923 INTER-LIGAND FREE ENERGY PREDICTED BY IDOCK:   -6.00 KCAL/MOL
REMARK 924 INTRA-LIGAND FREE ENERGY PREDICTED BY IDOCK:   -2.30 KCAL/MOL
REMARK 927      BINDING AFFINITY PREDICTED BY RF-SCORE:    0.00 PKD
ROOT
HETATM    1  F   UNL     1      -7.072   5.182  65.636  1.00  0.00    -0.061 F  
HETATM    2  C   UNL     1      -7.566   6.186  66.371  1.00  0.00    -0.094 A  
HETATM    3  C   UNL     1      -8.305   5.906  67.512  1.00  0.00    -0.105 A  
HETATM    4  C   UNL     1      -8.867   6.954  68.246  1.00  0.00    -0.122 A  
HETATM    5  C   UNL     1      -8.685   8.294  67.851  1.00  0.00    -0.135 A  
HETATM    6  C   UNL     1      -9.361   9.420  68.652  1.00  0.00    -0.142 C  
HETATM    7  C   UNL     1      -7.853   8.543  66.744  1.00  0.00    -0.091 A  
HETATM    8  C   UNL     1      -8.420   9.929  69.785  1.00  0.00    -0.206 C  
HETATM    9  C   UNL     1      -7.330   7.496  65.985  1.00  0.00    -0.081 A  
HETATM   10  C   UNL     1     -10.125  10.510  67.878  1.00  0.00    -0.204 A  
HETATM   11  C   UNL     1     -10.256  10.535  66.478  1.00  0.00    -0.288 A  
HETATM   12  C   UNL     1     -11.528  12.523  67.947  1.00  0.00    -0.369 A  
HETATM   13  F   UNL     1     -12.254  13.512  65.934  1.00  0.00    -0.389 F  
HETATM   14  C   UNL     1     -10.948  11.558  65.823  1.00  0.00    -0.305 A  
HETATM   15  C   UNL     1     -11.579  12.544  66.563  1.00  0.00    -0.388 A  
HETATM   16  C   UNL     1     -10.810  11.514  68.598  1.00  0.00    -0.253 A  
ENDROOT
BRANCH   8  17
HETATM   17  C   UNL     1      -7.042  10.487  69.390  1.00  0.00    -0.110 C  
BRANCH  17  18
HETATM   18  C   UNL     1      -6.674  11.872  69.940  1.00  0.00     0.123 C  
BRANCH  18  19
HETATM   19  N   UNL     1      -6.032  12.763  68.974  1.00  0.00    -0.078 NA 
HETATM   20  C   UNL     1      -7.922  13.777  67.626  1.00  0.00    -0.179 C  
HETATM   21  C   UNL     1      -6.689  12.868  67.668  1.00  0.00    -0.153 C  
HETATM   22  C   UNL     1      -7.664  15.133  68.292  1.00  0.00    -0.117 C  
HETATM   23  C   UNL     1      -6.950  15.008  69.643  1.00  0.00    -0.191 C  
HETATM   24  N   UNL     1      -8.883  16.004  68.392  1.00  0.00    -0.182 NA 
HETATM   25  O   UNL     1      -5.706  15.678  66.832  1.00  0.00    -0.212 OA 
HETATM   26  C   UNL     1      -5.735  14.084  69.547  1.00  0.00    -0.092 C  
HETATM   27  C   UNL     1      -8.623  17.315  67.811  1.00  0.00    -0.225 C  
HETATM   28  C   UNL     1      -6.775  15.971  67.341  1.00  0.00    -0.190 C  
HETATM   29  N   UNL     1      -7.386  17.178  67.140  1.00  0.00    -0.156 NA 
BRANCH  24  30
HETATM   30  C   UNL     1     -10.095  15.752  69.009  1.00  0.00    -0.225 A  
HETATM   31  C   UNL     1     -11.333  16.017  68.411  1.00  0.00    -0.355 A  
HETATM   32  C   UNL     1     -12.554  15.836  69.082  1.00  0.00     0.424 A  
HETATM   33  C   UNL     1     -12.575  15.345  70.378  1.00  0.00    -0.433 A  
HETATM   34  C   UNL     1     -11.380  15.018  70.994  1.00  0.00    -0.316 A  
HETATM   35  C   UNL     1     -10.165  15.223  70.316  1.00  0.00    -0.098 A  
ENDBRANCH  24  30
ENDBRANCH  18  19
ENDBRANCH  17  18
ENDBRANCH   8  17
TORSDOF 4
ENDMDL
MODEL      100
REMARK 921   NORMALIZED FREE ENERGY PREDICTED BY IDOCK:   -5.20 KCAL/MOL
REMARK 922        TOTAL FREE ENERGY PREDICTED BY IDOCK:   -8.29 KCAL/MOL
REMARK 923 INTER-LIGAND FREE ENERGY PREDICTED BY IDOCK:   -6.76 KCAL/MOL
REMARK 924 INTRA-LIGAND FREE ENERGY PREDICTED BY IDOCK:   -1.53 KCAL/MOL
REMARK 927      BINDING AFFINITY PREDICTED BY RF-SCORE:    0.00 PKD
ROOT
HETATM    1  F   UNL     1     -14.300   6.811  72.040  1.00  0.00    -0.478 F  
HETATM    2  C   UNL     1     -13.175   7.415  71.638  1.00  0.00    -0.362 A  
HETATM    3  C   UNL     1     -12.834   8.654  72.161  1.00  0.00    -0.442 A  
HETATM    4  C   UNL     1     -11.688   9.307  71.699  1.00  0.00    -0.462 A  
HETATM    5  C   UNL     1     -10.866   8.721  70.717  1.00  0.00    -0.282 A  
HETATM    6  C   UNL     1      -9.642   9.492  70.193  1.00  0.00    -0.290 C  
HETATM    7  C   UNL     1     -11.194   7.425  70.278  1.00  0.00    -0.268 A  
HETATM    8  C   UNL     1      -8.377   9.154  71.039  1.00  0.00    -0.205 C  
HETATM    9  C   UNL     1     -12.361   6.792  70.706  1.00  0.00    -0.289 A  
HETATM   10  C   UNL     1      -9.426   9.572  68.670  1.00  0.00    -0.143 A  
HETATM   11  C   UNL     1     -10.289   8.993  67.722  1.00  0.00    -0.304 A  
HETATM   12  C   UNL     1      -8.108  10.447  66.794  1.00  0.00    -0.120 A  
HETATM   13  F   UNL     1      -8.720   9.906  64.582  1.00  0.00    -0.147 F  
HETATM   14  C   UNL     1     -10.037   9.082  66.350  1.00  0.00    -0.351 A  
HETATM   15  C   UNL     1      -8.949   9.809  65.897  1.00  0.00    -0.156 A  
HETATM   16  C   UNL     1      -8.347  10.331  68.168  1.00  0.00    -0.118 A  
ENDROOT
BRANCH   8  17
HETATM   17  C   UNL     1      -7.927   7.684  71.117  1.00  0.00    -0.091 C  
BRANCH  17  18
HETATM   18  C   UNL     1      -6.441   7.403  70.854  1.00  0.00    -0.039 C  
BRANCH  18  19
HETATM   19  N   UNL     1      -6.170   6.613  69.655  1.00  0.00    -0.039 NA 
HETATM   20  C   UNL     1      -6.613   4.207  70.314  1.00  0.00    -0.032 C  
HETATM   21  C   UNL     1      -5.607   5.279  69.883  1.00  0.00    -0.012 C  
HETATM   22  C   UNL     1      -7.864   4.199  69.427  1.00  0.00    -0.056 C  
HETATM   23  C   UNL     1      -8.423   5.603  69.173  1.00  0.00    -0.102 C  
HETATM   24  N   UNL     1      -8.934   3.254  69.892  1.00  0.00    -0.094 NA 
HETATM   25  O   UNL     1      -6.575   3.871  67.306  1.00  0.00    -0.044 OA 
HETATM   26  C   UNL     1      -7.322   6.573  68.741  1.00  0.00    -0.087 C  
HETATM   27  C   UNL     1      -9.329   2.358  68.814  1.00  0.00    -0.163 C  
HETATM   28  C   UNL     1      -7.481   3.568  68.066  1.00  0.00    -0.061 C  
HETATM   29  N   UNL     1      -8.362   2.556  67.802  1.00  0.00    -0.074 NA 
BRANCH  24  30
HETATM   30  C   UNL     1      -9.599   3.209  71.105  1.00  0.00    -0.160 A  
HETATM   31  C   UNL     1      -9.949   4.351  71.834  1.00  0.00    -0.258 A  
HETATM   32  C   UNL     1     -10.546   4.288  73.104  1.00  0.00    -0.270 A  
HETATM   33  C   UNL     1     -10.845   3.061  73.677  1.00  0.00    -0.310 A  
HETATM   34  C   UNL     1     -10.565   1.903  72.973  1.00  0.00    -0.235 A  
HETATM   35  C   UNL     1      -9.951   1.983  71.711  1.00  0.00    -0.215 A  
ENDBRANCH  24  30
ENDBRANCH  18  19
ENDBRANCH  17  18
ENDBRANCH   8  17
TORSDOF 4
ENDMDL
MODEL      101
REMARK 921   NORMALIZED FREE ENERGY PREDICTED BY IDOCK:   -5.07 KCAL/MOL
REMARK 922        TOTAL FREE ENERGY PREDICTED BY IDOCK:   -8.13 KCAL/MOL
REMARK 923 INTER-LIGAND FREE ENERGY PREDICTED BY IDOCK:   -6.70 KCAL/MOL
REMARK 924 INTRA-LIGAND FREE ENERGY PREDICTED BY IDOCK:   -1.43 KCAL/MOL
REMARK 927      BINDING AFFINITY PREDICTED BY RF-SCORE:    0.00 PKD
ROOT
HETATM    1  F   UNL     1      -5.192  13.143  68.625  1.00  0.00    -0.062 F  
HETATM    2  C   UNL     1      -5.996  12.158  68.205  1.00  0.00    -0.055 A  
HETATM    3  C   UNL     1      -6.813  11.500  69.114  1.00  0.00    -0.112 A  
HETATM    4  C   UNL     1      -7.609  10.436  68.684  1.00  0.00    -0.092 A  
HETATM    5  C   UNL     1      -7.604  10.026  67.335  1.00  0.00    -0.091 A  
HETATM    6  C   UNL     1      -8.453   8.817  66.907  1.00  0.00    -0.112 C  
HETATM    7  C   UNL     1      -6.834  10.775  66.427  1.00  0.00    -0.135 A  
HETATM    8  C   UNL     1      -9.874   9.274  66.461  1.00  0.00    -0.331 C  
HETATM    9  C   UNL     1      -6.005  11.809  66.864  1.00  0.00    -0.140 A  
HETATM   10  C   UNL     1      -7.794   7.735  66.031  1.00  0.00    -0.100 A  
HETATM   11  C   UNL     1      -6.453   7.777  65.606  1.00  0.00    -0.042 A  
HETATM   12  C   UNL     1      -7.984   5.567  64.898  1.00  0.00    -0.115 A  
HETATM   13  F   UNL     1      -6.148   4.713  63.689  1.00  0.00    -0.016 F  
HETATM   14  C   UNL     1      -5.909   6.775  64.797  1.00  0.00    -0.035 A  
HETATM   15  C   UNL     1      -6.678   5.678  64.450  1.00  0.00    -0.046 A  
HETATM   16  C   UNL     1      -8.535   6.585  65.683  1.00  0.00    -0.146 A  
ENDROOT
BRANCH   8  17
HETATM   17  C   UNL     1      -9.984  10.277  65.299  1.00  0.00    -0.387 C  
BRANCH  17  18
HETATM   18  C   UNL     1     -10.128  11.758  65.676  1.00  0.00    -0.243 C  
BRANCH  18  19
HETATM   19  N   UNL     1     -11.071  12.025  66.760  1.00  0.00    -0.288 NA 
HETATM   20  C   UNL     1      -9.791  13.416  68.447  1.00  0.00    -0.216 C  
HETATM   21  C   UNL     1     -10.494  12.098  68.106  1.00  0.00    -0.211 C  
HETATM   22  C   UNL     1     -10.643  14.636  68.080  1.00  0.00    -0.240 C  
HETATM   23  C   UNL     1     -11.264  14.532  66.682  1.00  0.00    -0.346 C  
HETATM   24  N   UNL     1      -9.941  15.949  68.274  1.00  0.00    -0.220 NA 
HETATM   25  O   UNL     1     -12.599  13.911  69.463  1.00  0.00    -0.210 OA 
HETATM   26  C   UNL     1     -11.940  13.176  66.473  1.00  0.00    -0.398 C  
HETATM   27  C   UNL     1     -10.739  16.837  69.108  1.00  0.00    -0.329 C  
HETATM   28  C   UNL     1     -11.785  14.753  69.119  1.00  0.00    -0.313 C  
HETATM   29  N   UNL     1     -11.768  16.020  69.631  1.00  0.00    -0.311 NA 
BRANCH  24  30
HETATM   30  C   UNL     1      -8.759  16.405  67.716  1.00  0.00    -0.180 A  
HETATM   31  C   UNL     1      -8.709  17.368  66.701  1.00  0.00    -0.286 A  
HETATM   32  C   UNL     1      -7.509  17.758  66.083  1.00  0.00    -0.322 A  
HETATM   33  C   UNL     1      -6.302  17.212  66.491  1.00  0.00    -0.253 A  
HETATM   34  C   UNL     1      -6.294  16.294  67.527  1.00  0.00    -0.189 A  
HETATM   35  C   UNL     1      -7.505  15.900  68.122  1.00  0.00    -0.132 A  
ENDBRANCH  24  30
ENDBRANCH  18  19
ENDBRANCH  17  18
ENDBRANCH   8  17
TORSDOF 4
ENDMDL
MODEL      102
REMARK 921   NORMALIZED FREE ENERGY PREDICTED BY IDOCK:   -5.04 KCAL/MOL
REMARK 922        TOTAL FREE ENERGY PREDICTED BY IDOCK:   -8.09 KCAL/MOL
REMARK 923 INTER-LIGAND FREE ENERGY PREDICTED BY IDOCK:   -6.30 KCAL/MOL
REMARK 924 INTRA-LIGAND FREE ENERGY PREDICTED BY IDOCK:   -1.80 KCAL/MOL
REMARK 927      BINDING AFFINITY PREDICTED BY RF-SCORE:    0.00 PKD
ROOT
HETATM    1  F   UNL     1      -9.127   5.118  64.944  1.00  0.00    -0.159 F  
HETATM    2  C   UNL     1      -9.406   6.260  65.584  1.00  0.00     0.191 A  
HETATM    3  C   UNL     1     -10.394   6.279  66.558  1.00  0.00    -0.165 A  
HETATM    4  C   UNL     1     -10.722   7.484  67.186  1.00  0.00    -0.379 A  
HETATM    5  C   UNL     1     -10.056   8.680  66.853  1.00  0.00    -0.355 A  
HETATM    6  C   UNL     1     -10.478   9.997  67.525  1.00  0.00    -0.307 C  
HETATM    7  C   UNL     1      -8.998   8.603  65.929  1.00  0.00    -0.245 A  
HETATM    8  C   UNL     1      -9.653  10.239  68.825  1.00  0.00    -0.175 C  
HETATM    9  C   UNL     1      -8.701   7.410  65.269  1.00  0.00     0.057 A  
HETATM   10  C   UNL     1     -10.701  11.234  66.635  1.00  0.00    -0.321 A  
HETATM   11  C   UNL     1     -10.554  11.232  65.236  1.00  0.00    -0.323 A  
HETATM   12  C   UNL     1     -11.383  13.585  66.463  1.00  0.00    -0.340 A  
HETATM   13  F   UNL     1     -11.371  14.656  64.362  1.00  0.00    -0.364 F  
HETATM   14  C   UNL     1     -10.752  12.388  64.476  1.00  0.00    -0.355 A  
HETATM   15  C   UNL     1     -11.166  13.555  65.095  1.00  0.00    -0.309 A  
HETATM   16  C   UNL     1     -11.154  12.434  67.225  1.00  0.00    -0.329 A  
ENDROOT
BRANCH   8  17
HETATM   17  C   UNL     1      -8.121  10.319  68.709  1.00  0.00    -0.120 C  
BRANCH  17  18
HETATM   18  C   UNL     1      -7.326  10.265  70.020  1.00  0.00    -0.149 C  
BRANCH  18  19
HETATM   19  N   UNL     1      -6.340   9.188  70.095  1.00  0.00    -0.041 NA 
HETATM   20  C   UNL     1      -7.226   7.576  71.837  1.00  0.00    -0.064 C  
HETATM   21  C   UNL     1      -6.152   8.585  71.418  1.00  0.00    -0.045 C  
HETATM   22  C   UNL     1      -7.519   6.553  70.734  1.00  0.00    -0.087 C  
HETATM   23  C   UNL     1      -7.683   7.195  69.352  1.00  0.00    -0.107 C  
HETATM   24  N   UNL     1      -8.658   5.626  71.050  1.00  0.00    -0.125 NA 
HETATM   25  O   UNL     1      -5.141   5.790  70.562  1.00  0.00    -0.008 OA 
HETATM   26  C   UNL     1      -6.545   8.171  69.052  1.00  0.00    -0.048 C  
HETATM   27  C   UNL     1      -8.242   4.238  70.907  1.00  0.00    -0.079 C  
HETATM   28  C   UNL     1      -6.334   5.558  70.677  1.00  0.00    -0.031 C  
HETATM   29  N   UNL     1      -6.836   4.290  70.768  1.00  0.00    -0.035 NA 
BRANCH  24  30
HETATM   30  C   UNL     1      -9.976   5.924  71.346  1.00  0.00    -0.185 A  
HETATM   31  C   UNL     1     -10.788   6.719  70.528  1.00  0.00    -0.301 A  
HETATM   32  C   UNL     1     -12.097   7.085  70.882  1.00  0.00    -0.403 A  
HETATM   33  C   UNL     1     -12.654   6.632  72.069  1.00  0.00    -0.251 A  
HETATM   34  C   UNL     1     -11.910   5.800  72.887  1.00  0.00    -0.063 A  
HETATM   35  C   UNL     1     -10.594   5.459  72.527  1.00  0.00    -0.277 A  
ENDBRANCH  24  30
ENDBRANCH  18  19
ENDBRANCH  17  18
ENDBRANCH   8  17
TORSDOF 4
ENDMDL
MODEL      103
REMARK 921   NORMALIZED FREE ENERGY PREDICTED BY IDOCK:   -5.00 KCAL/MOL
REMARK 922        TOTAL FREE ENERGY PREDICTED BY IDOCK:   -8.05 KCAL/MOL
REMARK 923 INTER-LIGAND FREE ENERGY PREDICTED BY IDOCK:   -6.98 KCAL/MOL
REMARK 924 INTRA-LIGAND FREE ENERGY PREDICTED BY IDOCK:   -1.07 KCAL/MOL
REMARK 927      BINDING AFFINITY PREDICTED BY RF-SCORE:    0.00 PKD
ROOT
HETATM    1  F   UNL     1      -9.690   3.195  64.965  1.00  0.00    -0.158 F  
HETATM    2  C   UNL     1      -9.255   3.780  66.087  1.00  0.00    -0.164 A  
HETATM    3  C   UNL     1      -7.940   3.600  66.493  1.00  0.00    -0.089 A  
HETATM    4  C   UNL     1      -7.503   4.166  67.693  1.00  0.00    -0.069 A  
HETATM    5  C   UNL     1      -8.376   4.929  68.494  1.00  0.00    -0.083 A  
HETATM    6  C   UNL     1      -7.876   5.493  69.835  1.00  0.00    -0.082 C  
HETATM    7  C   UNL     1      -9.673   5.167  68.005  1.00  0.00    -0.188 A  
HETATM    8  C   UNL     1      -7.275   6.918  69.642  1.00  0.00    -0.080 C  
HETATM    9  C   UNL     1     -10.123   4.565  66.829  1.00  0.00    -0.220 A  
HETATM   10  C   UNL     1      -8.760   5.305  71.082  1.00  0.00    -0.136 A  
HETATM   11  C   UNL     1      -9.998   4.635  71.074  1.00  0.00    -0.270 A  
HETATM   12  C   UNL     1      -9.046   5.603  73.501  1.00  0.00    -0.131 A  
HETATM   13  F   UNL     1     -11.022   4.851  74.547  1.00  0.00    -0.286 F  
HETATM   14  C   UNL     1     -10.769   4.506  72.233  1.00  0.00    -0.112 A  
HETATM   15  C   UNL     1     -10.287   4.991  73.437  1.00  0.00    -0.202 A  
HETATM   16  C   UNL     1      -8.290   5.756  72.334  1.00  0.00    -0.118 A  
ENDROOT
BRANCH   8  17
HETATM   17  C   UNL     1      -8.179   8.015  69.053  1.00  0.00    -0.128 C  
BRANCH  17  18
HETATM   18  C   UNL     1      -7.530   8.984  68.056  1.00  0.00    -0.084 C  
BRANCH  18  19
HETATM   19  N   UNL     1      -7.608   8.566  66.657  1.00  0.00    -0.082 NA 
HETATM   20  C   UNL     1      -9.860   9.381  65.831  1.00  0.00    -0.362 C  
HETATM   21  C   UNL     1      -8.943   8.202  66.173  1.00  0.00    -0.178 C  
HETATM   22  C   UNL     1      -9.156  10.425  64.957  1.00  0.00    -0.203 C  
HETATM   23  C   UNL     1      -7.750  10.773  65.458  1.00  0.00    -0.020 C  
HETATM   24  N   UNL     1      -9.973  11.660  64.706  1.00  0.00    -0.249 NA 
HETATM   25  O   UNL     1      -8.566   8.785  63.160  1.00  0.00    -0.170 OA 
HETATM   26  C   UNL     1      -6.936   9.512  65.754  1.00  0.00    -0.095 C  
HETATM   27  C   UNL     1     -10.071  11.926  63.277  1.00  0.00    -0.396 C  
HETATM   28  C   UNL     1      -9.039   9.849  63.524  1.00  0.00    -0.256 C  
HETATM   29  N   UNL     1      -9.565  10.762  62.653  1.00  0.00    -0.284 NA 
BRANCH  24  30
HETATM   30  C   UNL     1     -10.518  12.551  65.613  1.00  0.00    -0.273 A  
HETATM   31  C   UNL     1     -11.497  12.196  66.548  1.00  0.00    -0.430 A  
HETATM   32  C   UNL     1     -12.103  13.130  67.405  1.00  0.00    -0.316 A  
HETATM   33  C   UNL     1     -11.718  14.461  67.374  1.00  0.00    -0.424 A  
HETATM   34  C   UNL     1     -10.717  14.853  66.502  1.00  0.00    -0.309 A  
HETATM   35  C   UNL     1     -10.134  13.909  65.638  1.00  0.00    -0.332 A  
ENDBRANCH  24  30
ENDBRANCH  18  19
ENDBRANCH  17  18
ENDBRANCH   8  17
TORSDOF 4
ENDMDL
MODEL      104
REMARK 921   NORMALIZED FREE ENERGY PREDICTED BY IDOCK:   -4.99 KCAL/MOL
REMARK 922        TOTAL FREE ENERGY PREDICTED BY IDOCK:   -8.04 KCAL/MOL
REMARK 923 INTER-LIGAND FREE ENERGY PREDICTED BY IDOCK:   -6.96 KCAL/MOL
REMARK 924 INTRA-LIGAND FREE ENERGY PREDICTED BY IDOCK:   -1.08 KCAL/MOL
REMARK 927      BINDING AFFINITY PREDICTED BY RF-SCORE:    0.00 PKD
ROOT
HETATM    1  F   UNL     1     -12.305   5.610  72.614  1.00  0.00    -0.317 F  
HETATM    2  C   UNL     1     -11.549   6.511  71.974  1.00  0.00    -0.311 A  
HETATM    3  C   UNL     1     -10.508   7.138  72.645  1.00  0.00    -0.269 A  
HETATM    4  C   UNL     1      -9.757   8.119  71.992  1.00  0.00    -0.292 A  
HETATM    5  C   UNL     1     -10.034   8.474  70.657  1.00  0.00    -0.222 A  
HETATM    6  C   UNL     1      -9.221   9.596  69.987  1.00  0.00    -0.275 C  
HETATM    7  C   UNL     1     -11.035   7.754  69.982  1.00  0.00    -0.218 A  
HETATM    8  C   UNL     1      -7.969   9.011  69.267  1.00  0.00    -0.096 C  
HETATM    9  C   UNL     1     -11.815   6.806  70.647  1.00  0.00    -0.442 A  
HETATM   10  C   UNL     1      -9.983  10.691  69.218  1.00  0.00    -0.215 A  
HETATM   11  C   UNL     1     -11.384  10.738  69.100  1.00  0.00    -0.348 A  
HETATM   12  C   UNL     1      -9.902  12.792  67.953  1.00  0.00    -0.223 A  
HETATM   13  F   UNL     1     -11.899  13.740  67.130  1.00  0.00    -0.344 F  
HETATM   14  C   UNL     1     -12.026  11.747  68.376  1.00  0.00    -0.250 A  
HETATM   15  C   UNL     1     -11.280  12.767  67.809  1.00  0.00    -0.275 A  
HETATM   16  C   UNL     1      -9.261  11.765  68.653  1.00  0.00    -0.088 A  
ENDROOT
BRANCH   8  17
HETATM   17  C   UNL     1      -8.189   7.958  68.166  1.00  0.00    -0.123 C  
BRANCH  17  18
HETATM   18  C   UNL     1      -7.802   6.513  68.507  1.00  0.00    -0.106 C  
BRANCH  18  19
HETATM   19  N   UNL     1      -6.977   5.846  67.501  1.00  0.00    -0.067 NA 
HETATM   20  C   UNL     1      -8.196   6.167  65.303  1.00  0.00    -0.142 C  
HETATM   21  C   UNL     1      -7.705   5.213  66.396  1.00  0.00    -0.092 C  
HETATM   22  C   UNL     1      -7.097   7.130  64.840  1.00  0.00    -0.064 C  
HETATM   23  C   UNL     1      -6.326   7.761  66.005  1.00  0.00    -0.042 C  
HETATM   24  N   UNL     1      -7.570   8.169  63.864  1.00  0.00    -0.119 NA 
HETATM   25  O   UNL     1      -5.505   5.299  64.225  1.00  0.00    -0.015 OA 
HETATM   26  C   UNL     1      -5.885   6.704  67.018  1.00  0.00    -0.014 C  
HETATM   27  C   UNL     1      -6.741   8.160  62.666  1.00  0.00    -0.086 C  
HETATM   28  C   UNL     1      -6.100   6.332  63.964  1.00  0.00    -0.022 C  
HETATM   29  N   UNL     1      -5.955   6.990  62.775  1.00  0.00    -0.040 NA 
BRANCH  24  30
HETATM   30  C   UNL     1      -8.565   9.120  64.008  1.00  0.00    -0.166 A  
HETATM   31  C   UNL     1      -8.945   9.996  62.984  1.00  0.00    -0.272 A  
HETATM   32  C   UNL     1      -9.897  11.013  63.170  1.00  0.00    -0.398 A  
HETATM   33  C   UNL     1     -10.530  11.165  64.394  1.00  0.00    -0.418 A  
HETATM   34  C   UNL     1     -10.226  10.290  65.422  1.00  0.00    -0.312 A  
HETATM   35  C   UNL     1      -9.258   9.289  65.226  1.00  0.00    -0.275 A  
ENDBRANCH  24  30
ENDBRANCH  18  19
ENDBRANCH  17  18
ENDBRANCH   8  17
TORSDOF 4
ENDMDL
MODEL      105
REMARK 921   NORMALIZED FREE ENERGY PREDICTED BY IDOCK:   -4.98 KCAL/MOL
REMARK 922        TOTAL FREE ENERGY PREDICTED BY IDOCK:   -8.02 KCAL/MOL
REMARK 923 INTER-LIGAND FREE ENERGY PREDICTED BY IDOCK:   -6.58 KCAL/MOL
REMARK 924 INTRA-LIGAND FREE ENERGY PREDICTED BY IDOCK:   -1.44 KCAL/MOL
REMARK 927      BINDING AFFINITY PREDICTED BY RF-SCORE:    0.00 PKD
ROOT
HETATM    1  F   UNL     1     -13.521  15.774  70.705  1.00  0.00    -0.535 F  
HETATM    2  C   UNL     1     -12.736  14.882  70.087  1.00  0.00    -0.219 A  
HETATM    3  C   UNL     1     -12.751  14.796  68.702  1.00  0.00     0.652 A  
HETATM    4  C   UNL     1     -11.974  13.827  68.062  1.00  0.00    -0.390 A  
HETATM    5  C   UNL     1     -11.165  12.942  68.802  1.00  0.00    -0.323 A  
HETATM    6  C   UNL     1     -10.362  11.854  68.068  1.00  0.00    -0.209 C  
HETATM    7  C   UNL     1     -11.105  13.121  70.196  1.00  0.00     0.518 A  
HETATM    8  C   UNL     1      -8.943  12.377  67.692  1.00  0.00    -0.183 C  
HETATM    9  C   UNL     1     -11.915  14.058  70.839  1.00  0.00    -0.343 A  
HETATM   10  C   UNL     1     -10.421  10.413  68.609  1.00  0.00    -0.216 A  
HETATM   11  C   UNL     1     -11.176  10.025  69.730  1.00  0.00    -0.307 A  
HETATM   12  C   UNL     1      -9.774   8.060  68.351  1.00  0.00    -0.168 A  
HETATM   13  F   UNL     1     -10.502   6.466  69.929  1.00  0.00    -0.199 F  
HETATM   14  C   UNL     1     -11.182   8.704  70.190  1.00  0.00    -0.152 A  
HETATM   15  C   UNL     1     -10.481   7.732  69.496  1.00  0.00    -0.225 A  
HETATM   16  C   UNL     1      -9.747   9.388  67.911  1.00  0.00    -0.177 A  
ENDROOT
BRANCH   8  17
HETATM   17  C   UNL     1      -8.023  12.862  68.826  1.00  0.00     0.065 C  
BRANCH  17  18
HETATM   18  C   UNL     1      -6.697  13.511  68.409  1.00  0.00    -0.097 C  
BRANCH  18  19
HETATM   19  N   UNL     1      -6.614  14.949  68.657  1.00  0.00    -0.084 NA 
HETATM   20  C   UNL     1      -7.442  16.053  66.533  1.00  0.00    -0.028 C  
HETATM   21  C   UNL     1      -6.282  15.780  67.495  1.00  0.00    -0.143 C  
HETATM   22  C   UNL     1      -8.708  16.507  67.268  1.00  0.00    -0.188 C  
HETATM   23  C   UNL     1      -9.025  15.649  68.497  1.00  0.00    -0.192 C  
HETATM   24  N   UNL     1      -9.908  16.660  66.378  1.00  0.00    -0.276 NA 
HETATM   25  O   UNL     1      -7.579  18.441  68.387  1.00  0.00    -0.272 OA 
HETATM   26  C   UNL     1      -7.789  15.459  69.379  1.00  0.00    -0.232 C  
HETATM   27  C   UNL     1     -10.494  17.984  66.532  1.00  0.00    -0.334 C  
HETATM   28  C   UNL     1      -8.494  17.969  67.731  1.00  0.00    -0.247 C  
HETATM   29  N   UNL     1      -9.547  18.717  67.283  1.00  0.00    -0.299 NA 
BRANCH  24  30
HETATM   30  C   UNL     1     -10.522  15.724  65.564  1.00  0.00    -0.403 A  
HETATM   31  C   UNL     1     -11.744  15.949  64.919  1.00  0.00     0.057 A  
HETATM   32  C   UNL     1     -12.399  14.960  64.167  1.00  0.00    -0.212 A  
HETATM   33  C   UNL     1     -11.826  13.707  64.007  1.00  0.00    -0.444 A  
HETATM   34  C   UNL     1     -10.593  13.452  64.583  1.00  0.00    -0.431 A  
HETATM   35  C   UNL     1      -9.960  14.447  65.348  1.00  0.00    -0.344 A  
ENDBRANCH  24  30
ENDBRANCH  18  19
ENDBRANCH  17  18
ENDBRANCH   8  17
TORSDOF 4
ENDMDL
MODEL      106
REMARK 921   NORMALIZED FREE ENERGY PREDICTED BY IDOCK:   -4.97 KCAL/MOL
REMARK 922        TOTAL FREE ENERGY PREDICTED BY IDOCK:   -8.01 KCAL/MOL
REMARK 923 INTER-LIGAND FREE ENERGY PREDICTED BY IDOCK:   -7.29 KCAL/MOL
REMARK 924 INTRA-LIGAND FREE ENERGY PREDICTED BY IDOCK:   -0.72 KCAL/MOL
REMARK 927      BINDING AFFINITY PREDICTED BY RF-SCORE:    0.00 PKD
ROOT
HETATM    1  F   UNL     1     -10.810  11.333  62.377  1.00  0.00     0.250 F  
HETATM    2  C   UNL     1     -11.021  11.853  63.592  1.00  0.00    -0.440 A  
HETATM    3  C   UNL     1     -12.317  12.101  64.020  1.00  0.00    -0.550 A  
HETATM    4  C   UNL     1     -12.532  12.697  65.266  1.00  0.00    -0.483 A  
HETATM    5  C   UNL     1     -11.450  13.039  66.101  1.00  0.00    -0.381 A  
HETATM    6  C   UNL     1     -11.720  13.740  67.443  1.00  0.00    -0.417 C  
HETATM    7  C   UNL     1     -10.157  12.688  65.674  1.00  0.00    -0.285 A  
HETATM    8  C   UNL     1     -11.894  12.694  68.585  1.00  0.00    -0.342 C  
HETATM    9  C   UNL     1      -9.939  12.135  64.411  1.00  0.00    -0.240 A  
HETATM   10  C   UNL     1     -10.884  14.984  67.799  1.00  0.00    -0.284 A  
HETATM   11  C   UNL     1      -9.892  15.529  66.964  1.00  0.00    -0.236 A  
HETATM   12  C   UNL     1     -10.441  16.823  69.363  1.00  0.00    -0.312 A  
HETATM   13  F   UNL     1      -8.729  18.374  68.891  1.00  0.00    -0.320 F  
HETATM   14  C   UNL     1      -9.149  16.651  67.343  1.00  0.00    -0.206 A  
HETATM   15  C   UNL     1      -9.431  17.290  68.539  1.00  0.00    -0.285 A  
HETATM   16  C   UNL     1     -11.162  15.682  68.994  1.00  0.00    -0.306 A  
ENDROOT
BRANCH   8  17
HETATM   17  C   UNL     1     -10.734  11.722  68.864  1.00  0.00    -0.241 C  
BRANCH  17  18
HETATM   18  C   UNL     1     -10.945  10.259  68.450  1.00  0.00    -0.260 C  
BRANCH  18  19
HETATM   19  N   UNL     1     -10.080   9.800  67.365  1.00  0.00    -0.194 NA 
HETATM   20  C   UNL     1      -7.800   9.456  68.413  1.00  0.00    -0.090 C  
HETATM   21  C   UNL     1      -8.682  10.236  67.433  1.00  0.00    -0.128 C  
HETATM   22  C   UNL     1      -7.960   7.940  68.254  1.00  0.00    -0.122 C  
HETATM   23  C   UNL     1      -9.426   7.502  68.153  1.00  0.00    -0.147 C  
HETATM   24  N   UNL     1      -7.215   7.137  69.282  1.00  0.00    -0.083 NA 
HETATM   25  O   UNL     1      -7.358   7.951  65.825  1.00  0.00    -0.073 OA 
HETATM   26  C   UNL     1     -10.192   8.351  67.138  1.00  0.00    -0.292 C  
HETATM   27  C   UNL     1      -6.356   6.153  68.637  1.00  0.00    -0.041 C  
HETATM   28  C   UNL     1      -7.229   7.515  66.957  1.00  0.00    -0.085 C  
HETATM   29  N   UNL     1      -6.363   6.504  67.267  1.00  0.00    -0.036 NA 
BRANCH  24  30
HETATM   30  C   UNL     1      -7.317   7.165  70.661  1.00  0.00    -0.075 A  
HETATM   31  C   UNL     1      -6.740   6.200  71.495  1.00  0.00    -0.056 A  
HETATM   32  C   UNL     1      -6.924   6.192  72.888  1.00  0.00    -0.076 A  
HETATM   33  C   UNL     1      -7.675   7.184  73.501  1.00  0.00    -0.107 A  
HETATM   34  C   UNL     1      -8.224   8.190  72.724  1.00  0.00    -0.231 A  
HETATM   35  C   UNL     1      -8.046   8.173  71.330  1.00  0.00    -0.119 A  
ENDBRANCH  24  30
ENDBRANCH  18  19
ENDBRANCH  17  18
ENDBRANCH   8  17
TORSDOF 4
ENDMDL
MODEL      107
REMARK 921   NORMALIZED FREE ENERGY PREDICTED BY IDOCK:   -4.97 KCAL/MOL
REMARK 922        TOTAL FREE ENERGY PREDICTED BY IDOCK:   -8.01 KCAL/MOL
REMARK 923 INTER-LIGAND FREE ENERGY PREDICTED BY IDOCK:   -6.67 KCAL/MOL
REMARK 924 INTRA-LIGAND FREE ENERGY PREDICTED BY IDOCK:   -1.34 KCAL/MOL
REMARK 927      BINDING AFFINITY PREDICTED BY RF-SCORE:    0.00 PKD
ROOT
HETATM    1  F   UNL     1      -7.976   6.964  62.440  1.00  0.00    -0.099 F  
HETATM    2  C   UNL     1      -7.754   7.467  63.661  1.00  0.00    -0.126 A  
HETATM    3  C   UNL     1      -6.633   7.072  64.376  1.00  0.00    -0.045 A  
HETATM    4  C   UNL     1      -6.433   7.556  65.671  1.00  0.00    -0.045 A  
HETATM    5  C   UNL     1      -7.350   8.450  66.259  1.00  0.00    -0.086 A  
HETATM    6  C   UNL     1      -7.127   8.922  67.706  1.00  0.00    -0.079 C  
HETATM    7  C   UNL     1      -8.424   8.900  65.470  1.00  0.00    -0.174 A  
HETATM    8  C   UNL     1      -6.277  10.229  67.734  1.00  0.00    -0.056 C  
HETATM    9  C   UNL     1      -8.648   8.382  64.194  1.00  0.00     0.067 A  
HETATM   10  C   UNL     1      -8.319   8.880  68.681  1.00  0.00    -0.124 A  
HETATM   11  C   UNL     1      -9.603   8.423  68.332  1.00  0.00    -0.157 A  
HETATM   12  C   UNL     1      -9.163   9.216  70.960  1.00  0.00    -0.321 A  
HETATM   13  F   UNL     1     -11.434   8.798  71.441  1.00  0.00    -0.283 F  
HETATM   14  C   UNL     1     -10.656   8.421  69.252  1.00  0.00    -0.193 A  
HETATM   15  C   UNL     1     -10.427   8.817  70.559  1.00  0.00    -0.209 A  
HETATM   16  C   UNL     1      -8.119   9.245  70.030  1.00  0.00    -0.140 A  
ENDROOT
BRANCH   8  17
HETATM   17  C   UNL     1      -6.815  11.461  66.985  1.00  0.00    -0.137 C  
BRANCH  17  18
HETATM   18  C   UNL     1      -6.121  12.799  67.271  1.00  0.00    -0.035 C  
BRANCH  18  19
HETATM   19  N   UNL     1      -6.810  13.652  68.239  1.00  0.00    -0.094 NA 
HETATM   20  C   UNL     1      -8.661  14.795  66.941  1.00  0.00    -0.254 C  
HETATM   21  C   UNL     1      -7.343  14.912  67.714  1.00  0.00    -0.166 C  
HETATM   22  C   UNL     1      -9.700  13.957  67.694  1.00  0.00    -0.226 C  
HETATM   23  C   UNL     1      -9.120  12.657  68.263  1.00  0.00    -0.181 C  
HETATM   24  N   UNL     1     -10.959  13.705  66.916  1.00  0.00    -0.287 NA 
HETATM   25  O   UNL     1      -9.623  15.385  69.749  1.00  0.00    -0.266 OA 
HETATM   26  C   UNL     1      -7.815  12.913  69.017  1.00  0.00     0.254 C  
HETATM   27  C   UNL     1     -12.127  14.109  67.688  1.00  0.00    -0.302 C  
HETATM   28  C   UNL     1     -10.241  14.810  68.868  1.00  0.00    -0.237 C  
HETATM   29  N   UNL     1     -11.606  14.827  68.789  1.00  0.00    -0.305 NA 
BRANCH  24  30
HETATM   30  C   UNL     1     -11.124  13.094  65.685  1.00  0.00    -0.275 A  
HETATM   31  C   UNL     1     -12.341  13.071  64.994  1.00  0.00    -0.526 A  
HETATM   32  C   UNL     1     -12.515  12.374  63.787  1.00  0.00    -0.593 A  
HETATM   33  C   UNL     1     -11.452  11.696  63.210  1.00  0.00    -0.266 A  
HETATM   34  C   UNL     1     -10.215  11.733  63.828  1.00  0.00    -0.434 A  
HETATM   35  C   UNL     1     -10.062  12.419  65.046  1.00  0.00    -0.269 A  
ENDBRANCH  24  30
ENDBRANCH  18  19
ENDBRANCH  17  18
ENDBRANCH   8  17
TORSDOF 4
ENDMDL
MODEL      108
REMARK 921   NORMALIZED FREE ENERGY PREDICTED BY IDOCK:   -4.95 KCAL/MOL
REMARK 922        TOTAL FREE ENERGY PREDICTED BY IDOCK:   -7.99 KCAL/MOL
REMARK 923 INTER-LIGAND FREE ENERGY PREDICTED BY IDOCK:   -6.51 KCAL/MOL
REMARK 924 INTRA-LIGAND FREE ENERGY PREDICTED BY IDOCK:   -1.47 KCAL/MOL
REMARK 927      BINDING AFFINITY PREDICTED BY RF-SCORE:    0.00 PKD
ROOT
HETATM    1  F   UNL     1     -10.974  10.889  62.332  1.00  0.00     0.345 F  
HETATM    2  C   UNL     1     -11.144  11.376  63.567  1.00  0.00    -0.285 A  
HETATM    3  C   UNL     1     -12.326  12.024  63.896  1.00  0.00    -0.553 A  
HETATM    4  C   UNL     1     -12.479  12.580  65.169  1.00  0.00    -0.451 A  
HETATM    5  C   UNL     1     -11.452  12.483  66.129  1.00  0.00    -0.426 A  
HETATM    6  C   UNL     1     -11.633  13.153  67.502  1.00  0.00    -0.398 C  
HETATM    7  C   UNL     1     -10.307  11.740  65.790  1.00  0.00    -0.293 A  
HETATM    8  C   UNL     1     -12.279  12.161  68.516  1.00  0.00     0.099 C  
HETATM    9  C   UNL     1     -10.136  11.224  64.506  1.00  0.00    -0.348 A  
HETATM   10  C   UNL     1     -10.481  14.014  68.053  1.00  0.00    -0.241 A  
HETATM   11  C   UNL     1      -9.272  14.240  67.369  1.00  0.00    -0.200 A  
HETATM   12  C   UNL     1      -9.645  15.496  69.821  1.00  0.00    -0.205 A  
HETATM   13  F   UNL     1      -7.472  16.399  69.661  1.00  0.00    -0.230 F  
HETATM   14  C   UNL     1      -8.251  15.018  67.921  1.00  0.00    -0.146 A  
HETATM   15  C   UNL     1      -8.446  15.641  69.143  1.00  0.00    -0.253 A  
HETATM   16  C   UNL     1     -10.653  14.692  69.279  1.00  0.00    -0.236 A  
ENDROOT
BRANCH   8  17
HETATM   17  C   UNL     1     -11.548  10.838  68.805  1.00  0.00    -0.350 C  
BRANCH  17  18
HETATM   18  C   UNL     1     -10.671  10.794  70.063  1.00  0.00    -0.078 C  
BRANCH  18  19
HETATM   19  N   UNL     1     -10.673   9.513  70.767  1.00  0.00    -0.296 NA 
HETATM   20  C   UNL     1     -10.356   7.753  68.973  1.00  0.00    -0.219 C  
HETATM   21  C   UNL     1     -11.259   8.384  70.037  1.00  0.00    -0.085 C  
HETATM   22  C   UNL     1      -8.946   7.472  69.505  1.00  0.00    -0.143 C  
HETATM   23  C   UNL     1      -8.359   8.649  70.291  1.00  0.00    -0.129 C  
HETATM   24  N   UNL     1      -7.989   6.975  68.460  1.00  0.00    -0.121 NA 
HETATM   25  O   UNL     1      -9.752   6.058  71.406  1.00  0.00    -0.163 OA 
HETATM   26  C   UNL     1      -9.354   9.180  71.324  1.00  0.00    -0.215 C  
HETATM   27  C   UNL     1      -7.365   5.730  68.888  1.00  0.00    -0.083 C  
HETATM   28  C   UNL     1      -9.025   6.243  70.444  1.00  0.00    -0.154 C  
HETATM   29  N   UNL     1      -8.098   5.328  70.029  1.00  0.00    -0.083 NA 
BRANCH  24  30
HETATM   30  C   UNL     1      -7.596   7.570  67.274  1.00  0.00    -0.108 A  
HETATM   31  C   UNL     1      -8.419   7.650  66.144  1.00  0.00    -0.147 A  
HETATM   32  C   UNL     1      -7.978   8.180  64.920  1.00  0.00    -0.145 A  
HETATM   33  C   UNL     1      -6.693   8.684  64.797  1.00  0.00    -0.069 A  
HETATM   34  C   UNL     1      -5.858   8.675  65.901  1.00  0.00    -0.047 A  
HETATM   35  C   UNL     1      -6.308   8.124  67.114  1.00  0.00    -0.056 A  
ENDBRANCH  24  30
ENDBRANCH  18  19
ENDBRANCH  17  18
ENDBRANCH   8  17
TORSDOF 4
ENDMDL
MODEL      109
REMARK 921   NORMALIZED FREE ENERGY PREDICTED BY IDOCK:   -4.91 KCAL/MOL
REMARK 922        TOTAL FREE ENERGY PREDICTED BY IDOCK:   -7.93 KCAL/MOL
REMARK 923 INTER-LIGAND FREE ENERGY PREDICTED BY IDOCK:   -6.06 KCAL/MOL
REMARK 924 INTRA-LIGAND FREE ENERGY PREDICTED BY IDOCK:   -1.87 KCAL/MOL
REMARK 927      BINDING AFFINITY PREDICTED BY RF-SCORE:    0.00 PKD
ROOT
HETATM    1  F   UNL     1     -11.356   4.569  65.563  1.00  0.00    -0.272 F  
HETATM    2  C   UNL     1     -10.201   5.101  65.982  1.00  0.00    -0.179 A  
HETATM    3  C   UNL     1      -9.019   4.391  65.823  1.00  0.00    -0.129 A  
HETATM    4  C   UNL     1      -7.822   4.924  66.311  1.00  0.00    -0.096 A  
HETATM    5  C   UNL     1      -7.797   6.177  66.954  1.00  0.00    -0.104 A  
HETATM    6  C   UNL     1      -6.471   6.709  67.526  1.00  0.00    -0.045 C  
HETATM    7  C   UNL     1      -8.998   6.907  67.014  1.00  0.00    -0.124 A  
HETATM    8  C   UNL     1      -5.717   7.563  66.462  1.00  0.00    -0.032 C  
HETATM    9  C   UNL     1     -10.200   6.356  66.567  1.00  0.00    -0.147 A  
HETATM   10  C   UNL     1      -6.467   7.273  68.959  1.00  0.00    -0.036 A  
HETATM   11  C   UNL     1      -7.603   7.320  69.788  1.00  0.00    -0.098 A  
HETATM   12  C   UNL     1      -5.184   8.214  70.827  1.00  0.00    -0.025 A  
HETATM   13  F   UNL     1      -6.288   8.798  72.828  1.00  0.00    -0.089 F  
HETATM   14  C   UNL     1      -7.549   7.857  71.077  1.00  0.00    -0.082 A  
HETATM   15  C   UNL     1      -6.340   8.299  71.587  1.00  0.00    -0.049 A  
HETATM   16  C   UNL     1      -5.249   7.703  69.526  1.00  0.00    -0.019 A  
ENDROOT
BRANCH   8  17
HETATM   17  C   UNL     1      -6.431   8.797  65.882  1.00  0.00    -0.057 C  
BRANCH  17  18
HETATM   18  C   UNL     1      -6.801   9.910  66.872  1.00  0.00    -0.087 C  
BRANCH  18  19
HETATM   19  N   UNL     1      -7.412  11.091  66.265  1.00  0.00    -0.133 NA 
HETATM   20  C   UNL     1      -9.912  10.757  66.497  1.00  0.00    -0.260 C  
HETATM   21  C   UNL     1      -8.690  10.869  65.581  1.00  0.00    -0.183 C  
HETATM   22  C   UNL     1      -9.962  11.884  67.535  1.00  0.00    -0.187 C  
HETATM   23  C   UNL     1      -8.612  12.124  68.220  1.00  0.00    -0.175 C  
HETATM   24  N   UNL     1     -11.070  11.740  68.538  1.00  0.00    -0.220 NA 
HETATM   25  O   UNL     1      -9.894  13.707  65.822  1.00  0.00    -0.274 OA 
HETATM   26  C   UNL     1      -7.479  12.226  67.197  1.00  0.00    -0.113 C  
HETATM   27  C   UNL     1     -11.876  12.952  68.587  1.00  0.00    -0.312 C  
HETATM   28  C   UNL     1     -10.384  13.184  66.809  1.00  0.00    -0.252 C  
HETATM   29  N   UNL     1     -11.453  13.717  67.475  1.00  0.00    -0.311 NA 
BRANCH  24  30
HETATM   30  C   UNL     1     -11.331  10.702  69.416  1.00  0.00    -0.284 A  
HETATM   31  C   UNL     1     -12.074  10.858  70.592  1.00  0.00    -0.468 A  
HETATM   32  C   UNL     1     -12.259   9.817  71.517  1.00  0.00    -0.493 A  
HETATM   33  C   UNL     1     -11.725   8.560  71.273  1.00  0.00    -0.331 A  
HETATM   34  C   UNL     1     -11.027   8.342  70.098  1.00  0.00    -0.216 A  
HETATM   35  C   UNL     1     -10.835   9.400  69.192  1.00  0.00    -0.176 A  
ENDBRANCH  24  30
ENDBRANCH  18  19
ENDBRANCH  17  18
ENDBRANCH   8  17
TORSDOF 4
ENDMDL
MODEL      110
REMARK 921   NORMALIZED FREE ENERGY PREDICTED BY IDOCK:   -4.83 KCAL/MOL
REMARK 922        TOTAL FREE ENERGY PREDICTED BY IDOCK:   -7.84 KCAL/MOL
REMARK 923 INTER-LIGAND FREE ENERGY PREDICTED BY IDOCK:   -6.54 KCAL/MOL
REMARK 924 INTRA-LIGAND FREE ENERGY PREDICTED BY IDOCK:   -1.29 KCAL/MOL
REMARK 927      BINDING AFFINITY PREDICTED BY RF-SCORE:    0.00 PKD
ROOT
HETATM    1  F   UNL     1      -8.284   4.296  73.313  1.00  0.00    -0.087 F  
HETATM    2  C   UNL     1      -8.577   4.441  72.014  1.00  0.00    -0.112 A  
HETATM    3  C   UNL     1      -9.183   3.400  71.325  1.00  0.00    -0.190 A  
HETATM    4  C   UNL     1      -9.437   3.533  69.957  1.00  0.00    -0.253 A  
HETATM    5  C   UNL     1      -9.097   4.714  69.269  1.00  0.00    -0.159 A  
HETATM    6  C   UNL     1      -9.342   4.806  67.753  1.00  0.00    -0.163 C  
HETATM    7  C   UNL     1      -8.569   5.780  70.019  1.00  0.00    -0.128 A  
HETATM    8  C   UNL     1     -10.758   5.388  67.460  1.00  0.00    -0.143 C  
HETATM    9  C   UNL     1      -8.274   5.632  71.375  1.00  0.00    -0.122 A  
HETATM   10  C   UNL     1      -8.205   5.334  66.859  1.00  0.00    -0.108 A  
HETATM   11  C   UNL     1      -6.944   5.729  67.342  1.00  0.00    -0.065 A  
HETATM   12  C   UNL     1      -7.384   5.824  64.598  1.00  0.00    -0.069 A  
HETATM   13  F   UNL     1      -5.219   6.713  64.307  1.00  0.00    -0.023 F  
HETATM   14  C   UNL     1      -5.951   6.217  66.488  1.00  0.00    -0.028 A  
HETATM   15  C   UNL     1      -6.178   6.260  65.123  1.00  0.00    -0.030 A  
HETATM   16  C   UNL     1      -8.386   5.363  65.459  1.00  0.00    -0.133 A  
ENDROOT
BRANCH   8  17
HETATM   17  C   UNL     1     -11.098   6.784  68.010  1.00  0.00    -0.246 C  
BRANCH  17  18
HETATM   18  C   UNL     1     -10.530   7.985  67.242  1.00  0.00    -0.314 C  
BRANCH  18  19
HETATM   19  N   UNL     1      -9.387   8.635  67.881  1.00  0.00    -0.141 NA 
HETATM   20  C   UNL     1      -8.610  10.405  66.243  1.00  0.00    -0.147 C  
HETATM   21  C   UNL     1      -8.325   9.092  66.979  1.00  0.00    -0.116 C  
HETATM   22  C   UNL     1      -9.121  11.498  67.189  1.00  0.00    -0.167 C  
HETATM   23  C   UNL     1     -10.209  10.998  68.146  1.00  0.00    -0.201 C  
HETATM   24  N   UNL     1      -9.538  12.761  66.491  1.00  0.00    -0.254 NA 
HETATM   25  O   UNL     1      -7.135  11.364  68.706  1.00  0.00    -0.087 OA 
HETATM   26  C   UNL     1      -9.799   9.689  68.821  1.00  0.00    -0.165 C  
HETATM   27  C   UNL     1      -8.858  13.912  67.068  1.00  0.00    -0.218 C  
HETATM   28  C   UNL     1      -7.922  12.004  68.028  1.00  0.00    -0.149 C  
HETATM   29  N   UNL     1      -7.862  13.364  67.909  1.00  0.00    -0.136 NA 
BRANCH  24  30
HETATM   30  C   UNL     1     -10.490  12.945  65.504  1.00  0.00    -0.289 A  
HETATM   31  C   UNL     1     -10.799  11.976  64.543  1.00  0.00    -0.363 A  
HETATM   32  C   UNL     1     -11.706  12.208  63.494  1.00  0.00    -0.579 A  
HETATM   33  C   UNL     1     -12.364  13.424  63.394  1.00  0.00    -0.343 A  
HETATM   34  C   UNL     1     -12.131  14.397  64.351  1.00  0.00    -0.491 A  
HETATM   35  C   UNL     1     -11.207  14.155  65.383  1.00  0.00    -0.325 A  
ENDBRANCH  24  30
ENDBRANCH  18  19
ENDBRANCH  17  18
ENDBRANCH   8  17
TORSDOF 4
ENDMDL
MODEL      111
REMARK 921   NORMALIZED FREE ENERGY PREDICTED BY IDOCK:   -4.81 KCAL/MOL
REMARK 922        TOTAL FREE ENERGY PREDICTED BY IDOCK:   -7.81 KCAL/MOL
REMARK 923 INTER-LIGAND FREE ENERGY PREDICTED BY IDOCK:   -6.51 KCAL/MOL
REMARK 924 INTRA-LIGAND FREE ENERGY PREDICTED BY IDOCK:   -1.30 KCAL/MOL
REMARK 927      BINDING AFFINITY PREDICTED BY RF-SCORE:    0.00 PKD
ROOT
HETATM    1  F   UNL     1      -8.609   7.472  65.093  1.00  0.00    -0.140 F  
HETATM    2  C   UNL     1      -8.875   7.650  66.393  1.00  0.00    -0.156 A  
HETATM    3  C   UNL     1      -7.942   8.277  67.207  1.00  0.00    -0.105 A  
HETATM    4  C   UNL     1      -8.197   8.412  68.574  1.00  0.00    -0.124 A  
HETATM    5  C   UNL     1      -9.395   7.931  69.138  1.00  0.00    -0.154 A  
HETATM    6  C   UNL     1      -9.620   8.049  70.655  1.00  0.00    -0.172 C  
HETATM    7  C   UNL     1     -10.355   7.385  68.268  1.00  0.00    -0.231 A  
HETATM    8  C   UNL     1     -10.336   9.390  71.002  1.00  0.00    -0.382 C  
HETATM    9  C   UNL     1     -10.082   7.209  66.911  1.00  0.00    -0.308 A  
HETATM   10  C   UNL     1     -10.120   6.809  71.419  1.00  0.00    -0.198 A  
HETATM   11  C   UNL     1     -10.374   5.563  70.815  1.00  0.00    -0.321 A  
HETATM   12  C   UNL     1     -10.710   5.778  73.567  1.00  0.00    -0.300 A  
HETATM   13  F   UNL     1     -11.440   3.537  73.628  1.00  0.00    -0.316 F  
HETATM   14  C   UNL     1     -10.843   4.472  71.553  1.00  0.00     0.323 A  
HETATM   15  C   UNL     1     -11.006   4.588  72.923  1.00  0.00    -0.180 A  
HETATM   16  C   UNL     1     -10.269   6.877  72.821  1.00  0.00    -0.214 A  
ENDROOT
BRANCH   8  17
HETATM   17  C   UNL     1     -11.710   9.665  70.367  1.00  0.00    -0.266 C  
BRANCH  17  18
HETATM   18  C   UNL     1     -11.762  10.739  69.272  1.00  0.00    -0.303 C  
BRANCH  18  19
HETATM   19  N   UNL     1     -11.046  11.974  69.591  1.00  0.00    -0.084 NA 
HETATM   20  C   UNL     1      -9.590  12.454  67.574  1.00  0.00    -0.185 C  
HETATM   21  C   UNL     1      -9.685  12.079  69.057  1.00  0.00     0.219 C  
HETATM   22  C   UNL     1     -10.480  13.653  67.224  1.00  0.00    -0.260 C  
HETATM   23  C   UNL     1     -11.890  13.542  67.814  1.00  0.00    -0.398 C  
HETATM   24  N   UNL     1     -10.520  13.973  65.757  1.00  0.00    -0.298 NA 
HETATM   25  O   UNL     1      -9.430  15.158  68.925  1.00  0.00    -0.196 OA 
HETATM   26  C   UNL     1     -11.846  13.172  69.297  1.00  0.00    -0.323 C  
HETATM   27  C   UNL     1     -10.184  15.372  65.530  1.00  0.00    -0.382 C  
HETATM   28  C   UNL     1      -9.808  14.928  67.788  1.00  0.00    -0.217 C  
HETATM   29  N   UNL     1      -9.696  15.836  66.773  1.00  0.00    -0.230 NA 
BRANCH  24  30
HETATM   30  C   UNL     1     -10.902  13.173  64.694  1.00  0.00    -0.366 A  
HETATM   31  C   UNL     1     -12.226  13.056  64.256  1.00  0.00    -0.464 A  
HETATM   32  C   UNL     1     -12.612  12.175  63.232  1.00  0.00    -0.492 A  
HETATM   33  C   UNL     1     -11.665  11.399  62.582  1.00  0.00     1.131 A  
HETATM   34  C   UNL     1     -10.334  11.518  62.943  1.00  0.00    -0.157 A  
HETATM   35  C   UNL     1      -9.967  12.390  63.983  1.00  0.00    -0.260 A  
ENDBRANCH  24  30
ENDBRANCH  18  19
ENDBRANCH  17  18
ENDBRANCH   8  17
TORSDOF 4
ENDMDL
MODEL      112
REMARK 921   NORMALIZED FREE ENERGY PREDICTED BY IDOCK:   -4.78 KCAL/MOL
REMARK 922        TOTAL FREE ENERGY PREDICTED BY IDOCK:   -7.77 KCAL/MOL
REMARK 923 INTER-LIGAND FREE ENERGY PREDICTED BY IDOCK:   -6.24 KCAL/MOL
REMARK 924 INTRA-LIGAND FREE ENERGY PREDICTED BY IDOCK:   -1.53 KCAL/MOL
REMARK 927      BINDING AFFINITY PREDICTED BY RF-SCORE:    0.00 PKD
ROOT
HETATM    1  F   UNL     1      -9.612   4.207  71.353  1.00  0.00    -0.184 F  
HETATM    2  C   UNL     1      -9.771   5.303  70.601  1.00  0.00    -0.186 A  
HETATM    3  C   UNL     1     -11.044   5.817  70.393  1.00  0.00    -0.287 A  
HETATM    4  C   UNL     1     -11.213   6.927  69.562  1.00  0.00    -0.246 A  
HETATM    5  C   UNL     1     -10.109   7.542  68.940  1.00  0.00    -0.195 A  
HETATM    6  C   UNL     1     -10.337   8.730  67.989  1.00  0.00    -0.273 C  
HETATM    7  C   UNL     1      -8.827   7.051  69.248  1.00  0.00    -0.139 A  
HETATM    8  C   UNL     1     -10.279  10.077  68.770  1.00  0.00    -0.201 C  
HETATM    9  C   UNL     1      -8.661   5.915  70.041  1.00  0.00    -0.133 A  
HETATM   10  C   UNL     1      -9.628   8.719  66.622  1.00  0.00    -0.283 A  
HETATM   11  C   UNL     1      -8.790   7.680  66.180  1.00  0.00    -0.192 A  
HETATM   12  C   UNL     1      -9.269   9.803  64.450  1.00  0.00    -0.301 A  
HETATM   13  F   UNL     1      -7.807   8.822  62.881  1.00  0.00    -0.112 F  
HETATM   14  C   UNL     1      -8.157   7.727  64.934  1.00  0.00    -0.136 A  
HETATM   15  C   UNL     1      -8.402   8.788  64.079  1.00  0.00    -0.141 A  
HETATM   16  C   UNL     1      -9.878   9.766  65.709  1.00  0.00    -0.360 A  
ENDROOT
BRANCH   8  17
HETATM   17  C   UNL     1      -8.990  10.417  69.539  1.00  0.00    -0.127 C  
BRANCH  17  18
HETATM   18  C   UNL     1      -7.670  10.277  68.768  1.00  0.00    -0.096 C  
BRANCH  18  19
HETATM   19  N   UNL     1      -6.846  11.484  68.740  1.00  0.00    -0.077 NA 
HETATM   20  C   UNL     1      -7.288  12.554  66.486  1.00  0.00     0.695 C  
HETATM   21  C   UNL     1      -6.303  11.856  67.430  1.00  0.00    -0.128 C  
HETATM   22  C   UNL     1      -8.045  13.692  67.180  1.00  0.00    -0.077 C  
HETATM   23  C   UNL     1      -8.581  13.298  68.561  1.00  0.00    -0.065 C  
HETATM   24  N   UNL     1      -9.114  14.318  66.331  1.00  0.00    -0.197 NA 
HETATM   25  O   UNL     1      -5.962  14.898  67.868  1.00  0.00    -0.139 OA 
HETATM   26  C   UNL     1      -7.500  12.621  69.405  1.00  0.00     0.440 C  
HETATM   27  C   UNL     1      -8.932  15.761  66.262  1.00  0.00    -0.345 C  
HETATM   28  C   UNL     1      -7.068  14.881  67.352  1.00  0.00    -0.164 C  
HETATM   29  N   UNL     1      -7.655  15.996  66.821  1.00  0.00    -0.232 NA 
BRANCH  24  30
HETATM   30  C   UNL     1     -10.217  13.732  65.735  1.00  0.00    -0.311 A  
HETATM   31  C   UNL     1     -10.201  13.202  64.440  1.00  0.00    -0.319 A  
HETATM   32  C   UNL     1     -11.349  12.688  63.815  1.00  0.00    -0.529 A  
HETATM   33  C   UNL     1     -12.560  12.659  64.490  1.00  0.00    -0.491 A  
HETATM   34  C   UNL     1     -12.616  13.124  65.793  1.00  0.00    -0.351 A  
HETATM   35  C   UNL     1     -11.461  13.652  66.397  1.00  0.00    -0.358 A  
ENDBRANCH  24  30
ENDBRANCH  18  19
ENDBRANCH  17  18
ENDBRANCH   8  17
TORSDOF 4
ENDMDL
MODEL      113
REMARK 921   NORMALIZED FREE ENERGY PREDICTED BY IDOCK:   -4.77 KCAL/MOL
REMARK 922        TOTAL FREE ENERGY PREDICTED BY IDOCK:   -7.76 KCAL/MOL
REMARK 923 INTER-LIGAND FREE ENERGY PREDICTED BY IDOCK:   -6.81 KCAL/MOL
REMARK 924 INTRA-LIGAND FREE ENERGY PREDICTED BY IDOCK:   -0.95 KCAL/MOL
REMARK 927      BINDING AFFINITY PREDICTED BY RF-SCORE:    0.00 PKD
ROOT
HETATM    1  F   UNL     1      -5.762  14.584  70.230  1.00  0.00    -0.099 F  
HETATM    2  C   UNL     1      -6.120  13.725  69.268  1.00  0.00    -0.100 A  
HETATM    3  C   UNL     1      -5.220  13.402  68.263  1.00  0.00    -0.095 A  
HETATM    4  C   UNL     1      -5.615  12.549  67.229  1.00  0.00    -0.066 A  
HETATM    5  C   UNL     1      -6.912  12.001  67.198  1.00  0.00    -0.134 A  
HETATM    6  C   UNL     1      -7.331  11.107  66.018  1.00  0.00     0.045 C  
HETATM    7  C   UNL     1      -7.765  12.277  68.282  1.00  0.00    -0.143 A  
HETATM    8  C   UNL     1      -7.020   9.611  66.325  1.00  0.00    -0.092 C  
HETATM    9  C   UNL     1      -7.387  13.164  69.291  1.00  0.00     0.227 A  
HETATM   10  C   UNL     1      -8.685  11.382  65.337  1.00  0.00     0.085 A  
HETATM   11  C   UNL     1      -9.562  12.412  65.721  1.00  0.00    -0.164 A  
HETATM   12  C   UNL     1     -10.270  10.830  63.547  1.00  0.00    -0.315 A  
HETATM   13  F   UNL     1     -12.299  12.018  63.374  1.00  0.00    -0.567 F  
HETATM   14  C   UNL     1     -10.788  12.609  65.079  1.00  0.00    -0.321 A  
HETATM   15  C   UNL     1     -11.132  11.816  63.996  1.00  0.00    -0.390 A  
HETATM   16  C   UNL     1      -9.056  10.617  64.210  1.00  0.00    -0.244 A  
ENDROOT
BRANCH   8  17
HETATM   17  C   UNL     1      -7.670   8.973  67.565  1.00  0.00    -0.096 C  
BRANCH  17  18
HETATM   18  C   UNL     1      -8.550   7.740  67.325  1.00  0.00    -0.128 C  
BRANCH  18  19
HETATM   19  N   UNL     1      -8.311   6.628  68.243  1.00  0.00    -0.117 NA 
HETATM   20  C   UNL     1      -8.687   7.572  70.564  1.00  0.00    -0.146 C  
HETATM   21  C   UNL     1      -7.716   6.984  69.535  1.00  0.00    -0.107 C  
HETATM   22  C   UNL     1      -9.969   6.741  70.689  1.00  0.00    -0.187 C  
HETATM   23  C   UNL     1     -10.562   6.352  69.331  1.00  0.00    -0.310 C  
HETATM   24  N   UNL     1     -11.005   7.353  71.588  1.00  0.00    -0.224 NA 
HETATM   25  O   UNL     1      -8.755   4.623  71.240  1.00  0.00    -0.113 OA 
HETATM   26  C   UNL     1      -9.495   5.771  68.402  1.00  0.00    -0.122 C  
HETATM   27  C   UNL     1     -11.424   6.399  72.607  1.00  0.00    -0.198 C  
HETATM   28  C   UNL     1      -9.626   5.447  71.466  1.00  0.00    -0.152 C  
HETATM   29  N   UNL     1     -10.499   5.334  72.512  1.00  0.00    -0.208 NA 
BRANCH  24  30
HETATM   30  C   UNL     1     -11.622   8.588  71.504  1.00  0.00    -0.292 A  
HETATM   31  C   UNL     1     -12.881   8.858  72.055  1.00  0.00    -0.456 A  
HETATM   32  C   UNL     1     -13.533  10.091  71.888  1.00  0.00    -0.449 A  
HETATM   33  C   UNL     1     -12.923  11.117  71.183  1.00  0.00    -0.393 A  
HETATM   34  C   UNL     1     -11.655  10.916  70.664  1.00  0.00    -0.341 A  
HETATM   35  C   UNL     1     -11.024   9.670  70.824  1.00  0.00    -0.397 A  
ENDBRANCH  24  30
ENDBRANCH  18  19
ENDBRANCH  17  18
ENDBRANCH   8  17
TORSDOF 4
ENDMDL
MODEL      114
REMARK 921   NORMALIZED FREE ENERGY PREDICTED BY IDOCK:   -4.72 KCAL/MOL
REMARK 922        TOTAL FREE ENERGY PREDICTED BY IDOCK:   -7.69 KCAL/MOL
REMARK 923 INTER-LIGAND FREE ENERGY PREDICTED BY IDOCK:   -6.51 KCAL/MOL
REMARK 924 INTRA-LIGAND FREE ENERGY PREDICTED BY IDOCK:   -1.19 KCAL/MOL
REMARK 927      BINDING AFFINITY PREDICTED BY RF-SCORE:    0.00 PKD
ROOT
HETATM    1  F   UNL     1     -13.011  14.407  69.989  1.00  0.00    -0.352 F  
HETATM    2  C   UNL     1     -11.921  13.835  69.462  1.00  0.00    -0.345 A  
HETATM    3  C   UNL     1     -10.760  14.580  69.305  1.00  0.00    -0.241 A  
HETATM    4  C   UNL     1      -9.641  13.997  68.704  1.00  0.00    -0.159 A  
HETATM    5  C   UNL     1      -9.670  12.659  68.264  1.00  0.00    -0.216 A  
HETATM    6  C   UNL     1      -8.438  12.066  67.558  1.00  0.00    -0.165 C  
HETATM    7  C   UNL     1     -10.832  11.910  68.523  1.00  0.00    -0.257 A  
HETATM    8  C   UNL     1      -7.481  11.401  68.592  1.00  0.00    -0.119 C  
HETATM    9  C   UNL     1     -11.964  12.504  69.082  1.00  0.00    -0.287 A  
HETATM   10  C   UNL     1      -8.651  11.286  66.248  1.00  0.00    -0.172 A  
HETATM   11  C   UNL     1      -9.907  11.092  65.644  1.00  0.00    -0.287 A  
HETATM   12  C   UNL     1      -7.662  10.085  64.350  1.00  0.00    -0.145 A  
HETATM   13  F   UNL     1      -9.060   9.179  62.681  1.00  0.00    -0.239 F  
HETATM   14  C   UNL     1     -10.047  10.361  64.461  1.00  0.00    -0.365 A  
HETATM   15  C   UNL     1      -8.923   9.864  63.822  1.00  0.00    -0.250 A  
HETATM   16  C   UNL     1      -7.528  10.792  65.550  1.00  0.00     0.007 A  
ENDROOT
BRANCH   8  17
HETATM   17  C   UNL     1      -8.033  10.262  69.467  1.00  0.00    -0.171 C  
BRANCH  17  18
HETATM   18  C   UNL     1      -7.076   9.103  69.777  1.00  0.00    -0.061 C  
BRANCH  18  19
HETATM   19  N   UNL     1      -6.843   8.186  68.663  1.00  0.00    -0.065 NA 
HETATM   20  C   UNL     1      -7.120   5.861  69.628  1.00  0.00    -0.068 C  
HETATM   21  C   UNL     1      -6.199   6.915  69.006  1.00  0.00    -0.027 C  
HETATM   22  C   UNL     1      -8.423   5.693  68.837  1.00  0.00    -0.102 C  
HETATM   23  C   UNL     1      -9.068   7.031  68.460  1.00  0.00    -0.131 C  
HETATM   24  N   UNL     1      -9.412   4.766  69.483  1.00  0.00    -0.141 NA 
HETATM   25  O   UNL     1      -7.258   5.167  66.685  1.00  0.00    -0.077 OA 
HETATM   26  C   UNL     1      -8.047   7.988  67.842  1.00  0.00    -0.129 C  
HETATM   27  C   UNL     1      -9.829   3.731  68.547  1.00  0.00     0.103 C  
HETATM   28  C   UNL     1      -8.096   4.919  67.536  1.00  0.00    -0.102 C  
HETATM   29  N   UNL     1      -8.940   3.847  67.454  1.00  0.00    -0.123 NA 
BRANCH  24  30
HETATM   30  C   UNL     1      -9.994   4.839  70.737  1.00  0.00    -0.221 A  
HETATM   31  C   UNL     1      -9.809   3.868  71.728  1.00  0.00    -0.249 A  
HETATM   32  C   UNL     1     -10.474   3.909  72.965  1.00  0.00    -0.253 A  
HETATM   33  C   UNL     1     -11.332   4.957  73.264  1.00  0.00    -0.408 A  
HETATM   34  C   UNL     1     -11.508   5.969  72.337  1.00  0.00    -0.357 A  
HETATM   35  C   UNL     1     -10.849   5.903  71.096  1.00  0.00    -0.334 A  
ENDBRANCH  24  30
ENDBRANCH  18  19
ENDBRANCH  17  18
ENDBRANCH   8  17
TORSDOF 4
ENDMDL
MODEL      115
REMARK 921   NORMALIZED FREE ENERGY PREDICTED BY IDOCK:   -4.70 KCAL/MOL
REMARK 922        TOTAL FREE ENERGY PREDICTED BY IDOCK:   -7.68 KCAL/MOL
REMARK 923 INTER-LIGAND FREE ENERGY PREDICTED BY IDOCK:   -5.44 KCAL/MOL
REMARK 924 INTRA-LIGAND FREE ENERGY PREDICTED BY IDOCK:   -2.24 KCAL/MOL
REMARK 927      BINDING AFFINITY PREDICTED BY RF-SCORE:    0.00 PKD
ROOT
HETATM    1  F   UNL     1     -10.495  10.595  62.775  1.00  0.00    -0.213 F  
HETATM    2  C   UNL     1      -9.594  10.464  63.756  1.00  0.00    -0.310 A  
HETATM    3  C   UNL     1      -8.518   9.602  63.594  1.00  0.00    -0.189 A  
HETATM    4  C   UNL     1      -7.610   9.425  64.640  1.00  0.00    -0.109 A  
HETATM    5  C   UNL     1      -7.763  10.119  65.857  1.00  0.00    -0.127 A  
HETATM    6  C   UNL     1      -6.774   9.861  67.007  1.00  0.00    -0.075 C  
HETATM    7  C   UNL     1      -8.811  11.053  65.951  1.00  0.00    -0.204 A  
HETATM    8  C   UNL     1      -5.571  10.849  66.929  1.00  0.00    -0.065 C  
HETATM    9  C   UNL     1      -9.744  11.196  64.923  1.00  0.00    -0.297 A  
HETATM   10  C   UNL     1      -7.342   9.610  68.417  1.00  0.00    -0.075 A  
HETATM   11  C   UNL     1      -8.716   9.589  68.718  1.00  0.00    -0.128 A  
HETATM   12  C   UNL     1      -6.916   9.058  70.770  1.00  0.00    -0.087 A  
HETATM   13  F   UNL     1      -8.722   8.884  72.276  1.00  0.00    -0.257 F  
HETATM   14  C   UNL     1      -9.178   9.372  70.019  1.00  0.00    -0.245 A  
HETATM   15  C   UNL     1      -8.275   9.107  71.035  1.00  0.00    -0.137 A  
HETATM   16  C   UNL     1      -6.455   9.304  69.472  1.00  0.00    -0.043 A  
ENDROOT
BRANCH   8  17
HETATM   17  C   UNL     1      -5.865  12.358  66.981  1.00  0.00     0.028 C  
BRANCH  17  18
HETATM   18  C   UNL     1      -6.100  12.969  68.369  1.00  0.00    -0.081 C  
BRANCH  18  19
HETATM   19  N   UNL     1      -6.364  14.407  68.369  1.00  0.00    -0.092 NA 
HETATM   20  C   UNL     1      -8.784  14.653  67.661  1.00  0.00    -0.181 C  
HETATM   21  C   UNL     1      -7.302  14.884  67.348  1.00  0.00    -0.193 C  
HETATM   22  C   UNL     1      -9.149  15.095  69.083  1.00  0.00    -0.215 C  
HETATM   23  C   UNL     1      -8.143  14.614  70.134  1.00  0.00     0.778 C  
HETATM   24  N   UNL     1     -10.560  14.766  69.478  1.00  0.00    -0.217 NA 
HETATM   25  O   UNL     1      -8.329  17.437  68.758  1.00  0.00    -0.271 OA 
HETATM   26  C   UNL     1      -6.705  14.911  69.707  1.00  0.00    -0.179 C  
HETATM   27  C   UNL     1     -11.248  15.958  69.956  1.00  0.00    -0.353 C  
HETATM   28  C   UNL     1      -9.186  16.643  69.108  1.00  0.00    -0.167 C  
HETATM   29  N   UNL     1     -10.391  17.032  69.622  1.00  0.00    -0.152 NA 
BRANCH  24  30
HETATM   30  C   UNL     1     -11.196  13.538  69.524  1.00  0.00    -0.132 A  
HETATM   31  C   UNL     1     -11.787  13.020  70.683  1.00  0.00    -0.069 A  
HETATM   32  C   UNL     1     -12.353  11.735  70.737  1.00  0.00    -0.433 A  
HETATM   33  C   UNL     1     -12.375  10.932  69.608  1.00  0.00    -0.290 A  
HETATM   34  C   UNL     1     -11.850  11.419  68.423  1.00  0.00    -0.344 A  
HETATM   35  C   UNL     1     -11.270  12.700  68.391  1.00  0.00    -0.316 A  
ENDBRANCH  24  30
ENDBRANCH  18  19
ENDBRANCH  17  18
ENDBRANCH   8  17
TORSDOF 4
ENDMDL
MODEL      116
REMARK 921   NORMALIZED FREE ENERGY PREDICTED BY IDOCK:   -4.70 KCAL/MOL
REMARK 922        TOTAL FREE ENERGY PREDICTED BY IDOCK:   -7.67 KCAL/MOL
REMARK 923 INTER-LIGAND FREE ENERGY PREDICTED BY IDOCK:   -5.76 KCAL/MOL
REMARK 924 INTRA-LIGAND FREE ENERGY PREDICTED BY IDOCK:   -1.91 KCAL/MOL
REMARK 927      BINDING AFFINITY PREDICTED BY RF-SCORE:    0.00 PKD
ROOT
HETATM    1  F   UNL     1     -12.023   8.242  73.068  1.00  0.00    -0.444 F  
HETATM    2  C   UNL     1     -11.218   8.343  72.003  1.00  0.00    -0.334 A  
HETATM    3  C   UNL     1      -9.887   8.697  72.177  1.00  0.00    -0.387 A  
HETATM    4  C   UNL     1      -9.064   8.857  71.060  1.00  0.00    -0.303 A  
HETATM    5  C   UNL     1      -9.561   8.652  69.758  1.00  0.00    -0.171 A  
HETATM    6  C   UNL     1      -8.641   8.888  68.548  1.00  0.00    -0.133 C  
HETATM    7  C   UNL     1     -10.888   8.205  69.627  1.00  0.00    -0.162 A  
HETATM    8  C   UNL     1      -7.898   7.574  68.158  1.00  0.00    -0.122 C  
HETATM    9  C   UNL     1     -11.724   8.089  70.739  1.00  0.00    -0.215 A  
HETATM   10  C   UNL     1      -9.178   9.725  67.372  1.00  0.00    -0.151 A  
HETATM   11  C   UNL     1     -10.461  10.302  67.340  1.00  0.00    -0.303 A  
HETATM   12  C   UNL     1      -8.758  10.774  65.193  1.00  0.00    -0.174 A  
HETATM   13  F   UNL     1     -10.475  11.993  64.131  1.00  0.00    -0.287 F  
HETATM   14  C   UNL     1     -10.906  11.041  66.240  1.00  0.00    -0.234 A  
HETATM   15  C   UNL     1     -10.051  11.272  65.176  1.00  0.00    -0.275 A  
HETATM   16  C   UNL     1      -8.326  10.010  66.283  1.00  0.00    -0.127 A  
ENDROOT
BRANCH   8  17
HETATM   17  C   UNL     1      -8.745   6.344  67.788  1.00  0.00    -0.114 C  
BRANCH  17  18
HETATM   18  C   UNL     1      -8.022   4.991  67.762  1.00  0.00    -0.095 C  
BRANCH  18  19
HETATM   19  N   UNL     1      -8.712   3.914  68.470  1.00  0.00    -0.095 NA 
HETATM   20  C   UNL     1      -7.456   3.621  70.650  1.00  0.00    -0.041 C  
HETATM   21  C   UNL     1      -7.865   3.044  69.291  1.00  0.00    -0.046 C  
HETATM   22  C   UNL     1      -8.651   4.208  71.411  1.00  0.00    -0.101 C  
HETATM   23  C   UNL     1      -9.543   5.091  70.532  1.00  0.00    -0.252 C  
HETATM   24  N   UNL     1      -8.277   4.902  72.689  1.00  0.00    -0.114 NA 
HETATM   25  O   UNL     1      -9.967   2.080  71.344  1.00  0.00    -0.143 OA 
HETATM   26  C   UNL     1      -9.885   4.397  69.212  1.00  0.00    -0.148 C  
HETATM   27  C   UNL     1      -9.048   4.370  73.805  1.00  0.00    -0.104 C  
HETATM   28  C   UNL     1      -9.500   3.031  71.950  1.00  0.00    -0.137 C  
HETATM   29  N   UNL     1      -9.680   3.213  73.293  1.00  0.00    -0.104 NA 
BRANCH  24  30
HETATM   30  C   UNL     1      -7.419   5.969  72.891  1.00  0.00    -0.094 A  
HETATM   31  C   UNL     1      -7.269   6.613  74.125  1.00  0.00    -0.090 A  
HETATM   32  C   UNL     1      -6.459   7.749  74.294  1.00  0.00    -0.106 A  
HETATM   33  C   UNL     1      -5.740   8.263  73.226  1.00  0.00    -0.063 A  
HETATM   34  C   UNL     1      -5.815   7.630  71.997  1.00  0.00    -0.036 A  
HETATM   35  C   UNL     1      -6.644   6.505  71.840  1.00  0.00    -0.058 A  
ENDBRANCH  24  30
ENDBRANCH  18  19
ENDBRANCH  17  18
ENDBRANCH   8  17
TORSDOF 4
ENDMDL
MODEL      117
REMARK 921   NORMALIZED FREE ENERGY PREDICTED BY IDOCK:   -4.69 KCAL/MOL
REMARK 922        TOTAL FREE ENERGY PREDICTED BY IDOCK:   -7.66 KCAL/MOL
REMARK 923 INTER-LIGAND FREE ENERGY PREDICTED BY IDOCK:   -6.21 KCAL/MOL
REMARK 924 INTRA-LIGAND FREE ENERGY PREDICTED BY IDOCK:   -1.45 KCAL/MOL
REMARK 927      BINDING AFFINITY PREDICTED BY RF-SCORE:    0.00 PKD
ROOT
HETATM    1  F   UNL     1      -7.695   9.188  62.751  1.00  0.00    -0.111 F  
HETATM    2  C   UNL     1      -8.390   9.826  63.702  1.00  0.00    -0.169 A  
HETATM    3  C   UNL     1      -9.631  10.368  63.400  1.00  0.00    -0.361 A  
HETATM    4  C   UNL     1     -10.329  11.082  64.378  1.00  0.00    -0.424 A  
HETATM    5  C   UNL     1      -9.796  11.249  65.671  1.00  0.00    -0.277 A  
HETATM    6  C   UNL     1     -10.567  12.085  66.707  1.00  0.00    -0.260 C  
HETATM    7  C   UNL     1      -8.580  10.607  65.966  1.00  0.00    -0.177 A  
HETATM    8  C   UNL     1     -11.530  11.181  67.535  1.00  0.00    -0.296 C  
HETATM    9  C   UNL     1      -7.861   9.933  64.978  1.00  0.00    -0.131 A  
HETATM   10  C   UNL     1      -9.795  13.149  67.510  1.00  0.00    -0.216 A  
HETATM   11  C   UNL     1      -8.423  13.415  67.345  1.00  0.00    -0.197 A  
HETATM   12  C   UNL     1      -9.849  14.961  69.164  1.00  0.00    -0.200 A  
HETATM   13  F   UNL     1      -7.855  16.084  69.734  1.00  0.00    -0.196 F  
HETATM   14  C   UNL     1      -7.766  14.382  68.111  1.00  0.00    -0.131 A  
HETATM   15  C   UNL     1      -8.484  15.148  69.014  1.00  0.00    -0.214 A  
HETATM   16  C   UNL     1     -10.497  13.972  68.416  1.00  0.00    -0.254 A  
ENDROOT
BRANCH   8  17
HETATM   17  C   UNL     1     -10.925  10.011  68.330  1.00  0.00    -0.266 C  
BRANCH  17  18
HETATM   18  C   UNL     1     -10.661  10.254  69.822  1.00  0.00    -0.271 C  
BRANCH  18  19
HETATM   19  N   UNL     1     -10.979   9.123  70.692  1.00  0.00    -0.246 NA 
HETATM   20  C   UNL     1     -10.056   7.079  69.513  1.00  0.00    -0.179 C  
HETATM   21  C   UNL     1     -11.277   7.858  70.012  1.00  0.00    -0.100 C  
HETATM   22  C   UNL     1      -8.970   6.955  70.588  1.00  0.00    -0.151 C  
HETATM   23  C   UNL     1      -8.691   8.277  71.310  1.00  0.00    -0.186 C  
HETATM   24  N   UNL     1      -7.702   6.314  70.101  1.00  0.00    -0.096 NA 
HETATM   25  O   UNL     1     -10.495   5.879  72.256  1.00  0.00    -0.194 OA 
HETATM   26  C   UNL     1      -9.988   8.948  71.765  1.00  0.00    -0.327 C  
HETATM   27  C   UNL     1      -7.336   5.193  70.956  1.00  0.00    -0.073 C  
HETATM   28  C   UNL     1      -9.448   5.915  71.631  1.00  0.00    -0.149 C  
HETATM   29  N   UNL     1      -8.465   4.977  71.780  1.00  0.00    -0.122 NA 
BRANCH  24  30
HETATM   30  C   UNL     1      -6.863   6.699  69.071  1.00  0.00    -0.058 A  
HETATM   31  C   UNL     1      -6.041   7.830  69.130  1.00  0.00    -0.035 A  
HETATM   32  C   UNL     1      -5.259   8.258  68.044  1.00  0.00    -0.034 A  
HETATM   33  C   UNL     1      -5.250   7.536  66.860  1.00  0.00    -0.023 A  
HETATM   34  C   UNL     1      -6.006   6.381  66.770  1.00  0.00    -0.025 A  
HETATM   35  C   UNL     1      -6.798   5.977  67.860  1.00  0.00    -0.063 A  
ENDBRANCH  24  30
ENDBRANCH  18  19
ENDBRANCH  17  18
ENDBRANCH   8  17
TORSDOF 4
ENDMDL
MODEL      118
REMARK 921   NORMALIZED FREE ENERGY PREDICTED BY IDOCK:   -4.65 KCAL/MOL
REMARK 922        TOTAL FREE ENERGY PREDICTED BY IDOCK:   -7.61 KCAL/MOL
REMARK 923 INTER-LIGAND FREE ENERGY PREDICTED BY IDOCK:   -5.87 KCAL/MOL
REMARK 924 INTRA-LIGAND FREE ENERGY PREDICTED BY IDOCK:   -1.75 KCAL/MOL
REMARK 927      BINDING AFFINITY PREDICTED BY RF-SCORE:    0.00 PKD
ROOT
HETATM    1  F   UNL     1      -8.117  10.429  64.641  1.00  0.00    -0.159 F  
HETATM    2  C   UNL     1      -8.999  10.660  65.621  1.00  0.00    -0.185 A  
HETATM    3  C   UNL     1     -10.358  10.538  65.368  1.00  0.00    -0.292 A  
HETATM    4  C   UNL     1     -11.278  10.834  66.377  1.00  0.00     0.116 A  
HETATM    5  C   UNL     1     -10.846  11.243  67.654  1.00  0.00    -0.286 A  
HETATM    6  C   UNL     1     -11.887  11.611  68.725  1.00  0.00    -0.387 C  
HETATM    7  C   UNL     1      -9.462  11.266  67.900  1.00  0.00    -0.179 A  
HETATM    8  C   UNL     1     -12.268  10.361  69.573  1.00  0.00    -0.068 C  
HETATM    9  C   UNL     1      -8.543  11.015  66.880  1.00  0.00    -0.143 A  
HETATM   10  C   UNL     1     -11.693  12.919  69.514  1.00  0.00    -0.387 A  
HETATM   11  C   UNL     1     -10.625  13.811  69.307  1.00  0.00    -0.030 A  
HETATM   12  C   UNL     1     -12.553  14.492  71.191  1.00  0.00    -0.406 A  
HETATM   13  F   UNL     1     -11.324  16.437  71.709  1.00  0.00    -0.418 F  
HETATM   14  C   UNL     1     -10.486  14.978  70.063  1.00  0.00    -0.139 A  
HETATM   15  C   UNL     1     -11.452  15.310  70.998  1.00  0.00    -0.356 A  
HETATM   16  C   UNL     1     -12.672  13.309  70.453  1.00  0.00    -0.103 A  
ENDROOT
BRANCH   8  17
HETATM   17  C   UNL     1     -11.148   9.629  70.333  1.00  0.00    -0.346 C  
BRANCH  17  18
HETATM   18  C   UNL     1     -11.582   8.539  71.321  1.00  0.00    -0.283 C  
BRANCH  18  19
HETATM   19  N   UNL     1     -11.286   7.172  70.894  1.00  0.00    -0.275 NA 
HETATM   20  C   UNL     1      -9.683   7.403  68.946  1.00  0.00    -0.150 C  
HETATM   21  C   UNL     1     -11.066   6.986  69.456  1.00  0.00    -0.187 C  
HETATM   22  C   UNL     1      -8.553   6.840  69.816  1.00  0.00    -0.141 C  
HETATM   23  C   UNL     1      -8.811   7.015  71.316  1.00  0.00    -0.133 C  
HETATM   24  N   UNL     1      -7.187   7.331  69.431  1.00  0.00    -0.082 NA 
HETATM   25  O   UNL     1      -9.282   4.462  69.539  1.00  0.00    -0.105 OA 
HETATM   26  C   UNL     1     -10.220   6.555  71.697  1.00  0.00    -0.193 C  
HETATM   27  C   UNL     1      -6.285   6.209  69.209  1.00  0.00    -0.033 C  
HETATM   28  C   UNL     1      -8.423   5.328  69.512  1.00  0.00    -0.094 C  
HETATM   29  N   UNL     1      -7.119   5.067  69.194  1.00  0.00    -0.055 NA 
BRANCH  24  30
HETATM   30  C   UNL     1      -6.706   8.626  69.362  1.00  0.00    -0.049 A  
HETATM   31  C   UNL     1      -5.721   9.034  68.455  1.00  0.00    -0.038 A  
HETATM   32  C   UNL     1      -5.180  10.331  68.454  1.00  0.00    -0.035 A  
HETATM   33  C   UNL     1      -5.640  11.282  69.352  1.00  0.00    -0.046 A  
HETATM   34  C   UNL     1      -6.650  10.942  70.235  1.00  0.00    -0.065 A  
HETATM   35  C   UNL     1      -7.167   9.635  70.236  1.00  0.00    -0.137 A  
ENDBRANCH  24  30
ENDBRANCH  18  19
ENDBRANCH  17  18
ENDBRANCH   8  17
TORSDOF 4
ENDMDL
MODEL      119
REMARK 921   NORMALIZED FREE ENERGY PREDICTED BY IDOCK:   -4.64 KCAL/MOL
REMARK 922        TOTAL FREE ENERGY PREDICTED BY IDOCK:   -7.61 KCAL/MOL
REMARK 923 INTER-LIGAND FREE ENERGY PREDICTED BY IDOCK:   -5.41 KCAL/MOL
REMARK 924 INTRA-LIGAND FREE ENERGY PREDICTED BY IDOCK:   -2.20 KCAL/MOL
REMARK 927      BINDING AFFINITY PREDICTED BY RF-SCORE:    0.00 PKD
ROOT
HETATM    1  F   UNL     1     -11.136  16.233  69.746  1.00  0.00    -0.282 F  
HETATM    2  C   UNL     1     -10.993  14.957  69.367  1.00  0.00    -0.271 A  
HETATM    3  C   UNL     1     -12.044  14.066  69.538  1.00  0.00    -0.397 A  
HETATM    4  C   UNL     1     -11.874  12.723  69.193  1.00  0.00    -0.352 A  
HETATM    5  C   UNL     1     -10.654  12.260  68.662  1.00  0.00    -0.249 A  
HETATM    6  C   UNL     1     -10.484  10.765  68.342  1.00  0.00    -0.207 C  
HETATM    7  C   UNL     1      -9.645  13.210  68.417  1.00  0.00    -0.186 A  
HETATM    8  C   UNL     1     -10.904  10.467  66.871  1.00  0.00    -0.229 C  
HETATM    9  C   UNL     1      -9.798  14.542  68.803  1.00  0.00    -0.220 A  
HETATM   10  C   UNL     1      -9.208  10.054  68.829  1.00  0.00    -0.159 A  
HETATM   11  C   UNL     1      -8.187  10.686  69.564  1.00  0.00    -0.036 A  
HETATM   12  C   UNL     1      -7.931   7.968  69.035  1.00  0.00    -0.114 A  
HETATM   13  F   UNL     1      -5.829   7.984  70.105  1.00  0.00    -0.023 F  
HETATM   14  C   UNL     1      -7.040   9.997  69.968  1.00  0.00    -0.146 A  
HETATM   15  C   UNL     1      -6.921   8.644  69.701  1.00  0.00    -0.050 A  
HETATM   16  C   UNL     1      -9.064   8.668  68.605  1.00  0.00    -0.138 A  
ENDROOT
BRANCH   8  17
HETATM   17  C   UNL     1     -10.169  11.208  65.741  1.00  0.00    -0.310 C  
BRANCH  17  18
HETATM   18  C   UNL     1      -9.999  10.452  64.416  1.00  0.00    -0.318 C  
BRANCH  18  19
HETATM   19  N   UNL     1      -8.634  10.431  63.894  1.00  0.00    -0.175 NA 
HETATM   20  C   UNL     1      -7.294   9.061  65.552  1.00  0.00    -0.085 C  
HETATM   21  C   UNL     1      -7.566  10.420  64.899  1.00  0.00    -0.074 C  
HETATM   22  C   UNL     1      -7.172   7.937  64.517  1.00  0.00    -0.080 C  
HETATM   23  C   UNL     1      -8.278   7.979  63.456  1.00  0.00    -0.038 C  
HETATM   24  N   UNL     1      -7.037   6.567  65.118  1.00  0.00    -0.058 NA 
HETATM   25  O   UNL     1      -5.331   9.062  63.248  1.00  0.00    -0.067 OA 
HETATM   26  C   UNL     1      -8.441   9.385  62.878  1.00  0.00    -0.206 C  
HETATM   27  C   UNL     1      -5.863   5.889  64.586  1.00  0.00    -0.025 C  
HETATM   28  C   UNL     1      -5.804   8.086  63.808  1.00  0.00    -0.058 C  
HETATM   29  N   UNL     1      -5.149   6.889  63.887  1.00  0.00    -0.027 NA 
BRANCH  24  30
HETATM   30  C   UNL     1      -7.889   5.899  65.980  1.00  0.00    -0.105 A  
HETATM   31  C   UNL     1      -9.269   6.128  66.030  1.00  0.00    -0.116 A  
HETATM   32  C   UNL     1     -10.108   5.506  66.968  1.00  0.00    -0.226 A  
HETATM   33  C   UNL     1      -9.590   4.597  67.878  1.00  0.00    -0.205 A  
HETATM   34  C   UNL     1      -8.239   4.297  67.835  1.00  0.00    -0.094 A  
HETATM   35  C   UNL     1      -7.409   4.943  66.901  1.00  0.00    -0.085 A  
ENDBRANCH  24  30
ENDBRANCH  18  19
ENDBRANCH  17  18
ENDBRANCH   8  17
TORSDOF 4
ENDMDL
MODEL      120
REMARK 921   NORMALIZED FREE ENERGY PREDICTED BY IDOCK:   -4.62 KCAL/MOL
REMARK 922        TOTAL FREE ENERGY PREDICTED BY IDOCK:   -7.58 KCAL/MOL
REMARK 923 INTER-LIGAND FREE ENERGY PREDICTED BY IDOCK:   -6.61 KCAL/MOL
REMARK 924 INTRA-LIGAND FREE ENERGY PREDICTED BY IDOCK:   -0.97 KCAL/MOL
REMARK 927      BINDING AFFINITY PREDICTED BY RF-SCORE:    0.00 PKD
ROOT
HETATM    1  F   UNL     1      -7.284   3.851  64.440  1.00  0.00    -0.053 F  
HETATM    2  C   UNL     1      -7.489   4.981  65.128  1.00  0.00    -0.076 A  
HETATM    3  C   UNL     1      -6.405   5.746  65.535  1.00  0.00    -0.041 A  
HETATM    4  C   UNL     1      -6.618   6.895  66.301  1.00  0.00    -0.052 A  
HETATM    5  C   UNL     1      -7.921   7.296  66.656  1.00  0.00    -0.114 A  
HETATM    6  C   UNL     1      -8.117   8.537  67.544  1.00  0.00    -0.107 C  
HETATM    7  C   UNL     1      -8.998   6.549  66.148  1.00  0.00    -0.161 A  
HETATM    8  C   UNL     1      -8.272   9.819  66.671  1.00  0.00    -0.120 C  
HETATM    9  C   UNL     1      -8.784   5.376  65.422  1.00  0.00    -0.154 A  
HETATM   10  C   UNL     1      -9.069   8.431  68.750  1.00  0.00    -0.143 A  
HETATM   11  C   UNL     1      -9.766   7.260  69.100  1.00  0.00    -0.160 A  
HETATM   12  C   UNL     1     -10.054   9.493  70.731  1.00  0.00    -0.352 A  
HETATM   13  F   UNL     1     -11.587   8.293  72.062  1.00  0.00    -0.304 F  
HETATM   14  C   UNL     1     -10.633   7.222  70.196  1.00  0.00    -0.245 A  
HETATM   15  C   UNL     1     -10.769   8.339  71.004  1.00  0.00    -0.218 A  
HETATM   16  C   UNL     1      -9.210   9.537  69.616  1.00  0.00    -0.212 A  
ENDROOT
BRANCH   8  17
HETATM   17  C   UNL     1      -9.423   9.867  65.650  1.00  0.00    -0.295 C  
BRANCH  17  18
HETATM   18  C   UNL     1     -10.641  10.722  66.023  1.00  0.00    -0.156 C  
BRANCH  18  19
HETATM   19  N   UNL     1     -11.230  11.467  64.912  1.00  0.00    -0.224 NA 
HETATM   20  C   UNL     1     -12.417  13.439  65.972  1.00  0.00    -0.431 C  
HETATM   21  C   UNL     1     -12.511  12.124  65.191  1.00  0.00     0.074 C  
HETATM   22  C   UNL     1     -11.361  14.383  65.387  1.00  0.00    -0.339 C  
HETATM   23  C   UNL     1     -10.037  13.677  65.073  1.00  0.00    -0.293 C  
HETATM   24  N   UNL     1     -11.142  15.628  66.198  1.00  0.00    -0.200 NA 
HETATM   25  O   UNL     1     -12.381  14.399  63.102  1.00  0.00    -0.426 OA 
HETATM   26  C   UNL     1     -10.268  12.386  64.285  1.00  0.00    -0.332 C  
HETATM   27  C   UNL     1     -11.284  16.813  65.363  1.00  0.00     0.201 C  
HETATM   28  C   UNL     1     -11.925  14.979  64.074  1.00  0.00    -0.058 C  
HETATM   29  N   UNL     1     -11.829  16.340  64.148  1.00  0.00    -0.844 NA 
BRANCH  24  30
HETATM   30  C   UNL     1     -10.759  15.759  67.521  1.00  0.00    -0.317 A  
HETATM   31  C   UNL     1     -11.388  15.084  68.574  1.00  0.00    -0.317 A  
HETATM   32  C   UNL     1     -11.045  15.291  69.921  1.00  0.00    -0.303 A  
HETATM   33  C   UNL     1     -10.025  16.168  70.257  1.00  0.00     0.478 A  
HETATM   34  C   UNL     1      -9.338  16.820  69.248  1.00  0.00    -0.074 A  
HETATM   35  C   UNL     1      -9.705  16.616  67.907  1.00  0.00    -0.244 A  
ENDBRANCH  24  30
ENDBRANCH  18  19
ENDBRANCH  17  18
ENDBRANCH   8  17
TORSDOF 4
ENDMDL
MODEL      121
REMARK 921   NORMALIZED FREE ENERGY PREDICTED BY IDOCK:   -4.62 KCAL/MOL
REMARK 922        TOTAL FREE ENERGY PREDICTED BY IDOCK:   -7.58 KCAL/MOL
REMARK 923 INTER-LIGAND FREE ENERGY PREDICTED BY IDOCK:   -6.25 KCAL/MOL
REMARK 924 INTRA-LIGAND FREE ENERGY PREDICTED BY IDOCK:   -1.32 KCAL/MOL
REMARK 927      BINDING AFFINITY PREDICTED BY RF-SCORE:    0.00 PKD
ROOT
HETATM    1  F   UNL     1     -12.222   6.624  72.470  1.00  0.00    -0.242 F  
HETATM    2  C   UNL     1     -11.352   7.389  71.798  1.00  0.00    -0.255 A  
HETATM    3  C   UNL     1     -10.480   8.213  72.494  1.00  0.00    -0.409 A  
HETATM    4  C   UNL     1      -9.611   9.052  71.790  1.00  0.00    -0.278 A  
HETATM    5  C   UNL     1      -9.600   9.064  70.381  1.00  0.00    -0.246 A  
HETATM    6  C   UNL     1      -8.669  10.038  69.638  1.00  0.00    -0.210 C  
HETATM    7  C   UNL     1     -10.433   8.149  69.712  1.00  0.00    -0.227 A  
HETATM    8  C   UNL     1      -7.290   9.370  69.354  1.00  0.00    -0.078 C  
HETATM    9  C   UNL     1     -11.332   7.345  70.413  1.00  0.00    -0.273 A  
HETATM   10  C   UNL     1      -9.255  10.875  68.486  1.00  0.00    -0.181 A  
HETATM   11  C   UNL     1     -10.600  10.815  68.076  1.00  0.00    -0.245 A  
HETATM   12  C   UNL     1      -8.917  12.617  66.791  1.00  0.00    -0.197 A  
HETATM   13  F   UNL     1     -10.697  13.229  65.371  1.00  0.00    -0.278 F  
HETATM   14  C   UNL     1     -11.077  11.586  67.012  1.00  0.00    -0.365 A  
HETATM   15  C   UNL     1     -10.232  12.481  66.379  1.00  0.00    -0.244 A  
HETATM   16  C   UNL     1      -8.435  11.822  67.837  1.00  0.00    -0.154 A  
ENDROOT
BRANCH   8  17
HETATM   17  C   UNL     1      -7.267   8.075  68.523  1.00  0.00    -0.085 C  
BRANCH  17  18
HETATM   18  C   UNL     1      -6.020   7.828  67.664  1.00  0.00    -0.045 C  
BRANCH  18  19
HETATM   19  N   UNL     1      -6.287   7.625  66.241  1.00  0.00    -0.045 NA 
HETATM   20  C   UNL     1      -6.702   5.140  65.976  1.00  0.00    -0.053 C  
HETATM   21  C   UNL     1      -5.818   6.355  65.678  1.00  0.00    -0.025 C  
HETATM   22  C   UNL     1      -8.184   5.422  65.700  1.00  0.00    -0.124 C  
HETATM   23  C   UNL     1      -8.651   6.766  66.269  1.00  0.00    -0.141 C  
HETATM   24  N   UNL     1      -9.101   4.303  66.104  1.00  0.00    -0.126 NA 
HETATM   25  O   UNL     1      -7.798   6.085  63.318  1.00  0.00    -0.093 OA 
HETATM   26  C   UNL     1      -7.690   7.895  65.893  1.00  0.00    -0.093 C  
HETATM   27  C   UNL     1      -9.951   3.912  64.987  1.00  0.00    -0.184 C  
HETATM   28  C   UNL     1      -8.390   5.437  64.166  1.00  0.00    -0.118 C  
HETATM   29  N   UNL     1      -9.405   4.573  63.863  1.00  0.00    -0.109 NA 
BRANCH  24  30
HETATM   30  C   UNL     1      -9.279   3.717  67.344  1.00  0.00    -0.189 A  
HETATM   31  C   UNL     1      -9.646   4.434  68.489  1.00  0.00    -0.208 A  
HETATM   32  C   UNL     1      -9.738   3.841  69.759  1.00  0.00    -0.193 A  
HETATM   33  C   UNL     1      -9.495   2.485  69.918  1.00  0.00    -0.133 A  
HETATM   34  C   UNL     1      -9.179   1.722  68.808  1.00  0.00    -0.211 A  
HETATM   35  C   UNL     1      -9.073   2.335  67.546  1.00  0.00    -0.196 A  
ENDBRANCH  24  30
ENDBRANCH  18  19
ENDBRANCH  17  18
ENDBRANCH   8  17
TORSDOF 4
ENDMDL
MODEL      122
REMARK 921   NORMALIZED FREE ENERGY PREDICTED BY IDOCK:   -4.61 KCAL/MOL
REMARK 922        TOTAL FREE ENERGY PREDICTED BY IDOCK:   -7.57 KCAL/MOL
REMARK 923 INTER-LIGAND FREE ENERGY PREDICTED BY IDOCK:   -5.51 KCAL/MOL
REMARK 924 INTRA-LIGAND FREE ENERGY PREDICTED BY IDOCK:   -2.06 KCAL/MOL
REMARK 927      BINDING AFFINITY PREDICTED BY RF-SCORE:    0.00 PKD
ROOT
HETATM    1  F   UNL     1      -8.473   4.213  70.593  1.00  0.00    -0.067 F  
HETATM    2  C   UNL     1      -8.187   5.219  69.757  1.00  0.00    -0.098 A  
HETATM    3  C   UNL     1      -7.361   4.993  68.664  1.00  0.00    -0.062 A  
HETATM    4  C   UNL     1      -7.020   6.057  67.825  1.00  0.00    -0.069 A  
HETATM    5  C   UNL     1      -7.511   7.356  68.066  1.00  0.00    -0.105 A  
HETATM    6  C   UNL     1      -7.072   8.513  67.153  1.00  0.00    -0.076 C  
HETATM    7  C   UNL     1      -8.418   7.526  69.127  1.00  0.00    -0.136 A  
HETATM    8  C   UNL     1      -8.059   8.675  65.957  1.00  0.00    -0.109 C  
HETATM    9  C   UNL     1      -8.723   6.475  69.991  1.00  0.00    -0.140 A  
HETATM   10  C   UNL     1      -6.600   9.824  67.810  1.00  0.00    -0.068 A  
HETATM   11  C   UNL     1      -6.531  10.026  69.200  1.00  0.00    -0.048 A  
HETATM   12  C   UNL     1      -5.679  12.082  67.535  1.00  0.00    -0.107 A  
HETATM   13  F   UNL     1      -5.268  13.417  69.434  1.00  0.00    -0.077 F  
HETATM   14  C   UNL     1      -6.110  11.242  69.746  1.00  0.00    -0.112 A  
HETATM   15  C   UNL     1      -5.686  12.260  68.908  1.00  0.00    -0.060 A  
HETATM   16  C   UNL     1      -6.129  10.874  66.992  1.00  0.00    -0.074 A  
ENDROOT
BRANCH   8  17
HETATM   17  C   UNL     1      -9.541   8.946  66.270  1.00  0.00    -0.328 C  
BRANCH  17  18
HETATM   18  C   UNL     1      -9.915  10.386  66.643  1.00  0.00    -0.210 C  
BRANCH  18  19
HETATM   19  N   UNL     1     -10.717  10.515  67.858  1.00  0.00    -0.238 NA 
HETATM   20  C   UNL     1      -9.632  12.376  69.192  1.00  0.00     0.514 C  
HETATM   21  C   UNL     1      -9.983  10.890  69.071  1.00  0.00    -0.191 C  
HETATM   22  C   UNL     1     -10.837  13.279  68.903  1.00  0.00    -0.210 C  
HETATM   23  C   UNL     1     -11.612  12.857  67.650  1.00  0.00    -0.406 C  
HETATM   24  N   UNL     1     -10.508  14.745  68.881  1.00  0.00    -0.243 NA 
HETATM   25  O   UNL     1     -12.274  12.225  70.660  1.00  0.00    -0.371 OA 
HETATM   26  C   UNL     1     -11.906  11.356  67.656  1.00  0.00    -0.078 C  
HETATM   27  C   UNL     1     -11.384  15.478  69.784  1.00  0.00    -0.319 C  
HETATM   28  C   UNL     1     -11.791  13.207  70.120  1.00  0.00    -0.257 C  
HETATM   29  N   UNL     1     -12.050  14.483  70.536  1.00  0.00    -0.303 NA 
BRANCH  24  30
HETATM   30  C   UNL     1      -9.602  15.429  68.091  1.00  0.00    -0.203 A  
HETATM   31  C   UNL     1      -9.982  16.325  67.084  1.00  0.00    -0.257 A  
HETATM   32  C   UNL     1      -9.055  16.948  66.233  1.00  0.00    -0.302 A  
HETATM   33  C   UNL     1      -7.697  16.715  66.386  1.00  0.00    -0.328 A  
HETATM   34  C   UNL     1      -7.268  15.877  67.400  1.00  0.00    -0.227 A  
HETATM   35  C   UNL     1      -8.210  15.247  68.232  1.00  0.00    -0.142 A  
ENDBRANCH  24  30
ENDBRANCH  18  19
ENDBRANCH  17  18
ENDBRANCH   8  17
TORSDOF 4
ENDMDL
MODEL      123
REMARK 921   NORMALIZED FREE ENERGY PREDICTED BY IDOCK:   -4.61 KCAL/MOL
REMARK 922        TOTAL FREE ENERGY PREDICTED BY IDOCK:   -7.56 KCAL/MOL
REMARK 923 INTER-LIGAND FREE ENERGY PREDICTED BY IDOCK:   -6.19 KCAL/MOL
REMARK 924 INTRA-LIGAND FREE ENERGY PREDICTED BY IDOCK:   -1.37 KCAL/MOL
REMARK 927      BINDING AFFINITY PREDICTED BY RF-SCORE:    0.00 PKD
ROOT
HETATM    1  F   UNL     1     -12.418  15.889  70.686  1.00  0.00    -0.412 F  
HETATM    2  C   UNL     1     -11.505  15.203  69.987  1.00  0.00    -0.286 A  
HETATM    3  C   UNL     1     -10.339  15.832  69.574  1.00  0.00    -0.272 A  
HETATM    4  C   UNL     1      -9.413  15.130  68.798  1.00  0.00    -0.209 A  
HETATM    5  C   UNL     1      -9.641  13.788  68.436  1.00  0.00    -0.206 A  
HETATM    6  C   UNL     1      -8.626  13.062  67.536  1.00  0.00    -0.192 C  
HETATM    7  C   UNL     1     -10.788  13.157  68.950  1.00  0.00    -0.240 A  
HETATM    8  C   UNL     1      -7.544  12.344  68.398  1.00  0.00    -0.129 C  
HETATM    9  C   UNL     1     -11.735  13.870  69.687  1.00  0.00    -0.370 A  
HETATM   10  C   UNL     1      -9.157  12.265  66.330  1.00  0.00    -0.158 A  
HETATM   11  C   UNL     1     -10.519  12.169  65.990  1.00  0.00    -0.281 A  
HETATM   12  C   UNL     1      -8.664  10.920  64.338  1.00  0.00    -0.014 A  
HETATM   13  F   UNL     1     -10.434  10.095  63.016  1.00  0.00     0.122 F  
HETATM   14  C   UNL     1     -10.949  11.418  64.893  1.00  0.00    -0.284 A  
HETATM   15  C   UNL     1     -10.019  10.800  64.075  1.00  0.00    -0.342 A  
HETATM   16  C   UNL     1      -8.238  11.648  65.454  1.00  0.00     0.648 A  
ENDROOT
BRANCH   8  17
HETATM   17  C   UNL     1      -8.008  11.288  69.416  1.00  0.00     0.179 C  
BRANCH  17  18
HETATM   18  C   UNL     1      -6.926  10.374  70.006  1.00  0.00    -0.157 C  
BRANCH  18  19
HETATM   19  N   UNL     1      -6.881   9.030  69.433  1.00  0.00    -0.048 NA 
HETATM   20  C   UNL     1      -8.569   7.675  70.750  1.00  0.00    -0.134 C  
HETATM   21  C   UNL     1      -7.105   7.928  70.374  1.00  0.00    -0.046 C  
HETATM   22  C   UNL     1      -9.481   7.624  69.519  1.00  0.00    -0.152 C  
HETATM   23  C   UNL     1      -9.214   8.765  68.531  1.00  0.00    -0.141 C  
HETATM   24  N   UNL     1     -10.942   7.511  69.849  1.00  0.00    -0.240 NA 
HETATM   25  O   UNL     1      -8.181   5.796  68.409  1.00  0.00    -0.106 OA 
HETATM   26  C   UNL     1      -7.721   8.906  68.233  1.00  0.00    -0.096 C  
HETATM   27  C   UNL     1     -11.536   6.378  69.152  1.00  0.00    -0.190 C  
HETATM   28  C   UNL     1      -9.233   6.278  68.795  1.00  0.00    -0.125 C  
HETATM   29  N   UNL     1     -10.440   5.658  68.623  1.00  0.00    -0.211 NA 
BRANCH  24  30
HETATM   30  C   UNL     1     -11.740   8.351  70.605  1.00  0.00    -0.147 A  
HETATM   31  C   UNL     1     -11.559   9.738  70.662  1.00  0.00    -0.389 A  
HETATM   32  C   UNL     1     -12.321  10.569  71.500  1.00  0.00    -0.443 A  
HETATM   33  C   UNL     1     -13.324  10.034  72.293  1.00  0.00    -0.387 A  
HETATM   34  C   UNL     1     -13.576   8.674  72.233  1.00  0.00    -0.428 A  
HETATM   35  C   UNL     1     -12.792   7.854  71.403  1.00  0.00    -0.305 A  
ENDBRANCH  24  30
ENDBRANCH  18  19
ENDBRANCH  17  18
ENDBRANCH   8  17
TORSDOF 4
ENDMDL
MODEL      124
REMARK 921   NORMALIZED FREE ENERGY PREDICTED BY IDOCK:   -4.61 KCAL/MOL
REMARK 922        TOTAL FREE ENERGY PREDICTED BY IDOCK:   -7.56 KCAL/MOL
REMARK 923 INTER-LIGAND FREE ENERGY PREDICTED BY IDOCK:   -5.89 KCAL/MOL
REMARK 924 INTRA-LIGAND FREE ENERGY PREDICTED BY IDOCK:   -1.67 KCAL/MOL
REMARK 927      BINDING AFFINITY PREDICTED BY RF-SCORE:    0.00 PKD
ROOT
HETATM    1  F   UNL     1     -10.208  18.345  69.277  1.00  0.00    -0.383 F  
HETATM    2  C   UNL     1     -10.135  17.077  68.851  1.00  0.00    -0.307 A  
HETATM    3  C   UNL     1      -8.899  16.453  68.756  1.00  0.00    -0.246 A  
HETATM    4  C   UNL     1      -8.820  15.150  68.259  1.00  0.00    -0.173 A  
HETATM    5  C   UNL     1      -9.979  14.454  67.862  1.00  0.00    -0.228 A  
HETATM    6  C   UNL     1      -9.850  13.040  67.270  1.00  0.00    -0.227 C  
HETATM    7  C   UNL     1     -11.221  15.085  68.060  1.00  0.00    -0.324 A  
HETATM    8  C   UNL     1      -9.939  11.964  68.393  1.00  0.00    -0.203 C  
HETATM    9  C   UNL     1     -11.297  16.402  68.514  1.00  0.00    -0.289 A  
HETATM   10  C   UNL     1     -10.617  12.718  65.974  1.00  0.00    -0.289 A  
HETATM   11  C   UNL     1     -11.423  13.644  65.287  1.00  0.00    -0.320 A  
HETATM   12  C   UNL     1     -11.124  11.104  64.196  1.00  0.00    -0.171 A  
HETATM   13  F   UNL     1     -12.604  11.702  62.460  1.00  0.00    -0.111 F  
HETATM   14  C   UNL     1     -12.112  13.295  64.122  1.00  0.00    -0.494 A  
HETATM   15  C   UNL     1     -11.956  12.028  63.585  1.00  0.00    -0.515 A  
HETATM   16  C   UNL     1     -10.459  11.448  65.378  1.00  0.00    -0.336 A  
ENDROOT
BRANCH   8  17
HETATM   17  C   UNL     1     -11.208  11.923  69.263  1.00  0.00    -0.304 C  
BRANCH  17  18
HETATM   18  C   UNL     1     -11.062  11.333  70.671  1.00  0.00     0.816 C  
BRANCH  18  19
HETATM   19  N   UNL     1     -11.381   9.910  70.776  1.00  0.00    -0.326 NA 
HETATM   20  C   UNL     1     -10.831   8.924  68.508  1.00  0.00    -0.038 C  
HETATM   21  C   UNL     1     -11.892   9.280  69.555  1.00  0.00     0.642 C  
HETATM   22  C   UNL     1      -9.636   8.187  69.123  1.00  0.00    -0.157 C  
HETATM   23  C   UNL     1      -9.133   8.841  70.415  1.00  0.00    -0.198 C  
HETATM   24  N   UNL     1      -8.513   7.936  68.158  1.00  0.00    -0.123 NA 
HETATM   25  O   UNL     1     -11.038   6.358  70.098  1.00  0.00    -0.299 OA 
HETATM   26  C   UNL     1     -10.285   9.136  71.376  1.00  0.00    -0.332 C  
HETATM   27  C   UNL     1      -8.158   6.523  68.144  1.00  0.00    -0.113 C  
HETATM   28  C   UNL     1     -10.081   6.740  69.445  1.00  0.00    -0.171 C  
HETATM   29  N   UNL     1      -9.189   5.880  68.867  1.00  0.00    -0.119 NA 
BRANCH  24  30
HETATM   30  C   UNL     1      -7.777   8.840  67.413  1.00  0.00    -0.097 A  
HETATM   31  C   UNL     1      -7.045   9.889  67.980  1.00  0.00    -0.082 A  
HETATM   32  C   UNL     1      -6.373  10.851  67.207  1.00  0.00    -0.068 A  
HETATM   33  C   UNL     1      -6.385  10.770  65.823  1.00  0.00    -0.089 A  
HETATM   34  C   UNL     1      -7.051   9.720  65.216  1.00  0.00    -0.119 A  
HETATM   35  C   UNL     1      -7.735   8.777  66.003  1.00  0.00    -0.097 A  
ENDBRANCH  24  30
ENDBRANCH  18  19
ENDBRANCH  17  18
ENDBRANCH   8  17
TORSDOF 4
ENDMDL
MODEL      125
REMARK 921   NORMALIZED FREE ENERGY PREDICTED BY IDOCK:   -4.60 KCAL/MOL
REMARK 922        TOTAL FREE ENERGY PREDICTED BY IDOCK:   -7.55 KCAL/MOL
REMARK 923 INTER-LIGAND FREE ENERGY PREDICTED BY IDOCK:   -6.35 KCAL/MOL
REMARK 924 INTRA-LIGAND FREE ENERGY PREDICTED BY IDOCK:   -1.20 KCAL/MOL
REMARK 927      BINDING AFFINITY PREDICTED BY RF-SCORE:    0.00 PKD
ROOT
HETATM    1  F   UNL     1     -12.872  14.200  66.486  1.00  0.00    -0.422 F  
HETATM    2  C   UNL     1     -11.826  13.396  66.711  1.00  0.00    -0.403 A  
HETATM    3  C   UNL     1     -10.765  13.846  67.485  1.00  0.00    -0.271 A  
HETATM    4  C   UNL     1      -9.650  13.026  67.672  1.00  0.00    -0.206 A  
HETATM    5  C   UNL     1      -9.590  11.742  67.095  1.00  0.00    -0.189 A  
HETATM    6  C   UNL     1      -8.324  10.886  67.278  1.00  0.00    -0.123 C  
HETATM    7  C   UNL     1     -10.721  11.285  66.395  1.00  0.00    -0.320 A  
HETATM    8  C   UNL     1      -8.444   9.993  68.549  1.00  0.00    -0.115 C  
HETATM    9  C   UNL     1     -11.816  12.120  66.171  1.00  0.00    -0.327 A  
HETATM   10  C   UNL     1      -7.717  10.205  66.038  1.00  0.00    -0.120 A  
HETATM   11  C   UNL     1      -8.243  10.326  64.738  1.00  0.00    -0.163 A  
HETATM   12  C   UNL     1      -5.918   8.840  65.078  1.00  0.00    -0.059 A  
HETATM   13  F   UNL     1      -5.941   8.324  62.777  1.00  0.00    -0.076 F  
HETATM   14  C   UNL     1      -7.662   9.672  63.648  1.00  0.00    -0.129 A  
HETATM   15  C   UNL     1      -6.503   8.935  63.826  1.00  0.00    -0.088 A  
HETATM   16  C   UNL     1      -6.519   9.471  66.172  1.00  0.00    -0.070 A  
ENDROOT
BRANCH   8  17
HETATM   17  C   UNL     1      -9.617   9.001  68.633  1.00  0.00    -0.158 C  
BRANCH  17  18
HETATM   18  C   UNL     1     -10.672   9.269  69.714  1.00  0.00    -0.231 C  
BRANCH  18  19
HETATM   19  N   UNL     1     -10.827   8.198  70.698  1.00  0.00    -0.229 NA 
HETATM   20  C   UNL     1     -11.346   6.113  69.355  1.00  0.00    -0.401 C  
HETATM   21  C   UNL     1     -11.812   7.164  70.367  1.00  0.00    -0.191 C  
HETATM   22  C   UNL     1      -9.963   5.551  69.702  1.00  0.00    -0.214 C  
HETATM   23  C   UNL     1      -8.952   6.640  70.075  1.00  0.00    -0.144 C  
HETATM   24  N   UNL     1      -9.408   4.615  68.667  1.00  0.00    -0.129 NA 
HETATM   25  O   UNL     1     -10.644   4.809  71.994  1.00  0.00    -0.186 OA 
HETATM   26  C   UNL     1      -9.536   7.617  71.097  1.00  0.00    -0.154 C  
HETATM   27  C   UNL     1      -9.023   3.349  69.276  1.00  0.00    -0.117 C  
HETATM   28  C   UNL     1     -10.125   4.596  70.910  1.00  0.00    -0.187 C  
HETATM   29  N   UNL     1      -9.560   3.395  70.584  1.00  0.00    -0.179 NA 
BRANCH  24  30
HETATM   30  C   UNL     1      -9.157   4.839  67.325  1.00  0.00    -0.119 A  
HETATM   31  C   UNL     1      -8.246   5.797  66.863  1.00  0.00    -0.101 A  
HETATM   32  C   UNL     1      -8.063   6.074  65.498  1.00  0.00    -0.133 A  
HETATM   33  C   UNL     1      -8.773   5.368  64.539  1.00  0.00    -0.028 A  
HETATM   34  C   UNL     1      -9.648   4.374  64.944  1.00  0.00    -0.160 A  
HETATM   35  C   UNL     1      -9.833   4.122  66.314  1.00  0.00    -0.208 A  
ENDBRANCH  24  30
ENDBRANCH  18  19
ENDBRANCH  17  18
ENDBRANCH   8  17
TORSDOF 4
ENDMDL
MODEL      126
REMARK 921   NORMALIZED FREE ENERGY PREDICTED BY IDOCK:   -4.59 KCAL/MOL
REMARK 922        TOTAL FREE ENERGY PREDICTED BY IDOCK:   -7.54 KCAL/MOL
REMARK 923 INTER-LIGAND FREE ENERGY PREDICTED BY IDOCK:   -7.99 KCAL/MOL
REMARK 924 INTRA-LIGAND FREE ENERGY PREDICTED BY IDOCK:    0.46 KCAL/MOL
REMARK 927      BINDING AFFINITY PREDICTED BY RF-SCORE:    0.00 PKD
ROOT
HETATM    1  F   UNL     1     -14.273  16.405  73.500  1.00  0.00    -0.453 F  
HETATM    2  C   UNL     1     -13.662  15.630  72.594  1.00  0.00    -0.579 A  
HETATM    3  C   UNL     1     -14.090  15.646  71.274  1.00  0.00    -0.141 A  
HETATM    4  C   UNL     1     -13.489  14.796  70.342  1.00  0.00     0.154 A  
HETATM    5  C   UNL     1     -12.445  13.929  70.721  1.00  0.00    -0.445 A  
HETATM    6  C   UNL     1     -11.841  12.969  69.682  1.00  0.00    -0.385 C  
HETATM    7  C   UNL     1     -11.977  14.008  72.045  1.00  0.00     0.308 A  
HETATM    8  C   UNL     1     -10.635  13.635  68.954  1.00  0.00    -0.211 C  
HETATM    9  C   UNL     1     -12.606  14.823  72.986  1.00  0.00    -0.504 A  
HETATM   10  C   UNL     1     -11.651  11.492  70.074  1.00  0.00    -0.364 A  
HETATM   11  C   UNL     1     -12.009  10.959  71.327  1.00  0.00    -0.226 A  
HETATM   12  C   UNL     1     -10.979   9.226  69.412  1.00  0.00    -0.138 A  
HETATM   13  F   UNL     1     -11.104   7.465  70.974  1.00  0.00    -0.246 F  
HETATM   14  C   UNL     1     -11.800   9.613  71.638  1.00  0.00    -0.457 A  
HETATM   15  C   UNL     1     -11.287   8.757  70.678  1.00  0.00    -0.254 A  
HETATM   16  C   UNL     1     -11.162  10.581  69.113  1.00  0.00    -0.314 A  
ENDROOT
BRANCH   8  17
HETATM   17  C   UNL     1      -9.444  14.109  69.805  1.00  0.00     0.964 C  
BRANCH  17  18
HETATM   18  C   UNL     1      -8.219  14.638  69.046  1.00  0.00    -0.110 C  
BRANCH  18  19
HETATM   19  N   UNL     1      -8.384  15.972  68.472  1.00  0.00    -0.181 NA 
HETATM   20  C   UNL     1      -8.553  15.617  65.969  1.00  0.00     0.027 C  
HETATM   21  C   UNL     1      -7.769  16.182  67.158  1.00  0.00    -0.194 C  
HETATM   22  C   UNL     1     -10.035  16.003  66.019  1.00  0.00    -0.339 C  
HETATM   23  C   UNL     1     -10.657  15.807  67.406  1.00  0.00    -0.313 C  
HETATM   24  N   UNL     1     -10.868  15.362  64.946  1.00  0.00    -0.438 NA 
HETATM   25  O   UNL     1      -9.576  18.462  66.110  1.00  0.00    -0.452 OA 
HETATM   26  C   UNL     1      -9.784  16.422  68.500  1.00  0.00    -0.228 C  
HETATM   27  C   UNL     1     -11.613  16.372  64.206  1.00  0.00     0.171 C  
HETATM   28  C   UNL     1     -10.153  17.498  65.634  1.00  0.00     0.010 C  
HETATM   29  N   UNL     1     -11.065  17.607  64.622  1.00  0.00    -0.587 NA 
BRANCH  24  30
HETATM   30  C   UNL     1     -11.062  14.021  64.668  1.00  0.00    -0.382 A  
HETATM   31  C   UNL     1     -10.082  13.043  64.878  1.00  0.00    -0.233 A  
HETATM   32  C   UNL     1     -10.262  11.698  64.511  1.00  0.00    -0.337 A  
HETATM   33  C   UNL     1     -11.457  11.280  63.947  1.00  0.00    -0.044 A  
HETATM   34  C   UNL     1     -12.475  12.199  63.767  1.00  0.00    -0.620 A  
HETATM   35  C   UNL     1     -12.273  13.545  64.122  1.00  0.00    -0.449 A  
ENDBRANCH  24  30
ENDBRANCH  18  19
ENDBRANCH  17  18
ENDBRANCH   8  17
TORSDOF 4
ENDMDL
MODEL      127
REMARK 921   NORMALIZED FREE ENERGY PREDICTED BY IDOCK:   -4.58 KCAL/MOL
REMARK 922        TOTAL FREE ENERGY PREDICTED BY IDOCK:   -7.52 KCAL/MOL
REMARK 923 INTER-LIGAND FREE ENERGY PREDICTED BY IDOCK:   -6.39 KCAL/MOL
REMARK 924 INTRA-LIGAND FREE ENERGY PREDICTED BY IDOCK:   -1.13 KCAL/MOL
REMARK 927      BINDING AFFINITY PREDICTED BY RF-SCORE:    0.00 PKD
ROOT
HETATM    1  F   UNL     1     -13.269  15.460  74.010  1.00  0.00    -0.512 F  
HETATM    2  C   UNL     1     -13.085  14.985  72.772  1.00  0.00    -0.453 A  
HETATM    3  C   UNL     1     -14.184  14.700  71.974  1.00  0.00    -0.625 A  
HETATM    4  C   UNL     1     -13.991  14.152  70.703  1.00  0.00     0.659 A  
HETATM    5  C   UNL     1     -12.695  13.894  70.214  1.00  0.00    -0.244 A  
HETATM    6  C   UNL     1     -12.521  13.242  68.832  1.00  0.00     0.279 C  
HETATM    7  C   UNL     1     -11.605  14.282  71.014  1.00  0.00    -0.094 A  
HETATM    8  C   UNL     1     -12.410  14.329  67.721  1.00  0.00    -0.041 C  
HETATM    9  C   UNL     1     -11.798  14.787  72.301  1.00  0.00    -0.283 A  
HETATM   10  C   UNL     1     -11.551  12.053  68.702  1.00  0.00    -0.372 A  
HETATM   11  C   UNL     1     -10.819  11.515  69.776  1.00  0.00     0.049 A  
HETATM   12  C   UNL     1     -10.569  10.306  67.284  1.00  0.00    -0.324 A  
HETATM   13  F   UNL     1      -8.989   8.812  68.195  1.00  0.00    -0.137 F  
HETATM   14  C   UNL     1      -9.938  10.444  69.600  1.00  0.00    -0.209 A  
HETATM   15  C   UNL     1      -9.821   9.847  68.356  1.00  0.00    -0.151 A  
HETATM   16  C   UNL     1     -11.428  11.397  67.458  1.00  0.00    -0.336 A  
ENDROOT
BRANCH   8  17
HETATM   17  C   UNL     1     -11.275  15.362  67.826  1.00  0.00    -0.321 C  
BRANCH  17  18
HETATM   18  C   UNL     1      -9.937  14.985  67.176  1.00  0.00    -0.237 C  
BRANCH  18  19
HETATM   19  N   UNL     1      -8.988  14.322  68.069  1.00  0.00    -0.176 NA 
HETATM   20  C   UNL     1      -6.765  15.470  67.668  1.00  0.00    -0.205 C  
HETATM   21  C   UNL     1      -7.616  14.201  67.565  1.00  0.00    -0.184 C  
HETATM   22  C   UNL     1      -6.852  16.113  69.057  1.00  0.00    -0.176 C  
HETATM   23  C   UNL     1      -8.289  16.206  69.582  1.00  0.00     0.229 C  
HETATM   24  N   UNL     1      -6.139  17.431  69.164  1.00  0.00    -0.204 NA 
HETATM   25  O   UNL     1      -6.100  14.049  70.256  1.00  0.00    -0.142 OA 
HETATM   26  C   UNL     1      -9.025  14.874  69.431  1.00  0.00    -0.041 C  
HETATM   27  C   UNL     1      -5.202  17.416  70.278  1.00  0.00    -0.230 C  
HETATM   28  C   UNL     1      -6.024  15.247  70.038  1.00  0.00    -0.142 C  
HETATM   29  N   UNL     1      -5.137  16.063  70.683  1.00  0.00    -0.175 NA 
BRANCH  24  30
HETATM   30  C   UNL     1      -6.329  18.593  68.437  1.00  0.00    -0.212 A  
HETATM   31  C   UNL     1      -7.531  19.311  68.434  1.00  0.00    -0.346 A  
HETATM   32  C   UNL     1      -7.738  20.441  67.626  1.00  0.00    -0.312 A  
HETATM   33  C   UNL     1      -6.722  20.913  66.808  1.00  0.00    -0.367 A  
HETATM   34  C   UNL     1      -5.498  20.268  66.815  1.00  0.00    -0.186 A  
HETATM   35  C   UNL     1      -5.313  19.128  67.616  1.00  0.00    -0.172 A  
ENDBRANCH  24  30
ENDBRANCH  18  19
ENDBRANCH  17  18
ENDBRANCH   8  17
TORSDOF 4
ENDMDL
MODEL      128
REMARK 921   NORMALIZED FREE ENERGY PREDICTED BY IDOCK:   -4.53 KCAL/MOL
REMARK 922        TOTAL FREE ENERGY PREDICTED BY IDOCK:   -7.47 KCAL/MOL
REMARK 923 INTER-LIGAND FREE ENERGY PREDICTED BY IDOCK:   -6.66 KCAL/MOL
REMARK 924 INTRA-LIGAND FREE ENERGY PREDICTED BY IDOCK:   -0.80 KCAL/MOL
REMARK 927      BINDING AFFINITY PREDICTED BY RF-SCORE:    0.00 PKD
ROOT
HETATM    1  F   UNL     1     -10.674  11.067  63.454  1.00  0.00    -0.418 F  
HETATM    2  C   UNL     1     -10.328  10.965  64.744  1.00  0.00    -0.323 A  
HETATM    3  C   UNL     1      -9.968  12.103  65.452  1.00  0.00    -0.269 A  
HETATM    4  C   UNL     1      -9.554  11.987  66.782  1.00  0.00    -0.215 A  
HETATM    5  C   UNL     1      -9.508  10.731  67.419  1.00  0.00    -0.171 A  
HETATM    6  C   UNL     1      -8.997  10.633  68.867  1.00  0.00    -0.172 C  
HETATM    7  C   UNL     1      -9.968   9.614  66.699  1.00  0.00    -0.301 A  
HETATM    8  C   UNL     1     -10.176  10.779  69.876  1.00  0.00     0.100 C  
HETATM    9  C   UNL     1     -10.339   9.723  65.358  1.00  0.00     0.127 A  
HETATM   10  C   UNL     1      -7.959   9.547  69.204  1.00  0.00    -0.094 A  
HETATM   11  C   UNL     1      -7.436   8.641  68.264  1.00  0.00    -0.095 A  
HETATM   12  C   UNL     1      -6.476   8.524  70.870  1.00  0.00    -0.042 A  
HETATM   13  F   UNL     1      -5.131   6.683  70.266  1.00  0.00    -0.013 F  
HETATM   14  C   UNL     1      -6.507   7.661  68.626  1.00  0.00    -0.048 A  
HETATM   15  C   UNL     1      -6.033   7.611  69.927  1.00  0.00    -0.023 A  
HETATM   16  C   UNL     1      -7.428   9.484  70.511  1.00  0.00    -0.159 A  
ENDROOT
BRANCH   8  17
HETATM   17  C   UNL     1     -11.336   9.772  69.788  1.00  0.00    -0.201 C  
BRANCH  17  18
HETATM   18  C   UNL     1     -12.419   9.870  70.871  1.00  0.00    -0.307 C  
BRANCH  18  19
HETATM   19  N   UNL     1     -12.178   9.047  72.054  1.00  0.00    -0.369 NA 
HETATM   20  C   UNL     1     -12.439   6.650  71.278  1.00  0.00    -0.284 C  
HETATM   21  C   UNL     1     -12.956   7.807  72.139  1.00  0.00    -0.141 C  
HETATM   22  C   UNL     1     -10.930   6.438  71.441  1.00  0.00    -0.267 C  
HETATM   23  C   UNL     1     -10.134   7.746  71.381  1.00  0.00    -0.211 C  
HETATM   24  N   UNL     1     -10.357   5.401  70.517  1.00  0.00    -0.263 NA 
HETATM   25  O   UNL     1     -11.059   6.139  73.923  1.00  0.00     0.054 OA 
HETATM   26  C   UNL     1     -10.746   8.813  72.289  1.00  0.00    -0.252 C  
HETATM   27  C   UNL     1      -9.614   4.400  71.271  1.00  0.00    -0.172 C  
HETATM   28  C   UNL     1     -10.686   5.776  72.819  1.00  0.00    -0.241 C  
HETATM   29  N   UNL     1      -9.933   4.651  72.625  1.00  0.00    -0.157 NA 
BRANCH  24  30
HETATM   30  C   UNL     1     -10.377   5.349  69.135  1.00  0.00    -0.230 A  
HETATM   31  C   UNL     1      -9.769   4.329  68.394  1.00  0.00    -0.165 A  
HETATM   32  C   UNL     1      -9.723   4.334  66.990  1.00  0.00    -0.237 A  
HETATM   33  C   UNL     1     -10.322   5.358  66.273  1.00  0.00    -0.251 A  
HETATM   34  C   UNL     1     -10.982   6.363  66.959  1.00  0.00    -0.463 A  
HETATM   35  C   UNL     1     -11.003   6.353  68.365  1.00  0.00    -0.390 A  
ENDBRANCH  24  30
ENDBRANCH  18  19
ENDBRANCH  17  18
ENDBRANCH   8  17
TORSDOF 4
ENDMDL
MODEL      129
REMARK 921   NORMALIZED FREE ENERGY PREDICTED BY IDOCK:   -4.52 KCAL/MOL
REMARK 922        TOTAL FREE ENERGY PREDICTED BY IDOCK:   -7.46 KCAL/MOL
REMARK 923 INTER-LIGAND FREE ENERGY PREDICTED BY IDOCK:   -6.73 KCAL/MOL
REMARK 924 INTRA-LIGAND FREE ENERGY PREDICTED BY IDOCK:   -0.73 KCAL/MOL
REMARK 927      BINDING AFFINITY PREDICTED BY RF-SCORE:    0.00 PKD
ROOT
HETATM    1  F   UNL     1     -12.139  12.302  62.994  1.00  0.00    -0.483 F  
HETATM    2  C   UNL     1     -11.828  12.947  64.125  1.00  0.00    -0.414 A  
HETATM    3  C   UNL     1     -12.660  12.838  65.231  1.00  0.00    -0.460 A  
HETATM    4  C   UNL     1     -12.364  13.555  66.392  1.00  0.00    -0.413 A  
HETATM    5  C   UNL     1     -11.224  14.381  66.462  1.00  0.00    -0.340 A  
HETATM    6  C   UNL     1     -10.956  15.198  67.738  1.00  0.00    -0.306 C  
HETATM    7  C   UNL     1     -10.356  14.394  65.355  1.00  0.00    -0.400 A  
HETATM    8  C   UNL     1     -10.073  14.388  68.734  1.00  0.00    -0.234 C  
HETATM    9  C   UNL     1     -10.676  13.713  64.180  1.00  0.00    -0.141 A  
HETATM   10  C   UNL     1     -10.599  16.689  67.590  1.00  0.00    -0.321 A  
HETATM   11  C   UNL     1     -10.515  17.358  66.355  1.00  0.00    -0.267 A  
HETATM   12  C   UNL     1     -10.100  18.833  68.675  1.00  0.00    -0.432 A  
HETATM   13  F   UNL     1      -9.653  20.736  67.356  1.00  0.00    -0.551 F  
HETATM   14  C   UNL     1     -10.170  18.710  66.275  1.00  0.00    -0.462 A  
HETATM   15  C   UNL     1      -9.967  19.437  67.436  1.00  0.00    -0.371 A  
HETATM   16  C   UNL     1     -10.416  17.472  68.750  1.00  0.00    -0.318 A  
ENDROOT
BRANCH   8  17
HETATM   17  C   UNL     1      -8.688  13.915  68.259  1.00  0.00    -0.183 C  
BRANCH  17  18
HETATM   18  C   UNL     1      -8.468  12.399  68.174  1.00  0.00    -0.180 C  
BRANCH  18  19
HETATM   19  N   UNL     1      -7.952  11.785  69.396  1.00  0.00     0.349 NA 
HETATM   20  C   UNL     1      -8.225   9.288  69.070  1.00  0.00    -0.111 C  
HETATM   21  C   UNL     1      -8.626  10.557  69.828  1.00  0.00     0.150 C  
HETATM   22  C   UNL     1      -6.704   9.142  68.953  1.00  0.00    -0.052 C  
HETATM   23  C   UNL     1      -6.010  10.441  68.530  1.00  0.00    -0.043 C  
HETATM   24  N   UNL     1      -6.267   7.982  68.104  1.00  0.00    -0.045 NA 
HETATM   25  O   UNL     1      -6.324   9.249  71.425  1.00  0.00    -0.080 OA 
HETATM   26  C   UNL     1      -6.491  11.628  69.367  1.00  0.00    -0.113 C  
HETATM   27  C   UNL     1      -5.335   7.136  68.836  1.00  0.00    -0.018 C  
HETATM   28  C   UNL     1      -6.156   8.719  70.338  1.00  0.00    -0.034 C  
HETATM   29  N   UNL     1      -5.393   7.597  70.171  1.00  0.00    -0.023 NA 
BRANCH  24  30
HETATM   30  C   UNL     1      -6.557   7.705  66.780  1.00  0.00    -0.061 A  
HETATM   31  C   UNL     1      -5.711   6.965  65.946  1.00  0.00    -0.030 A  
HETATM   32  C   UNL     1      -5.976   6.764  64.581  1.00  0.00    -0.035 A  
HETATM   33  C   UNL     1      -7.129   7.278  64.008  1.00  0.00    -0.071 A  
HETATM   34  C   UNL     1      -8.024   7.973  64.804  1.00  0.00    -0.143 A  
HETATM   35  C   UNL     1      -7.735   8.181  66.164  1.00  0.00    -0.090 A  
ENDBRANCH  24  30
ENDBRANCH  18  19
ENDBRANCH  17  18
ENDBRANCH   8  17
TORSDOF 4
ENDMDL
MODEL      130
REMARK 921   NORMALIZED FREE ENERGY PREDICTED BY IDOCK:   -4.52 KCAL/MOL
REMARK 922        TOTAL FREE ENERGY PREDICTED BY IDOCK:   -7.45 KCAL/MOL
REMARK 923 INTER-LIGAND FREE ENERGY PREDICTED BY IDOCK:   -6.01 KCAL/MOL
REMARK 924 INTRA-LIGAND FREE ENERGY PREDICTED BY IDOCK:   -1.44 KCAL/MOL
REMARK 927      BINDING AFFINITY PREDICTED BY RF-SCORE:    0.00 PKD
ROOT
HETATM    1  F   UNL     1      -6.012   9.824  62.900  1.00  0.00    -0.094 F  
HETATM    2  C   UNL     1      -7.063  10.007  63.709  1.00  0.00    -0.129 A  
HETATM    3  C   UNL     1      -8.350   9.839  63.215  1.00  0.00    -0.169 A  
HETATM    4  C   UNL     1      -9.446  10.085  64.046  1.00  0.00    -0.299 A  
HETATM    5  C   UNL     1      -9.265  10.490  65.383  1.00  0.00    -0.229 A  
HETATM    6  C   UNL     1     -10.494  10.803  66.254  1.00  0.00    -0.287 C  
HETATM    7  C   UNL     1      -7.949  10.559  65.874  1.00  0.00    -0.154 A  
HETATM    8  C   UNL     1     -10.972   9.526  67.009  1.00  0.00     0.014 C  
HETATM    9  C   UNL     1      -6.854  10.358  65.033  1.00  0.00    -0.065 A  
HETATM   10  C   UNL     1     -10.495  12.105  67.076  1.00  0.00    -0.244 A  
HETATM   11  C   UNL     1      -9.442  13.038  67.072  1.00  0.00    -0.237 A  
HETATM   12  C   UNL     1     -11.701  13.618  68.586  1.00  0.00    -0.389 A  
HETATM   13  F   UNL     1     -10.661  15.599  69.333  1.00  0.00    -0.198 F  
HETATM   14  C   UNL     1      -9.487  14.198  67.851  1.00  0.00    -0.211 A  
HETATM   15  C   UNL     1     -10.616  14.479  68.601  1.00  0.00    -0.255 A  
HETATM   16  C   UNL     1     -11.641  12.443  67.828  1.00  0.00    -0.413 A  
ENDROOT
BRANCH   8  17
HETATM   17  C   UNL     1      -9.978   8.824  67.951  1.00  0.00    -0.231 C  
BRANCH  17  18
HETATM   18  C   UNL     1     -10.317   8.839  69.447  1.00  0.00    -0.214 C  
BRANCH  18  19
HETATM   19  N   UNL     1     -10.480   7.518  70.052  1.00  0.00    -0.222 NA 
HETATM   20  C   UNL     1     -10.372   5.874  68.127  1.00  0.00    -0.259 C  
HETATM   21  C   UNL     1     -11.196   6.529  69.240  1.00  0.00    -0.328 C  
HETATM   22  C   UNL     1      -9.010   5.382  68.630  1.00  0.00    -0.107 C  
HETATM   23  C   UNL     1      -8.287   6.415  69.502  1.00  0.00    -0.126 C  
HETATM   24  N   UNL     1      -8.115   4.853  67.546  1.00  0.00    -0.101 NA 
HETATM   25  O   UNL     1      -9.993   3.937  70.422  1.00  0.00    -0.162 OA 
HETATM   26  C   UNL     1      -9.215   6.985  70.577  1.00  0.00    -0.159 C  
HETATM   27  C   UNL     1      -7.651   3.512  67.876  1.00  0.00    -0.065 C  
HETATM   28  C   UNL     1      -9.244   4.105  69.473  1.00  0.00    -0.146 C  
HETATM   29  N   UNL     1      -8.434   3.118  68.986  1.00  0.00    -0.060 NA 
BRANCH  24  30
HETATM   30  C   UNL     1      -7.646   5.484  66.408  1.00  0.00    -0.091 A  
HETATM   31  C   UNL     1      -8.372   5.554  65.213  1.00  0.00    -0.144 A  
HETATM   32  C   UNL     1      -7.849   6.123  64.039  1.00  0.00    -0.117 A  
HETATM   33  C   UNL     1      -6.578   6.677  64.036  1.00  0.00    -0.044 A  
HETATM   34  C   UNL     1      -5.841   6.679  65.207  1.00  0.00    -0.030 A  
HETATM   35  C   UNL     1      -6.372   6.089  66.368  1.00  0.00    -0.042 A  
ENDBRANCH  24  30
ENDBRANCH  18  19
ENDBRANCH  17  18
ENDBRANCH   8  17
TORSDOF 4
ENDMDL
MODEL      131
REMARK 921   NORMALIZED FREE ENERGY PREDICTED BY IDOCK:   -4.50 KCAL/MOL
REMARK 922        TOTAL FREE ENERGY PREDICTED BY IDOCK:   -7.43 KCAL/MOL
REMARK 923 INTER-LIGAND FREE ENERGY PREDICTED BY IDOCK:   -6.68 KCAL/MOL
REMARK 924 INTRA-LIGAND FREE ENERGY PREDICTED BY IDOCK:   -0.75 KCAL/MOL
REMARK 927      BINDING AFFINITY PREDICTED BY RF-SCORE:    0.00 PKD
ROOT
HETATM    1  F   UNL     1     -12.068  11.182  62.442  1.00  0.00     0.479 F  
HETATM    2  C   UNL     1     -11.833  11.826  63.592  1.00  0.00    -0.393 A  
HETATM    3  C   UNL     1     -12.899  12.272  64.362  1.00  0.00    -0.294 A  
HETATM    4  C   UNL     1     -12.652  12.993  65.533  1.00  0.00    -0.422 A  
HETATM    5  C   UNL     1     -11.334  13.264  65.952  1.00  0.00    -0.333 A  
HETATM    6  C   UNL     1     -11.099  14.105  67.218  1.00  0.00    -0.315 C  
HETATM    7  C   UNL     1     -10.281  12.718  65.196  1.00  0.00    -0.297 A  
HETATM    8  C   UNL     1     -11.001  13.190  68.475  1.00  0.00    -0.289 C  
HETATM    9  C   UNL     1     -10.527  12.037  64.003  1.00  0.00    -0.410 A  
HETATM   10  C   UNL     1     -10.080  15.259  67.151  1.00  0.00    -0.240 A  
HETATM   11  C   UNL     1      -9.357  15.602  65.994  1.00  0.00    -0.384 A  
HETATM   12  C   UNL     1      -8.995  17.152  68.273  1.00  0.00    -0.248 A  
HETATM   13  F   UNL     1      -7.383  18.429  67.119  1.00  0.00    -0.198 F  
HETATM   14  C   UNL     1      -8.431  16.649  65.991  1.00  0.00    -0.198 A  
HETATM   15  C   UNL     1      -8.258  17.417  67.131  1.00  0.00    -0.210 A  
HETATM   16  C   UNL     1      -9.900  16.085  68.281  1.00  0.00    -0.219 A  
ENDROOT
BRANCH   8  17
HETATM   17  C   UNL     1      -9.909  12.106  68.502  1.00  0.00    -0.167 C  
BRANCH  17  18
HETATM   18  C   UNL     1     -10.029  11.031  69.590  1.00  0.00     0.246 C  
BRANCH  18  19
HETATM   19  N   UNL     1     -10.780   9.841  69.195  1.00  0.00    -0.217 NA 
HETATM   20  C   UNL     1      -9.088   7.955  69.154  1.00  0.00    -0.145 C  
HETATM   21  C   UNL     1     -10.048   8.866  68.381  1.00  0.00    -0.189 C  
HETATM   22  C   UNL     1      -9.746   7.344  70.396  1.00  0.00    -0.175 C  
HETATM   23  C   UNL     1     -10.532   8.369  71.220  1.00  0.00    -0.273 C  
HETATM   24  N   UNL     1      -8.805   6.550  71.255  1.00  0.00    -0.137 NA 
HETATM   25  O   UNL     1     -11.627   6.309  69.109  1.00  0.00    -0.324 OA 
HETATM   26  C   UNL     1     -11.457   9.205  70.335  1.00  0.00    -0.194 C  
HETATM   27  C   UNL     1      -9.332   5.213  71.490  1.00  0.00    -0.148 C  
HETATM   28  C   UNL     1     -10.722   6.238  69.924  1.00  0.00    -0.294 C  
HETATM   29  N   UNL     1     -10.422   5.088  70.599  1.00  0.00    -0.205 NA 
BRANCH  24  30
HETATM   30  C   UNL     1      -7.633   6.949  71.875  1.00  0.00    -0.093 A  
HETATM   31  C   UNL     1      -7.553   8.053  72.731  1.00  0.00    -0.160 A  
HETATM   32  C   UNL     1      -6.342   8.498  73.285  1.00  0.00    -0.109 A  
HETATM   33  C   UNL     1      -5.161   7.821  73.021  1.00  0.00    -0.037 A  
HETATM   34  C   UNL     1      -5.196   6.692  72.222  1.00  0.00    -0.032 A  
HETATM   35  C   UNL     1      -6.414   6.271  71.661  1.00  0.00    -0.053 A  
ENDBRANCH  24  30
ENDBRANCH  18  19
ENDBRANCH  17  18
ENDBRANCH   8  17
TORSDOF 4
ENDMDL
MODEL      132
REMARK 921   NORMALIZED FREE ENERGY PREDICTED BY IDOCK:   -4.49 KCAL/MOL
REMARK 922        TOTAL FREE ENERGY PREDICTED BY IDOCK:   -7.42 KCAL/MOL
REMARK 923 INTER-LIGAND FREE ENERGY PREDICTED BY IDOCK:   -6.37 KCAL/MOL
REMARK 924 INTRA-LIGAND FREE ENERGY PREDICTED BY IDOCK:   -1.05 KCAL/MOL
REMARK 927      BINDING AFFINITY PREDICTED BY RF-SCORE:    0.00 PKD
ROOT
HETATM    1  F   UNL     1      -5.165  12.675  69.050  1.00  0.00    -0.065 F  
HETATM    2  C   UNL     1      -5.984  11.616  69.027  1.00  0.00    -0.053 A  
HETATM    3  C   UNL     1      -6.611  11.204  70.195  1.00  0.00    -0.048 A  
HETATM    4  C   UNL     1      -7.421  10.066  70.181  1.00  0.00    -0.176 A  
HETATM    5  C   UNL     1      -7.621   9.335  68.993  1.00  0.00    -0.074 A  
HETATM    6  C   UNL     1      -8.476   8.056  69.024  1.00  0.00    -0.130 C  
HETATM    7  C   UNL     1      -7.045   9.835  67.811  1.00  0.00    -0.087 A  
HETATM    8  C   UNL     1      -9.970   8.388  68.730  1.00  0.00    -0.197 C  
HETATM    9  C   UNL     1      -6.200  10.945  67.834  1.00  0.00    -0.054 A  
HETATM   10  C   UNL     1      -7.926   6.791  68.340  1.00  0.00    -0.115 A  
HETATM   11  C   UNL     1      -6.677   6.727  67.696  1.00  0.00    -0.071 A  
HETATM   12  C   UNL     1      -8.207   4.409  67.822  1.00  0.00    -0.098 A  
HETATM   13  F   UNL     1      -6.561   3.283  66.563  1.00  0.00    -0.036 F  
HETATM   14  C   UNL     1      -6.231   5.556  67.075  1.00  0.00    -0.034 A  
HETATM   15  C   UNL     1      -6.999   4.406  67.144  1.00  0.00    -0.063 A  
HETATM   16  C   UNL     1      -8.664   5.590  68.416  1.00  0.00    -0.105 A  
ENDROOT
BRANCH   8  17
HETATM   17  C   UNL     1     -10.314   9.071  67.394  1.00  0.00    -0.335 C  
BRANCH  17  18
HETATM   18  C   UNL     1     -10.298  10.605  67.380  1.00  0.00    -0.219 C  
BRANCH  18  19
HETATM   19  N   UNL     1     -11.303  11.220  66.514  1.00  0.00    -0.318 NA 
HETATM   20  C   UNL     1     -11.502  13.619  67.303  1.00  0.00    -0.370 C  
HETATM   21  C   UNL     1     -12.149  12.239  67.142  1.00  0.00     0.057 C  
HETATM   22  C   UNL     1     -10.827  14.095  66.012  1.00  0.00    -0.297 C  
HETATM   23  C   UNL     1      -9.970  13.009  65.352  1.00  0.00    -0.201 C  
HETATM   24  N   UNL     1     -10.067  15.382  66.162  1.00  0.00    -0.285 NA 
HETATM   25  O   UNL     1     -12.906  13.884  64.635  1.00  0.00    -0.660 OA 
HETATM   26  C   UNL     1     -10.732  11.688  65.242  1.00  0.00    -0.291 C  
HETATM   27  C   UNL     1     -10.501  16.350  65.163  1.00  0.00    -0.192 C  
HETATM   28  C   UNL     1     -11.937  14.518  65.019  1.00  0.00    -0.399 C  
HETATM   29  N   UNL     1     -11.664  15.786  64.589  1.00  0.00    -0.230 NA 
BRANCH  24  30
HETATM   30  C   UNL     1      -9.021  15.691  67.013  1.00  0.00    -0.222 A  
HETATM   31  C   UNL     1      -9.013  16.816  67.846  1.00  0.00    -0.219 A  
HETATM   32  C   UNL     1      -7.909  17.164  68.641  1.00  0.00    -0.265 A  
HETATM   33  C   UNL     1      -6.774  16.366  68.652  1.00  0.00    -0.145 A  
HETATM   34  C   UNL     1      -6.753  15.215  67.885  1.00  0.00    -0.168 A  
HETATM   35  C   UNL     1      -7.860  14.891  67.080  1.00  0.00    -0.203 A  
ENDBRANCH  24  30
ENDBRANCH  18  19
ENDBRANCH  17  18
ENDBRANCH   8  17
TORSDOF 4
ENDMDL
MODEL      133
REMARK 921   NORMALIZED FREE ENERGY PREDICTED BY IDOCK:   -4.48 KCAL/MOL
REMARK 922        TOTAL FREE ENERGY PREDICTED BY IDOCK:   -7.40 KCAL/MOL
REMARK 923 INTER-LIGAND FREE ENERGY PREDICTED BY IDOCK:   -5.63 KCAL/MOL
REMARK 924 INTRA-LIGAND FREE ENERGY PREDICTED BY IDOCK:   -1.77 KCAL/MOL
REMARK 927      BINDING AFFINITY PREDICTED BY RF-SCORE:    0.00 PKD
ROOT
HETATM    1  F   UNL     1     -12.958  10.908  69.573  1.00  0.00    -0.217 F  
HETATM    2  C   UNL     1     -11.714  10.865  69.081  1.00  0.00    -0.326 A  
HETATM    3  C   UNL     1     -10.992  12.041  68.930  1.00  0.00    -0.277 A  
HETATM    4  C   UNL     1      -9.714  12.000  68.365  1.00  0.00    -0.199 A  
HETATM    5  C   UNL     1      -9.142  10.779  67.956  1.00  0.00    -0.150 A  
HETATM    6  C   UNL     1      -7.756  10.776  67.290  1.00  0.00    -0.109 C  
HETATM    7  C   UNL     1      -9.866   9.599  68.210  1.00  0.00    -0.169 A  
HETATM    8  C   UNL     1      -6.633  10.611  68.358  1.00  0.00    -0.055 C  
HETATM    9  C   UNL     1     -11.159   9.644  68.732  1.00  0.00    -0.093 A  
HETATM   10  C   UNL     1      -7.569   9.965  65.994  1.00  0.00    -0.106 A  
HETATM   11  C   UNL     1      -8.596   9.233  65.370  1.00  0.00    -0.178 A  
HETATM   12  C   UNL     1      -6.101   9.296  64.145  1.00  0.00    -0.077 A  
HETATM   13  F   UNL     1      -6.914   7.847  62.471  1.00  0.00    -0.080 F  
HETATM   14  C   UNL     1      -8.369   8.499  64.202  1.00  0.00    -0.102 A  
HETATM   15  C   UNL     1      -7.123   8.537  63.598  1.00  0.00    -0.089 A  
HETATM   16  C   UNL     1      -6.324  10.005  65.330  1.00  0.00    -0.101 A  
ENDROOT
BRANCH   8  17
HETATM   17  C   UNL     1      -6.656   9.356  69.248  1.00  0.00    -0.048 C  
BRANCH  17  18
HETATM   18  C   UNL     1      -6.873   9.579  70.751  1.00  0.00    -0.103 C  
BRANCH  18  19
HETATM   19  N   UNL     1      -6.441   8.472  71.603  1.00  0.00    -0.061 NA 
HETATM   20  C   UNL     1      -8.326   8.114  73.257  1.00  0.00    -0.277 C  
HETATM   21  C   UNL     1      -6.875   8.536  73.001  1.00  0.00    -0.031 C  
HETATM   22  C   UNL     1      -8.671   6.788  72.569  1.00  0.00    -0.123 C  
HETATM   23  C   UNL     1      -8.184   6.725  71.117  1.00  0.00    -0.119 C  
HETATM   24  N   UNL     1     -10.118   6.402  72.683  1.00  0.00    -0.176 NA 
HETATM   25  O   UNL     1      -6.824   5.521  73.686  1.00  0.00    -0.077 OA 
HETATM   26  C   UNL     1      -6.723   7.161  71.000  1.00  0.00    -0.049 C  
HETATM   27  C   UNL     1     -10.247   5.056  73.223  1.00  0.00    -0.174 C  
HETATM   28  C   UNL     1      -7.995   5.645  73.365  1.00  0.00    -0.110 C  
HETATM   29  N   UNL     1      -8.950   4.719  73.677  1.00  0.00    -0.105 NA 
BRANCH  24  30
HETATM   30  C   UNL     1     -11.246   7.093  72.275  1.00  0.00    -0.261 A  
HETATM   31  C   UNL     1     -11.539   8.398  72.686  1.00  0.00    -0.367 A  
HETATM   32  C   UNL     1     -12.729   9.056  72.333  1.00  0.00    -0.433 A  
HETATM   33  C   UNL     1     -13.661   8.429  71.520  1.00  0.00    -0.356 A  
HETATM   34  C   UNL     1     -13.393   7.157  71.045  1.00  0.00    -0.130 A  
HETATM   35  C   UNL     1     -12.206   6.506  71.422  1.00  0.00    -0.304 A  
ENDBRANCH  24  30
ENDBRANCH  18  19
ENDBRANCH  17  18
ENDBRANCH   8  17
TORSDOF 4
ENDMDL
MODEL      134
REMARK 921   NORMALIZED FREE ENERGY PREDICTED BY IDOCK:   -4.44 KCAL/MOL
REMARK 922        TOTAL FREE ENERGY PREDICTED BY IDOCK:   -7.35 KCAL/MOL
REMARK 923 INTER-LIGAND FREE ENERGY PREDICTED BY IDOCK:   -5.63 KCAL/MOL
REMARK 924 INTRA-LIGAND FREE ENERGY PREDICTED BY IDOCK:   -1.72 KCAL/MOL
REMARK 927      BINDING AFFINITY PREDICTED BY RF-SCORE:    0.00 PKD
ROOT
HETATM    1  F   UNL     1      -6.709  10.103  63.985  1.00  0.00    -0.119 F  
HETATM    2  C   UNL     1      -7.610   9.587  64.830  1.00  0.00    -0.111 A  
HETATM    3  C   UNL     1      -8.950   9.924  64.699  1.00  0.00    -0.260 A  
HETATM    4  C   UNL     1      -9.880   9.429  65.616  1.00  0.00    -0.294 A  
HETATM    5  C   UNL     1      -9.480   8.582  66.668  1.00  0.00    -0.268 A  
HETATM    6  C   UNL     1     -10.522   8.098  67.691  1.00  0.00    -0.300 C  
HETATM    7  C   UNL     1      -8.130   8.189  66.714  1.00  0.00    -0.103 A  
HETATM    8  C   UNL     1     -11.156   6.750  67.233  1.00  0.00    -0.394 C  
HETATM    9  C   UNL     1      -7.193   8.718  65.825  1.00  0.00    -0.084 A  
HETATM   10  C   UNL     1     -10.178   8.199  69.188  1.00  0.00    -0.219 A  
HETATM   11  C   UNL     1      -8.969   8.722  69.684  1.00  0.00    -0.145 A  
HETATM   12  C   UNL     1     -10.892   7.904  71.518  1.00  0.00    -0.268 A  
HETATM   13  F   UNL     1      -9.410   8.437  73.273  1.00  0.00    -0.314 F  
HETATM   14  C   UNL     1      -8.700   8.776  71.054  1.00  0.00    -0.248 A  
HETATM   15  C   UNL     1      -9.665   8.368  71.961  1.00  0.00    -0.283 A  
HETATM   16  C   UNL     1     -11.147   7.824  70.144  1.00  0.00    -0.216 A  
ENDROOT
BRANCH   8  17
HETATM   17  C   UNL     1     -10.223   5.547  67.007  1.00  0.00    -0.265 C  
BRANCH  17  18
HETATM   18  C   UNL     1     -10.369   4.801  65.674  1.00  0.00    -0.189 C  
BRANCH  18  19
HETATM   19  N   UNL     1      -9.193   4.032  65.270  1.00  0.00    -0.141 NA 
HETATM   20  C   UNL     1      -7.438   4.499  67.038  1.00  0.00    -0.081 C  
HETATM   21  C   UNL     1      -7.895   4.640  65.582  1.00  0.00    -0.094 C  
HETATM   22  C   UNL     1      -7.580   3.061  67.550  1.00  0.00    -0.065 C  
HETATM   23  C   UNL     1      -8.929   2.429  67.191  1.00  0.00    -0.169 C  
HETATM   24  N   UNL     1      -7.268   2.902  69.011  1.00  0.00    -0.048 NA 
HETATM   25  O   UNL     1      -6.162   2.084  65.734  1.00  0.00    -0.022 OA 
HETATM   26  C   UNL     1      -9.263   2.632  65.712  1.00  0.00    -0.073 C  
HETATM   27  C   UNL     1      -6.269   1.861  69.210  1.00  0.00    -0.025 C  
HETATM   28  C   UNL     1      -6.453   2.212  66.912  1.00  0.00    -0.028 C  
HETATM   29  N   UNL     1      -5.783   1.569  67.915  1.00  0.00    -0.018 NA 
BRANCH  24  30
HETATM   30  C   UNL     1      -7.848   3.519  70.105  1.00  0.00    -0.047 A  
HETATM   31  C   UNL     1      -9.230   3.694  70.247  1.00  0.00    -0.222 A  
HETATM   32  C   UNL     1      -9.800   4.399  71.320  1.00  0.00    -0.260 A  
HETATM   33  C   UNL     1      -8.994   4.929  72.316  1.00  0.00    -0.142 A  
HETATM   34  C   UNL     1      -7.625   4.738  72.249  1.00  0.00    -0.085 A  
HETATM   35  C   UNL     1      -7.070   4.046  71.158  1.00  0.00    -0.033 A  
ENDBRANCH  24  30
ENDBRANCH  18  19
ENDBRANCH  17  18
ENDBRANCH   8  17
TORSDOF 4
ENDMDL
MODEL      135
REMARK 921   NORMALIZED FREE ENERGY PREDICTED BY IDOCK:   -4.43 KCAL/MOL
REMARK 922        TOTAL FREE ENERGY PREDICTED BY IDOCK:   -7.34 KCAL/MOL
REMARK 923 INTER-LIGAND FREE ENERGY PREDICTED BY IDOCK:   -6.02 KCAL/MOL
REMARK 924 INTRA-LIGAND FREE ENERGY PREDICTED BY IDOCK:   -1.33 KCAL/MOL
REMARK 927      BINDING AFFINITY PREDICTED BY RF-SCORE:    0.00 PKD
ROOT
HETATM    1  F   UNL     1     -13.179  13.975  65.782  1.00  0.00    -0.537 F  
HETATM    2  C   UNL     1     -11.969  14.202  66.308  1.00  0.00    -0.429 A  
HETATM    3  C   UNL     1     -11.796  14.152  67.684  1.00  0.00    -0.427 A  
HETATM    4  C   UNL     1     -10.545  14.444  68.234  1.00  0.00    -0.243 A  
HETATM    5  C   UNL     1      -9.451  14.776  67.411  1.00  0.00    -0.207 A  
HETATM    6  C   UNL     1      -8.102  15.142  68.052  1.00  0.00    -0.138 C  
HETATM    7  C   UNL     1      -9.642  14.725  66.018  1.00  0.00    -0.334 A  
HETATM    8  C   UNL     1      -7.214  13.874  68.226  1.00  0.00    -0.112 C  
HETATM    9  C   UNL     1     -10.901  14.479  65.470  1.00  0.00    -0.342 A  
HETATM   10  C   UNL     1      -7.374  16.404  67.553  1.00  0.00    -0.170 A  
HETATM   11  C   UNL     1      -7.874  17.255  66.550  1.00  0.00    -0.322 A  
HETATM   12  C   UNL     1      -5.470  17.937  67.769  1.00  0.00    -0.145 A  
HETATM   13  F   UNL     1      -5.299  19.800  66.334  1.00  0.00    -0.164 F  
HETATM   14  C   UNL     1      -7.164  18.380  66.122  1.00  0.00    -0.298 A  
HETATM   15  C   UNL     1      -5.968  18.713  66.735  1.00  0.00    -0.154 A  
HETATM   16  C   UNL     1      -6.168  16.795  68.175  1.00  0.00    -0.136 A  
ENDROOT
BRANCH   8  17
HETATM   17  C   UNL     1      -6.856  13.060  66.970  1.00  0.00     0.337 C  
BRANCH  17  18
HETATM   18  C   UNL     1      -6.827  11.533  67.122  1.00  0.00    -0.139 C  
BRANCH  18  19
HETATM   19  N   UNL     1      -7.984  10.840  66.559  1.00  0.00    -0.138 NA 
HETATM   20  C   UNL     1      -7.732   8.419  67.261  1.00  0.00    -0.098 C  
HETATM   21  C   UNL     1      -7.755   9.456  66.134  1.00  0.00    -0.100 C  
HETATM   22  C   UNL     1      -8.922   8.576  68.215  1.00  0.00    -0.139 C  
HETATM   23  C   UNL     1      -9.168  10.032  68.627  1.00  0.00    -0.152 C  
HETATM   24  N   UNL     1      -8.870   7.666  69.409  1.00  0.00    -0.139 NA 
HETATM   25  O   UNL     1     -10.633   8.358  66.402  1.00  0.00    -0.087 OA 
HETATM   26  C   UNL     1      -9.176  10.961  67.412  1.00  0.00    -0.147 C  
HETATM   27  C   UNL     1     -10.104   6.902  69.523  1.00  0.00    -0.173 C  
HETATM   28  C   UNL     1     -10.186   8.048  67.494  1.00  0.00    -0.245 C  
HETATM   29  N   UNL     1     -10.787   7.127  68.305  1.00  0.00    -0.145 NA 
BRANCH  24  30
HETATM   30  C   UNL     1      -7.896   7.554  70.385  1.00  0.00    -0.097 A  
HETATM   31  C   UNL     1      -6.838   6.640  70.316  1.00  0.00    -0.058 A  
HETATM   32  C   UNL     1      -5.906   6.477  71.354  1.00  0.00    -0.032 A  
HETATM   33  C   UNL     1      -5.986   7.258  72.496  1.00  0.00    -0.040 A  
HETATM   34  C   UNL     1      -6.983   8.213  72.590  1.00  0.00    -0.107 A  
HETATM   35  C   UNL     1      -7.919   8.351  71.550  1.00  0.00    -0.161 A  
ENDBRANCH  24  30
ENDBRANCH  18  19
ENDBRANCH  17  18
ENDBRANCH   8  17
TORSDOF 4
ENDMDL
MODEL      136
REMARK 921   NORMALIZED FREE ENERGY PREDICTED BY IDOCK:   -4.42 KCAL/MOL
REMARK 922        TOTAL FREE ENERGY PREDICTED BY IDOCK:   -7.33 KCAL/MOL
REMARK 923 INTER-LIGAND FREE ENERGY PREDICTED BY IDOCK:   -5.78 KCAL/MOL
REMARK 924 INTRA-LIGAND FREE ENERGY PREDICTED BY IDOCK:   -1.55 KCAL/MOL
REMARK 927      BINDING AFFINITY PREDICTED BY RF-SCORE:    0.00 PKD
ROOT
HETATM    1  F   UNL     1     -12.703   5.920  72.258  1.00  0.00    -0.320 F  
HETATM    2  C   UNL     1     -11.739   6.740  71.820  1.00  0.00    -0.312 A  
HETATM    3  C   UNL     1     -10.986   7.467  72.731  1.00  0.00    -0.410 A  
HETATM    4  C   UNL     1     -10.019   8.364  72.269  1.00  0.00    -0.383 A  
HETATM    5  C   UNL     1      -9.788   8.533  70.890  1.00  0.00    -0.234 A  
HETATM    6  C   UNL     1      -8.753   9.567  70.415  1.00  0.00    -0.265 C  
HETATM    7  C   UNL     1     -10.506   7.712  70.001  1.00  0.00    -0.229 A  
HETATM    8  C   UNL     1      -7.346   8.911  70.275  1.00  0.00    -0.067 C  
HETATM    9  C   UNL     1     -11.503   6.850  70.459  1.00  0.00    -0.390 A  
HETATM   10  C   UNL     1      -9.152  10.537  69.288  1.00  0.00    -0.161 A  
HETATM   11  C   UNL     1     -10.416  10.546  68.670  1.00  0.00    -0.211 A  
HETATM   12  C   UNL     1      -8.555  12.451  67.872  1.00  0.00    -0.171 A  
HETATM   13  F   UNL     1     -10.092  13.247  66.271  1.00  0.00    -0.264 F  
HETATM   14  C   UNL     1     -10.722  11.438  67.638  1.00  0.00    -0.261 A  
HETATM   15  C   UNL     1      -9.790  12.384  67.248  1.00  0.00    -0.207 A  
HETATM   16  C   UNL     1      -8.241  11.537  68.884  1.00  0.00    -0.019 A  
ENDROOT
BRANCH   8  17
HETATM   17  C   UNL     1      -7.193   7.717  69.317  1.00  0.00    -0.082 C  
BRANCH  17  18
HETATM   18  C   UNL     1      -6.127   6.674  69.679  1.00  0.00    -0.026 C  
BRANCH  18  19
HETATM   19  N   UNL     1      -6.404   5.322  69.196  1.00  0.00    -0.033 NA 
HETATM   20  C   UNL     1      -8.387   5.552  67.636  1.00  0.00    -0.100 C  
HETATM   21  C   UNL     1      -7.815   5.009  68.950  1.00  0.00    -0.077 C  
HETATM   22  C   UNL     1      -7.476   5.251  66.441  1.00  0.00    -0.087 C  
HETATM   23  C   UNL     1      -6.001   5.555  66.724  1.00  0.00    -0.019 C  
HETATM   24  N   UNL     1      -7.932   5.879  65.155  1.00  0.00    -0.114 NA 
HETATM   25  O   UNL     1      -7.477   2.779  66.834  1.00  0.00    -0.068 OA 
HETATM   26  C   UNL     1      -5.553   4.952  68.056  1.00  0.00    -0.016 C  
HETATM   27  C   UNL     1      -8.040   4.874  64.106  1.00  0.00    -0.115 C  
HETATM   28  C   UNL     1      -7.612   3.747  66.102  1.00  0.00    -0.088 C  
HETATM   29  N   UNL     1      -7.917   3.634  64.774  1.00  0.00    -0.089 NA 
BRANCH  24  30
HETATM   30  C   UNL     1      -8.150   7.213  64.858  1.00  0.00    -0.107 A  
HETATM   31  C   UNL     1      -7.737   7.812  63.662  1.00  0.00    -0.131 A  
HETATM   32  C   UNL     1      -7.889   9.186  63.410  1.00  0.00    -0.132 A  
HETATM   33  C   UNL     1      -8.497  10.007  64.347  1.00  0.00    -0.178 A  
HETATM   34  C   UNL     1      -8.969   9.452  65.523  1.00  0.00    -0.248 A  
HETATM   35  C   UNL     1      -8.793   8.079  65.768  1.00  0.00    -0.170 A  
ENDBRANCH  24  30
ENDBRANCH  18  19
ENDBRANCH  17  18
ENDBRANCH   8  17
TORSDOF 4
ENDMDL
MODEL      137
REMARK 921   NORMALIZED FREE ENERGY PREDICTED BY IDOCK:   -4.39 KCAL/MOL
REMARK 922        TOTAL FREE ENERGY PREDICTED BY IDOCK:   -7.29 KCAL/MOL
REMARK 923 INTER-LIGAND FREE ENERGY PREDICTED BY IDOCK:   -6.42 KCAL/MOL
REMARK 924 INTRA-LIGAND FREE ENERGY PREDICTED BY IDOCK:   -0.87 KCAL/MOL
REMARK 927      BINDING AFFINITY PREDICTED BY RF-SCORE:    0.00 PKD
ROOT
HETATM    1  F   UNL     1     -11.240  14.275  64.774  1.00  0.00    -0.332 F  
HETATM    2  C   UNL     1     -10.679  13.370  65.585  1.00  0.00    -0.277 A  
HETATM    3  C   UNL     1      -9.546  13.705  66.314  1.00  0.00    -0.254 A  
HETATM    4  C   UNL     1      -8.930  12.741  67.116  1.00  0.00    -0.214 A  
HETATM    5  C   UNL     1      -9.450  11.435  67.207  1.00  0.00    -0.176 A  
HETATM    6  C   UNL     1      -8.717  10.384  68.058  1.00  0.00    -0.123 C  
HETATM    7  C   UNL     1     -10.650  11.159  66.528  1.00  0.00    -0.314 A  
HETATM    8  C   UNL     1      -9.256  10.389  69.521  1.00  0.00    -0.143 C  
HETATM    9  C   UNL     1     -11.240  12.107  65.691  1.00  0.00    -0.381 A  
HETATM   10  C   UNL     1      -8.461   8.995  67.445  1.00  0.00    -0.115 A  
HETATM   11  C   UNL     1      -8.847   8.628  66.143  1.00  0.00    -0.204 A  
HETATM   12  C   UNL     1      -7.461   6.765  67.673  1.00  0.00    -0.098 A  
HETATM   13  F   UNL     1      -7.669   5.205  65.918  1.00  0.00    -0.086 F  
HETATM   14  C   UNL     1      -8.605   7.346  65.640  1.00  0.00    -0.128 A  
HETATM   15  C   UNL     1      -7.913   6.425  66.409  1.00  0.00    -0.110 A  
HETATM   16  C   UNL     1      -7.731   8.039  68.184  1.00  0.00    -0.118 A  
ENDROOT
BRANCH   8  17
HETATM   17  C   UNL     1     -10.754  10.115  69.743  1.00  0.00    -0.317 C  
BRANCH  17  18
HETATM   18  C   UNL     1     -11.141   8.689  70.155  1.00  0.00    -0.192 C  
BRANCH  18  19
HETATM   19  N   UNL     1     -11.032   8.414  71.587  1.00  0.00    -0.260 NA 
HETATM   20  C   UNL     1     -11.034   5.889  71.794  1.00  0.00    -0.327 C  
HETATM   21  C   UNL     1     -11.739   7.222  72.064  1.00  0.00    -0.292 C  
HETATM   22  C   UNL     1      -9.556   5.925  72.199  1.00  0.00    -0.148 C  
HETATM   23  C   UNL     1      -8.837   7.191  71.719  1.00  0.00    -0.129 C  
HETATM   24  N   UNL     1      -8.793   4.685  71.831  1.00  0.00    -0.121 NA 
HETATM   25  O   UNL     1     -10.035   6.587  74.565  1.00  0.00    -0.315 OA 
HETATM   26  C   UNL     1      -9.639   8.449  72.056  1.00  0.00    -0.274 C  
HETATM   27  C   UNL     1      -8.113   4.139  72.998  1.00  0.00    -0.090 C  
HETATM   28  C   UNL     1      -9.482   5.873  73.745  1.00  0.00    -0.141 C  
HETATM   29  N   UNL     1      -8.644   4.852  74.097  1.00  0.00    -0.111 NA 
BRANCH  24  30
HETATM   30  C   UNL     1      -8.605   4.106  70.589  1.00  0.00    -0.075 A  
HETATM   31  C   UNL     1      -9.220   4.572  69.421  1.00  0.00    -0.192 A  
HETATM   32  C   UNL     1      -9.088   3.923  68.182  1.00  0.00    -0.187 A  
HETATM   33  C   UNL     1      -8.298   2.790  68.066  1.00  0.00    -0.095 A  
HETATM   34  C   UNL     1      -7.627   2.320  69.181  1.00  0.00    -0.043 A  
HETATM   35  C   UNL     1      -7.784   2.970  70.417  1.00  0.00    -0.043 A  
ENDBRANCH  24  30
ENDBRANCH  18  19
ENDBRANCH  17  18
ENDBRANCH   8  17
TORSDOF 4
ENDMDL
MODEL      138
REMARK 921   NORMALIZED FREE ENERGY PREDICTED BY IDOCK:   -4.38 KCAL/MOL
REMARK 922        TOTAL FREE ENERGY PREDICTED BY IDOCK:   -7.29 KCAL/MOL
REMARK 923 INTER-LIGAND FREE ENERGY PREDICTED BY IDOCK:   -6.14 KCAL/MOL
REMARK 924 INTRA-LIGAND FREE ENERGY PREDICTED BY IDOCK:   -1.15 KCAL/MOL
REMARK 927      BINDING AFFINITY PREDICTED BY RF-SCORE:    0.00 PKD
ROOT
HETATM    1  F   UNL     1     -11.972  11.770  65.087  1.00  0.00    -0.333 F  
HETATM    2  C   UNL     1     -10.878  11.097  65.467  1.00  0.00    -0.136 A  
HETATM    3  C   UNL     1      -9.628  11.689  65.344  1.00  0.00    -0.228 A  
HETATM    4  C   UNL     1      -8.484  10.965  65.688  1.00  0.00    -0.139 A  
HETATM    5  C   UNL     1      -8.580   9.644  66.170  1.00  0.00    -0.138 A  
HETATM    6  C   UNL     1      -7.297   8.858  66.490  1.00  0.00    -0.085 C  
HETATM    7  C   UNL     1      -9.867   9.112  66.368  1.00  0.00    -0.350 A  
HETATM    8  C   UNL     1      -6.884   9.064  67.978  1.00  0.00    -0.069 C  
HETATM    9  C   UNL     1     -11.007   9.818  65.982  1.00  0.00     0.667 A  
HETATM   10  C   UNL     1      -7.168   7.421  65.953  1.00  0.00    -0.066 A  
HETATM   11  C   UNL     1      -8.150   6.782  65.174  1.00  0.00    -0.132 A  
HETATM   12  C   UNL     1      -5.795   5.401  65.705  1.00  0.00    -0.021 A  
HETATM   13  F   UNL     1      -6.656   3.536  64.548  1.00  0.00    -0.032 F  
HETATM   14  C   UNL     1      -7.989   5.467  64.725  1.00  0.00    -0.113 A  
HETATM   15  C   UNL     1      -6.813   4.788  64.993  1.00  0.00    -0.053 A  
HETATM   16  C   UNL     1      -5.971   6.706  66.178  1.00  0.00    -0.033 A  
ENDROOT
BRANCH   8  17
HETATM   17  C   UNL     1      -7.887   8.662  69.073  1.00  0.00    -0.100 C  
BRANCH  17  18
HETATM   18  C   UNL     1      -8.458   7.240  68.998  1.00  0.00    -0.129 C  
BRANCH  18  19
HETATM   19  N   UNL     1      -9.053   6.752  70.242  1.00  0.00    -0.152 NA 
HETATM   20  C   UNL     1      -9.604   8.825  71.589  1.00  0.00    -0.363 C  
HETATM   21  C   UNL     1      -8.770   7.548  71.440  1.00  0.00    -0.124 C  
HETATM   22  C   UNL     1     -11.098   8.569  71.362  1.00  0.00    -0.265 C  
HETATM   23  C   UNL     1     -11.375   7.710  70.124  1.00  0.00    -0.147 C  
HETATM   24  N   UNL     1     -11.937   9.815  71.368  1.00  0.00    -0.385 NA 
HETATM   25  O   UNL     1     -11.248   6.809  73.135  1.00  0.00    -0.218 OA 
HETATM   26  C   UNL     1     -10.488   6.465  70.099  1.00  0.00    -0.216 C  
HETATM   27  C   UNL     1     -13.034   9.688  72.318  1.00  0.00    -0.356 C  
HETATM   28  C   UNL     1     -11.651   7.832  72.606  1.00  0.00    -0.344 C  
HETATM   29  N   UNL     1     -12.738   8.524  73.064  1.00  0.00    -0.076 NA 
BRANCH  24  30
HETATM   30  C   UNL     1     -11.844  10.940  70.568  1.00  0.00    -0.360 A  
HETATM   31  C   UNL     1     -11.133  10.971  69.363  1.00  0.00    -0.320 A  
HETATM   32  C   UNL     1     -10.975  12.142  68.604  1.00  0.00    -0.284 A  
HETATM   33  C   UNL     1     -11.561  13.329  69.017  1.00  0.00    -0.359 A  
HETATM   34  C   UNL     1     -12.318  13.338  70.176  1.00  0.00    -0.306 A  
HETATM   35  C   UNL     1     -12.451  12.161  70.933  1.00  0.00    -0.374 A  
ENDBRANCH  24  30
ENDBRANCH  18  19
ENDBRANCH  17  18
ENDBRANCH   8  17
TORSDOF 4
ENDMDL
MODEL      139
REMARK 921   NORMALIZED FREE ENERGY PREDICTED BY IDOCK:   -4.35 KCAL/MOL
REMARK 922        TOTAL FREE ENERGY PREDICTED BY IDOCK:   -7.24 KCAL/MOL
REMARK 923 INTER-LIGAND FREE ENERGY PREDICTED BY IDOCK:   -5.70 KCAL/MOL
REMARK 924 INTRA-LIGAND FREE ENERGY PREDICTED BY IDOCK:   -1.55 KCAL/MOL
REMARK 927      BINDING AFFINITY PREDICTED BY RF-SCORE:    0.00 PKD
ROOT
HETATM    1  F   UNL     1      -6.448  13.280  68.090  1.00  0.00    -0.073 F  
HETATM    2  C   UNL     1      -7.408  12.371  68.301  1.00  0.00    -0.113 A  
HETATM    3  C   UNL     1      -8.731  12.689  68.026  1.00  0.00    -0.190 A  
HETATM    4  C   UNL     1      -9.737  11.759  68.300  1.00  0.00    -0.199 A  
HETATM    5  C   UNL     1      -9.427  10.496  68.842  1.00  0.00    -0.199 A  
HETATM    6  C   UNL     1     -10.564   9.517  69.180  1.00  0.00    -0.237 C  
HETATM    7  C   UNL     1      -8.070  10.175  69.020  1.00  0.00    -0.125 A  
HETATM    8  C   UNL     1     -10.877   8.596  67.962  1.00  0.00    -0.040 C  
HETATM    9  C   UNL     1      -7.069  11.120  68.790  1.00  0.00    -0.093 A  
HETATM   10  C   UNL     1     -10.547   8.822  70.554  1.00  0.00    -0.252 A  
HETATM   11  C   UNL     1      -9.557   9.038  71.531  1.00  0.00    -0.340 A  
HETATM   12  C   UNL     1     -11.657   7.324  72.150  1.00  0.00    -0.324 A  
HETATM   13  F   UNL     1     -10.656   6.892  74.240  1.00  0.00    -0.391 F  
HETATM   14  C   UNL     1      -9.579   8.369  72.758  1.00  0.00    -0.308 A  
HETATM   15  C   UNL     1     -10.630   7.518  73.058  1.00  0.00    -0.368 A  
HETATM   16  C   UNL     1     -11.616   7.972  70.911  1.00  0.00    -0.284 A  
ENDROOT
BRANCH   8  17
HETATM   17  C   UNL     1      -9.742   7.720  67.403  1.00  0.00    -0.211 C  
BRANCH  17  18
HETATM   18  C   UNL     1      -9.545   6.346  68.057  1.00  0.00    -0.118 C  
BRANCH  18  19
HETATM   19  N   UNL     1      -8.197   5.793  67.927  1.00  0.00    -0.101 NA 
HETATM   20  C   UNL     1      -7.537   5.058  70.260  1.00  0.00    -0.063 C  
HETATM   21  C   UNL     1      -7.308   6.001  69.074  1.00  0.00    -0.085 C  
HETATM   22  C   UNL     1      -7.638   3.593  69.822  1.00  0.00    -0.051 C  
HETATM   23  C   UNL     1      -8.547   3.395  68.604  1.00  0.00    -0.123 C  
HETATM   24  N   UNL     1      -7.993   2.648  70.934  1.00  0.00    -0.049 NA 
HETATM   25  O   UNL     1      -5.407   3.593  68.686  1.00  0.00    -0.011 OA 
HETATM   26  C   UNL     1      -8.210   4.389  67.490  1.00  0.00    -0.099 C  
HETATM   27  C   UNL     1      -7.024   1.564  71.012  1.00  0.00    -0.032 C  
HETATM   28  C   UNL     1      -6.215   3.103  69.459  1.00  0.00    -0.028 C  
HETATM   29  N   UNL     1      -5.965   1.959  70.163  1.00  0.00    -0.022 NA 
BRANCH  24  30
HETATM   30  C   UNL     1      -9.102   2.644  71.762  1.00  0.00    -0.089 A  
HETATM   31  C   UNL     1      -9.842   1.491  72.051  1.00  0.00    -0.196 A  
HETATM   32  C   UNL     1     -11.015   1.516  72.824  1.00  0.00    -0.220 A  
HETATM   33  C   UNL     1     -11.471   2.707  73.366  1.00  0.00    -0.195 A  
HETATM   34  C   UNL     1     -10.746   3.866  73.152  1.00  0.00    -0.270 A  
HETATM   35  C   UNL     1      -9.584   3.828  72.361  1.00  0.00    -0.198 A  
ENDBRANCH  24  30
ENDBRANCH  18  19
ENDBRANCH  17  18
ENDBRANCH   8  17
TORSDOF 4
ENDMDL
MODEL      140
REMARK 921   NORMALIZED FREE ENERGY PREDICTED BY IDOCK:   -4.34 KCAL/MOL
REMARK 922        TOTAL FREE ENERGY PREDICTED BY IDOCK:   -7.24 KCAL/MOL
REMARK 923 INTER-LIGAND FREE ENERGY PREDICTED BY IDOCK:   -5.05 KCAL/MOL
REMARK 924 INTRA-LIGAND FREE ENERGY PREDICTED BY IDOCK:   -2.18 KCAL/MOL
REMARK 927      BINDING AFFINITY PREDICTED BY RF-SCORE:    0.00 PKD
ROOT
HETATM    1  F   UNL     1     -10.431   8.000  73.528  1.00  0.00    -0.371 F  
HETATM    2  C   UNL     1     -10.488   7.487  72.293  1.00  0.00    -0.230 A  
HETATM    3  C   UNL     1     -11.643   6.848  71.865  1.00  0.00    -0.321 A  
HETATM    4  C   UNL     1     -11.680   6.265  70.596  1.00  0.00    -0.285 A  
HETATM    5  C   UNL     1     -10.565   6.326  69.737  1.00  0.00    -0.323 A  
HETATM    6  C   UNL     1     -10.622   5.628  68.368  1.00  0.00    -0.249 C  
HETATM    7  C   UNL     1      -9.446   7.061  70.170  1.00  0.00    -0.162 A  
HETATM    8  C   UNL     1     -11.152   6.605  67.275  1.00  0.00    -0.418 C  
HETATM    9  C   UNL     1      -9.392   7.604  71.454  1.00  0.00    -0.157 A  
HETATM   10  C   UNL     1      -9.436   4.739  67.950  1.00  0.00    -0.181 A  
HETATM   11  C   UNL     1      -8.303   4.513  68.752  1.00  0.00    -0.086 A  
HETATM   12  C   UNL     1      -8.456   3.206  66.303  1.00  0.00    -0.106 A  
HETATM   13  F   UNL     1      -6.324   2.278  66.692  1.00  0.00    -0.022 F  
HETATM   14  C   UNL     1      -7.245   3.708  68.318  1.00  0.00    -0.051 A  
HETATM   15  C   UNL     1      -7.331   3.061  67.097  1.00  0.00    -0.062 A  
HETATM   16  C   UNL     1      -9.500   4.036  66.728  1.00  0.00    -0.219 A  
ENDROOT
BRANCH   8  17
HETATM   17  C   UNL     1     -10.376   7.911  67.030  1.00  0.00    -0.411 C  
BRANCH  17  18
HETATM   18  C   UNL     1     -10.905   9.170  67.730  1.00  0.00    -0.092 C  
BRANCH  18  19
HETATM   19  N   UNL     1     -10.294  10.421  67.285  1.00  0.00    -0.215 NA 
HETATM   20  C   UNL     1      -8.734  11.117  69.156  1.00  0.00     0.057 C  
HETATM   21  C   UNL     1      -9.999  11.398  68.338  1.00  0.00    -0.204 C  
HETATM   22  C   UNL     1      -7.529  10.795  68.265  1.00  0.00    -0.092 C  
HETATM   23  C   UNL     1      -7.861   9.797  67.151  1.00  0.00    -0.099 C  
HETATM   24  N   UNL     1      -6.301  10.385  69.026  1.00  0.00    -0.044 NA 
HETATM   25  O   UNL     1      -7.688  12.933  66.973  1.00  0.00    -0.097 OA 
HETATM   26  C   UNL     1      -9.137  10.195  66.407  1.00  0.00    -0.152 C  
HETATM   27  C   UNL     1      -5.161  11.204  68.636  1.00  0.00    -0.040 C  
HETATM   28  C   UNL     1      -7.049  12.116  67.615  1.00  0.00    -0.124 C  
HETATM   29  N   UNL     1      -5.712  12.253  67.865  1.00  0.00    -0.069 NA 
BRANCH  24  30
HETATM   30  C   UNL     1      -6.127   9.338  69.913  1.00  0.00    -0.038 A  
HETATM   31  C   UNL     1      -6.141   9.498  71.304  1.00  0.00    -0.057 A  
HETATM   32  C   UNL     1      -5.877   8.442  72.192  1.00  0.00    -0.053 A  
HETATM   33  C   UNL     1      -5.621   7.168  71.709  1.00  0.00    -0.036 A  
HETATM   34  C   UNL     1      -5.648   6.947  70.343  1.00  0.00    -0.023 A  
HETATM   35  C   UNL     1      -5.895   8.019  69.467  1.00  0.00    -0.027 A  
ENDBRANCH  24  30
ENDBRANCH  18  19
ENDBRANCH  17  18
ENDBRANCH   8  17
TORSDOF 4
ENDMDL
MODEL      141
REMARK 921   NORMALIZED FREE ENERGY PREDICTED BY IDOCK:   -4.30 KCAL/MOL
REMARK 922        TOTAL FREE ENERGY PREDICTED BY IDOCK:   -7.18 KCAL/MOL
REMARK 923 INTER-LIGAND FREE ENERGY PREDICTED BY IDOCK:   -5.92 KCAL/MOL
REMARK 924 INTRA-LIGAND FREE ENERGY PREDICTED BY IDOCK:   -1.26 KCAL/MOL
REMARK 927      BINDING AFFINITY PREDICTED BY RF-SCORE:    0.00 PKD
ROOT
HETATM    1  F   UNL     1     -13.530  10.548  72.677  1.00  0.00    -0.329 F  
HETATM    2  C   UNL     1     -12.937  10.737  71.492  1.00  0.00    -0.456 A  
HETATM    3  C   UNL     1     -13.117   9.808  70.476  1.00  0.00     0.035 A  
HETATM    4  C   UNL     1     -12.453   9.979  69.259  1.00  0.00     0.900 A  
HETATM    5  C   UNL     1     -11.611  11.088  69.042  1.00  0.00    -0.392 A  
HETATM    6  C   UNL     1     -10.854  11.217  67.709  1.00  0.00    -0.288 C  
HETATM    7  C   UNL     1     -11.527  12.055  70.060  1.00  0.00    -0.183 A  
HETATM    8  C   UNL     1     -11.698  12.021  66.674  1.00  0.00    -0.331 C  
HETATM    9  C   UNL     1     -12.154  11.862  71.292  1.00  0.00     0.167 A  
HETATM   10  C   UNL     1      -9.352  11.552  67.750  1.00  0.00    -0.168 A  
HETATM   11  C   UNL     1      -8.620  11.736  68.938  1.00  0.00     0.110 A  
HETATM   12  C   UNL     1      -7.256  11.898  66.521  1.00  0.00     0.180 A  
HETATM   13  F   UNL     1      -5.282  12.422  67.698  1.00  0.00    -0.063 F  
HETATM   14  C   UNL     1      -7.260  12.055  68.920  1.00  0.00    -0.089 A  
HETATM   15  C   UNL     1      -6.588  12.132  67.711  1.00  0.00    -0.100 A  
HETATM   16  C   UNL     1      -8.625  11.607  66.542  1.00  0.00    -0.164 A  
ENDROOT
BRANCH   8  17
HETATM   17  C   UNL     1     -12.120  13.455  67.039  1.00  0.00    -0.390 C  
BRANCH  17  18
HETATM   18  C   UNL     1     -11.002  14.420  67.452  1.00  0.00    -0.299 C  
BRANCH  18  19
HETATM   19  N   UNL     1     -11.065  15.738  66.822  1.00  0.00    -0.192 NA 
HETATM   20  C   UNL     1      -9.835  17.301  68.391  1.00  0.00    -0.309 C  
HETATM   21  C   UNL     1     -11.155  16.880  67.737  1.00  0.00    -0.116 C  
HETATM   22  C   UNL     1      -8.697  17.422  67.370  1.00  0.00    -0.223 C  
HETATM   23  C   UNL     1      -8.635  16.235  66.402  1.00  0.00    -0.361 C  
HETATM   24  N   UNL     1      -7.356  17.704  67.984  1.00  0.00    -0.209 NA 
HETATM   25  O   UNL     1      -9.920  19.070  65.936  1.00  0.00    -0.477 OA 
HETATM   26  C   UNL     1     -10.012  15.924  65.813  1.00  0.00    -0.360 C  
HETATM   27  C   UNL     1      -6.750  18.878  67.371  1.00  0.00    -0.199 C  
HETATM   28  C   UNL     1      -8.927  18.715  66.550  1.00  0.00    -0.304 C  
HETATM   29  N   UNL     1      -7.781  19.460  66.598  1.00  0.00    -0.255 NA 
BRANCH  24  30
HETATM   30  C   UNL     1      -6.650  16.974  68.924  1.00  0.00    -0.196 A  
HETATM   31  C   UNL     1      -6.715  15.579  69.023  1.00  0.00    -0.131 A  
HETATM   32  C   UNL     1      -6.060  14.859  70.036  1.00  0.00    -0.148 A  
HETATM   33  C   UNL     1      -5.283  15.519  70.975  1.00  0.00    -0.127 A  
HETATM   34  C   UNL     1      -5.146  16.894  70.889  1.00  0.00    -0.209 A  
HETATM   35  C   UNL     1      -5.822  17.602  69.880  1.00  0.00    -0.247 A  
ENDBRANCH  24  30
ENDBRANCH  18  19
ENDBRANCH  17  18
ENDBRANCH   8  17
TORSDOF 4
ENDMDL
MODEL      142
REMARK 921   NORMALIZED FREE ENERGY PREDICTED BY IDOCK:   -4.29 KCAL/MOL
REMARK 922        TOTAL FREE ENERGY PREDICTED BY IDOCK:   -7.17 KCAL/MOL
REMARK 923 INTER-LIGAND FREE ENERGY PREDICTED BY IDOCK:   -5.71 KCAL/MOL
REMARK 924 INTRA-LIGAND FREE ENERGY PREDICTED BY IDOCK:   -1.46 KCAL/MOL
REMARK 927      BINDING AFFINITY PREDICTED BY RF-SCORE:    0.00 PKD
ROOT
HETATM    1  F   UNL     1     -10.066   4.315  62.713  1.00  0.00    -0.160 F  
HETATM    2  C   UNL     1      -9.373   4.528  63.839  1.00  0.00    -0.059 A  
HETATM    3  C   UNL     1      -7.989   4.428  63.825  1.00  0.00    -0.091 A  
HETATM    4  C   UNL     1      -7.272   4.596  65.012  1.00  0.00    -0.067 A  
HETATM    5  C   UNL     1      -7.934   4.876  66.224  1.00  0.00    -0.107 A  
HETATM    6  C   UNL     1      -7.118   5.002  67.522  1.00  0.00    -0.066 C  
HETATM    7  C   UNL     1      -9.328   5.061  66.181  1.00  0.00    -0.157 A  
HETATM    8  C   UNL     1      -6.681   6.479  67.755  1.00  0.00    -0.071 C  
HETATM    9  C   UNL     1     -10.048   4.849  65.005  1.00  0.00     0.175 A  
HETATM   10  C   UNL     1      -7.610   4.246  68.771  1.00  0.00    -0.059 A  
HETATM   11  C   UNL     1      -8.758   3.433  68.796  1.00  0.00    -0.143 A  
HETATM   12  C   UNL     1      -7.234   3.619  71.114  1.00  0.00    -0.033 A  
HETATM   13  F   UNL     1      -8.794   2.241  72.221  1.00  0.00    -0.067 F  
HETATM   14  C   UNL     1      -9.171   2.782  69.962  1.00  0.00    -0.205 A  
HETATM   15  C   UNL     1      -8.404   2.879  71.112  1.00  0.00    -0.062 A  
HETATM   16  C   UNL     1      -6.840   4.294  69.953  1.00  0.00    -0.041 A  
ENDROOT
BRANCH   8  17
HETATM   17  C   UNL     1      -7.778   7.554  67.861  1.00  0.00    -0.116 C  
BRANCH  17  18
HETATM   18  C   UNL     1      -7.312   9.016  67.884  1.00  0.00    -0.084 C  
BRANCH  18  19
HETATM   19  N   UNL     1      -8.366   9.998  67.638  1.00  0.00    -0.114 NA 
HETATM   20  C   UNL     1     -10.533   8.835  68.247  1.00  0.00    -0.236 C  
HETATM   21  C   UNL     1      -9.645   9.458  67.165  1.00  0.00    -0.154 C  
HETATM   22  C   UNL     1     -10.669   9.741  69.475  1.00  0.00    -0.233 C  
HETATM   23  C   UNL     1      -9.328  10.322  69.939  1.00  0.00    -0.040 C  
HETATM   24  N   UNL     1     -11.422   9.115  70.614  1.00  0.00    -0.269 NA 
HETATM   25  O   UNL     1     -11.539  11.688  68.165  1.00  0.00    -0.294 OA 
HETATM   26  C   UNL     1      -8.545  10.919  68.769  1.00  0.00    -0.159 C  
HETATM   27  C   UNL     1     -12.513   9.979  71.041  1.00  0.00    -0.362 C  
HETATM   28  C   UNL     1     -11.611  10.912  69.104  1.00  0.00    -0.319 C  
HETATM   29  N   UNL     1     -12.604  10.975  70.042  1.00  0.00    -0.233 NA 
BRANCH  24  30
HETATM   30  C   UNL     1     -11.156   7.946  71.306  1.00  0.00    -0.250 A  
HETATM   31  C   UNL     1     -11.049   6.694  70.689  1.00  0.00    -0.349 A  
HETATM   32  C   UNL     1     -10.864   5.505  71.413  1.00  0.00    -0.256 A  
HETATM   33  C   UNL     1     -10.745   5.536  72.794  1.00  0.00    -0.290 A  
HETATM   34  C   UNL     1     -10.792   6.756  73.446  1.00  0.00    -0.282 A  
HETATM   35  C   UNL     1     -10.996   7.936  72.708  1.00  0.00    -0.456 A  
ENDBRANCH  24  30
ENDBRANCH  18  19
ENDBRANCH  17  18
ENDBRANCH   8  17
TORSDOF 4
ENDMDL
MODEL      143
REMARK 921   NORMALIZED FREE ENERGY PREDICTED BY IDOCK:   -4.28 KCAL/MOL
REMARK 922        TOTAL FREE ENERGY PREDICTED BY IDOCK:   -7.16 KCAL/MOL
REMARK 923 INTER-LIGAND FREE ENERGY PREDICTED BY IDOCK:   -5.76 KCAL/MOL
REMARK 924 INTRA-LIGAND FREE ENERGY PREDICTED BY IDOCK:   -1.40 KCAL/MOL
REMARK 927      BINDING AFFINITY PREDICTED BY RF-SCORE:    0.00 PKD
ROOT
HETATM    1  F   UNL     1     -13.144  11.343  72.438  1.00  0.00    -0.552 F  
HETATM    2  C   UNL     1     -12.616  11.256  71.211  1.00  0.00    -0.382 A  
HETATM    3  C   UNL     1     -12.889  10.149  70.420  1.00  0.00    -0.155 A  
HETATM    4  C   UNL     1     -12.292  10.034  69.162  1.00  0.00     0.864 A  
HETATM    5  C   UNL     1     -11.423  11.033  68.679  1.00  0.00    -0.375 A  
HETATM    6  C   UNL     1     -10.742  10.849  67.312  1.00  0.00    -0.317 C  
HETATM    7  C   UNL     1     -11.244  12.183  69.470  1.00  0.00    -0.201 A  
HETATM    8  C   UNL     1     -11.613  11.465  66.177  1.00  0.00     0.140 C  
HETATM    9  C   UNL     1     -11.804  12.277  70.744  1.00  0.00     0.109 A  
HETATM   10  C   UNL     1      -9.228  11.112  67.209  1.00  0.00    -0.166 A  
HETATM   11  C   UNL     1      -8.422  11.500  68.295  1.00  0.00    -0.159 A  
HETATM   12  C   UNL     1      -7.197  11.097  65.832  1.00  0.00     0.122 A  
HETATM   13  F   UNL     1      -5.138  11.755  66.775  1.00  0.00    -0.087 F  
HETATM   14  C   UNL     1      -7.053  11.742  68.143  1.00  0.00    -0.079 A  
HETATM   15  C   UNL     1      -6.451  11.538  66.913  1.00  0.00    -0.144 A  
HETATM   16  C   UNL     1      -8.571  10.884  65.980  1.00  0.00    -0.179 A  
ENDROOT
BRANCH   8  17
HETATM   17  C   UNL     1     -11.960  12.962  66.257  1.00  0.00    -0.472 C  
BRANCH  17  18
HETATM   18  C   UNL     1     -11.976  13.739  64.934  1.00  0.00    -0.390 C  
BRANCH  18  19
HETATM   19  N   UNL     1     -10.842  14.642  64.740  1.00  0.00    -0.401 NA 
HETATM   20  C   UNL     1     -11.250  16.590  66.307  1.00  0.00     0.411 C  
HETATM   21  C   UNL     1     -11.135  16.072  64.870  1.00  0.00    -0.370 C  
HETATM   22  C   UNL     1     -10.083  16.122  67.185  1.00  0.00    -0.269 C  
HETATM   23  C   UNL     1      -9.769  14.632  67.015  1.00  0.00    -0.247 C  
HETATM   24  N   UNL     1     -10.222  16.496  68.633  1.00  0.00    -0.248 NA 
HETATM   25  O   UNL     1      -8.332  17.093  65.682  1.00  0.00    -0.450 OA 
HETATM   26  C   UNL     1      -9.672  14.247  65.538  1.00  0.00    -0.154 C  
HETATM   27  C   UNL     1      -9.036  17.205  69.094  1.00  0.00    -0.029 C  
HETATM   28  C   UNL     1      -8.829  16.938  66.786  1.00  0.00    -0.235 C  
HETATM   29  N   UNL     1      -8.305  17.496  67.919  1.00  0.00    -0.224 NA 
BRANCH  24  30
HETATM   30  C   UNL     1     -11.230  16.183  69.527  1.00  0.00    -0.337 A  
HETATM   31  C   UNL     1     -11.176  16.500  70.890  1.00  0.00    -0.034 A  
HETATM   32  C   UNL     1     -12.166  16.101  71.803  1.00  0.00    -0.466 A  
HETATM   33  C   UNL     1     -13.274  15.389  71.367  1.00  0.00    -0.578 A  
HETATM   34  C   UNL     1     -13.399  15.096  70.021  1.00  0.00     0.362 A  
HETATM   35  C   UNL     1     -12.390  15.487  69.123  1.00  0.00    -0.064 A  
ENDBRANCH  24  30
ENDBRANCH  18  19
ENDBRANCH  17  18
ENDBRANCH   8  17
TORSDOF 4
ENDMDL
MODEL      144
REMARK 921   NORMALIZED FREE ENERGY PREDICTED BY IDOCK:   -4.24 KCAL/MOL
REMARK 922        TOTAL FREE ENERGY PREDICTED BY IDOCK:   -7.11 KCAL/MOL
REMARK 923 INTER-LIGAND FREE ENERGY PREDICTED BY IDOCK:   -5.95 KCAL/MOL
REMARK 924 INTRA-LIGAND FREE ENERGY PREDICTED BY IDOCK:   -1.16 KCAL/MOL
REMARK 927      BINDING AFFINITY PREDICTED BY RF-SCORE:    0.00 PKD
ROOT
HETATM    1  F   UNL     1     -10.630   7.555  73.862  1.00  0.00    -0.387 F  
HETATM    2  C   UNL     1     -10.689   7.211  72.570  1.00  0.00    -0.250 A  
HETATM    3  C   UNL     1     -11.913   6.896  71.996  1.00  0.00    -0.342 A  
HETATM    4  C   UNL     1     -11.964   6.483  70.662  1.00  0.00    -0.345 A  
HETATM    5  C   UNL     1     -10.792   6.394  69.885  1.00  0.00    -0.370 A  
HETATM    6  C   UNL     1     -10.879   5.886  68.436  1.00  0.00    -0.322 C  
HETATM    7  C   UNL     1      -9.584   6.810  70.474  1.00  0.00    -0.174 A  
HETATM    8  C   UNL     1     -11.095   7.073  67.450  1.00  0.00    -0.265 C  
HETATM    9  C   UNL     1      -9.526   7.179  71.818  1.00  0.00    -0.160 A  
HETATM   10  C   UNL     1      -9.877   4.810  67.977  1.00  0.00    -0.185 A  
HETATM   11  C   UNL     1      -8.889   4.250  68.808  1.00  0.00    -0.138 A  
HETATM   12  C   UNL     1      -9.106   3.297  66.206  1.00  0.00    -0.161 A  
HETATM   13  F   UNL     1      -7.259   1.883  66.596  1.00  0.00    -0.050 F  
HETATM   14  C   UNL     1      -7.993   3.287  68.336  1.00  0.00    -0.062 A  
HETATM   15  C   UNL     1      -8.109   2.817  67.039  1.00  0.00    -0.076 A  
HETATM   16  C   UNL     1      -9.983   4.282  66.672  1.00  0.00    -0.202 A  
ENDROOT
BRANCH   8  17
HETATM   17  C   UNL     1     -10.042   8.195  67.422  1.00  0.00    -0.298 C  
BRANCH  17  18
HETATM   18  C   UNL     1     -10.526   9.604  67.789  1.00  0.00    -0.256 C  
BRANCH  18  19
HETATM   19  N   UNL     1      -9.459  10.578  68.018  1.00  0.00    -0.147 NA 
HETATM   20  C   UNL     1      -7.301   9.351  67.509  1.00  0.00    -0.084 C  
HETATM   21  C   UNL     1      -8.202  10.035  68.543  1.00  0.00    -0.108 C  
HETATM   22  C   UNL     1      -7.121  10.203  66.247  1.00  0.00    -0.110 C  
HETATM   23  C   UNL     1      -8.439  10.787  65.728  1.00  0.00    -0.174 C  
HETATM   24  N   UNL     1      -6.354   9.515  65.154  1.00  0.00    -0.074 NA 
HETATM   25  O   UNL     1      -6.245  12.188  67.495  1.00  0.00    -0.097 OA 
HETATM   26  C   UNL     1      -9.238  11.447  66.853  1.00  0.00    -0.176 C  
HETATM   27  C   UNL     1      -5.237  10.341  64.716  1.00  0.00    -0.116 C  
HETATM   28  C   UNL     1      -6.166  11.372  66.591  1.00  0.00    -0.137 C  
HETATM   29  N   UNL     1      -5.151  11.377  65.675  1.00  0.00    -0.289 NA 
BRANCH  24  30
HETATM   30  C   UNL     1      -6.626   8.324  64.506  1.00  0.00    -0.065 A  
HETATM   31  C   UNL     1      -6.599   8.181  63.113  1.00  0.00    -0.085 A  
HETATM   32  C   UNL     1      -6.961   6.989  62.465  1.00  0.00    -0.056 A  
HETATM   33  C   UNL     1      -7.335   5.876  63.202  1.00  0.00    -0.062 A  
HETATM   34  C   UNL     1      -7.328   5.951  64.584  1.00  0.00    -0.070 A  
HETATM   35  C   UNL     1      -6.981   7.157  65.217  1.00  0.00    -0.056 A  
ENDBRANCH  24  30
ENDBRANCH  18  19
ENDBRANCH  17  18
ENDBRANCH   8  17
TORSDOF 4
ENDMDL
MODEL      145
REMARK 921   NORMALIZED FREE ENERGY PREDICTED BY IDOCK:   -4.22 KCAL/MOL
REMARK 922        TOTAL FREE ENERGY PREDICTED BY IDOCK:   -7.08 KCAL/MOL
REMARK 923 INTER-LIGAND FREE ENERGY PREDICTED BY IDOCK:   -6.25 KCAL/MOL
REMARK 924 INTRA-LIGAND FREE ENERGY PREDICTED BY IDOCK:   -0.83 KCAL/MOL
REMARK 927      BINDING AFFINITY PREDICTED BY RF-SCORE:    0.00 PKD
ROOT
HETATM    1  F   UNL     1      -6.609  17.573  70.049  1.00  0.00    -0.171 F  
HETATM    2  C   UNL     1      -6.916  16.485  69.331  1.00  0.00    -0.202 A  
HETATM    3  C   UNL     1      -6.096  16.101  68.279  1.00  0.00    -0.112 A  
HETATM    4  C   UNL     1      -6.449  14.999  67.496  1.00  0.00    -0.121 A  
HETATM    5  C   UNL     1      -7.620  14.263  67.765  1.00  0.00    -0.175 A  
HETATM    6  C   UNL     1      -8.005  13.088  66.851  1.00  0.00     0.092 C  
HETATM    7  C   UNL     1      -8.375  14.626  68.895  1.00  0.00    -0.142 A  
HETATM    8  C   UNL     1      -7.393  11.756  67.381  1.00  0.00    -0.136 C  
HETATM    9  C   UNL     1      -8.048  15.753  69.650  1.00  0.00    -0.022 A  
HETATM   10  C   UNL     1      -9.456  13.001  66.344  1.00  0.00    -0.228 A  
HETATM   11  C   UNL     1     -10.455  13.941  66.656  1.00  0.00    -0.272 A  
HETATM   12  C   UNL     1     -11.114  11.847  64.950  1.00  0.00    -0.363 A  
HETATM   13  F   UNL     1     -13.332  12.644  64.868  1.00  0.00    -0.397 F  
HETATM   14  C   UNL     1     -11.764  13.806  66.183  1.00  0.00    -0.392 A  
HETATM   15  C   UNL     1     -12.083  12.761  65.333  1.00  0.00    -0.462 A  
HETATM   16  C   UNL     1      -9.813  11.968  65.450  1.00  0.00    -0.243 A  
ENDROOT
BRANCH   8  17
HETATM   17  C   UNL     1      -7.766  11.300  68.803  1.00  0.00    -0.138 C  
BRANCH  17  18
HETATM   18  C   UNL     1      -8.891  10.264  68.923  1.00  0.00    -0.157 C  
BRANCH  18  19
HETATM   19  N   UNL     1      -8.886   9.233  67.886  1.00  0.00    -0.124 NA 
HETATM   20  C   UNL     1      -7.943   7.159  68.996  1.00  0.00    -0.120 C  
HETATM   21  C   UNL     1      -7.784   8.268  67.950  1.00  0.00    -0.103 C  
HETATM   22  C   UNL     1      -9.328   6.504  68.937  1.00  0.00    -0.131 C  
HETATM   23  C   UNL     1     -10.467   7.524  68.840  1.00  0.00    -0.214 C  
HETATM   24  N   UNL     1      -9.575   5.503  70.029  1.00  0.00    -0.157 NA 
HETATM   25  O   UNL     1      -9.123   5.873  66.523  1.00  0.00    -0.134 OA 
HETATM   26  C   UNL     1     -10.191   8.567  67.756  1.00  0.00    -0.225 C  
HETATM   27  C   UNL     1      -9.999   4.228  69.467  1.00  0.00    -0.057 C  
HETATM   28  C   UNL     1      -9.373   5.594  67.684  1.00  0.00    -0.110 C  
HETATM   29  N   UNL     1      -9.770   4.347  68.077  1.00  0.00    -0.148 NA 
BRANCH  24  30
HETATM   30  C   UNL     1      -9.537   5.674  71.402  1.00  0.00    -0.152 A  
HETATM   31  C   UNL     1      -9.431   4.612  72.307  1.00  0.00    -0.182 A  
HETATM   32  C   UNL     1      -9.481   4.792  73.699  1.00  0.00    -0.130 A  
HETATM   33  C   UNL     1      -9.608   6.064  74.236  1.00  0.00    -0.195 A  
HETATM   34  C   UNL     1      -9.664   7.153  73.383  1.00  0.00    -0.273 A  
HETATM   35  C   UNL     1      -9.631   6.953  71.992  1.00  0.00    -0.150 A  
ENDBRANCH  24  30
ENDBRANCH  18  19
ENDBRANCH  17  18
ENDBRANCH   8  17
TORSDOF 4
ENDMDL
MODEL      146
REMARK 921   NORMALIZED FREE ENERGY PREDICTED BY IDOCK:   -4.21 KCAL/MOL
REMARK 922        TOTAL FREE ENERGY PREDICTED BY IDOCK:   -7.07 KCAL/MOL
REMARK 923 INTER-LIGAND FREE ENERGY PREDICTED BY IDOCK:   -6.40 KCAL/MOL
REMARK 924 INTRA-LIGAND FREE ENERGY PREDICTED BY IDOCK:   -0.67 KCAL/MOL
REMARK 927      BINDING AFFINITY PREDICTED BY RF-SCORE:    0.00 PKD
ROOT
HETATM    1  F   UNL     1      -9.239  10.790  63.365  1.00  0.00    -0.187 F  
HETATM    2  C   UNL     1      -8.620  10.222  64.408  1.00  0.00    -0.187 A  
HETATM    3  C   UNL     1      -7.267  10.450  64.614  1.00  0.00    -0.022 A  
HETATM    4  C   UNL     1      -6.612   9.811  65.670  1.00  0.00    -0.087 A  
HETATM    5  C   UNL     1      -7.308   8.946  66.537  1.00  0.00    -0.085 A  
HETATM    6  C   UNL     1      -6.544   8.219  67.657  1.00  0.00    -0.058 C  
HETATM    7  C   UNL     1      -8.696   8.812  66.353  1.00  0.00    -0.158 A  
HETATM    8  C   UNL     1      -6.550   9.065  68.965  1.00  0.00    -0.048 C  
HETATM    9  C   UNL     1      -9.342   9.414  65.272  1.00  0.00    -0.303 A  
HETATM   10  C   UNL     1      -6.778   6.707  67.839  1.00  0.00    -0.071 A  
HETATM   11  C   UNL     1      -7.641   5.943  67.032  1.00  0.00    -0.099 A  
HETATM   12  C   UNL     1      -6.201   4.634  69.018  1.00  0.00    -0.031 A  
HETATM   13  F   UNL     1      -7.278   2.618  68.436  1.00  0.00    -0.046 F  
HETATM   14  C   UNL     1      -7.829   4.575  67.250  1.00  0.00    -0.097 A  
HETATM   15  C   UNL     1      -7.107   3.931  68.241  1.00  0.00    -0.051 A  
HETATM   16  C   UNL     1      -6.037   6.008  68.816  1.00  0.00    -0.031 A  
ENDROOT
BRANCH   8  17
HETATM   17  C   UNL     1      -7.909   9.441  69.582  1.00  0.00    -0.105 C  
BRANCH  17  18
HETATM   18  C   UNL     1      -8.236  10.938  69.670  1.00  0.00     0.279 C  
BRANCH  18  19
HETATM   19  N   UNL     1      -8.371  11.613  68.381  1.00  0.00    -0.154 NA 
HETATM   20  C   UNL     1     -10.752  12.474  68.311  1.00  0.00    -0.246 C  
HETATM   21  C   UNL     1      -9.690  11.524  67.748  1.00  0.00    -0.174 C  
HETATM   22  C   UNL     1     -10.232  13.910  68.441  1.00  0.00    -0.243 C  
HETATM   23  C   UNL     1      -8.839  13.985  69.076  1.00  0.00     0.172 C  
HETATM   24  N   UNL     1     -11.194  14.848  69.111  1.00  0.00    -0.264 NA 
HETATM   25  O   UNL     1      -9.601  14.090  66.025  1.00  0.00    -0.275 OA 
HETATM   26  C   UNL     1      -7.874  12.996  68.420  1.00  0.00    -0.134 C  
HETATM   27  C   UNL     1     -11.426  16.022  68.280  1.00  0.00    -0.291 C  
HETATM   28  C   UNL     1     -10.159  14.522  67.021  1.00  0.00    -0.254 C  
HETATM   29  N   UNL     1     -10.844  15.706  67.031  1.00  0.00    -0.315 NA 
BRANCH  24  30
HETATM   30  C   UNL     1     -11.765  14.770  70.369  1.00  0.00    -0.295 A  
HETATM   31  C   UNL     1     -11.489  15.680  71.396  1.00  0.00    -0.488 A  
HETATM   32  C   UNL     1     -12.008  15.540  72.694  1.00  0.00    -0.562 A  
HETATM   33  C   UNL     1     -12.858  14.487  72.999  1.00  0.00    -0.550 A  
HETATM   34  C   UNL     1     -13.202  13.590  72.003  1.00  0.00    -0.529 A  
HETATM   35  C   UNL     1     -12.659  13.734  70.714  1.00  0.00    -0.410 A  
ENDBRANCH  24  30
ENDBRANCH  18  19
ENDBRANCH  17  18
ENDBRANCH   8  17
TORSDOF 4
ENDMDL
MODEL      147
REMARK 921   NORMALIZED FREE ENERGY PREDICTED BY IDOCK:   -4.11 KCAL/MOL
REMARK 922        TOTAL FREE ENERGY PREDICTED BY IDOCK:   -6.95 KCAL/MOL
REMARK 923 INTER-LIGAND FREE ENERGY PREDICTED BY IDOCK:   -6.85 KCAL/MOL
REMARK 924 INTRA-LIGAND FREE ENERGY PREDICTED BY IDOCK:   -0.10 KCAL/MOL
REMARK 927      BINDING AFFINITY PREDICTED BY RF-SCORE:    0.00 PKD
ROOT
HETATM    1  F   UNL     1      -9.298   7.381  74.016  1.00  0.00    -0.246 F  
HETATM    2  C   UNL     1      -9.374   7.369  72.679  1.00  0.00    -0.150 A  
HETATM    3  C   UNL     1      -9.653   6.182  72.015  1.00  0.00    -0.164 A  
HETATM    4  C   UNL     1      -9.676   6.161  70.618  1.00  0.00    -0.203 A  
HETATM    5  C   UNL     1      -9.431   7.330  69.872  1.00  0.00    -0.157 A  
HETATM    6  C   UNL     1      -9.412   7.259  68.335  1.00  0.00    -0.142 C  
HETATM    7  C   UNL     1      -9.244   8.531  70.580  1.00  0.00    -0.175 A  
HETATM    8  C   UNL     1     -10.832   7.534  67.755  1.00  0.00    -0.156 C  
HETATM    9  C   UNL     1      -9.176   8.545  71.973  1.00  0.00    -0.326 A  
HETATM   10  C   UNL     1      -8.244   7.929  67.587  1.00  0.00    -0.124 A  
HETATM   11  C   UNL     1      -7.181   8.594  68.224  1.00  0.00    -0.086 A  
HETATM   12  C   UNL     1      -7.129   8.396  65.451  1.00  0.00    -0.081 A  
HETATM   13  F   UNL     1      -5.140   9.661  65.422  1.00  0.00    -0.036 F  
HETATM   14  C   UNL     1      -6.152   9.199  67.496  1.00  0.00    -0.050 A  
HETATM   15  C   UNL     1      -6.134   9.095  66.115  1.00  0.00    -0.059 A  
HETATM   16  C   UNL     1      -8.173   7.817  66.181  1.00  0.00    -0.123 A  
ENDROOT
BRANCH   8  17
HETATM   17  C   UNL     1     -11.507   8.877  68.089  1.00  0.00     1.017 C  
BRANCH  17  18
HETATM   18  C   UNL     1     -10.579  10.046  68.445  1.00  0.00    -0.220 C  
BRANCH  18  19
HETATM   19  N   UNL     1     -10.352  10.999  67.360  1.00  0.00    -0.198 NA 
HETATM   20  C   UNL     1     -11.978  12.897  67.774  1.00  0.00    -0.336 C  
HETATM   21  C   UNL     1     -11.535  11.726  66.891  1.00  0.00    -0.293 C  
HETATM   22  C   UNL     1     -10.807  13.812  68.149  1.00  0.00    -0.246 C  
HETATM   23  C   UNL     1      -9.567  13.037  68.609  1.00  0.00    -0.029 C  
HETATM   24  N   UNL     1     -11.170  14.898  69.121  1.00  0.00    -0.264 NA 
HETATM   25  O   UNL     1     -10.163  14.261  65.773  1.00  0.00    -0.305 OA 
HETATM   26  C   UNL     1      -9.227  11.904  67.640  1.00  0.00    -0.183 C  
HETATM   27  C   UNL     1     -10.778  16.201  68.602  1.00  0.00    -0.295 C  
HETATM   28  C   UNL     1     -10.431  14.645  66.900  1.00  0.00    -0.270 C  
HETATM   29  N   UNL     1     -10.429  15.966  67.252  1.00  0.00    -0.305 NA 
BRANCH  24  30
HETATM   30  C   UNL     1     -11.707  14.795  70.393  1.00  0.00    -0.295 A  
HETATM   31  C   UNL     1     -11.590  15.800  71.360  1.00  0.00    -0.511 A  
HETATM   32  C   UNL     1     -12.065  15.648  72.674  1.00  0.00    -0.565 A  
HETATM   33  C   UNL     1     -12.709  14.481  73.055  1.00  0.00    -0.491 A  
HETATM   34  C   UNL     1     -12.895  13.478  72.119  1.00  0.00    -0.330 A  
HETATM   35  C   UNL     1     -12.398  13.639  70.814  1.00  0.00    -0.446 A  
ENDBRANCH  24  30
ENDBRANCH  18  19
ENDBRANCH  17  18
ENDBRANCH   8  17
TORSDOF 4
ENDMDL
MODEL      148
REMARK 921   NORMALIZED FREE ENERGY PREDICTED BY IDOCK:   -4.10 KCAL/MOL
REMARK 922        TOTAL FREE ENERGY PREDICTED BY IDOCK:   -6.94 KCAL/MOL
REMARK 923 INTER-LIGAND FREE ENERGY PREDICTED BY IDOCK:   -5.81 KCAL/MOL
REMARK 924 INTRA-LIGAND FREE ENERGY PREDICTED BY IDOCK:   -1.13 KCAL/MOL
REMARK 927      BINDING AFFINITY PREDICTED BY RF-SCORE:    0.00 PKD
ROOT
HETATM    1  F   UNL     1     -12.635  13.950  63.047  1.00  0.00    -0.362 F  
HETATM    2  C   UNL     1     -11.759  13.400  63.898  1.00  0.00    -0.404 A  
HETATM    3  C   UNL     1     -10.867  14.210  64.586  1.00  0.00    -0.401 A  
HETATM    4  C   UNL     1      -9.918  13.630  65.431  1.00  0.00    -0.236 A  
HETATM    5  C   UNL     1      -9.859  12.233  65.604  1.00  0.00    -0.247 A  
HETATM    6  C   UNL     1      -8.768  11.624  66.501  1.00  0.00    -0.182 C  
HETATM    7  C   UNL     1     -10.838  11.453  64.962  1.00  0.00    -0.311 A  
HETATM    8  C   UNL     1      -9.273  11.494  67.969  1.00  0.00    -0.175 C  
HETATM    9  C   UNL     1     -11.757  12.028  64.084  1.00  0.00    -0.457 A  
HETATM   10  C   UNL     1      -7.963  10.427  65.963  1.00  0.00    -0.144 A  
HETATM   11  C   UNL     1      -8.156   9.859  64.690  1.00  0.00    -0.152 A  
HETATM   12  C   UNL     1      -6.142   8.816  66.298  1.00  0.00    -0.059 A  
HETATM   13  F   UNL     1      -5.682   7.206  64.637  1.00  0.00    -0.030 F  
HETATM   14  C   UNL     1      -7.408   8.760  64.256  1.00  0.00    -0.103 A  
HETATM   15  C   UNL     1      -6.407   8.248  65.063  1.00  0.00    -0.049 A  
HETATM   16  C   UNL     1      -6.912   9.897  66.742  1.00  0.00    -0.089 A  
ENDROOT
BRANCH   8  17
HETATM   17  C   UNL     1     -10.530  10.647  68.233  1.00  0.00    -0.214 C  
BRANCH  17  18
HETATM   18  C   UNL     1     -10.307   9.169  68.577  1.00  0.00    -0.207 C  
BRANCH  18  19
HETATM   19  N   UNL     1     -11.324   8.583  69.450  1.00  0.00     0.229 NA 
HETATM   20  C   UNL     1     -10.615   6.175  69.796  1.00  0.00    -0.343 C  
HETATM   21  C   UNL     1     -11.628   7.168  69.216  1.00  0.00     0.295 C  
HETATM   22  C   UNL     1     -10.265   6.493  71.254  1.00  0.00    -0.198 C  
HETATM   23  C   UNL     1      -9.979   7.980  71.489  1.00  0.00    -0.225 C  
HETATM   24  N   UNL     1      -9.178   5.626  71.822  1.00  0.00    -0.145 NA 
HETATM   25  O   UNL     1     -12.642   6.395  72.033  1.00  0.00    -0.310 OA 
HETATM   26  C   UNL     1     -11.066   8.861  70.871  1.00  0.00    -0.271 C  
HETATM   27  C   UNL     1      -9.618   5.002  73.063  1.00  0.00    -0.142 C  
HETATM   28  C   UNL     1     -11.468   6.078  72.136  1.00  0.00    -0.302 C  
HETATM   29  N   UNL     1     -11.008   5.255  73.126  1.00  0.00    -0.282 NA 
BRANCH  24  30
HETATM   30  C   UNL     1      -7.879   5.445  71.382  1.00  0.00    -0.110 A  
HETATM   31  C   UNL     1      -7.552   4.724  70.228  1.00  0.00    -0.057 A  
HETATM   32  C   UNL     1      -6.225   4.475  69.839  1.00  0.00    -0.026 A  
HETATM   33  C   UNL     1      -5.170   4.976  70.587  1.00  0.00    -0.004 A  
HETATM   34  C   UNL     1      -5.443   5.740  71.708  1.00  0.00    -0.021 A  
HETATM   35  C   UNL     1      -6.777   5.964  72.094  1.00  0.00    -0.071 A  
ENDBRANCH  24  30
ENDBRANCH  18  19
ENDBRANCH  17  18
ENDBRANCH   8  17
TORSDOF 4
ENDMDL
MODEL      149
REMARK 921   NORMALIZED FREE ENERGY PREDICTED BY IDOCK:   -4.08 KCAL/MOL
REMARK 922        TOTAL FREE ENERGY PREDICTED BY IDOCK:   -6.91 KCAL/MOL
REMARK 923 INTER-LIGAND FREE ENERGY PREDICTED BY IDOCK:   -5.50 KCAL/MOL
REMARK 924 INTRA-LIGAND FREE ENERGY PREDICTED BY IDOCK:   -1.42 KCAL/MOL
REMARK 927      BINDING AFFINITY PREDICTED BY RF-SCORE:    0.00 PKD
ROOT
HETATM    1  F   UNL     1     -12.337  11.594  68.875  1.00  0.00    -0.351 F  
HETATM    2  C   UNL     1     -11.079  11.206  68.630  1.00  0.00    -0.239 A  
HETATM    3  C   UNL     1     -10.102  12.158  68.373  1.00  0.00    -0.210 A  
HETATM    4  C   UNL     1      -8.803  11.748  68.063  1.00  0.00    -0.164 A  
HETATM    5  C   UNL     1      -8.466  10.380  68.018  1.00  0.00    -0.119 A  
HETATM    6  C   UNL     1      -7.040   9.963  67.622  1.00  0.00    -0.087 C  
HETATM    7  C   UNL     1      -9.459   9.450  68.375  1.00  0.00    -0.148 A  
HETATM    8  C   UNL     1      -6.131   9.848  68.882  1.00  0.00    -0.041 C  
HETATM    9  C   UNL     1     -10.767   9.856  68.640  1.00  0.00    -0.256 A  
HETATM   10  C   UNL     1      -6.869   8.849  66.572  1.00  0.00    -0.079 A  
HETATM   11  C   UNL     1      -7.942   8.195  65.939  1.00  0.00    -0.102 A  
HETATM   12  C   UNL     1      -5.356   7.502  65.187  1.00  0.00    -0.029 A  
HETATM   13  F   UNL     1      -6.243   5.877  63.726  1.00  0.00    -0.023 F  
HETATM   14  C   UNL     1      -7.731   7.178  65.004  1.00  0.00    -0.115 A  
HETATM   15  C   UNL     1      -6.440   6.840  64.634  1.00  0.00    -0.042 A  
HETATM   16  C   UNL     1      -5.570   8.499  66.145  1.00  0.00    -0.039 A  
ENDROOT
BRANCH   8  17
HETATM   17  C   UNL     1      -6.546   8.865  69.991  1.00  0.00    -0.042 C  
BRANCH  17  18
HETATM   18  C   UNL     1      -7.451   9.417  71.100  1.00  0.00     0.064 C  
BRANCH  18  19
HETATM   19  N   UNL     1      -7.619   8.531  72.251  1.00  0.00    -0.264 NA 
HETATM   20  C   UNL     1      -9.743   7.227  71.799  1.00  0.00    -0.167 C  
HETATM   21  C   UNL     1      -9.003   8.262  72.652  1.00  0.00    -0.246 C  
HETATM   22  C   UNL     1      -8.912   5.958  71.579  1.00  0.00    -0.143 C  
HETATM   23  C   UNL     1      -7.460   6.256  71.189  1.00  0.00    -0.085 C  
HETATM   24  N   UNL     1      -9.544   4.972  70.640  1.00  0.00    -0.171 NA 
HETATM   25  O   UNL     1      -8.608   5.519  74.024  1.00  0.00    -0.115 OA 
HETATM   26  C   UNL     1      -6.834   7.295  72.122  1.00  0.00    -0.059 C  
HETATM   27  C   UNL     1      -9.632   3.658  71.262  1.00  0.00    -0.174 C  
HETATM   28  C   UNL     1      -8.911   5.152  72.901  1.00  0.00    -0.120 C  
HETATM   29  N   UNL     1      -9.316   3.876  72.623  1.00  0.00    -0.115 NA 
BRANCH  24  30
HETATM   30  C   UNL     1      -9.932   5.138  69.322  1.00  0.00    -0.210 A  
HETATM   31  C   UNL     1      -9.497   4.310  68.281  1.00  0.00    -0.212 A  
HETATM   32  C   UNL     1      -9.830   4.542  66.936  1.00  0.00    -0.238 A  
HETATM   33  C   UNL     1     -10.649   5.607  66.591  1.00  0.00    -0.361 A  
HETATM   34  C   UNL     1     -11.147   6.424  67.591  1.00  0.00    -0.388 A  
HETATM   35  C   UNL     1     -10.789   6.189  68.930  1.00  0.00    -0.406 A  
ENDBRANCH  24  30
ENDBRANCH  18  19
ENDBRANCH  17  18
ENDBRANCH   8  17
TORSDOF 4
ENDMDL
MODEL      150
REMARK 921   NORMALIZED FREE ENERGY PREDICTED BY IDOCK:   -4.06 KCAL/MOL
REMARK 922        TOTAL FREE ENERGY PREDICTED BY IDOCK:   -6.89 KCAL/MOL
REMARK 923 INTER-LIGAND FREE ENERGY PREDICTED BY IDOCK:   -5.05 KCAL/MOL
REMARK 924 INTRA-LIGAND FREE ENERGY PREDICTED BY IDOCK:   -1.84 KCAL/MOL
REMARK 927      BINDING AFFINITY PREDICTED BY RF-SCORE:    0.00 PKD
ROOT
HETATM    1  F   UNL     1     -11.870   9.060  71.504  1.00  0.00    -0.317 F  
HETATM    2  C   UNL     1     -10.825   8.808  70.705  1.00  0.00    -0.234 A  
HETATM    3  C   UNL     1      -9.551   9.198  71.095  1.00  0.00    -0.347 A  
HETATM    4  C   UNL     1      -8.470   8.985  70.235  1.00  0.00    -0.180 A  
HETATM    5  C   UNL     1      -8.652   8.368  68.982  1.00  0.00    -0.131 A  
HETATM    6  C   UNL     1      -7.449   8.196  68.039  1.00  0.00    -0.097 C  
HETATM    7  C   UNL     1      -9.941   7.903  68.662  1.00  0.00    -0.201 A  
HETATM    8  C   UNL     1      -6.748   6.826  68.287  1.00  0.00    -0.068 C  
HETATM    9  C   UNL     1     -11.028   8.156  69.500  1.00  0.00    -0.056 A  
HETATM   10  C   UNL     1      -7.612   8.605  66.563  1.00  0.00    -0.088 A  
HETATM   11  C   UNL     1      -8.796   9.141  66.023  1.00  0.00    -0.200 A  
HETATM   12  C   UNL     1      -6.589   8.886  64.350  1.00  0.00    -0.071 A  
HETATM   13  F   UNL     1      -7.888   9.693  62.555  1.00  0.00    -0.115 F  
HETATM   14  C   UNL     1      -8.896   9.481  64.670  1.00  0.00    -0.250 A  
HETATM   15  C   UNL     1      -7.792   9.352  63.845  1.00  0.00    -0.129 A  
HETATM   16  C   UNL     1      -6.501   8.519  65.697  1.00  0.00    -0.056 A  
ENDROOT
BRANCH   8  17
HETATM   17  C   UNL     1      -7.580   5.543  68.118  1.00  0.00    -0.081 C  
BRANCH  17  18
HETATM   18  C   UNL     1      -6.951   4.240  68.630  1.00  0.00    -0.051 C  
BRANCH  18  19
HETATM   19  N   UNL     1      -7.902   3.276  69.179  1.00  0.00    -0.050 NA 
HETATM   20  C   UNL     1      -7.625   3.406  71.694  1.00  0.00    -0.052 C  
HETATM   21  C   UNL     1      -7.481   2.591  70.405  1.00  0.00    -0.039 C  
HETATM   22  C   UNL     1      -9.003   4.070  71.806  1.00  0.00    -0.118 C  
HETATM   23  C   UNL     1      -9.442   4.756  70.508  1.00  0.00    -0.240 C  
HETATM   24  N   UNL     1      -9.142   4.986  72.989  1.00  0.00    -0.124 NA 
HETATM   25  O   UNL     1     -10.257   1.916  71.588  1.00  0.00    -0.132 OA 
HETATM   26  C   UNL     1      -9.256   3.836  69.301  1.00  0.00    -0.160 C  
HETATM   27  C   UNL     1     -10.310   4.624  73.780  1.00  0.00    -0.211 C  
HETATM   28  C   UNL     1     -10.036   2.972  72.157  1.00  0.00    -0.163 C  
HETATM   29  N   UNL     1     -10.727   3.375  73.266  1.00  0.00    -0.187 NA 
BRANCH  24  30
HETATM   30  C   UNL     1      -8.398   6.102  73.327  1.00  0.00    -0.117 A  
HETATM   31  C   UNL     1      -8.865   7.107  74.183  1.00  0.00    -0.245 A  
HETATM   32  C   UNL     1      -8.133   8.276  74.451  1.00  0.00    -0.259 A  
HETATM   33  C   UNL     1      -6.880   8.463  73.887  1.00  0.00    -0.147 A  
HETATM   34  C   UNL     1      -6.353   7.474  73.075  1.00  0.00    -0.060 A  
HETATM   35  C   UNL     1      -7.106   6.318  72.803  1.00  0.00    -0.076 A  
ENDBRANCH  24  30
ENDBRANCH  18  19
ENDBRANCH  17  18
ENDBRANCH   8  17
TORSDOF 4
ENDMDL
MODEL      151
REMARK 921   NORMALIZED FREE ENERGY PREDICTED BY IDOCK:   -4.05 KCAL/MOL
REMARK 922        TOTAL FREE ENERGY PREDICTED BY IDOCK:   -6.87 KCAL/MOL
REMARK 923 INTER-LIGAND FREE ENERGY PREDICTED BY IDOCK:   -8.16 KCAL/MOL
REMARK 924 INTRA-LIGAND FREE ENERGY PREDICTED BY IDOCK:    1.28 KCAL/MOL
REMARK 927      BINDING AFFINITY PREDICTED BY RF-SCORE:    0.00 PKD
ROOT
HETATM    1  F   UNL     1      -8.677  21.381  67.521  1.00  0.00    -0.236 F  
HETATM    2  C   UNL     1      -9.127  20.125  67.406  1.00  0.00    -0.364 A  
HETATM    3  C   UNL     1     -10.047  19.811  66.415  1.00  0.00    -0.600 A  
HETATM    4  C   UNL     1     -10.557  18.513  66.332  1.00  0.00    -0.365 A  
HETATM    5  C   UNL     1     -10.143  17.513  67.234  1.00  0.00    -0.327 A  
HETATM    6  C   UNL     1     -10.765  16.109  67.147  1.00  0.00    -0.262 C  
HETATM    7  C   UNL     1      -9.142  17.845  68.164  1.00  0.00    -0.278 A  
HETATM    8  C   UNL     1      -9.929  15.195  66.201  1.00  0.00    -0.317 C  
HETATM    9  C   UNL     1      -8.665  19.151  68.277  1.00  0.00    -0.375 A  
HETATM   10  C   UNL     1     -11.262  15.447  68.446  1.00  0.00    -0.318 A  
HETATM   11  C   UNL     1     -11.194  16.055  69.713  1.00  0.00    -0.344 A  
HETATM   12  C   UNL     1     -12.376  13.546  69.526  1.00  0.00    -0.198 A  
HETATM   13  F   UNL     1     -12.679  13.541  71.864  1.00  0.00    -0.395 F  
HETATM   14  C   UNL     1     -11.645  15.404  70.864  1.00  0.00    -0.396 A  
HETATM   15  C   UNL     1     -12.233  14.155  70.762  1.00  0.00    -0.365 A  
HETATM   16  C   UNL     1     -11.897  14.188  68.379  1.00  0.00    -0.388 A  
ENDROOT
BRANCH   8  17
HETATM   17  C   UNL     1      -8.446  14.960  66.540  1.00  0.00    -0.040 C  
BRANCH  17  18
HETATM   18  C   UNL     1      -7.635  16.188  66.974  1.00  0.00    -0.225 C  
BRANCH  18  19
HETATM   19  N   UNL     1      -6.770  15.972  68.133  1.00  0.00    -0.119 NA 
HETATM   20  C   UNL     1      -7.943  14.221  69.538  1.00  0.00     0.316 C  
HETATM   21  C   UNL     1      -7.454  15.666  69.392  1.00  0.00    -0.221 C  
HETATM   22  C   UNL     1      -6.857  13.204  69.169  1.00  0.00    -0.062 C  
HETATM   23  C   UNL     1      -6.130  13.554  67.866  1.00  0.00    -0.152 C  
HETATM   24  N   UNL     1      -7.332  11.779  69.170  1.00  0.00    -0.056 NA 
HETATM   25  O   UNL     1      -5.205  14.098  70.823  1.00  0.00    -0.105 OA 
HETATM   26  C   UNL     1      -5.687  15.017  67.850  1.00  0.00    -0.130 C  
HETATM   27  C   UNL     1      -6.475  10.956  70.012  1.00  0.00    -0.151 C  
HETATM   28  C   UNL     1      -5.820  13.173  70.318  1.00  0.00    -0.156 C  
HETATM   29  N   UNL     1      -5.663  11.874  70.716  1.00  0.00    -0.312 NA 
BRANCH  24  30
HETATM   30  C   UNL     1      -8.354  11.193  68.444  1.00  0.00    -0.149 A  
HETATM   31  C   UNL     1      -8.289  10.975  67.063  1.00  0.00    -0.137 A  
HETATM   32  C   UNL     1      -9.366  10.459  66.324  1.00  0.00    -0.202 A  
HETATM   33  C   UNL     1     -10.547  10.108  66.960  1.00  0.00    -0.290 A  
HETATM   34  C   UNL     1     -10.642  10.256  68.333  1.00  0.00    -0.247 A  
HETATM   35  C   UNL     1      -9.561  10.792  69.055  1.00  0.00    -0.193 A  
ENDBRANCH  24  30
ENDBRANCH  18  19
ENDBRANCH  17  18
ENDBRANCH   8  17
TORSDOF 4
ENDMDL
MODEL      152
REMARK 921   NORMALIZED FREE ENERGY PREDICTED BY IDOCK:   -4.01 KCAL/MOL
REMARK 922        TOTAL FREE ENERGY PREDICTED BY IDOCK:   -6.82 KCAL/MOL
REMARK 923 INTER-LIGAND FREE ENERGY PREDICTED BY IDOCK:   -5.65 KCAL/MOL
REMARK 924 INTRA-LIGAND FREE ENERGY PREDICTED BY IDOCK:   -1.17 KCAL/MOL
REMARK 927      BINDING AFFINITY PREDICTED BY RF-SCORE:    0.00 PKD
ROOT
HETATM    1  F   UNL     1     -11.648   4.691  65.587  1.00  0.00    -0.060 F  
HETATM    2  C   UNL     1     -10.682   5.229  66.342  1.00  0.00    -0.223 A  
HETATM    3  C   UNL     1      -9.373   4.787  66.204  1.00  0.00    -0.152 A  
HETATM    4  C   UNL     1      -8.376   5.310  67.031  1.00  0.00    -0.107 A  
HETATM    5  C   UNL     1      -8.678   6.289  67.999  1.00  0.00    -0.114 A  
HETATM    6  C   UNL     1      -7.566   6.805  68.928  1.00  0.00    -0.105 C  
HETATM    7  C   UNL     1      -9.996   6.778  68.046  1.00  0.00    -0.162 A  
HETATM    8  C   UNL     1      -6.864   8.050  68.307  1.00  0.00    -0.072 C  
HETATM    9  C   UNL     1     -11.000   6.224  67.252  1.00  0.00    -0.455 A  
HETATM   10  C   UNL     1      -7.855   6.885  70.439  1.00  0.00    -0.109 A  
HETATM   11  C   UNL     1      -9.074   6.503  71.027  1.00  0.00    -0.150 A  
HETATM   12  C   UNL     1      -7.029   7.373  72.698  1.00  0.00    -0.068 A  
HETATM   13  F   UNL     1      -8.472   7.132  74.548  1.00  0.00    -0.167 F  
HETATM   14  C   UNL     1      -9.291   6.612  72.404  1.00  0.00    -0.147 A  
HETATM   15  C   UNL     1      -8.266   7.045  73.229  1.00  0.00    -0.108 A  
HETATM   16  C   UNL     1      -6.826   7.291  71.316  1.00  0.00    -0.055 A  
ENDROOT
BRANCH   8  17
HETATM   17  C   UNL     1      -7.724   9.284  67.984  1.00  0.00    -0.088 C  
BRANCH  17  18
HETATM   18  C   UNL     1      -8.123  10.176  69.167  1.00  0.00    -0.134 C  
BRANCH  18  19
HETATM   19  N   UNL     1      -9.170  11.153  68.872  1.00  0.00    -0.141 NA 
HETATM   20  C   UNL     1      -8.683  11.981  66.528  1.00  0.00    -0.138 C  
HETATM   21  C   UNL     1      -8.769  12.282  68.027  1.00  0.00    -0.181 C  
HETATM   22  C   UNL     1      -9.925  11.243  66.014  1.00  0.00    -0.231 C  
HETATM   23  C   UNL     1     -10.349  10.085  66.924  1.00  0.00    -0.297 C  
HETATM   24  N   UNL     1      -9.827  10.811  64.579  1.00  0.00    -0.282 NA 
HETATM   25  O   UNL     1     -11.518  13.004  66.808  1.00  0.00    -0.312 OA 
HETATM   26  C   UNL     1     -10.405  10.518  68.389  1.00  0.00    -0.176 C  
HETATM   27  C   UNL     1     -10.973  11.293  63.821  1.00  0.00    -0.301 C  
HETATM   28  C   UNL     1     -11.089  12.262  65.939  1.00  0.00    -0.322 C  
HETATM   29  N   UNL     1     -11.621  12.210  64.681  1.00  0.00    -0.336 NA 
BRANCH  24  30
HETATM   30  C   UNL     1      -8.892   9.992  63.971  1.00  0.00    -0.224 A  
HETATM   31  C   UNL     1      -8.871   8.601  64.127  1.00  0.00     0.163 A  
HETATM   32  C   UNL     1      -7.865   7.791  63.573  1.00  0.00    -0.129 A  
HETATM   33  C   UNL     1      -6.854   8.353  62.809  1.00  0.00    -0.090 A  
HETATM   34  C   UNL     1      -6.861   9.718  62.582  1.00  0.00    -0.111 A  
HETATM   35  C   UNL     1      -7.864  10.517  63.159  1.00  0.00    -0.063 A  
ENDBRANCH  24  30
ENDBRANCH  18  19
ENDBRANCH  17  18
ENDBRANCH   8  17
TORSDOF 4
ENDMDL
MODEL      153
REMARK 921   NORMALIZED FREE ENERGY PREDICTED BY IDOCK:   -3.98 KCAL/MOL
REMARK 922        TOTAL FREE ENERGY PREDICTED BY IDOCK:   -6.78 KCAL/MOL
REMARK 923 INTER-LIGAND FREE ENERGY PREDICTED BY IDOCK:   -5.44 KCAL/MOL
REMARK 924 INTRA-LIGAND FREE ENERGY PREDICTED BY IDOCK:   -1.34 KCAL/MOL
REMARK 927      BINDING AFFINITY PREDICTED BY RF-SCORE:    0.00 PKD
ROOT
HETATM    1  F   UNL     1      -9.163  11.734  65.524  1.00  0.00    -0.222 F  
HETATM    2  C   UNL     1      -9.583  10.967  66.538  1.00  0.00    -0.195 A  
HETATM    3  C   UNL     1     -10.851  11.161  67.068  1.00  0.00    -0.338 A  
HETATM    4  C   UNL     1     -11.266  10.397  68.162  1.00  0.00    -0.333 A  
HETATM    5  C   UNL     1     -10.420   9.424  68.729  1.00  0.00    -0.236 A  
HETATM    6  C   UNL     1     -10.889   8.638  69.966  1.00  0.00    -0.226 C  
HETATM    7  C   UNL     1      -9.179   9.193  68.107  1.00  0.00    -0.137 A  
HETATM    8  C   UNL     1     -11.625   7.332  69.540  1.00  0.00     0.192 C  
HETATM    9  C   UNL     1      -8.746   9.986  67.044  1.00  0.00    -0.137 A  
HETATM   10  C   UNL     1      -9.921   8.501  71.156  1.00  0.00    -0.265 A  
HETATM   11  C   UNL     1      -8.631   9.063  71.188  1.00  0.00    -0.250 A  
HETATM   12  C   UNL     1      -9.522   7.697  73.440  1.00  0.00    -0.330 A  
HETATM   13  F   UNL     1      -7.431   8.069  74.463  1.00  0.00    -0.159 F  
HETATM   14  C   UNL     1      -7.785   8.895  72.288  1.00  0.00     0.162 A  
HETATM   15  C   UNL     1      -8.238   8.214  73.406  1.00  0.00    -0.206 A  
HETATM   16  C   UNL     1     -10.356   7.842  72.326  1.00  0.00    -0.314 A  
ENDROOT
BRANCH   8  17
HETATM   17  C   UNL     1     -10.857   6.312  68.681  1.00  0.00    -0.401 C  
BRANCH  17  18
HETATM   18  C   UNL     1     -11.143   6.326  67.173  1.00  0.00    -0.303 C  
BRANCH  18  19
HETATM   19  N   UNL     1     -10.103   5.715  66.347  1.00  0.00    -0.171 NA 
HETATM   20  C   UNL     1      -8.017   5.701  67.784  1.00  0.00    -0.098 C  
HETATM   21  C   UNL     1      -8.745   6.231  66.545  1.00  0.00    -0.131 C  
HETATM   22  C   UNL     1      -8.115   4.176  67.904  1.00  0.00    -0.090 C  
HETATM   23  C   UNL     1      -9.534   3.649  67.665  1.00  0.00    -0.234 C  
HETATM   24  N   UNL     1      -7.528   3.626  69.172  1.00  0.00    -0.053 NA 
HETATM   25  O   UNL     1      -7.126   3.756  65.643  1.00  0.00    -0.063 OA 
HETATM   26  C   UNL     1     -10.144   4.246  66.396  1.00  0.00    -0.152 C  
HETATM   27  C   UNL     1      -6.554   2.584  68.875  1.00  0.00    -0.029 C  
HETATM   28  C   UNL     1      -7.173   3.551  66.845  1.00  0.00    -0.063 C  
HETATM   29  N   UNL     1      -6.346   2.666  67.479  1.00  0.00    -0.031 NA 
BRANCH  24  30
HETATM   30  C   UNL     1      -7.854   3.911  70.486  1.00  0.00    -0.051 A  
HETATM   31  C   UNL     1      -9.144   3.757  71.010  1.00  0.00    -0.180 A  
HETATM   32  C   UNL     1      -9.480   4.132  72.321  1.00  0.00    -0.186 A  
HETATM   33  C   UNL     1      -8.514   4.648  73.172  1.00  0.00    -0.103 A  
HETATM   34  C   UNL     1      -7.212   4.770  72.717  1.00  0.00    -0.080 A  
HETATM   35  C   UNL     1      -6.897   4.408  71.396  1.00  0.00    -0.031 A  
ENDBRANCH  24  30
ENDBRANCH  18  19
ENDBRANCH  17  18
ENDBRANCH   8  17
TORSDOF 4
ENDMDL
MODEL      154
REMARK 921   NORMALIZED FREE ENERGY PREDICTED BY IDOCK:   -3.96 KCAL/MOL
REMARK 922        TOTAL FREE ENERGY PREDICTED BY IDOCK:   -6.76 KCAL/MOL
REMARK 923 INTER-LIGAND FREE ENERGY PREDICTED BY IDOCK:   -6.06 KCAL/MOL
REMARK 924 INTRA-LIGAND FREE ENERGY PREDICTED BY IDOCK:   -0.70 KCAL/MOL
REMARK 927      BINDING AFFINITY PREDICTED BY RF-SCORE:    0.00 PKD
ROOT
HETATM    1  F   UNL     1      -9.574   7.840  74.311  1.00  0.00    -0.229 F  
HETATM    2  C   UNL     1      -9.491   8.062  72.993  1.00  0.00    -0.275 A  
HETATM    3  C   UNL     1      -8.246   8.190  72.394  1.00  0.00    -0.206 A  
HETATM    4  C   UNL     1      -8.162   8.477  71.029  1.00  0.00    -0.163 A  
HETATM    5  C   UNL     1      -9.325   8.629  70.248  1.00  0.00    -0.180 A  
HETATM    6  C   UNL     1      -9.197   8.998  68.760  1.00  0.00    -0.133 C  
HETATM    7  C   UNL     1     -10.566   8.402  70.871  1.00  0.00    -0.243 A  
HETATM    8  C   UNL     1      -9.124   7.714  67.880  1.00  0.00    -0.134 C  
HETATM    9  C   UNL     1     -10.651   8.159  72.242  1.00  0.00    -0.378 A  
HETATM   10  C   UNL     1     -10.078  10.135  68.210  1.00  0.00    -0.179 A  
HETATM   11  C   UNL     1     -10.990  10.870  68.990  1.00  0.00    -0.285 A  
HETATM   12  C   UNL     1     -10.695  11.567  66.314  1.00  0.00    -0.321 A  
HETATM   13  F   UNL     1     -12.370  13.205  66.582  1.00  0.00    -0.420 F  
HETATM   14  C   UNL     1     -11.779  11.883  68.437  1.00  0.00    -0.387 A  
HETATM   15  C   UNL     1     -11.624  12.224  67.104  1.00  0.00    -0.353 A  
HETATM   16  C   UNL     1      -9.928  10.534  66.864  1.00  0.00    -0.246 A  
ENDROOT
BRANCH   8  17
HETATM   17  C   UNL     1     -10.295   6.717  67.950  1.00  0.00    -0.236 C  
BRANCH  17  18
HETATM   18  C   UNL     1     -10.783   6.131  66.619  1.00  0.00    -0.231 C  
BRANCH  18  19
HETATM   19  N   UNL     1     -10.454   4.722  66.413  1.00  0.00    -0.279 NA 
HETATM   20  C   UNL     1      -9.513   4.582  64.064  1.00  0.00    -0.027 C  
HETATM   21  C   UNL     1     -10.631   4.218  65.047  1.00  0.00    -0.142 C  
HETATM   22  C   UNL     1      -8.122   4.303  64.644  1.00  0.00    -0.091 C  
HETATM   23  C   UNL     1      -7.962   4.809  66.082  1.00  0.00    -0.103 C  
HETATM   24  N   UNL     1      -6.993   4.766  63.767  1.00  0.00    -0.047 NA 
HETATM   25  O   UNL     1      -8.599   1.888  65.099  1.00  0.00    -0.096 OA 
HETATM   26  C   UNL     1      -9.135   4.371  66.960  1.00  0.00    -0.130 C  
HETATM   27  C   UNL     1      -6.060   3.677  63.516  1.00  0.00    -0.014 C  
HETATM   28  C   UNL     1      -7.897   2.771  64.632  1.00  0.00    -0.078 C  
HETATM   29  N   UNL     1      -6.716   2.518  63.993  1.00  0.00    -0.031 NA 
BRANCH  24  30
HETATM   30  C   UNL     1      -6.717   6.035  63.290  1.00  0.00    -0.033 A  
HETATM   31  C   UNL     1      -5.424   6.477  62.982  1.00  0.00    -0.030 A  
HETATM   32  C   UNL     1      -5.148   7.794  62.580  1.00  0.00    -0.046 A  
HETATM   33  C   UNL     1      -6.175   8.714  62.440  1.00  0.00    -0.095 A  
HETATM   34  C   UNL     1      -7.477   8.312  62.682  1.00  0.00    -0.104 A  
HETATM   35  C   UNL     1      -7.735   6.995  63.102  1.00  0.00    -0.115 A  
ENDBRANCH  24  30
ENDBRANCH  18  19
ENDBRANCH  17  18
ENDBRANCH   8  17
TORSDOF 4
ENDMDL
MODEL      155
REMARK 921   NORMALIZED FREE ENERGY PREDICTED BY IDOCK:   -3.93 KCAL/MOL
REMARK 922        TOTAL FREE ENERGY PREDICTED BY IDOCK:   -6.72 KCAL/MOL
REMARK 923 INTER-LIGAND FREE ENERGY PREDICTED BY IDOCK:   -4.97 KCAL/MOL
REMARK 924 INTRA-LIGAND FREE ENERGY PREDICTED BY IDOCK:   -1.75 KCAL/MOL
REMARK 927      BINDING AFFINITY PREDICTED BY RF-SCORE:    0.00 PKD
ROOT
HETATM    1  F   UNL     1     -12.492  13.137  63.036  1.00  0.00    -0.559 F  
HETATM    2  C   UNL     1     -11.651  12.817  64.027  1.00  0.00    -0.424 A  
HETATM    3  C   UNL     1     -10.902  13.811  64.641  1.00  0.00    -0.416 A  
HETATM    4  C   UNL     1      -9.984  13.468  65.637  1.00  0.00    -0.252 A  
HETATM    5  C   UNL     1      -9.815  12.128  66.036  1.00  0.00    -0.260 A  
HETATM    6  C   UNL     1      -8.757  11.780  67.098  1.00  0.00    -0.169 C  
HETATM    7  C   UNL     1     -10.656  11.161  65.456  1.00  0.00    -0.289 A  
HETATM    8  C   UNL     1      -9.379  11.823  68.526  1.00  0.00    -0.158 C  
HETATM    9  C   UNL     1     -11.541  11.497  64.430  1.00  0.00    -0.184 A  
HETATM   10  C   UNL     1      -7.802  10.604  66.820  1.00  0.00    -0.126 A  
HETATM   11  C   UNL     1      -7.827   9.832  65.644  1.00  0.00    -0.114 A  
HETATM   12  C   UNL     1      -5.880   9.262  67.546  1.00  0.00    -0.046 A  
HETATM   13  F   UNL     1      -5.128   7.475  66.204  1.00  0.00    -0.022 F  
HETATM   14  C   UNL     1      -6.946   8.764  65.449  1.00  0.00    -0.076 A  
HETATM   15  C   UNL     1      -5.979   8.488  66.401  1.00  0.00    -0.048 A  
HETATM   16  C   UNL     1      -6.782  10.311  67.751  1.00  0.00    -0.073 A  
ENDROOT
BRANCH   8  17
HETATM   17  C   UNL     1     -10.573  10.900  68.827  1.00  0.00    -0.231 C  
BRANCH  17  18
HETATM   18  C   UNL     1     -10.246   9.453  69.218  1.00  0.00    -0.202 C  
BRANCH  18  19
HETATM   19  N   UNL     1      -9.987   9.246  70.642  1.00  0.00    -0.252 NA 
HETATM   20  C   UNL     1      -9.453   6.782  70.884  1.00  0.00    -0.159 C  
HETATM   21  C   UNL     1     -10.399   7.948  71.185  1.00  0.00    -0.200 C  
HETATM   22  C   UNL     1      -7.991   7.132  71.183  1.00  0.00    -0.102 C  
HETATM   23  C   UNL     1      -7.583   8.505  70.636  1.00  0.00    -0.076 C  
HETATM   24  N   UNL     1      -7.014   6.065  70.779  1.00  0.00    -0.065 NA 
HETATM   25  O   UNL     1      -8.439   7.748  73.567  1.00  0.00    -0.161 OA 
HETATM   26  C   UNL     1      -8.603   9.580  71.011  1.00  0.00     0.195 C  
HETATM   27  C   UNL     1      -6.160   5.703  71.902  1.00  0.00    -0.038 C  
HETATM   28  C   UNL     1      -7.805   7.140  72.720  1.00  0.00    -0.090 C  
HETATM   29  N   UNL     1      -6.752   6.323  73.026  1.00  0.00    -0.072 NA 
BRANCH  24  30
HETATM   30  C   UNL     1      -6.793   5.502  69.535  1.00  0.00    -0.061 A  
HETATM   31  C   UNL     1      -5.650   4.758  69.219  1.00  0.00    -0.012 A  
HETATM   32  C   UNL     1      -5.397   4.265  67.928  1.00  0.00    -0.015 A  
HETATM   33  C   UNL     1      -6.310   4.478  66.906  1.00  0.00    -0.037 A  
HETATM   34  C   UNL     1      -7.480   5.164  67.181  1.00  0.00    -0.087 A  
HETATM   35  C   UNL     1      -7.709   5.666  68.474  1.00  0.00    -0.089 A  
ENDBRANCH  24  30
ENDBRANCH  18  19
ENDBRANCH  17  18
ENDBRANCH   8  17
TORSDOF 4
ENDMDL
MODEL      156
REMARK 921   NORMALIZED FREE ENERGY PREDICTED BY IDOCK:   -3.92 KCAL/MOL
REMARK 922        TOTAL FREE ENERGY PREDICTED BY IDOCK:   -6.71 KCAL/MOL
REMARK 923 INTER-LIGAND FREE ENERGY PREDICTED BY IDOCK:   -6.28 KCAL/MOL
REMARK 924 INTRA-LIGAND FREE ENERGY PREDICTED BY IDOCK:   -0.44 KCAL/MOL
REMARK 927      BINDING AFFINITY PREDICTED BY RF-SCORE:    0.00 PKD
ROOT
HETATM    1  F   UNL     1      -7.513   7.797  62.477  1.00  0.00    -0.086 F  
HETATM    2  C   UNL     1      -7.454   7.888  63.811  1.00  0.00    -0.114 A  
HETATM    3  C   UNL     1      -6.280   7.555  64.472  1.00  0.00    -0.041 A  
HETATM    4  C   UNL     1      -6.237   7.598  65.868  1.00  0.00    -0.042 A  
HETATM    5  C   UNL     1      -7.366   7.986  66.616  1.00  0.00    -0.088 A  
HETATM    6  C   UNL     1      -7.300   7.971  68.153  1.00  0.00    -0.096 C  
HETATM    7  C   UNL     1      -8.507   8.405  65.908  1.00  0.00    -0.159 A  
HETATM    8  C   UNL     1      -6.825   9.353  68.696  1.00  0.00    -0.061 C  
HETATM    9  C   UNL     1      -8.565   8.320  64.517  1.00  0.00     0.033 A  
HETATM   10  C   UNL     1      -8.455   7.310  68.928  1.00  0.00    -0.126 A  
HETATM   11  C   UNL     1      -9.567   6.704  68.315  1.00  0.00    -0.125 A  
HETATM   12  C   UNL     1      -9.396   6.628  71.089  1.00  0.00    -0.164 A  
HETATM   13  F   UNL     1     -11.484   5.535  71.163  1.00  0.00    -0.235 F  
HETATM   14  C   UNL     1     -10.598   6.132  69.066  1.00  0.00    -0.341 A  
HETATM   15  C   UNL     1     -10.504   6.098  70.448  1.00  0.00    -0.230 A  
HETATM   16  C   UNL     1      -8.381   7.226  70.335  1.00  0.00    -0.130 A  
ENDROOT
BRANCH   8  17
HETATM   17  C   UNL     1      -7.656  10.598  68.339  1.00  0.00    -0.100 C  
BRANCH  17  18
HETATM   18  C   UNL     1      -8.948  10.818  69.138  1.00  0.00    -0.087 C  
BRANCH  18  19
HETATM   19  N   UNL     1     -10.143  11.033  68.323  1.00  0.00    -0.171 NA 
HETATM   20  C   UNL     1     -10.478  13.543  68.259  1.00  0.00    -0.258 C  
HETATM   21  C   UNL     1     -10.984  12.169  68.711  1.00  0.00    -0.232 C  
HETATM   22  C   UNL     1     -10.079  13.554  66.779  1.00  0.00    -0.268 C  
HETATM   23  C   UNL     1      -9.225  12.344  66.382  1.00  0.00    -0.192 C  
HETATM   24  N   UNL     1      -9.454  14.842  66.326  1.00  0.00    -0.297 NA 
HETATM   25  O   UNL     1     -12.318  12.765  65.985  1.00  0.00    -0.547 OA 
HETATM   26  C   UNL     1      -9.843  11.038  66.884  1.00  0.00    -0.191 C  
HETATM   27  C   UNL     1     -10.150  15.364  65.158  1.00  0.00    -0.264 C  
HETATM   28  C   UNL     1     -11.376  13.539  65.934  1.00  0.00    -0.308 C  
HETATM   29  N   UNL     1     -11.320  14.579  65.048  1.00  0.00    -0.359 NA 
BRANCH  24  30
HETATM   30  C   UNL     1      -8.324  15.485  66.801  1.00  0.00    -0.265 A  
HETATM   31  C   UNL     1      -7.674  16.511  66.106  1.00  0.00    -0.067 A  
HETATM   32  C   UNL     1      -6.479  17.096  66.559  1.00  0.00    -0.268 A  
HETATM   33  C   UNL     1      -5.909  16.687  67.755  1.00  0.00    -0.152 A  
HETATM   34  C   UNL     1      -6.542  15.711  68.504  1.00  0.00    -0.114 A  
HETATM   35  C   UNL     1      -7.727  15.124  68.028  1.00  0.00    -0.131 A  
ENDBRANCH  24  30
ENDBRANCH  18  19
ENDBRANCH  17  18
ENDBRANCH   8  17
TORSDOF 4
ENDMDL
MODEL      157
REMARK 921   NORMALIZED FREE ENERGY PREDICTED BY IDOCK:   -3.91 KCAL/MOL
REMARK 922        TOTAL FREE ENERGY PREDICTED BY IDOCK:   -6.70 KCAL/MOL
REMARK 923 INTER-LIGAND FREE ENERGY PREDICTED BY IDOCK:   -5.94 KCAL/MOL
REMARK 924 INTRA-LIGAND FREE ENERGY PREDICTED BY IDOCK:   -0.76 KCAL/MOL
REMARK 927      BINDING AFFINITY PREDICTED BY RF-SCORE:    0.00 PKD
ROOT
HETATM    1  F   UNL     1      -5.804  14.513  70.178  1.00  0.00    -0.102 F  
HETATM    2  C   UNL     1      -6.316  13.736  69.215  1.00  0.00    -0.110 A  
HETATM    3  C   UNL     1      -5.497  13.277  68.192  1.00  0.00    -0.100 A  
HETATM    4  C   UNL     1      -6.045  12.514  67.159  1.00  0.00    -0.036 A  
HETATM    5  C   UNL     1      -7.417  12.192  67.145  1.00  0.00    -0.129 A  
HETATM    6  C   UNL     1      -7.997  11.394  65.965  1.00  0.00     0.095 C  
HETATM    7  C   UNL     1      -8.195  12.595  68.245  1.00  0.00    -0.164 A  
HETATM    8  C   UNL     1      -7.937   9.863  66.253  1.00  0.00    -0.108 C  
HETATM    9  C   UNL     1      -7.658  13.395  69.254  1.00  0.00     0.318 A  
HETATM   10  C   UNL     1      -9.296  11.899  65.308  1.00  0.00    -0.011 A  
HETATM   11  C   UNL     1      -9.982  13.058  65.715  1.00  0.00    -0.260 A  
HETATM   12  C   UNL     1     -10.977  11.640  63.540  1.00  0.00    -0.485 A  
HETATM   13  F   UNL     1     -12.781  13.153  63.411  1.00  0.00    -0.412 F  
HETATM   14  C   UNL     1     -11.167  13.464  65.095  1.00  0.00    -0.321 A  
HETATM   15  C   UNL     1     -11.655  12.752  64.012  1.00  0.00    -0.424 A  
HETATM   16  C   UNL     1      -9.807  11.220  64.182  1.00  0.00    -0.323 A  
ENDROOT
BRANCH   8  17
HETATM   17  C   UNL     1      -8.666   9.330  67.499  1.00  0.00    -0.116 C  
BRANCH  17  18
HETATM   18  C   UNL     1      -9.883   8.427  67.253  1.00  0.00    -0.203 C  
BRANCH  18  19
HETATM   19  N   UNL     1      -9.560   7.070  66.816  1.00  0.00    -0.165 NA 
HETATM   20  C   UNL     1      -8.270   6.030  68.733  1.00  0.00    -0.104 C  
HETATM   21  C   UNL     1      -8.278   6.536  67.287  1.00  0.00    -0.113 C  
HETATM   22  C   UNL     1      -9.461   5.112  69.030  1.00  0.00    -0.133 C  
HETATM   23  C   UNL     1     -10.789   5.670  68.506  1.00  0.00    -0.173 C  
HETATM   24  N   UNL     1      -9.567   4.699  70.471  1.00  0.00    -0.180 NA 
HETATM   25  O   UNL     1      -8.920   3.513  67.183  1.00  0.00    -0.124 OA 
HETATM   26  C   UNL     1     -10.666   6.130  67.053  1.00  0.00    -0.350 C  
HETATM   27  C   UNL     1      -9.645   3.249  70.581  1.00  0.00    -0.153 C  
HETATM   28  C   UNL     1      -9.197   3.748  68.348  1.00  0.00    -0.157 C  
HETATM   29  N   UNL     1      -9.333   2.766  69.289  1.00  0.00    -0.139 NA 
BRANCH  24  30
HETATM   30  C   UNL     1      -9.683   5.485  71.603  1.00  0.00    -0.161 A  
HETATM   31  C   UNL     1      -8.720   6.423  71.992  1.00  0.00    -0.133 A  
HETATM   32  C   UNL     1      -8.809   7.152  73.189  1.00  0.00    -0.158 A  
HETATM   33  C   UNL     1      -9.899   6.986  74.030  1.00  0.00    -0.345 A  
HETATM   34  C   UNL     1     -10.904   6.109  73.665  1.00  0.00    -0.150 A  
HETATM   35  C   UNL     1     -10.790   5.373  72.472  1.00  0.00    -0.304 A  
ENDBRANCH  24  30
ENDBRANCH  18  19
ENDBRANCH  17  18
ENDBRANCH   8  17
TORSDOF 4
ENDMDL
MODEL      158
REMARK 921   NORMALIZED FREE ENERGY PREDICTED BY IDOCK:   -3.86 KCAL/MOL
REMARK 922        TOTAL FREE ENERGY PREDICTED BY IDOCK:   -6.64 KCAL/MOL
REMARK 923 INTER-LIGAND FREE ENERGY PREDICTED BY IDOCK:   -5.34 KCAL/MOL
REMARK 924 INTRA-LIGAND FREE ENERGY PREDICTED BY IDOCK:   -1.30 KCAL/MOL
REMARK 927      BINDING AFFINITY PREDICTED BY RF-SCORE:    0.00 PKD
ROOT
HETATM    1  F   UNL     1     -13.775  10.222  70.993  1.00  0.00    -0.350 F  
HETATM    2  C   UNL     1     -12.489   9.942  70.745  1.00  0.00    -0.256 A  
HETATM    3  C   UNL     1     -11.672   9.492  71.772  1.00  0.00    -0.411 A  
HETATM    4  C   UNL     1     -10.317   9.254  71.524  1.00  0.00    -0.364 A  
HETATM    5  C   UNL     1      -9.770   9.455  70.241  1.00  0.00    -0.292 A  
HETATM    6  C   UNL     1      -8.265   9.234  70.015  1.00  0.00    -0.160 C  
HETATM    7  C   UNL     1     -10.648   9.822  69.205  1.00  0.00    -0.240 A  
HETATM    8  C   UNL     1      -7.983   7.762  69.588  1.00  0.00    -0.116 C  
HETATM    9  C   UNL     1     -11.991  10.103  69.462  1.00  0.00    -0.001 A  
HETATM   10  C   UNL     1      -7.474  10.313  69.253  1.00  0.00    -0.112 A  
HETATM   11  C   UNL     1      -8.042  11.501  68.757  1.00  0.00    -0.093 A  
HETATM   12  C   UNL     1      -5.310  11.116  68.419  1.00  0.00    -0.043 A  
HETATM   13  F   UNL     1      -5.194  13.152  67.236  1.00  0.00    -0.064 F  
HETATM   14  C   UNL     1      -7.282  12.442  68.056  1.00  0.00    -0.105 A  
HETATM   15  C   UNL     1      -5.921  12.242  67.894  1.00  0.00    -0.083 A  
HETATM   16  C   UNL     1      -6.079  10.162  69.094  1.00  0.00    -0.040 A  
ENDROOT
BRANCH   8  17
HETATM   17  C   UNL     1      -8.664   7.231  68.315  1.00  0.00    -0.125 C  
BRANCH  17  18
HETATM   18  C   UNL     1      -7.795   6.399  67.363  1.00  0.00    -0.105 C  
BRANCH  18  19
HETATM   19  N   UNL     1      -8.078   4.965  67.371  1.00  0.00    -0.105 NA 
HETATM   20  C   UNL     1      -7.405   4.155  69.676  1.00  0.00    -0.050 C  
HETATM   21  C   UNL     1      -7.162   4.138  68.163  1.00  0.00    -0.060 C  
HETATM   22  C   UNL     1      -8.882   3.938  70.026  1.00  0.00    -0.085 C  
HETATM   23  C   UNL     1      -9.829   4.787  69.169  1.00  0.00    -0.254 C  
HETATM   24  N   UNL     1      -9.188   4.078  71.489  1.00  0.00    -0.120 NA 
HETATM   25  O   UNL     1      -9.039   1.764  68.796  1.00  0.00    -0.099 OA 
HETATM   26  C   UNL     1      -9.486   4.676  67.683  1.00  0.00    -0.153 C  
HETATM   27  C   UNL     1      -9.885   2.898  71.981  1.00  0.00    -0.172 C  
HETATM   28  C   UNL     1      -9.214   2.444  69.794  1.00  0.00    -0.118 C  
HETATM   29  N   UNL     1      -9.781   1.951  70.936  1.00  0.00    -0.107 NA 
BRANCH  24  30
HETATM   30  C   UNL     1      -8.981   5.158  72.330  1.00  0.00    -0.131 A  
HETATM   31  C   UNL     1      -7.794   5.900  72.352  1.00  0.00    -0.102 A  
HETATM   32  C   UNL     1      -7.565   6.938  73.270  1.00  0.00    -0.088 A  
HETATM   33  C   UNL     1      -8.543   7.292  74.186  1.00  0.00    -0.238 A  
HETATM   34  C   UNL     1      -9.754   6.622  74.170  1.00  0.00    -0.309 A  
HETATM   35  C   UNL     1      -9.961   5.573  73.257  1.00  0.00    -0.188 A  
ENDBRANCH  24  30
ENDBRANCH  18  19
ENDBRANCH  17  18
ENDBRANCH   8  17
TORSDOF 4
ENDMDL
MODEL      159
REMARK 921   NORMALIZED FREE ENERGY PREDICTED BY IDOCK:   -3.85 KCAL/MOL
REMARK 922        TOTAL FREE ENERGY PREDICTED BY IDOCK:   -6.62 KCAL/MOL
REMARK 923 INTER-LIGAND FREE ENERGY PREDICTED BY IDOCK:   -5.52 KCAL/MOL
REMARK 924 INTRA-LIGAND FREE ENERGY PREDICTED BY IDOCK:   -1.10 KCAL/MOL
REMARK 927      BINDING AFFINITY PREDICTED BY RF-SCORE:    0.00 PKD
ROOT
HETATM    1  F   UNL     1     -14.299  10.928  72.217  1.00  0.00     0.220 F  
HETATM    2  C   UNL     1     -13.489   9.931  71.837  1.00  0.00    -0.372 A  
HETATM    3  C   UNL     1     -13.707   8.647  72.315  1.00  0.00    -0.445 A  
HETATM    4  C   UNL     1     -12.828   7.620  71.963  1.00  0.00    -0.242 A  
HETATM    5  C   UNL     1     -11.727   7.867  71.119  1.00  0.00    -0.306 A  
HETATM    6  C   UNL     1     -10.749   6.725  70.794  1.00  0.00    -0.270 C  
HETATM    7  C   UNL     1     -11.592   9.159  70.581  1.00  0.00    -0.282 A  
HETATM    8  C   UNL     1     -11.197   5.968  69.507  1.00  0.00    -0.416 C  
HETATM    9  C   UNL     1     -12.443  10.195  70.968  1.00  0.00    -0.474 A  
HETATM   10  C   UNL     1      -9.239   6.999  70.916  1.00  0.00    -0.156 A  
HETATM   11  C   UNL     1      -8.694   8.231  71.321  1.00  0.00    -0.186 A  
HETATM   12  C   UNL     1      -6.945   6.135  70.794  1.00  0.00    -0.067 A  
HETATM   13  F   UNL     1      -5.128   7.574  71.229  1.00  0.00    -0.026 F  
HETATM   14  C   UNL     1      -7.313   8.432  71.400  1.00  0.00    -0.095 A  
HETATM   15  C   UNL     1      -6.449   7.382  71.137  1.00  0.00    -0.039 A  
HETATM   16  C   UNL     1      -8.327   5.945  70.688  1.00  0.00    -0.124 A  
ENDROOT
BRANCH   8  17
HETATM   17  C   UNL     1     -11.329   6.770  68.201  1.00  0.00    -0.022 C  
BRANCH  17  18
HETATM   18  C   UNL     1     -10.311   7.896  67.976  1.00  0.00    -0.209 C  
BRANCH  18  19
HETATM   19  N   UNL     1      -9.287   7.605  66.974  1.00  0.00    -0.149 NA 
HETATM   20  C   UNL     1      -8.844   9.805  65.798  1.00  0.00    -0.180 C  
HETATM   21  C   UNL     1      -9.378   8.370  65.727  1.00  0.00    -0.071 C  
HETATM   22  C   UNL     1      -7.463   9.874  66.459  1.00  0.00    -0.100 C  
HETATM   23  C   UNL     1      -7.374   9.045  67.745  1.00  0.00    -0.084 C  
HETATM   24  N   UNL     1      -6.958  11.273  66.669  1.00  0.00    -0.142 NA 
HETATM   25  O   UNL     1      -6.414   8.268  64.851  1.00  0.00    -0.055 OA 
HETATM   26  C   UNL     1      -7.930   7.635  67.539  1.00  0.00    -0.120 C  
HETATM   27  C   UNL     1      -5.632  11.431  66.087  1.00  0.00    -0.021 C  
HETATM   28  C   UNL     1      -6.421   9.331  65.450  1.00  0.00    -0.069 C  
HETATM   29  N   UNL     1      -5.431  10.263  65.316  1.00  0.00    -0.079 NA 
BRANCH  24  30
HETATM   30  C   UNL     1      -7.528  12.315  67.380  1.00  0.00    -0.160 A  
HETATM   31  C   UNL     1      -8.889  12.636  67.315  1.00  0.00    -0.196 A  
HETATM   32  C   UNL     1      -9.438  13.749  67.974  1.00  0.00    -0.207 A  
HETATM   33  C   UNL     1      -8.637  14.566  68.756  1.00  0.00    -0.145 A  
HETATM   34  C   UNL     1      -7.294  14.260  68.893  1.00  0.00    -0.126 A  
HETATM   35  C   UNL     1      -6.756  13.154  68.212  1.00  0.00    -0.101 A  
ENDBRANCH  24  30
ENDBRANCH  18  19
ENDBRANCH  17  18
ENDBRANCH   8  17
TORSDOF 4
ENDMDL
MODEL      160
REMARK 921   NORMALIZED FREE ENERGY PREDICTED BY IDOCK:   -3.81 KCAL/MOL
REMARK 922        TOTAL FREE ENERGY PREDICTED BY IDOCK:   -6.58 KCAL/MOL
REMARK 923 INTER-LIGAND FREE ENERGY PREDICTED BY IDOCK:   -5.69 KCAL/MOL
REMARK 924 INTRA-LIGAND FREE ENERGY PREDICTED BY IDOCK:   -0.89 KCAL/MOL
REMARK 927      BINDING AFFINITY PREDICTED BY RF-SCORE:    0.00 PKD
ROOT
HETATM    1  F   UNL     1      -9.600   4.334  70.850  1.00  0.00    -0.193 F  
HETATM    2  C   UNL     1      -9.691   5.552  70.300  1.00  0.00    -0.183 A  
HETATM    3  C   UNL     1     -10.814   6.332  70.538  1.00  0.00    -0.348 A  
HETATM    4  C   UNL     1     -10.932   7.579  69.918  1.00  0.00    -0.223 A  
HETATM    5  C   UNL     1      -9.921   8.062  69.064  1.00  0.00    -0.186 A  
HETATM    6  C   UNL     1     -10.108   9.416  68.358  1.00  0.00    -0.208 C  
HETATM    7  C   UNL     1      -8.758   7.285  68.922  1.00  0.00    -0.128 A  
HETATM    8  C   UNL     1      -9.526  10.573  69.225  1.00  0.00    -0.191 C  
HETATM    9  C   UNL     1      -8.659   6.020  69.503  1.00  0.00    -0.119 A  
HETATM   10  C   UNL     1      -9.813   9.500  66.849  1.00  0.00    -0.262 A  
HETATM   11  C   UNL     1      -9.394   8.407  66.068  1.00  0.00    -0.244 A  
HETATM   12  C   UNL     1      -9.802  10.846  64.796  1.00  0.00    -0.343 A  
HETATM   13  F   UNL     1      -9.088   9.880  62.767  1.00  0.00    -0.209 F  
HETATM   14  C   UNL     1      -9.125   8.541  64.703  1.00  0.00     0.351 A  
HETATM   15  C   UNL     1      -9.332   9.759  64.078  1.00  0.00    -0.155 A  
HETATM   16  C   UNL     1     -10.043  10.715  66.168  1.00  0.00    -0.306 A  
ENDROOT
BRANCH   8  17
HETATM   17  C   UNL     1      -8.036  10.518  69.605  1.00  0.00    -0.076 C  
BRANCH  17  18
HETATM   18  C   UNL     1      -7.050  10.161  68.484  1.00  0.00    -0.074 C  
BRANCH  18  19
HETATM   19  N   UNL     1      -6.161  11.250  68.081  1.00  0.00    -0.049 NA 
HETATM   20  C   UNL     1      -7.682  13.084  67.220  1.00  0.00    -0.112 C  
HETATM   21  C   UNL     1      -6.601  12.039  66.926  1.00  0.00    -0.047 C  
HETATM   22  C   UNL     1      -7.344  13.935  68.449  1.00  0.00    -0.115 C  
HETATM   23  C   UNL     1      -6.858  13.099  69.638  1.00  0.00     0.165 C  
HETATM   24  N   UNL     1      -8.437  14.883  68.852  1.00  0.00    -0.171 NA 
HETATM   25  O   UNL     1      -5.139  14.693  67.539  1.00  0.00    -0.329 OA 
HETATM   26  C   UNL     1      -5.776  12.104  69.214  1.00  0.00    -0.073 C  
HETATM   27  C   UNL     1      -7.922  16.242  68.955  1.00  0.00    -0.230 C  
HETATM   28  C   UNL     1      -6.222  14.925  68.051  1.00  0.00    -0.153 C  
HETATM   29  N   UNL     1      -6.630  16.187  68.383  1.00  0.00    -0.123 NA 
BRANCH  24  30
HETATM   30  C   UNL     1      -9.749  14.615  69.199  1.00  0.00    -0.103 A  
HETATM   31  C   UNL     1     -10.632  13.904  68.378  1.00  0.00    -0.262 A  
HETATM   32  C   UNL     1     -11.985  13.713  68.705  1.00  0.00    -0.395 A  
HETATM   33  C   UNL     1     -12.494  14.206  69.896  1.00  0.00    -0.313 A  
HETATM   34  C   UNL     1     -11.648  14.871  70.766  1.00  0.00    -0.345 A  
HETATM   35  C   UNL     1     -10.301  15.070  70.416  1.00  0.00     0.063 A  
ENDBRANCH  24  30
ENDBRANCH  18  19
ENDBRANCH  17  18
ENDBRANCH   8  17
TORSDOF 4
ENDMDL
MODEL      161
REMARK 921   NORMALIZED FREE ENERGY PREDICTED BY IDOCK:   -3.81 KCAL/MOL
REMARK 922        TOTAL FREE ENERGY PREDICTED BY IDOCK:   -6.57 KCAL/MOL
REMARK 923 INTER-LIGAND FREE ENERGY PREDICTED BY IDOCK:   -5.20 KCAL/MOL
REMARK 924 INTRA-LIGAND FREE ENERGY PREDICTED BY IDOCK:   -1.37 KCAL/MOL
REMARK 927      BINDING AFFINITY PREDICTED BY RF-SCORE:    0.00 PKD
ROOT
HETATM    1  F   UNL     1     -13.731  10.192  70.913  1.00  0.00    -0.384 F  
HETATM    2  C   UNL     1     -12.484  10.243  70.428  1.00  0.00    -0.219 A  
HETATM    3  C   UNL     1     -11.443   9.667  71.143  1.00  0.00    -0.456 A  
HETATM    4  C   UNL     1     -10.135   9.770  70.663  1.00  0.00    -0.252 A  
HETATM    5  C   UNL     1      -9.857  10.443  69.457  1.00  0.00    -0.211 A  
HETATM    6  C   UNL     1      -8.399  10.584  68.986  1.00  0.00    -0.154 C  
HETATM    7  C   UNL     1     -10.947  10.934  68.715  1.00  0.00    -0.285 A  
HETATM    8  C   UNL     1      -7.999   9.387  68.072  1.00  0.00    -0.092 C  
HETATM    9  C   UNL     1     -12.247  10.870  69.216  1.00  0.00    -0.240 A  
HETATM   10  C   UNL     1      -7.912  11.970  68.521  1.00  0.00    -0.132 A  
HETATM   11  C   UNL     1      -8.717  13.124  68.514  1.00  0.00    -0.049 A  
HETATM   12  C   UNL     1      -6.061  13.373  67.729  1.00  0.00    -0.152 A  
HETATM   13  F   UNL     1      -6.437  15.654  67.267  1.00  0.00    -0.180 F  
HETATM   14  C   UNL     1      -8.229  14.355  68.067  1.00  0.00    -0.149 A  
HETATM   15  C   UNL     1      -6.904  14.470  67.679  1.00  0.00    -0.182 A  
HETATM   16  C   UNL     1      -6.560  12.135  68.149  1.00  0.00    -0.061 A  
ENDROOT
BRANCH   8  17
HETATM   17  C   UNL     1      -8.816   9.144  66.791  1.00  0.00    -0.143 C  
BRANCH  17  18
HETATM   18  C   UNL     1      -8.118   8.376  65.662  1.00  0.00    -0.125 C  
BRANCH  18  19
HETATM   19  N   UNL     1      -8.527   6.979  65.527  1.00  0.00    -0.138 NA 
HETATM   20  C   UNL     1      -7.438   5.762  67.463  1.00  0.00    -0.078 C  
HETATM   21  C   UNL     1      -7.541   5.981  65.950  1.00  0.00    -0.087 C  
HETATM   22  C   UNL     1      -8.813   5.579  68.115  1.00  0.00    -0.105 C  
HETATM   23  C   UNL     1      -9.841   6.611  67.640  1.00  0.00    -0.150 C  
HETATM   24  N   UNL     1      -8.769   5.494  69.614  1.00  0.00    -0.107 NA 
HETATM   25  O   UNL     1      -9.448   3.650  66.652  1.00  0.00    -0.188 OA 
HETATM   26  C   UNL     1      -9.851   6.727  66.115  1.00  0.00     0.163 C  
HETATM   27  C   UNL     1      -9.449   4.292  70.077  1.00  0.00    -0.184 C  
HETATM   28  C   UNL     1      -9.330   4.166  67.752  1.00  0.00    -0.168 C  
HETATM   29  N   UNL     1      -9.673   3.526  68.910  1.00  0.00    -0.054 NA 
BRANCH  24  30
HETATM   30  C   UNL     1      -8.277   6.405  70.532  1.00  0.00    -0.118 A  
HETATM   31  C   UNL     1      -7.034   7.034  70.400  1.00  0.00    -0.062 A  
HETATM   32  C   UNL     1      -6.509   7.892  71.382  1.00  0.00    -0.038 A  
HETATM   33  C   UNL     1      -7.239   8.175  72.526  1.00  0.00    -0.123 A  
HETATM   34  C   UNL     1      -8.497   7.619  72.678  1.00  0.00    -0.166 A  
HETATM   35  C   UNL     1      -8.999   6.748  71.695  1.00  0.00    -0.136 A  
ENDBRANCH  24  30
ENDBRANCH  18  19
ENDBRANCH  17  18
ENDBRANCH   8  17
TORSDOF 4
ENDMDL
MODEL      162
REMARK 921   NORMALIZED FREE ENERGY PREDICTED BY IDOCK:   -3.76 KCAL/MOL
REMARK 922        TOTAL FREE ENERGY PREDICTED BY IDOCK:   -6.52 KCAL/MOL
REMARK 923 INTER-LIGAND FREE ENERGY PREDICTED BY IDOCK:   -5.75 KCAL/MOL
REMARK 924 INTRA-LIGAND FREE ENERGY PREDICTED BY IDOCK:   -0.76 KCAL/MOL
REMARK 927      BINDING AFFINITY PREDICTED BY RF-SCORE:    0.00 PKD
ROOT
HETATM    1  F   UNL     1     -13.222   7.050  70.272  1.00  0.00    -0.031 F  
HETATM    2  C   UNL     1     -11.928   6.730  70.150  1.00  0.00    -0.185 A  
HETATM    3  C   UNL     1     -11.465   6.170  68.967  1.00  0.00    -0.067 A  
HETATM    4  C   UNL     1     -10.126   5.786  68.862  1.00  0.00    -0.242 A  
HETATM    5  C   UNL     1      -9.234   5.969  69.937  1.00  0.00    -0.159 A  
HETATM    6  C   UNL     1      -7.779   5.486  69.806  1.00  0.00    -0.078 C  
HETATM    7  C   UNL     1      -9.717   6.623  71.085  1.00  0.00    -0.184 A  
HETATM    8  C   UNL     1      -6.873   6.620  69.239  1.00  0.00    -0.065 C  
HETATM    9  C   UNL     1     -11.064   6.966  71.207  1.00  0.00    -0.293 A  
HETATM   10  C   UNL     1      -7.175   4.662  70.959  1.00  0.00    -0.048 A  
HETATM   11  C   UNL     1      -7.878   4.311  72.126  1.00  0.00    -0.082 A  
HETATM   12  C   UNL     1      -5.270   3.390  71.840  1.00  0.00     0.000 A  
HETATM   13  F   UNL     1      -5.412   2.401  73.976  1.00  0.00     0.000 F  
HETATM   14  C   UNL     1      -7.277   3.575  73.151  1.00  0.00    -0.054 A  
HETATM   15  C   UNL     1      -5.978   3.119  72.999  1.00  0.00    -0.008 A  
HETATM   16  C   UNL     1      -5.865   4.153  70.829  1.00  0.00    -0.014 A  
ENDROOT
BRANCH   8  17
HETATM   17  C   UNL     1      -6.790   7.943  70.020  1.00  0.00    -0.045 C  
BRANCH  17  18
HETATM   18  C   UNL     1      -6.664   9.228  69.190  1.00  0.00    -0.050 C  
BRANCH  18  19
HETATM   19  N   UNL     1      -6.925   9.062  67.761  1.00  0.00    -0.077 NA 
HETATM   20  C   UNL     1      -9.447   8.992  67.536  1.00  0.00    -0.168 C  
HETATM   21  C   UNL     1      -8.105   8.263  67.416  1.00  0.00    -0.121 C  
HETATM   22  C   UNL     1      -9.420  10.367  66.859  1.00  0.00    -0.168 C  
HETATM   23  C   UNL     1      -8.166  11.178  67.206  1.00  0.00    -0.136 C  
HETATM   24  N   UNL     1     -10.671  11.171  67.066  1.00  0.00    -0.255 NA 
HETATM   25  O   UNL     1      -8.729   9.456  64.633  1.00  0.00    -0.180 OA 
HETATM   26  C   UNL     1      -6.897  10.341  67.037  1.00  0.00    -0.084 C  
HETATM   27  C   UNL     1     -11.212  11.612  65.787  1.00  0.00    -0.230 C  
HETATM   28  C   UNL     1      -9.457  10.147  65.327  1.00  0.00    -0.248 C  
HETATM   29  N   UNL     1     -10.482  10.892  64.814  1.00  0.00    -0.325 NA 
BRANCH  24  30
HETATM   30  C   UNL     1     -11.265  11.585  68.245  1.00  0.00    -0.261 A  
HETATM   31  C   UNL     1     -11.525  12.927  68.546  1.00  0.00    -0.345 A  
HETATM   32  C   UNL     1     -12.049  13.340  69.782  1.00  0.00    -0.355 A  
HETATM   33  C   UNL     1     -12.365  12.405  70.757  1.00  0.00    -0.377 A  
HETATM   34  C   UNL     1     -12.175  11.061  70.487  1.00  0.00    -0.472 A  
HETATM   35  C   UNL     1     -11.632  10.666  69.252  1.00  0.00    -0.346 A  
ENDBRANCH  24  30
ENDBRANCH  18  19
ENDBRANCH  17  18
ENDBRANCH   8  17
TORSDOF 4
ENDMDL
MODEL      163
REMARK 921   NORMALIZED FREE ENERGY PREDICTED BY IDOCK:   -3.73 KCAL/MOL
REMARK 922        TOTAL FREE ENERGY PREDICTED BY IDOCK:   -6.48 KCAL/MOL
REMARK 923 INTER-LIGAND FREE ENERGY PREDICTED BY IDOCK:   -5.56 KCAL/MOL
REMARK 924 INTRA-LIGAND FREE ENERGY PREDICTED BY IDOCK:   -0.92 KCAL/MOL
REMARK 927      BINDING AFFINITY PREDICTED BY RF-SCORE:    0.00 PKD
ROOT
HETATM    1  F   UNL     1     -11.384   4.596  65.796  1.00  0.00    -0.219 F  
HETATM    2  C   UNL     1     -10.514   5.341  66.489  1.00  0.00    -0.298 A  
HETATM    3  C   UNL     1      -9.151   5.125  66.341  1.00  0.00    -0.131 A  
HETATM    4  C   UNL     1      -8.247   5.866  67.106  1.00  0.00    -0.105 A  
HETATM    5  C   UNL     1      -8.699   6.840  68.019  1.00  0.00    -0.118 A  
HETATM    6  C   UNL     1      -7.679   7.600  68.884  1.00  0.00    -0.117 C  
HETATM    7  C   UNL     1     -10.081   7.095  68.074  1.00  0.00    -0.201 A  
HETATM    8  C   UNL     1      -7.216   8.904  68.168  1.00  0.00    -0.079 C  
HETATM    9  C   UNL     1     -10.987   6.324  67.343  1.00  0.00    -0.447 A  
HETATM   10  C   UNL     1      -7.952   7.728  70.394  1.00  0.00    -0.095 A  
HETATM   11  C   UNL     1      -9.076   7.180  71.039  1.00  0.00    -0.151 A  
HETATM   12  C   UNL     1      -7.186   8.499  72.595  1.00  0.00    -0.068 A  
HETATM   13  F   UNL     1      -8.533   8.133  74.496  1.00  0.00    -0.288 F  
HETATM   14  C   UNL     1      -9.284   7.339  72.412  1.00  0.00    -0.160 A  
HETATM   15  C   UNL     1      -8.338   7.997  73.179  1.00  0.00    -0.195 A  
HETATM   16  C   UNL     1      -6.995   8.363  71.216  1.00  0.00    -0.068 A  
ENDROOT
BRANCH   8  17
HETATM   17  C   UNL     1      -8.284   9.947  67.794  1.00  0.00    -0.114 C  
BRANCH  17  18
HETATM   18  C   UNL     1      -7.945  11.416  68.079  1.00  0.00    -0.127 C  
BRANCH  18  19
HETATM   19  N   UNL     1      -8.255  12.338  66.988  1.00  0.00    -0.175 NA 
HETATM   20  C   UNL     1     -10.763  12.684  67.083  1.00  0.00    -0.264 C  
HETATM   21  C   UNL     1      -9.548  12.136  66.328  1.00  0.00    -0.237 C  
HETATM   22  C   UNL     1     -10.541  14.122  67.566  1.00  0.00    -0.257 C  
HETATM   23  C   UNL     1      -9.173  14.326  68.227  1.00  0.00    -0.197 C  
HETATM   24  N   UNL     1     -11.653  14.654  68.425  1.00  0.00    -0.308 NA 
HETATM   25  O   UNL     1     -10.037  15.003  65.278  1.00  0.00    -0.354 OA 
HETATM   26  C   UNL     1      -8.048  13.743  67.370  1.00  0.00    -0.177 C  
HETATM   27  C   UNL     1     -12.144  15.920  67.898  1.00  0.00     0.566 C  
HETATM   28  C   UNL     1     -10.639  15.060  66.338  1.00  0.00    -0.310 C  
HETATM   29  N   UNL     1     -11.549  16.040  66.621  1.00  0.00     0.421 NA 
BRANCH  24  30
HETATM   30  C   UNL     1     -12.155  14.161  69.616  1.00  0.00    -0.349 A  
HETATM   31  C   UNL     1     -12.197  14.906  70.800  1.00  0.00    -0.387 A  
HETATM   32  C   UNL     1     -12.631  14.365  72.022  1.00  0.00    -0.392 A  
HETATM   33  C   UNL     1     -13.072  13.052  72.090  1.00  0.00    -0.465 A  
HETATM   34  C   UNL     1     -13.099  12.291  70.935  1.00  0.00     0.084 A  
HETATM   35  C   UNL     1     -12.645  12.841  69.724  1.00  0.00     0.227 A  
ENDBRANCH  24  30
ENDBRANCH  18  19
ENDBRANCH  17  18
ENDBRANCH   8  17
TORSDOF 4
ENDMDL
MODEL      164
REMARK 921   NORMALIZED FREE ENERGY PREDICTED BY IDOCK:   -3.70 KCAL/MOL
REMARK 922        TOTAL FREE ENERGY PREDICTED BY IDOCK:   -6.44 KCAL/MOL
REMARK 923 INTER-LIGAND FREE ENERGY PREDICTED BY IDOCK:   -4.14 KCAL/MOL
REMARK 924 INTRA-LIGAND FREE ENERGY PREDICTED BY IDOCK:   -2.30 KCAL/MOL
REMARK 927      BINDING AFFINITY PREDICTED BY RF-SCORE:    0.00 PKD
ROOT
HETATM    1  F   UNL     1      -5.585  14.191  69.772  1.00  0.00    -0.091 F  
HETATM    2  C   UNL     1      -6.108  13.332  68.889  1.00  0.00    -0.083 A  
HETATM    3  C   UNL     1      -5.290  12.739  67.937  1.00  0.00    -0.106 A  
HETATM    4  C   UNL     1      -5.847  11.886  66.981  1.00  0.00    -0.153 A  
HETATM    5  C   UNL     1      -7.228  11.608  66.976  1.00  0.00    -0.143 A  
HETATM    6  C   UNL     1      -7.816  10.706  65.878  1.00  0.00    -0.150 C  
HETATM    7  C   UNL     1      -8.009  12.153  68.011  1.00  0.00    -0.152 A  
HETATM    8  C   UNL     1      -7.813   9.215  66.331  1.00  0.00    -0.100 C  
HETATM    9  C   UNL     1      -7.461  13.041  68.938  1.00  0.00     0.014 A  
HETATM   10  C   UNL     1      -9.087  11.178  65.146  1.00  0.00    -0.161 A  
HETATM   11  C   UNL     1      -9.740  12.396  65.412  1.00  0.00    -0.129 A  
HETATM   12  C   UNL     1     -10.748  10.783  63.384  1.00  0.00     0.163 A  
HETATM   13  F   UNL     1     -12.498  12.330  63.058  1.00  0.00    -0.562 F  
HETATM   14  C   UNL     1     -10.901  12.770  64.729  1.00  0.00    -0.335 A  
HETATM   15  C   UNL     1     -11.396  11.961  63.720  1.00  0.00    -0.448 A  
HETATM   16  C   UNL     1      -9.603  10.398  64.089  1.00  0.00    -0.381 A  
ENDROOT
BRANCH   8  17
HETATM   17  C   UNL     1      -8.579   8.843  67.613  1.00  0.00    -0.124 C  
BRANCH  17  18
HETATM   18  C   UNL     1     -10.073   9.189  67.648  1.00  0.00    -0.220 C  
BRANCH  18  19
HETATM   19  N   UNL     1     -10.721   8.975  68.942  1.00  0.00    -0.172 NA 
HETATM   20  C   UNL     1     -10.287  11.086  70.274  1.00  0.00     0.823 C  
HETATM   21  C   UNL     1     -10.053   9.582  70.097  1.00  0.00    -0.249 C  
HETATM   22  C   UNL     1     -11.769  11.458  70.159  1.00  0.00    -0.328 C  
HETATM   23  C   UNL     1     -12.460  10.793  68.964  1.00  0.00     0.339 C  
HETATM   24  N   UNL     1     -12.030  12.937  70.194  1.00  0.00    -0.337 NA 
HETATM   25  O   UNL     1     -12.486   9.897  71.980  1.00  0.00    -0.360 OA 
HETATM   26  C   UNL     1     -12.156   9.295  68.907  1.00  0.00     1.899 C  
HETATM   27  C   UNL     1     -13.012  13.258  71.221  1.00  0.00    -0.270 C  
HETATM   28  C   UNL     1     -12.479  11.000  71.456  1.00  0.00    -0.284 C  
HETATM   29  N   UNL     1     -13.158  12.069  71.972  1.00  0.00    -0.427 NA 
BRANCH  24  30
HETATM   30  C   UNL     1     -11.550  13.933  69.362  1.00  0.00    -0.297 A  
HETATM   31  C   UNL     1     -12.001  14.124  68.051  1.00  0.00    -0.372 A  
HETATM   32  C   UNL     1     -11.445  15.084  67.189  1.00  0.00    -0.304 A  
HETATM   33  C   UNL     1     -10.428  15.916  67.631  1.00  0.00    -0.289 A  
HETATM   34  C   UNL     1      -9.983  15.801  68.937  1.00  0.00    -0.223 A  
HETATM   35  C   UNL     1     -10.538  14.823  69.781  1.00  0.00    -0.134 A  
ENDBRANCH  24  30
ENDBRANCH  18  19
ENDBRANCH  17  18
ENDBRANCH   8  17
TORSDOF 4
ENDMDL
MODEL      165
REMARK 921   NORMALIZED FREE ENERGY PREDICTED BY IDOCK:   -3.70 KCAL/MOL
REMARK 922        TOTAL FREE ENERGY PREDICTED BY IDOCK:   -6.44 KCAL/MOL
REMARK 923 INTER-LIGAND FREE ENERGY PREDICTED BY IDOCK:   -5.16 KCAL/MOL
REMARK 924 INTRA-LIGAND FREE ENERGY PREDICTED BY IDOCK:   -1.28 KCAL/MOL
REMARK 927      BINDING AFFINITY PREDICTED BY RF-SCORE:    0.00 PKD
ROOT
HETATM    1  F   UNL     1     -12.103   6.474  70.915  1.00  0.00    -0.400 F  
HETATM    2  C   UNL     1     -11.326   7.010  69.965  1.00  0.00    -0.249 A  
HETATM    3  C   UNL     1     -10.541   6.185  69.172  1.00  0.00    -0.345 A  
HETATM    4  C   UNL     1      -9.689   6.749  68.219  1.00  0.00    -0.126 A  
HETATM    5  C   UNL     1      -9.624   8.146  68.043  1.00  0.00    -0.174 A  
HETATM    6  C   UNL     1      -8.636   8.736  67.022  1.00  0.00    -0.119 C  
HETATM    7  C   UNL     1     -10.501   8.943  68.800  1.00  0.00    -0.223 A  
HETATM    8  C   UNL     1      -9.313   8.883  65.625  1.00  0.00    -0.259 C  
HETATM    9  C   UNL     1     -11.319   8.383  69.783  1.00  0.00     0.134 A  
HETATM   10  C   UNL     1      -7.748   9.915  67.460  1.00  0.00    -0.091 A  
HETATM   11  C   UNL     1      -7.774  10.482  68.748  1.00  0.00    -0.109 A  
HETATM   12  C   UNL     1      -5.949  11.490  66.909  1.00  0.00    -0.136 A  
HETATM   13  F   UNL     1      -5.258  13.083  68.505  1.00  0.00    -0.056 F  
HETATM   14  C   UNL     1      -6.957  11.563  69.090  1.00  0.00    -0.113 A  
HETATM   15  C   UNL     1      -6.050  12.058  68.168  1.00  0.00    -0.053 A  
HETATM   16  C   UNL     1      -6.789  10.427  66.560  1.00  0.00    -0.107 A  
ENDROOT
BRANCH   8  17
HETATM   17  C   UNL     1     -10.576   9.756  65.518  1.00  0.00     0.475 C  
BRANCH  17  18
HETATM   18  C   UNL     1     -10.428  11.234  65.901  1.00  0.00    -0.259 C  
BRANCH  18  19
HETATM   19  N   UNL     1     -10.773  12.180  64.841  1.00  0.00    -0.283 NA 
HETATM   20  C   UNL     1     -12.190  13.960  65.955  1.00  0.00    -0.497 C  
HETATM   21  C   UNL     1     -12.094  12.807  64.950  1.00  0.00    -0.438 C  
HETATM   22  C   UNL     1     -11.046  14.967  65.790  1.00  0.00    -0.342 C  
HETATM   23  C   UNL     1      -9.676  14.295  65.647  1.00  0.00    -0.238 C  
HETATM   24  N   UNL     1     -11.027  16.042  66.838  1.00  0.00    -0.197 NA 
HETATM   25  O   UNL     1     -11.548  15.414  63.379  1.00  0.00     0.522 OA 
HETATM   26  C   UNL     1      -9.712  13.171  64.611  1.00  0.00     0.174 C  
HETATM   27  C   UNL     1     -11.002  17.360  66.218  1.00  0.00     0.237 C  
HETATM   28  C   UNL     1     -11.322  15.800  64.515  1.00  0.00    -0.316 C  
HETATM   29  N   UNL     1     -11.265  17.124  64.849  1.00  0.00    -0.689 NA 
BRANCH  24  30
HETATM   30  C   UNL     1     -10.941  15.926  68.215  1.00  0.00    -0.329 A  
HETATM   31  C   UNL     1      -9.736  16.021  68.921  1.00  0.00    -0.232 A  
HETATM   32  C   UNL     1      -9.651  15.815  70.308  1.00  0.00     0.513 A  
HETATM   33  C   UNL     1     -10.791  15.537  71.046  1.00  0.00    -0.203 A  
HETATM   34  C   UNL     1     -12.015  15.484  70.401  1.00  0.00    -0.398 A  
HETATM   35  C   UNL     1     -12.080  15.674  69.009  1.00  0.00    -0.227 A  
ENDBRANCH  24  30
ENDBRANCH  18  19
ENDBRANCH  17  18
ENDBRANCH   8  17
TORSDOF 4
ENDMDL
MODEL      166
REMARK 921   NORMALIZED FREE ENERGY PREDICTED BY IDOCK:   -3.69 KCAL/MOL
REMARK 922        TOTAL FREE ENERGY PREDICTED BY IDOCK:   -6.43 KCAL/MOL
REMARK 923 INTER-LIGAND FREE ENERGY PREDICTED BY IDOCK:   -4.75 KCAL/MOL
REMARK 924 INTRA-LIGAND FREE ENERGY PREDICTED BY IDOCK:   -1.68 KCAL/MOL
REMARK 927      BINDING AFFINITY PREDICTED BY RF-SCORE:    0.00 PKD
ROOT
HETATM    1  F   UNL     1      -6.677  14.292  69.522  1.00  0.00    -0.115 F  
HETATM    2  C   UNL     1      -7.249  13.315  68.806  1.00  0.00    -0.088 A  
HETATM    3  C   UNL     1      -8.229  13.628  67.875  1.00  0.00    -0.171 A  
HETATM    4  C   UNL     1      -8.864  12.603  67.169  1.00  0.00    -0.204 A  
HETATM    5  C   UNL     1      -8.515  11.254  67.381  1.00  0.00    -0.137 A  
HETATM    6  C   UNL     1      -9.271  10.148  66.626  1.00  0.00    -0.181 C  
HETATM    7  C   UNL     1      -7.455  10.983  68.265  1.00  0.00    -0.092 A  
HETATM    8  C   UNL     1      -8.560   9.818  65.279  1.00  0.00    -0.168 C  
HETATM    9  C   UNL     1      -6.852  12.003  69.002  1.00  0.00    -0.105 A  
HETATM   10  C   UNL     1      -9.782   8.934  67.425  1.00  0.00    -0.227 A  
HETATM   11  C   UNL     1      -9.611   8.780  68.813  1.00  0.00    -0.160 A  
HETATM   12  C   UNL     1     -11.033   6.823  67.441  1.00  0.00    -0.407 A  
HETATM   13  F   UNL     1     -11.252   5.608  69.451  1.00  0.00    -0.413 F  
HETATM   14  C   UNL     1     -10.081   7.650  69.489  1.00  0.00    -0.192 A  
HETATM   15  C   UNL     1     -10.789   6.681  68.798  1.00  0.00    -0.267 A  
HETATM   16  C   UNL     1     -10.536   7.941  66.763  1.00  0.00    -0.317 A  
ENDROOT
BRANCH   8  17
HETATM   17  C   UNL     1      -7.095   9.347  65.326  1.00  0.00    -0.092 C  
BRANCH  17  18
HETATM   18  C   UNL     1      -6.835   7.868  65.012  1.00  0.00    -0.051 C  
BRANCH  18  19
HETATM   19  N   UNL     1      -6.207   7.113  66.095  1.00  0.00    -0.039 NA 
HETATM   20  C   UNL     1      -7.877   5.316  66.726  1.00  0.00    -0.100 C  
HETATM   21  C   UNL     1      -7.117   6.587  67.117  1.00  0.00    -0.076 C  
HETATM   22  C   UNL     1      -6.953   4.252  66.124  1.00  0.00    -0.066 C  
HETATM   23  C   UNL     1      -5.988   4.823  65.079  1.00  0.00    -0.025 C  
HETATM   24  N   UNL     1      -7.674   3.041  65.605  1.00  0.00    -0.080 NA 
HETATM   25  O   UNL     1      -5.432   4.192  68.111  1.00  0.00    -0.014 OA 
HETATM   26  C   UNL     1      -5.288   6.081  65.595  1.00  0.00    -0.013 C  
HETATM   27  C   UNL     1      -7.118   1.827  66.185  1.00  0.00    -0.051 C  
HETATM   28  C   UNL     1      -6.122   3.633  67.274  1.00  0.00    -0.028 C  
HETATM   29  N   UNL     1      -6.267   2.274  67.222  1.00  0.00    -0.027 NA 
BRANCH  24  30
HETATM   30  C   UNL     1      -8.666   2.955  64.643  1.00  0.00    -0.104 A  
HETATM   31  C   UNL     1      -9.850   3.700  64.689  1.00  0.00    -0.181 A  
HETATM   32  C   UNL     1     -10.885   3.540  63.753  1.00  0.00    -0.205 A  
HETATM   33  C   UNL     1     -10.750   2.639  62.708  1.00  0.00    -0.184 A  
HETATM   34  C   UNL     1      -9.576   1.916  62.589  1.00  0.00    -0.089 A  
HETATM   35  C   UNL     1      -8.558   2.075  63.545  1.00  0.00    -0.084 A  
ENDBRANCH  24  30
ENDBRANCH  18  19
ENDBRANCH  17  18
ENDBRANCH   8  17
TORSDOF 4
ENDMDL
MODEL      167
REMARK 921   NORMALIZED FREE ENERGY PREDICTED BY IDOCK:   -3.69 KCAL/MOL
REMARK 922        TOTAL FREE ENERGY PREDICTED BY IDOCK:   -6.43 KCAL/MOL
REMARK 923 INTER-LIGAND FREE ENERGY PREDICTED BY IDOCK:   -4.73 KCAL/MOL
REMARK 924 INTRA-LIGAND FREE ENERGY PREDICTED BY IDOCK:   -1.70 KCAL/MOL
REMARK 927      BINDING AFFINITY PREDICTED BY RF-SCORE:    0.00 PKD
ROOT
HETATM    1  F   UNL     1      -5.172  15.413  72.553  1.00  0.00    -0.158 F  
HETATM    2  C   UNL     1      -5.484  14.871  71.369  1.00  0.00    -0.040 A  
HETATM    3  C   UNL     1      -5.136  15.528  70.197  1.00  0.00    -0.115 A  
HETATM    4  C   UNL     1      -5.512  14.987  68.965  1.00  0.00    -0.097 A  
HETATM    5  C   UNL     1      -6.230  13.778  68.893  1.00  0.00    -0.091 A  
HETATM    6  C   UNL     1      -6.673  13.239  67.522  1.00  0.00    -0.156 C  
HETATM    7  C   UNL     1      -6.484  13.095  70.096  1.00  0.00     0.143 A  
HETATM    8  C   UNL     1      -5.587  12.293  66.926  1.00  0.00     0.072 C  
HETATM    9  C   UNL     1      -6.149  13.656  71.329  1.00  0.00     0.182 A  
HETATM   10  C   UNL     1      -8.131  12.769  67.357  1.00  0.00    -0.185 A  
HETATM   11  C   UNL     1      -9.092  12.814  68.384  1.00  0.00    -0.129 A  
HETATM   12  C   UNL     1      -9.891  11.906  65.880  1.00  0.00    -0.261 A  
HETATM   13  F   UNL     1     -12.045  11.490  66.746  1.00  0.00    -0.164 F  
HETATM   14  C   UNL     1     -10.398  12.359  68.186  1.00  0.00    -0.231 A  
HETATM   15  C   UNL     1     -10.788  11.910  66.936  1.00  0.00    -0.263 A  
HETATM   16  C   UNL     1      -8.575  12.335  66.090  1.00  0.00     0.228 A  
ENDROOT
BRANCH   8  17
HETATM   17  C   UNL     1      -5.182  11.050  67.737  1.00  0.00    -0.039 C  
BRANCH  17  18
HETATM   18  C   UNL     1      -6.315  10.110  68.171  1.00  0.00    -0.053 C  
BRANCH  18  19
HETATM   19  N   UNL     1      -6.472   8.917  67.341  1.00  0.00    -0.057 NA 
HETATM   20  C   UNL     1      -7.626   7.211  68.817  1.00  0.00    -0.108 C  
HETATM   21  C   UNL     1      -6.373   7.633  68.042  1.00  0.00    -0.049 C  
HETATM   22  C   UNL     1      -8.900   7.352  67.975  1.00  0.00    -0.126 C  
HETATM   23  C   UNL     1      -8.975   8.686  67.225  1.00  0.00    -0.145 C  
HETATM   24  N   UNL     1     -10.165   7.075  68.735  1.00  0.00    -0.170 NA 
HETATM   25  O   UNL     1      -8.060   5.880  66.133  1.00  0.00    -0.104 OA 
HETATM   26  C   UNL     1      -7.668   8.985  66.488  1.00  0.00    -0.096 C  
HETATM   27  C   UNL     1     -10.966   6.072  68.047  1.00  0.00    -0.245 C  
HETATM   28  C   UNL     1      -8.918   6.202  66.939  1.00  0.00    -0.118 C  
HETATM   29  N   UNL     1     -10.115   5.551  67.045  1.00  0.00    -0.171 NA 
BRANCH  24  30
HETATM   30  C   UNL     1     -10.657   7.688  69.874  1.00  0.00    -0.235 A  
HETATM   31  C   UNL     1     -11.139   6.980  70.982  1.00  0.00    -0.295 A  
HETATM   32  C   UNL     1     -11.715   7.613  72.096  1.00  0.00    -0.355 A  
HETATM   33  C   UNL     1     -11.797   8.996  72.150  1.00  0.00    -0.384 A  
HETATM   34  C   UNL     1     -11.288   9.743  71.102  1.00  0.00    -0.459 A  
HETATM   35  C   UNL     1     -10.731   9.093  69.986  1.00  0.00    -0.254 A  
ENDBRANCH  24  30
ENDBRANCH  18  19
ENDBRANCH  17  18
ENDBRANCH   8  17
TORSDOF 4
ENDMDL
MODEL      168
REMARK 921   NORMALIZED FREE ENERGY PREDICTED BY IDOCK:   -3.68 KCAL/MOL
REMARK 922        TOTAL FREE ENERGY PREDICTED BY IDOCK:   -6.42 KCAL/MOL
REMARK 923 INTER-LIGAND FREE ENERGY PREDICTED BY IDOCK:   -5.13 KCAL/MOL
REMARK 924 INTRA-LIGAND FREE ENERGY PREDICTED BY IDOCK:   -1.29 KCAL/MOL
REMARK 927      BINDING AFFINITY PREDICTED BY RF-SCORE:    0.00 PKD
ROOT
HETATM    1  F   UNL     1     -14.206   8.654  73.432  1.00  0.00    -0.038 F  
HETATM    2  C   UNL     1     -13.450   8.939  72.363  1.00  0.00    -0.450 A  
HETATM    3  C   UNL     1     -13.612   8.211  71.192  1.00  0.00    -0.063 A  
HETATM    4  C   UNL     1     -12.785   8.472  70.097  1.00  0.00     1.310 A  
HETATM    5  C   UNL     1     -11.794   9.472  70.160  1.00  0.00    -0.036 A  
HETATM    6  C   UNL     1     -10.866   9.697  68.954  1.00  0.00    -0.201 C  
HETATM    7  C   UNL     1     -11.722  10.250  71.329  1.00  0.00    -0.378 A  
HETATM    8  C   UNL     1     -11.469  10.761  67.987  1.00  0.00    -0.333 C  
HETATM    9  C   UNL     1     -12.517   9.960  72.439  1.00  0.00     0.096 A  
HETATM   10  C   UNL     1      -9.351   9.808  69.208  1.00  0.00    -0.198 A  
HETATM   11  C   UNL     1      -8.758   9.703  70.479  1.00  0.00    -0.158 A  
HETATM   12  C   UNL     1      -7.091  10.042  68.279  1.00  0.00    -0.072 A  
HETATM   13  F   UNL     1      -5.231  10.098  69.728  1.00  0.00    -0.037 F  
HETATM   14  C   UNL     1      -7.377   9.828  70.657  1.00  0.00    -0.070 A  
HETATM   15  C   UNL     1      -6.554   9.995  69.556  1.00  0.00    -0.055 A  
HETATM   16  C   UNL     1      -8.477   9.946  68.108  1.00  0.00    -0.114 A  
ENDROOT
BRANCH   8  17
HETATM   17  C   UNL     1     -11.757  12.167  68.543  1.00  0.00    -0.382 C  
BRANCH  17  18
HETATM   18  C   UNL     1     -10.973  13.329  67.920  1.00  0.00    -0.249 C  
BRANCH  18  19
HETATM   19  N   UNL     1      -9.542  13.081  67.750  1.00  0.00    -0.201 NA 
HETATM   20  C   UNL     1      -8.685  14.997  66.331  1.00  0.00    -0.169 C  
HETATM   21  C   UNL     1      -8.970  13.497  66.466  1.00  0.00    -0.044 C  
HETATM   22  C   UNL     1      -7.933  15.553  67.545  1.00  0.00    -0.168 C  
HETATM   23  C   UNL     1      -8.524  15.084  68.880  1.00  0.00    -0.192 C  
HETATM   24  N   UNL     1      -7.748  17.043  67.517  1.00  0.00    -0.167 NA 
HETATM   25  O   UNL     1      -6.035  13.934  67.336  1.00  0.00    -0.351 OA 
HETATM   26  C   UNL     1      -8.751  13.572  68.888  1.00  0.00     0.220 C  
HETATM   27  C   UNL     1      -6.343  17.387  67.689  1.00  0.00    -0.149 C  
HETATM   28  C   UNL     1      -6.464  15.070  67.461  1.00  0.00    -0.092 C  
HETATM   29  N   UNL     1      -5.649  16.162  67.562  1.00  0.00    -0.172 NA 
BRANCH  24  30
HETATM   30  C   UNL     1      -8.700  18.045  67.446  1.00  0.00    -0.248 A  
HETATM   31  C   UNL     1      -9.383  18.537  68.564  1.00  0.00    -0.364 A  
HETATM   32  C   UNL     1     -10.409  19.493  68.467  1.00  0.00    -0.436 A  
HETATM   33  C   UNL     1     -10.763  20.017  67.234  1.00  0.00    -0.358 A  
HETATM   34  C   UNL     1     -10.081  19.600  66.104  1.00  0.00    -0.574 A  
HETATM   35  C   UNL     1      -9.070  18.629  66.216  1.00  0.00    -0.236 A  
ENDBRANCH  24  30
ENDBRANCH  18  19
ENDBRANCH  17  18
ENDBRANCH   8  17
TORSDOF 4
ENDMDL
MODEL      169
REMARK 921   NORMALIZED FREE ENERGY PREDICTED BY IDOCK:   -3.68 KCAL/MOL
REMARK 922        TOTAL FREE ENERGY PREDICTED BY IDOCK:   -6.41 KCAL/MOL
REMARK 923 INTER-LIGAND FREE ENERGY PREDICTED BY IDOCK:   -4.26 KCAL/MOL
REMARK 924 INTRA-LIGAND FREE ENERGY PREDICTED BY IDOCK:   -2.15 KCAL/MOL
REMARK 927      BINDING AFFINITY PREDICTED BY RF-SCORE:    0.00 PKD
ROOT
HETATM    1  F   UNL     1     -10.588  12.112  64.307  1.00  0.00    -0.293 F  
HETATM    2  C   UNL     1     -10.528  11.370  65.420  1.00  0.00    -0.280 A  
HETATM    3  C   UNL     1     -11.440  11.590  66.444  1.00  0.00    -0.150 A  
HETATM    4  C   UNL     1     -11.340  10.854  67.627  1.00  0.00    -0.345 A  
HETATM    5  C   UNL     1     -10.333   9.882  67.793  1.00  0.00    -0.268 A  
HETATM    6  C   UNL     1     -10.221   9.127  69.129  1.00  0.00    -0.215 C  
HETATM    7  C   UNL     1      -9.487   9.624  66.700  1.00  0.00    -0.221 A  
HETATM    8  C   UNL     1     -11.071   7.822  69.096  1.00  0.00     0.139 C  
HETATM    9  C   UNL     1      -9.557  10.389  65.536  1.00  0.00    -0.290 A  
HETATM   10  C   UNL     1      -8.832   9.003  69.784  1.00  0.00    -0.155 A  
HETATM   11  C   UNL     1      -7.656   9.551  69.240  1.00  0.00    -0.084 A  
HETATM   12  C   UNL     1      -7.483   8.242  71.687  1.00  0.00    -0.105 A  
HETATM   13  F   UNL     1      -5.154   8.610  71.692  1.00  0.00    -0.032 F  
HETATM   14  C   UNL     1      -6.416   9.395  69.868  1.00  0.00    -0.046 A  
HETATM   15  C   UNL     1      -6.340   8.743  71.087  1.00  0.00    -0.054 A  
HETATM   16  C   UNL     1      -8.718   8.374  71.042  1.00  0.00    -0.185 A  
ENDROOT
BRANCH   8  17
HETATM   17  C   UNL     1     -10.755   6.775  68.013  1.00  0.00    -0.302 C  
BRANCH  17  18
HETATM   18  C   UNL     1      -9.952   5.545  68.455  1.00  0.00    -0.157 C  
BRANCH  18  19
HETATM   19  N   UNL     1      -9.924   4.451  67.486  1.00  0.00    -0.120 NA 
HETATM   20  C   UNL     1      -9.496   5.544  65.241  1.00  0.00     0.179 C  
HETATM   21  C   UNL     1     -10.449   4.765  66.153  1.00  0.00    -0.290 C  
HETATM   22  C   UNL     1      -8.090   4.932  65.217  1.00  0.00    -0.115 C  
HETATM   23  C   UNL     1      -7.568   4.581  66.615  1.00  0.00    -0.086 C  
HETATM   24  N   UNL     1      -7.089   5.738  64.440  1.00  0.00    -0.051 NA 
HETATM   25  O   UNL     1      -8.891   2.675  64.490  1.00  0.00    -0.103 OA 
HETATM   26  C   UNL     1      -8.608   3.799  67.418  1.00  0.00    -0.103 C  
HETATM   27  C   UNL     1      -6.430   4.908  63.440  1.00  0.00    -0.026 C  
HETATM   28  C   UNL     1      -8.148   3.635  64.373  1.00  0.00    -0.086 C  
HETATM   29  N   UNL     1      -7.176   3.707  63.414  1.00  0.00    -0.049 NA 
BRANCH  24  30
HETATM   30  C   UNL     1      -6.689   7.050  64.619  1.00  0.00    -0.043 A  
HETATM   31  C   UNL     1      -6.673   7.997  63.588  1.00  0.00    -0.074 A  
HETATM   32  C   UNL     1      -6.183   9.302  63.764  1.00  0.00    -0.090 A  
HETATM   33  C   UNL     1      -5.719   9.715  65.003  1.00  0.00    -0.068 A  
HETATM   34  C   UNL     1      -5.763   8.831  66.068  1.00  0.00    -0.046 A  
HETATM   35  C   UNL     1      -6.239   7.523  65.871  1.00  0.00    -0.041 A  
ENDBRANCH  24  30
ENDBRANCH  18  19
ENDBRANCH  17  18
ENDBRANCH   8  17
TORSDOF 4
ENDMDL
MODEL      170
REMARK 921   NORMALIZED FREE ENERGY PREDICTED BY IDOCK:   -3.63 KCAL/MOL
REMARK 922        TOTAL FREE ENERGY PREDICTED BY IDOCK:   -6.35 KCAL/MOL
REMARK 923 INTER-LIGAND FREE ENERGY PREDICTED BY IDOCK:   -4.85 KCAL/MOL
REMARK 924 INTRA-LIGAND FREE ENERGY PREDICTED BY IDOCK:   -1.50 KCAL/MOL
REMARK 927      BINDING AFFINITY PREDICTED BY RF-SCORE:    0.00 PKD
ROOT
HETATM    1  F   UNL     1     -12.953  15.313  69.814  1.00  0.00    -0.181 F  
HETATM    2  C   UNL     1     -12.425  14.101  69.602  1.00  0.00    -0.161 A  
HETATM    3  C   UNL     1     -12.398  13.575  68.318  1.00  0.00     0.060 A  
HETATM    4  C   UNL     1     -11.897  12.288  68.108  1.00  0.00    -0.372 A  
HETATM    5  C   UNL     1     -11.406  11.518  69.181  1.00  0.00    -0.351 A  
HETATM    6  C   UNL     1     -10.911  10.085  68.922  1.00  0.00    -0.250 C  
HETATM    7  C   UNL     1     -11.364  12.119  70.452  1.00  0.00     0.469 A  
HETATM    8  C   UNL     1      -9.385  10.081  68.601  1.00  0.00    -0.156 C  
HETATM    9  C   UNL     1     -11.906  13.386  70.670  1.00  0.00    -0.163 A  
HETATM   10  C   UNL     1     -11.399   8.962  69.856  1.00  0.00     0.006 A  
HETATM   11  C   UNL     1     -12.285   9.164  70.930  1.00  0.00    -0.239 A  
HETATM   12  C   UNL     1     -11.431   6.571  70.405  1.00  0.00    -0.465 A  
HETATM   13  F   UNL     1     -12.653   5.816  72.275  1.00  0.00    -0.303 F  
HETATM   14  C   UNL     1     -12.685   8.112  71.759  1.00  0.00    -0.356 A  
HETATM   15  C   UNL     1     -12.256   6.823  71.489  1.00  0.00    -0.366 A  
HETATM   16  C   UNL     1     -11.010   7.631  69.595  1.00  0.00    -0.145 A  
ENDROOT
BRANCH   8  17
HETATM   17  C   UNL     1      -8.420  10.659  69.650  1.00  0.00     0.104 C  
BRANCH  17  18
HETATM   18  C   UNL     1      -6.954  10.819  69.226  1.00  0.00    -0.102 C  
BRANCH  18  19
HETATM   19  N   UNL     1      -6.467  12.197  69.214  1.00  0.00    -0.104 NA 
HETATM   20  C   UNL     1      -6.788  13.009  66.836  1.00  0.00     0.612 C  
HETATM   21  C   UNL     1      -5.828  12.637  67.970  1.00  0.00    -0.091 C  
HETATM   22  C   UNL     1      -7.910  13.940  67.310  1.00  0.00    -0.114 C  
HETATM   23  C   UNL     1      -8.547  13.483  68.627  1.00  0.00    -0.009 C  
HETATM   24  N   UNL     1      -8.949  14.225  66.264  1.00  0.00    -0.070 NA 
HETATM   25  O   UNL     1      -6.337  15.679  68.187  1.00  0.00    -0.107 OA 
HETATM   26  C   UNL     1      -7.484  13.152  69.676  1.00  0.00     0.744 C  
HETATM   27  C   UNL     1      -9.126  15.661  66.097  1.00  0.00    -0.342 C  
HETATM   28  C   UNL     1      -7.304  15.350  67.520  1.00  0.00    -0.195 C  
HETATM   29  N   UNL     1      -8.057  16.246  66.814  1.00  0.00    -0.234 NA 
BRANCH  24  30
HETATM   30  C   UNL     1      -9.756  13.344  65.566  1.00  0.00    -0.042 A  
HETATM   31  C   UNL     1      -9.717  11.956  65.746  1.00  0.00    -0.258 A  
HETATM   32  C   UNL     1     -10.480  11.068  64.970  1.00  0.00    -0.344 A  
HETATM   33  C   UNL     1     -11.345  11.552  64.000  1.00  0.00    -0.380 A  
HETATM   34  C   UNL     1     -11.459  12.919  63.820  1.00  0.00    -0.519 A  
HETATM   35  C   UNL     1     -10.673  13.793  64.592  1.00  0.00    -0.427 A  
ENDBRANCH  24  30
ENDBRANCH  18  19
ENDBRANCH  17  18
ENDBRANCH   8  17
TORSDOF 4
ENDMDL
MODEL      171
REMARK 921   NORMALIZED FREE ENERGY PREDICTED BY IDOCK:   -3.60 KCAL/MOL
REMARK 922        TOTAL FREE ENERGY PREDICTED BY IDOCK:   -6.32 KCAL/MOL
REMARK 923 INTER-LIGAND FREE ENERGY PREDICTED BY IDOCK:   -4.43 KCAL/MOL
REMARK 924 INTRA-LIGAND FREE ENERGY PREDICTED BY IDOCK:   -1.89 KCAL/MOL
REMARK 927      BINDING AFFINITY PREDICTED BY RF-SCORE:    0.00 PKD
ROOT
HETATM    1  F   UNL     1      -5.986  14.018  68.247  1.00  0.00    -0.083 F  
HETATM    2  C   UNL     1      -7.089  13.261  68.305  1.00  0.00    -0.109 A  
HETATM    3  C   UNL     1      -8.338  13.855  68.183  1.00  0.00    -0.163 A  
HETATM    4  C   UNL     1      -9.490  13.072  68.300  1.00  0.00    -0.208 A  
HETATM    5  C   UNL     1      -9.402  11.685  68.528  1.00  0.00    -0.169 A  
HETATM    6  C   UNL     1     -10.690  10.862  68.704  1.00  0.00    -0.238 C  
HETATM    7  C   UNL     1      -8.121  11.105  68.553  1.00  0.00    -0.146 A  
HETATM    8  C   UNL     1     -11.183  10.312  67.332  1.00  0.00    -0.145 C  
HETATM    9  C   UNL     1      -6.971  11.893  68.481  1.00  0.00    -0.085 A  
HETATM   10  C   UNL     1     -10.773   9.878  69.886  1.00  0.00    -0.318 A  
HETATM   11  C   UNL     1      -9.745   9.693  70.828  1.00  0.00    -0.192 A  
HETATM   12  C   UNL     1     -12.106   8.265  71.168  1.00  0.00    -0.274 A  
HETATM   13  F   UNL     1     -11.163   7.201  73.049  1.00  0.00    -0.298 F  
HETATM   14  C   UNL     1      -9.865   8.774  71.874  1.00  0.00    -0.395 A  
HETATM   15  C   UNL     1     -11.045   8.068  72.037  1.00  0.00    -0.293 A  
HETATM   16  C   UNL     1     -11.971   9.164  70.105  1.00  0.00     0.224 A  
ENDROOT
BRANCH   8  17
HETATM   17  C   UNL     1     -10.232   9.408  66.528  1.00  0.00    -0.308 C  
BRANCH  17  18
HETATM   18  C   UNL     1      -9.942   8.019  67.112  1.00  0.00    -0.235 C  
BRANCH  18  19
HETATM   19  N   UNL     1      -9.056   7.186  66.300  1.00  0.00    -0.163 NA 
HETATM   20  C   UNL     1      -6.764   7.403  67.356  1.00  0.00    -0.069 C  
HETATM   21  C   UNL     1      -7.679   7.668  66.157  1.00  0.00    -0.089 C  
HETATM   22  C   UNL     1      -6.856   5.952  67.843  1.00  0.00    -0.060 C  
HETATM   23  C   UNL     1      -8.300   5.453  67.959  1.00  0.00    -0.098 C  
HETATM   24  N   UNL     1      -6.076   5.680  69.097  1.00  0.00    -0.023 NA 
HETATM   25  O   UNL     1      -6.253   4.978  65.618  1.00  0.00    -0.032 OA 
HETATM   26  C   UNL     1      -9.103   5.771  66.697  1.00  0.00    -0.132 C  
HETATM   27  C   UNL     1      -5.174   4.553  68.904  1.00  0.00    -0.004 C  
HETATM   28  C   UNL     1      -6.106   5.057  66.826  1.00  0.00    -0.031 C  
HETATM   29  N   UNL     1      -5.195   4.303  67.512  1.00  0.00    -0.011 NA 
BRANCH  24  30
HETATM   30  C   UNL     1      -6.180   6.274  70.343  1.00  0.00    -0.035 A  
HETATM   31  C   UNL     1      -6.422   5.556  71.520  1.00  0.00    -0.044 A  
HETATM   32  C   UNL     1      -6.611   6.180  72.764  1.00  0.00    -0.065 A  
HETATM   33  C   UNL     1      -6.531   7.560  72.876  1.00  0.00    -0.061 A  
HETATM   34  C   UNL     1      -6.242   8.311  71.750  1.00  0.00    -0.050 A  
HETATM   35  C   UNL     1      -6.074   7.672  70.508  1.00  0.00    -0.030 A  
ENDBRANCH  24  30
ENDBRANCH  18  19
ENDBRANCH  17  18
ENDBRANCH   8  17
TORSDOF 4
ENDMDL
MODEL      172
REMARK 921   NORMALIZED FREE ENERGY PREDICTED BY IDOCK:   -3.51 KCAL/MOL
REMARK 922        TOTAL FREE ENERGY PREDICTED BY IDOCK:   -6.20 KCAL/MOL
REMARK 923 INTER-LIGAND FREE ENERGY PREDICTED BY IDOCK:   -5.21 KCAL/MOL
REMARK 924 INTRA-LIGAND FREE ENERGY PREDICTED BY IDOCK:   -0.99 KCAL/MOL
REMARK 927      BINDING AFFINITY PREDICTED BY RF-SCORE:    0.00 PKD
ROOT
HETATM    1  F   UNL     1      -7.826   7.877  63.585  1.00  0.00    -0.116 F  
HETATM    2  C   UNL     1      -7.776   8.342  64.839  1.00  0.00    -0.106 A  
HETATM    3  C   UNL     1      -7.254   9.605  65.085  1.00  0.00    -0.115 A  
HETATM    4  C   UNL     1      -7.152  10.066  66.400  1.00  0.00    -0.102 A  
HETATM    5  C   UNL     1      -7.581   9.272  67.482  1.00  0.00    -0.088 A  
HETATM    6  C   UNL     1      -7.405   9.789  68.919  1.00  0.00    -0.073 C  
HETATM    7  C   UNL     1      -8.189   8.038  67.187  1.00  0.00    -0.117 A  
HETATM    8  C   UNL     1      -8.666  10.582  69.377  1.00  0.00    -0.093 C  
HETATM    9  C   UNL     1      -8.250   7.558  65.878  1.00  0.00    -0.134 A  
HETATM   10  C   UNL     1      -6.796   8.840  69.969  1.00  0.00    -0.042 A  
HETATM   11  C   UNL     1      -6.378   7.526  69.691  1.00  0.00    -0.031 A  
HETATM   12  C   UNL     1      -6.005   8.502  72.267  1.00  0.00    -0.067 A  
HETATM   13  F   UNL     1      -5.139   6.405  72.910  1.00  0.00    -0.028 F  
HETATM   14  C   UNL     1      -5.846   6.700  70.685  1.00  0.00    -0.024 A  
HETATM   15  C   UNL     1      -5.663   7.194  71.965  1.00  0.00    -0.037 A  
HETATM   16  C   UNL     1      -6.564   9.317  71.277  1.00  0.00    -0.057 A  
ENDROOT
BRANCH   8  17
HETATM   17  C   UNL     1     -10.023   9.855  69.372  1.00  0.00    -0.227 C  
BRANCH  17  18
HETATM   18  C   UNL     1     -11.132  10.458  70.245  1.00  0.00    -0.307 C  
BRANCH  18  19
HETATM   19  N   UNL     1     -11.360   9.763  71.511  1.00  0.00    -0.345 NA 
HETATM   20  C   UNL     1     -12.217   7.465  70.878  1.00  0.00    -0.265 C  
HETATM   21  C   UNL     1     -12.486   8.825  71.530  1.00  0.00    -0.326 C  
HETATM   22  C   UNL     1     -10.898   6.846  71.355  1.00  0.00    -0.228 C  
HETATM   23  C   UNL     1      -9.737   7.847  71.358  1.00  0.00    -0.199 C  
HETATM   24  N   UNL     1     -10.529   5.576  70.644  1.00  0.00    -0.266 NA 
HETATM   25  O   UNL     1     -11.528   6.927  73.776  1.00  0.00     0.428 OA 
HETATM   26  C   UNL     1     -10.131   9.156  72.044  1.00  0.00    -0.006 C  
HETATM   27  C   UNL     1     -10.270   4.511  71.603  1.00  0.00    -0.144 C  
HETATM   28  C   UNL     1     -11.106   6.329  72.799  1.00  0.00    -0.251 C  
HETATM   29  N   UNL     1     -10.717   5.020  72.844  1.00  0.00    -0.225 NA 
BRANCH  24  30
HETATM   30  C   UNL     1     -10.332   5.351  69.293  1.00  0.00    -0.251 A  
HETATM   31  C   UNL     1     -10.995   6.067  68.289  1.00  0.00    -0.347 A  
HETATM   32  C   UNL     1     -10.851   5.770  66.923  1.00  0.00    -0.337 A  
HETATM   33  C   UNL     1     -10.000   4.755  66.513  1.00  0.00    -0.262 A  
HETATM   34  C   UNL     1      -9.282   4.052  67.465  1.00  0.00    -0.194 A  
HETATM   35  C   UNL     1      -9.452   4.349  68.829  1.00  0.00    -0.227 A  
ENDBRANCH  24  30
ENDBRANCH  18  19
ENDBRANCH  17  18
ENDBRANCH   8  17
TORSDOF 4
ENDMDL
MODEL      173
REMARK 921   NORMALIZED FREE ENERGY PREDICTED BY IDOCK:   -3.48 KCAL/MOL
REMARK 922        TOTAL FREE ENERGY PREDICTED BY IDOCK:   -6.17 KCAL/MOL
REMARK 923 INTER-LIGAND FREE ENERGY PREDICTED BY IDOCK:   -6.17 KCAL/MOL
REMARK 924 INTRA-LIGAND FREE ENERGY PREDICTED BY IDOCK:   -0.00 KCAL/MOL
REMARK 927      BINDING AFFINITY PREDICTED BY RF-SCORE:    0.00 PKD
ROOT
HETATM    1  F   UNL     1      -6.084  12.773  70.758  1.00  0.00    -0.168 F  
HETATM    2  C   UNL     1      -6.510  13.589  69.785  1.00  0.00    -0.049 A  
HETATM    3  C   UNL     1      -6.631  13.109  68.489  1.00  0.00    -0.088 A  
HETATM    4  C   UNL     1      -7.022  13.976  67.465  1.00  0.00    -0.167 A  
HETATM    5  C   UNL     1      -7.305  15.330  67.732  1.00  0.00    -0.181 A  
HETATM    6  C   UNL     1      -7.681  16.269  66.572  1.00  0.00    -0.260 C  
HETATM    7  C   UNL     1      -7.261  15.757  69.071  1.00  0.00    -0.168 A  
HETATM    8  C   UNL     1      -9.225  16.288  66.359  1.00  0.00    -0.332 C  
HETATM    9  C   UNL     1      -6.828  14.903  70.086  1.00  0.00    -0.072 A  
HETATM   10  C   UNL     1      -6.977  17.636  66.481  1.00  0.00    -0.276 A  
HETATM   11  C   UNL     1      -5.998  18.078  67.390  1.00  0.00    -0.160 A  
HETATM   12  C   UNL     1      -6.642  19.732  65.249  1.00  0.00    -0.321 A  
HETATM   13  F   UNL     1      -5.142  21.351  66.081  1.00  0.00    -0.216 F  
HETATM   14  C   UNL     1      -5.401  19.336  67.271  1.00  0.00    -0.162 A  
HETATM   15  C   UNL     1      -5.727  20.153  66.201  1.00  0.00    -0.168 A  
HETATM   16  C   UNL     1      -7.258  18.484  65.388  1.00  0.00     0.118 A  
ENDROOT
BRANCH   8  17
HETATM   17  C   UNL     1     -10.116  16.723  67.536  1.00  0.00    -0.276 C  
BRANCH  17  18
HETATM   18  C   UNL     1     -10.157  15.788  68.752  1.00  0.00    -0.215 C  
BRANCH  18  19
HETATM   19  N   UNL     1     -11.282  16.013  69.659  1.00  0.00    -0.317 NA 
HETATM   20  C   UNL     1     -12.775  13.981  69.404  1.00  0.00     0.320 C  
HETATM   21  C   UNL     1     -12.577  15.488  69.212  1.00  0.00     0.215 C  
HETATM   22  C   UNL     1     -12.381  13.522  70.812  1.00  0.00    -0.363 C  
HETATM   23  C   UNL     1     -11.041  14.102  71.277  1.00  0.00     1.240 C  
HETATM   24  N   UNL     1     -12.434  12.033  71.004  1.00  0.00    -0.341 NA 
HETATM   25  O   UNL     1     -13.944  15.106  71.959  1.00  0.00    -0.426 OA 
HETATM   26  C   UNL     1     -10.974  15.611  71.039  1.00  0.00    -0.237 C  
HETATM   27  C   UNL     1     -13.256  11.695  72.158  1.00  0.00    -0.222 C  
HETATM   28  C   UNL     1     -13.485  13.987  71.793  1.00  0.00    -0.392 C  
HETATM   29  N   UNL     1     -13.905  12.901  72.510  1.00  0.00    -0.557 NA 
BRANCH  24  30
HETATM   30  C   UNL     1     -11.765  11.035  70.317  1.00  0.00    -0.355 A  
HETATM   31  C   UNL     1     -11.146   9.950  70.948  1.00  0.00    -0.418 A  
HETATM   32  C   UNL     1     -10.397   8.990  70.246  1.00  0.00    -0.243 A  
HETATM   33  C   UNL     1     -10.271   9.071  68.868  1.00  0.00    -0.223 A  
HETATM   34  C   UNL     1     -10.909  10.097  68.192  1.00  0.00    -0.310 A  
HETATM   35  C   UNL     1     -11.639  11.059  68.912  1.00  0.00    -0.383 A  
ENDBRANCH  24  30
ENDBRANCH  18  19
ENDBRANCH  17  18
ENDBRANCH   8  17
TORSDOF 4
ENDMDL
MODEL      174
REMARK 921   NORMALIZED FREE ENERGY PREDICTED BY IDOCK:   -3.48 KCAL/MOL
REMARK 922        TOTAL FREE ENERGY PREDICTED BY IDOCK:   -6.17 KCAL/MOL
REMARK 923 INTER-LIGAND FREE ENERGY PREDICTED BY IDOCK:   -5.54 KCAL/MOL
REMARK 924 INTRA-LIGAND FREE ENERGY PREDICTED BY IDOCK:   -0.63 KCAL/MOL
REMARK 927      BINDING AFFINITY PREDICTED BY RF-SCORE:    0.00 PKD
ROOT
HETATM    1  F   UNL     1     -12.124  13.809  62.458  1.00  0.00     0.124 F  
HETATM    2  C   UNL     1     -11.947  13.484  63.744  1.00  0.00    -0.422 A  
HETATM    3  C   UNL     1     -12.626  12.399  64.280  1.00  0.00    -0.494 A  
HETATM    4  C   UNL     1     -12.483  12.095  65.636  1.00  0.00     0.413 A  
HETATM    5  C   UNL     1     -11.648  12.868  66.467  1.00  0.00    -0.425 A  
HETATM    6  C   UNL     1     -11.554  12.538  67.967  1.00  0.00    -0.395 C  
HETATM    7  C   UNL     1     -10.905  13.902  65.869  1.00  0.00    -0.287 A  
HETATM    8  C   UNL     1     -10.399  11.527  68.235  1.00  0.00    -0.211 C  
HETATM    9  C   UNL     1     -11.082  14.234  64.525  1.00  0.00    -0.321 A  
HETATM   10  C   UNL     1     -11.681  13.691  68.979  1.00  0.00    -0.375 A  
HETATM   11  C   UNL     1     -11.891  15.035  68.617  1.00  0.00    -0.325 A  
HETATM   12  C   UNL     1     -11.786  14.407  71.324  1.00  0.00    -0.287 A  
HETATM   13  F   UNL     1     -12.035  16.695  71.839  1.00  0.00    -0.475 F  
HETATM   14  C   UNL     1     -11.983  16.047  69.577  1.00  0.00    -0.194 A  
HETATM   15  C   UNL     1     -11.931  15.725  70.923  1.00  0.00    -0.413 A  
HETATM   16  C   UNL     1     -11.665  13.400  70.360  1.00  0.00    -0.184 A  
ENDROOT
BRANCH   8  17
HETATM   17  C   UNL     1      -8.972  11.927  67.820  1.00  0.00    -0.173 C  
BRANCH  17  18
HETATM   18  C   UNL     1      -8.032  10.791  67.397  1.00  0.00    -0.112 C  
BRANCH  18  19
HETATM   19  N   UNL     1      -7.459  10.935  66.059  1.00  0.00    -0.124 NA 
HETATM   20  C   UNL     1      -5.445   9.400  66.014  1.00  0.00    -0.040 C  
HETATM   21  C   UNL     1      -6.000  10.827  65.975  1.00  0.00    -0.138 C  
HETATM   22  C   UNL     1      -6.184   8.466  65.050  1.00  0.00    -0.052 C  
HETATM   23  C   UNL     1      -7.708   8.611  65.129  1.00  0.00    -0.101 C  
HETATM   24  N   UNL     1      -5.762   7.028  65.151  1.00  0.00    -0.032 NA 
HETATM   25  O   UNL     1      -5.730   9.888  63.041  1.00  0.00    -0.092 OA 
HETATM   26  C   UNL     1      -8.131  10.080  65.070  1.00  0.00    -0.145 C  
HETATM   27  C   UNL     1      -5.378   6.515  63.843  1.00  0.00    -0.026 C  
HETATM   28  C   UNL     1      -5.731   8.809  63.610  1.00  0.00    -0.071 C  
HETATM   29  N   UNL     1      -5.308   7.655  63.010  1.00  0.00    -0.045 NA 
BRANCH  24  30
HETATM   30  C   UNL     1      -5.786   6.181  66.245  1.00  0.00    -0.017 A  
HETATM   31  C   UNL     1      -6.006   4.802  66.145  1.00  0.00    -0.023 A  
HETATM   32  C   UNL     1      -6.113   3.967  67.269  1.00  0.00    -0.025 A  
HETATM   33  C   UNL     1      -5.968   4.489  68.546  1.00  0.00    -0.026 A  
HETATM   34  C   UNL     1      -5.697   5.838  68.695  1.00  0.00    -0.012 A  
HETATM   35  C   UNL     1      -5.611   6.663  67.560  1.00  0.00    -0.012 A  
ENDBRANCH  24  30
ENDBRANCH  18  19
ENDBRANCH  17  18
ENDBRANCH   8  17
TORSDOF 4
ENDMDL
MODEL      175
REMARK 921   NORMALIZED FREE ENERGY PREDICTED BY IDOCK:   -3.46 KCAL/MOL
REMARK 922        TOTAL FREE ENERGY PREDICTED BY IDOCK:   -6.15 KCAL/MOL
REMARK 923 INTER-LIGAND FREE ENERGY PREDICTED BY IDOCK:   -5.29 KCAL/MOL
REMARK 924 INTRA-LIGAND FREE ENERGY PREDICTED BY IDOCK:   -0.86 KCAL/MOL
REMARK 927      BINDING AFFINITY PREDICTED BY RF-SCORE:    0.00 PKD
ROOT
HETATM    1  F   UNL     1     -14.263   9.519  72.906  1.00  0.00    -0.314 F  
HETATM    2  C   UNL     1     -13.282   8.992  72.163  1.00  0.00    -0.446 A  
HETATM    3  C   UNL     1     -13.549   7.903  71.344  1.00  0.00    -0.310 A  
HETATM    4  C   UNL     1     -12.512   7.320  70.611  1.00  0.00    -0.097 A  
HETATM    5  C   UNL     1     -11.199   7.827  70.683  1.00  0.00    -0.278 A  
HETATM    6  C   UNL     1     -10.072   7.128  69.905  1.00  0.00    -0.197 C  
HETATM    7  C   UNL     1     -10.987   8.986  71.451  1.00  0.00    -0.394 A  
HETATM    8  C   UNL     1      -9.922   7.744  68.481  1.00  0.00    -0.193 C  
HETATM    9  C   UNL     1     -12.012   9.542  72.217  1.00  0.00     0.020 A  
HETATM   10  C   UNL     1      -8.754   6.823  70.642  1.00  0.00    -0.143 A  
HETATM   11  C   UNL     1      -8.520   7.134  71.994  1.00  0.00    -0.113 A  
HETATM   12  C   UNL     1      -6.520   5.809  70.589  1.00  0.00    -0.032 A  
HETATM   13  F   UNL     1      -5.146   5.904  72.503  1.00  0.00    -0.018 F  
HETATM   14  C   UNL     1      -7.299   6.850  72.611  1.00  0.00    -0.082 A  
HETATM   15  C   UNL     1      -6.308   6.189  71.904  1.00  0.00    -0.046 A  
HETATM   16  C   UNL     1      -7.733   6.121  69.966  1.00  0.00    -0.097 A  
ENDROOT
BRANCH   8  17
HETATM   17  C   UNL     1      -9.618   9.248  68.369  1.00  0.00    -0.158 C  
BRANCH  17  18
HETATM   18  C   UNL     1     -10.760  10.150  67.883  1.00  0.00    -0.269 C  
BRANCH  18  19
HETATM   19  N   UNL     1     -10.683  10.530  66.474  1.00  0.00    -0.169 NA 
HETATM   20  C   UNL     1     -11.852  12.771  66.311  1.00  0.00    -0.485 C  
HETATM   21  C   UNL     1     -11.828  11.282  65.951  1.00  0.00     0.894 C  
HETATM   22  C   UNL     1     -10.503  13.451  66.049  1.00  0.00    -0.294 C  
HETATM   23  C   UNL     1      -9.315  12.638  66.574  1.00  0.00    -0.228 C  
HETATM   24  N   UNL     1     -10.442  14.879  66.510  1.00  0.00    -0.289 NA 
HETATM   25  O   UNL     1     -10.434  12.786  63.637  1.00  0.00    -0.382 OA 
HETATM   26  C   UNL     1      -9.404  11.175  66.139  1.00  0.00    -0.206 C  
HETATM   27  C   UNL     1     -10.010  15.748  65.423  1.00  0.00    -0.237 C  
HETATM   28  C   UNL     1     -10.344  13.625  64.519  1.00  0.00    -0.330 C  
HETATM   29  N   UNL     1     -10.058  14.937  64.266  1.00  0.00     0.619 NA 
BRANCH  24  30
HETATM   30  C   UNL     1     -10.642  15.403  67.774  1.00  0.00    -0.274 A  
HETATM   31  C   UNL     1     -11.813  15.200  68.515  1.00  0.00    -0.307 A  
HETATM   32  C   UNL     1     -12.038  15.809  69.761  1.00  0.00    -0.298 A  
HETATM   33  C   UNL     1     -11.071  16.625  70.327  1.00  0.00    -0.041 A  
HETATM   34  C   UNL     1      -9.875  16.815  69.657  1.00  0.00     0.121 A  
HETATM   35  C   UNL     1      -9.672  16.214  68.403  1.00  0.00    -0.219 A  
ENDBRANCH  24  30
ENDBRANCH  18  19
ENDBRANCH  17  18
ENDBRANCH   8  17
TORSDOF 4
ENDMDL
MODEL      176
REMARK 921   NORMALIZED FREE ENERGY PREDICTED BY IDOCK:   -3.43 KCAL/MOL
REMARK 922        TOTAL FREE ENERGY PREDICTED BY IDOCK:   -6.11 KCAL/MOL
REMARK 923 INTER-LIGAND FREE ENERGY PREDICTED BY IDOCK:   -4.91 KCAL/MOL
REMARK 924 INTRA-LIGAND FREE ENERGY PREDICTED BY IDOCK:   -1.20 KCAL/MOL
REMARK 927      BINDING AFFINITY PREDICTED BY RF-SCORE:    0.00 PKD
ROOT
HETATM    1  F   UNL     1      -9.081   5.435  73.324  1.00  0.00    -0.126 F  
HETATM    2  C   UNL     1      -9.280   5.672  72.021  1.00  0.00    -0.144 A  
HETATM    3  C   UNL     1     -10.054   4.797  71.272  1.00  0.00    -0.258 A  
HETATM    4  C   UNL     1     -10.214   5.016  69.901  1.00  0.00    -0.340 A  
HETATM    5  C   UNL     1      -9.609   6.120  69.269  1.00  0.00    -0.153 A  
HETATM    6  C   UNL     1      -9.762   6.301  67.749  1.00  0.00    -0.122 C  
HETATM    7  C   UNL     1      -8.909   7.034  70.076  1.00  0.00    -0.142 A  
HETATM    8  C   UNL     1     -11.014   7.170  67.422  1.00  0.00    -0.296 C  
HETATM    9  C   UNL     1      -8.711   6.792  71.436  1.00  0.00    -0.131 A  
HETATM   10  C   UNL     1      -8.501   6.609  66.918  1.00  0.00    -0.115 A  
HETATM   11  C   UNL     1      -7.209   6.722  67.464  1.00  0.00    -0.090 A  
HETATM   12  C   UNL     1      -7.497   6.980  64.710  1.00  0.00    -0.096 A  
HETATM   13  F   UNL     1      -5.185   7.413  64.535  1.00  0.00    -0.027 F  
HETATM   14  C   UNL     1      -6.100   7.019  66.667  1.00  0.00    -0.038 A  
HETATM   15  C   UNL     1      -6.252   7.145  65.296  1.00  0.00    -0.037 A  
HETATM   16  C   UNL     1      -8.610   6.712  65.515  1.00  0.00    -0.101 A  
ENDROOT
BRANCH   8  17
HETATM   17  C   UNL     1     -11.086   8.591  68.008  1.00  0.00     0.299 C  
BRANCH  17  18
HETATM   18  C   UNL     1     -10.588   9.733  67.112  1.00  0.00    -0.229 C  
BRANCH  18  19
HETATM   19  N   UNL     1      -9.148   9.727  66.856  1.00  0.00    -0.141 NA 
HETATM   20  C   UNL     1      -8.620  12.013  65.902  1.00  0.00     0.289 C  
HETATM   21  C   UNL     1      -8.704  10.498  65.691  1.00  0.00    -0.180 C  
HETATM   22  C   UNL     1      -7.880  12.377  67.195  1.00  0.00    -0.138 C  
HETATM   23  C   UNL     1      -8.335  11.541  68.397  1.00  0.00    -0.154 C  
HETATM   24  N   UNL     1      -7.889  13.845  67.509  1.00  0.00    -0.173 NA 
HETATM   25  O   UNL     1      -5.806  11.122  66.572  1.00  0.00    -0.113 OA 
HETATM   26  C   UNL     1      -8.367  10.050  68.059  1.00  0.00    -0.117 C  
HETATM   27  C   UNL     1      -6.532  14.330  67.724  1.00  0.00    -0.166 C  
HETATM   28  C   UNL     1      -6.369  12.130  66.967  1.00  0.00    -0.095 C  
HETATM   29  N   UNL     1      -5.695  13.272  67.300  1.00  0.00    -0.334 NA 
BRANCH  24  30
HETATM   30  C   UNL     1      -8.963  14.697  67.694  1.00  0.00    -0.187 A  
HETATM   31  C   UNL     1      -9.816  15.096  66.658  1.00  0.00    -0.265 A  
HETATM   32  C   UNL     1     -10.851  16.029  66.843  1.00  0.00    -0.203 A  
HETATM   33  C   UNL     1     -11.087  16.573  68.096  1.00  0.00    -0.303 A  
HETATM   34  C   UNL     1     -10.303  16.171  69.164  1.00  0.00    -0.259 A  
HETATM   35  C   UNL     1      -9.260  15.251  68.958  1.00  0.00    -0.223 A  
ENDBRANCH  24  30
ENDBRANCH  18  19
ENDBRANCH  17  18
ENDBRANCH   8  17
TORSDOF 4
ENDMDL
MODEL      177
REMARK 921   NORMALIZED FREE ENERGY PREDICTED BY IDOCK:   -3.37 KCAL/MOL
REMARK 922        TOTAL FREE ENERGY PREDICTED BY IDOCK:   -6.04 KCAL/MOL
REMARK 923 INTER-LIGAND FREE ENERGY PREDICTED BY IDOCK:   -6.00 KCAL/MOL
REMARK 924 INTRA-LIGAND FREE ENERGY PREDICTED BY IDOCK:   -0.04 KCAL/MOL
REMARK 927      BINDING AFFINITY PREDICTED BY RF-SCORE:    0.00 PKD
ROOT
HETATM    1  F   UNL     1     -11.196   8.032  72.636  1.00  0.00    -0.350 F  
HETATM    2  C   UNL     1     -10.794   7.490  71.479  1.00  0.00    -0.227 A  
HETATM    3  C   UNL     1     -11.737   7.019  70.576  1.00  0.00    -0.359 A  
HETATM    4  C   UNL     1     -11.315   6.404  69.394  1.00  0.00    -0.443 A  
HETATM    5  C   UNL     1      -9.944   6.266  69.099  1.00  0.00    -0.181 A  
HETATM    6  C   UNL     1      -9.514   5.537  67.815  1.00  0.00    -0.125 C  
HETATM    7  C   UNL     1      -9.021   6.838  69.994  1.00  0.00    -0.141 A  
HETATM    8  C   UNL     1      -9.369   6.544  66.634  1.00  0.00    -0.184 C  
HETATM    9  C   UNL     1      -9.441   7.412  71.195  1.00  0.00    -0.157 A  
HETATM   10  C   UNL     1      -8.413   4.464  67.916  1.00  0.00    -0.102 A  
HETATM   11  C   UNL     1      -7.781   4.098  69.119  1.00  0.00    -0.054 A  
HETATM   12  C   UNL     1      -7.066   2.745  66.798  1.00  0.00    -0.050 A  
HETATM   13  F   UNL     1      -5.474   1.520  68.032  1.00  0.00    -0.014 F  
HETATM   14  C   UNL     1      -6.775   3.129  69.153  1.00  0.00    -0.037 A  
HETATM   15  C   UNL     1      -6.426   2.459  67.993  1.00  0.00    -0.029 A  
HETATM   16  C   UNL     1      -8.052   3.737  66.762  1.00  0.00    -0.096 A  
ENDROOT
BRANCH   8  17
HETATM   17  C   UNL     1      -8.376   7.708  66.789  1.00  0.00    -0.125 C  
BRANCH  17  18
HETATM   18  C   UNL     1      -8.777   8.834  67.752  1.00  0.00    -0.136 C  
BRANCH  18  19
HETATM   19  N   UNL     1      -7.731   9.824  68.006  1.00  0.00    -0.083 NA 
HETATM   20  C   UNL     1      -7.995  11.571  66.191  1.00  0.00     0.093 C  
HETATM   21  C   UNL     1      -7.150  10.458  66.819  1.00  0.00    -0.105 C  
HETATM   22  C   UNL     1      -8.499  12.573  67.236  1.00  0.00    -0.185 C  
HETATM   23  C   UNL     1      -9.076  11.896  68.483  1.00  0.00    -0.123 C  
HETATM   24  N   UNL     1      -9.440  13.606  66.684  1.00  0.00    -0.275 NA 
HETATM   25  O   UNL     1      -6.206  13.120  68.078  1.00  0.00    -0.088 OA 
HETATM   26  C   UNL     1      -8.135  10.814  69.016  1.00  0.00    -0.140 C  
HETATM   27  C   UNL     1      -8.977  14.947  67.015  1.00  0.00    -0.236 C  
HETATM   28  C   UNL     1      -7.303  13.459  67.664  1.00  0.00    -0.168 C  
HETATM   29  N   UNL     1      -7.668  14.768  67.519  1.00  0.00    -0.179 NA 
BRANCH  24  30
HETATM   30  C   UNL     1     -10.648  13.435  66.032  1.00  0.00    -0.287 A  
HETATM   31  C   UNL     1     -11.838  14.045  66.444  1.00  0.00    -0.437 A  
HETATM   32  C   UNL     1     -13.074  13.794  65.824  1.00  0.00    -0.122 A  
HETATM   33  C   UNL     1     -13.151  12.938  64.736  1.00  0.00    -0.035 A  
HETATM   34  C   UNL     1     -11.992  12.351  64.258  1.00  0.00    -0.489 A  
HETATM   35  C   UNL     1     -10.767  12.597  64.902  1.00  0.00    -0.327 A  
ENDBRANCH  24  30
ENDBRANCH  18  19
ENDBRANCH  17  18
ENDBRANCH   8  17
TORSDOF 4
ENDMDL
MODEL      178
REMARK 921   NORMALIZED FREE ENERGY PREDICTED BY IDOCK:   -3.30 KCAL/MOL
REMARK 922        TOTAL FREE ENERGY PREDICTED BY IDOCK:   -5.95 KCAL/MOL
REMARK 923 INTER-LIGAND FREE ENERGY PREDICTED BY IDOCK:   -4.77 KCAL/MOL
REMARK 924 INTRA-LIGAND FREE ENERGY PREDICTED BY IDOCK:   -1.18 KCAL/MOL
REMARK 927      BINDING AFFINITY PREDICTED BY RF-SCORE:    0.00 PKD
ROOT
HETATM    1  F   UNL     1     -11.340   4.670  73.401  1.00  0.00    -0.330 F  
HETATM    2  C   UNL     1     -10.712   5.191  72.339  1.00  0.00    -0.216 A  
HETATM    3  C   UNL     1      -9.834   4.406  71.604  1.00  0.00    -0.255 A  
HETATM    4  C   UNL     1      -9.138   4.968  70.531  1.00  0.00    -0.180 A  
HETATM    5  C   UNL     1      -9.322   6.319  70.176  1.00  0.00    -0.165 A  
HETATM    6  C   UNL     1      -8.500   6.919  69.023  1.00  0.00    -0.128 C  
HETATM    7  C   UNL     1     -10.287   7.056  70.886  1.00  0.00    -0.214 A  
HETATM    8  C   UNL     1      -9.256   6.761  67.669  1.00  0.00    -0.118 C  
HETATM    9  C   UNL     1     -10.949   6.509  71.985  1.00  0.00    -0.283 A  
HETATM   10  C   UNL     1      -7.808   8.276  69.247  1.00  0.00    -0.108 A  
HETATM   11  C   UNL     1      -7.870   9.001  70.451  1.00  0.00    -0.121 A  
HETATM   12  C   UNL     1      -6.334  10.036  68.378  1.00  0.00    -0.049 A  
HETATM   13  F   UNL     1      -5.854  11.923  69.708  1.00  0.00    -0.074 F  
HETATM   14  C   UNL     1      -7.236  10.238  70.597  1.00  0.00     0.308 A  
HETATM   15  C   UNL     1      -6.472  10.745  69.559  1.00  0.00    -0.089 A  
HETATM   16  C   UNL     1      -6.994   8.811  68.225  1.00  0.00    -0.073 A  
ENDROOT
BRANCH   8  17
HETATM   17  C   UNL     1     -10.654   7.392  67.540  1.00  0.00    -0.340 C  
BRANCH  17  18
HETATM   18  C   UNL     1     -10.726   8.924  67.578  1.00  0.00    -0.152 C  
BRANCH  18  19
HETATM   19  N   UNL     1     -10.409   9.584  66.312  1.00  0.00    -0.209 NA 
HETATM   20  C   UNL     1     -11.871  11.652  66.241  1.00  0.00     0.182 C  
HETATM   21  C   UNL     1     -11.522  10.278  65.658  1.00  0.00     1.836 C  
HETATM   22  C   UNL     1     -10.629  12.530  66.432  1.00  0.00    -0.247 C  
HETATM   23  C   UNL     1      -9.464  11.782  67.089  1.00  0.00    -0.180 C  
HETATM   24  N   UNL     1     -10.907  13.835  67.122  1.00  0.00    -0.281 NA 
HETATM   25  O   UNL     1      -9.929  12.372  64.034  1.00  0.00    -0.313 OA 
HETATM   26  C   UNL     1      -9.213  10.434  66.411  1.00  0.00    -0.161 C  
HETATM   27  C   UNL     1     -10.400  14.949  66.333  1.00  0.00    -0.286 C  
HETATM   28  C   UNL     1     -10.173  13.023  65.037  1.00  0.00    -0.269 C  
HETATM   29  N   UNL     1     -10.061  14.385  65.081  1.00  0.00    -0.372 NA 
BRANCH  24  30
HETATM   30  C   UNL     1     -11.461  14.068  68.368  1.00  0.00    -0.306 A  
HETATM   31  C   UNL     1     -12.034  15.290  68.739  1.00  0.00    -0.279 A  
HETATM   32  C   UNL     1     -12.515  15.541  70.035  1.00  0.00    -0.293 A  
HETATM   33  C   UNL     1     -12.467  14.551  71.004  1.00  0.00    -0.412 A  
HETATM   34  C   UNL     1     -11.958  13.308  70.671  1.00  0.00    -0.268 A  
HETATM   35  C   UNL     1     -11.463  13.079  69.375  1.00  0.00    -0.323 A  
ENDBRANCH  24  30
ENDBRANCH  18  19
ENDBRANCH  17  18
ENDBRANCH   8  17
TORSDOF 4
ENDMDL
MODEL      179
REMARK 921   NORMALIZED FREE ENERGY PREDICTED BY IDOCK:   -3.27 KCAL/MOL
REMARK 922        TOTAL FREE ENERGY PREDICTED BY IDOCK:   -5.91 KCAL/MOL
REMARK 923 INTER-LIGAND FREE ENERGY PREDICTED BY IDOCK:   -5.08 KCAL/MOL
REMARK 924 INTRA-LIGAND FREE ENERGY PREDICTED BY IDOCK:   -0.83 KCAL/MOL
REMARK 927      BINDING AFFINITY PREDICTED BY RF-SCORE:    0.00 PKD
ROOT
HETATM    1  F   UNL     1     -13.680   7.368  70.479  1.00  0.00    -0.061 F  
HETATM    2  C   UNL     1     -12.381   7.083  70.322  1.00  0.00     0.096 A  
HETATM    3  C   UNL     1     -11.982   6.227  69.305  1.00  0.00     0.858 A  
HETATM    4  C   UNL     1     -10.633   5.887  69.178  1.00  0.00    -0.369 A  
HETATM    5  C   UNL     1      -9.667   6.412  70.060  1.00  0.00    -0.183 A  
HETATM    6  C   UNL     1      -8.199   5.976  69.923  1.00  0.00    -0.118 C  
HETATM    7  C   UNL     1     -10.097   7.348  71.018  1.00  0.00    -0.191 A  
HETATM    8  C   UNL     1      -7.427   6.936  68.969  1.00  0.00    -0.095 C  
HETATM    9  C   UNL     1     -11.449   7.652  71.175  1.00  0.00    -0.296 A  
HETATM   10  C   UNL     1      -7.442   5.547  71.194  1.00  0.00    -0.086 A  
HETATM   11  C   UNL     1      -8.016   5.517  72.478  1.00  0.00    -0.103 A  
HETATM   12  C   UNL     1      -5.383   4.669  72.201  1.00  0.00    -0.004 A  
HETATM   13  F   UNL     1      -5.272   4.333  74.532  1.00  0.00    -0.003 F  
HETATM   14  C   UNL     1      -7.280   5.135  73.603  1.00  0.00    -0.083 A  
HETATM   15  C   UNL     1      -5.969   4.713  73.455  1.00  0.00    -0.021 A  
HETATM   16  C   UNL     1      -6.115   5.080  71.081  1.00  0.00    -0.022 A  
ENDROOT
BRANCH   8  17
HETATM   17  C   UNL     1      -7.373   8.431  69.330  1.00  0.00    -0.070 C  
BRANCH  17  18
HETATM   18  C   UNL     1      -7.670   9.426  68.201  1.00  0.00    -0.083 C  
BRANCH  18  19
HETATM   19  N   UNL     1      -7.699   8.840  66.861  1.00  0.00    -0.094 NA 
HETATM   20  C   UNL     1      -9.917   9.544  65.860  1.00  0.00    -0.342 C  
HETATM   21  C   UNL     1      -9.016   8.417  66.377  1.00  0.00    -0.171 C  
HETATM   22  C   UNL     1      -9.179  10.475  64.892  1.00  0.00    -0.215 C  
HETATM   23  C   UNL     1      -7.791  10.884  65.398  1.00  0.00     0.078 C  
HETATM   24  N   UNL     1      -9.983  11.669  64.463  1.00  0.00    -0.250 NA 
HETATM   25  O   UNL     1      -8.529   8.629  63.331  1.00  0.00    -0.165 OA 
HETATM   26  C   UNL     1      -6.992   9.670  65.875  1.00  0.00    -0.097 C  
HETATM   27  C   UNL     1     -10.029  11.758  63.010  1.00  0.00    -0.239 C  
HETATM   28  C   UNL     1      -9.012   9.729  63.545  1.00  0.00    -0.244 C  
HETATM   29  N   UNL     1      -9.504  10.528  62.551  1.00  0.00    -0.278 NA 
BRANCH  24  30
HETATM   30  C   UNL     1     -10.558  12.663  65.234  1.00  0.00    -0.291 A  
HETATM   31  C   UNL     1     -10.261  14.023  65.083  1.00  0.00    -0.396 A  
HETATM   32  C   UNL     1     -10.786  15.014  65.929  1.00  0.00    -0.337 A  
HETATM   33  C   UNL     1     -11.664  14.672  66.946  1.00  0.00    -0.366 A  
HETATM   34  C   UNL     1     -12.030  13.347  67.103  1.00  0.00    -0.415 A  
HETATM   35  C   UNL     1     -11.481  12.365  66.260  1.00  0.00    -0.423 A  
ENDBRANCH  24  30
ENDBRANCH  18  19
ENDBRANCH  17  18
ENDBRANCH   8  17
TORSDOF 4
ENDMDL
MODEL      180
REMARK 921   NORMALIZED FREE ENERGY PREDICTED BY IDOCK:   -3.27 KCAL/MOL
REMARK 922        TOTAL FREE ENERGY PREDICTED BY IDOCK:   -5.91 KCAL/MOL
REMARK 923 INTER-LIGAND FREE ENERGY PREDICTED BY IDOCK:   -5.06 KCAL/MOL
REMARK 924 INTRA-LIGAND FREE ENERGY PREDICTED BY IDOCK:   -0.84 KCAL/MOL
REMARK 927      BINDING AFFINITY PREDICTED BY RF-SCORE:    0.00 PKD
ROOT
HETATM    1  F   UNL     1     -11.595  12.057  65.285  1.00  0.00    -0.374 F  
HETATM    2  C   UNL     1     -10.581  11.321  65.758  1.00  0.00    -0.248 A  
HETATM    3  C   UNL     1      -9.319  11.884  65.880  1.00  0.00    -0.193 A  
HETATM    4  C   UNL     1      -8.251  11.098  66.321  1.00  0.00    -0.153 A  
HETATM    5  C   UNL     1      -8.440   9.742  66.656  1.00  0.00    -0.126 A  
HETATM    6  C   UNL     1      -7.232   8.893  67.088  1.00  0.00    -0.083 C  
HETATM    7  C   UNL     1      -9.750   9.233  66.609  1.00  0.00    -0.281 A  
HETATM    8  C   UNL     1      -7.046   8.949  68.635  1.00  0.00    -0.071 C  
HETATM    9  C   UNL     1     -10.807  10.004  66.125  1.00  0.00     0.150 A  
HETATM   10  C   UNL     1      -7.045   7.507  66.443  1.00  0.00    -0.071 A  
HETATM   11  C   UNL     1      -7.907   6.971  65.469  1.00  0.00    -0.115 A  
HETATM   12  C   UNL     1      -5.682   5.479  66.213  1.00  0.00    -0.017 A  
HETATM   13  F   UNL     1      -6.387   3.753  64.769  1.00  0.00    -0.024 F  
HETATM   14  C   UNL     1      -7.701   5.699  64.927  1.00  0.00    -0.099 A  
HETATM   15  C   UNL     1      -6.590   4.964  65.302  1.00  0.00    -0.037 A  
HETATM   16  C   UNL     1      -5.908   6.740  66.776  1.00  0.00    -0.021 A  
ENDROOT
BRANCH   8  17
HETATM   17  C   UNL     1      -8.210   8.479  69.525  1.00  0.00    -0.116 C  
BRANCH  17  18
HETATM   18  C   UNL     1      -9.112   9.571  70.114  1.00  0.00    -0.240 C  
BRANCH  18  19
HETATM   19  N   UNL     1     -10.463   9.129  70.458  1.00  0.00    -0.218 NA 
HETATM   20  C   UNL     1     -10.425   6.605  70.249  1.00  0.00    -0.247 C  
HETATM   21  C   UNL     1     -10.952   7.949  69.737  1.00  0.00    -0.148 C  
HETATM   22  C   UNL     1     -10.539   6.481  71.772  1.00  0.00    -0.215 C  
HETATM   23  C   UNL     1     -10.053   7.734  72.510  1.00  0.00    -0.301 C  
HETATM   24  N   UNL     1      -9.915   5.235  72.331  1.00  0.00    -0.172 NA 
HETATM   25  O   UNL     1     -13.005   6.909  71.801  1.00  0.00    -0.363 OA 
HETATM   26  C   UNL     1     -10.657   9.004  71.910  1.00  0.00    -0.317 C  
HETATM   27  C   UNL     1     -10.871   4.511  73.157  1.00  0.00    -0.254 C  
HETATM   28  C   UNL     1     -12.029   6.251  72.123  1.00  0.00    -0.287 C  
HETATM   29  N   UNL     1     -12.115   5.135  72.909  1.00  0.00    -0.046 NA 
BRANCH  24  30
HETATM   30  C   UNL     1      -8.610   4.786  72.231  1.00  0.00    -0.120 A  
HETATM   31  C   UNL     1      -7.500   5.639  72.247  1.00  0.00    -0.099 A  
HETATM   32  C   UNL     1      -6.186   5.178  72.058  1.00  0.00    -0.034 A  
HETATM   33  C   UNL     1      -5.937   3.826  71.880  1.00  0.00    -0.013 A  
HETATM   34  C   UNL     1      -6.996   2.936  71.909  1.00  0.00    -0.030 A  
HETATM   35  C   UNL     1      -8.307   3.416  72.080  1.00  0.00    -0.078 A  
ENDBRANCH  24  30
ENDBRANCH  18  19
ENDBRANCH  17  18
ENDBRANCH   8  17
TORSDOF 4
ENDMDL
MODEL      181
REMARK 921   NORMALIZED FREE ENERGY PREDICTED BY IDOCK:   -3.26 KCAL/MOL
REMARK 922        TOTAL FREE ENERGY PREDICTED BY IDOCK:   -5.90 KCAL/MOL
REMARK 923 INTER-LIGAND FREE ENERGY PREDICTED BY IDOCK:   -8.22 KCAL/MOL
REMARK 924 INTRA-LIGAND FREE ENERGY PREDICTED BY IDOCK:    2.32 KCAL/MOL
REMARK 927      BINDING AFFINITY PREDICTED BY RF-SCORE:    0.00 PKD
ROOT
HETATM    1  F   UNL     1     -14.051  16.164  74.168  1.00  0.00     0.617 F  
HETATM    2  C   UNL     1     -13.652  15.415  73.132  1.00  0.00    -0.372 A  
HETATM    3  C   UNL     1     -14.409  15.390  71.969  1.00  0.00    -0.653 A  
HETATM    4  C   UNL     1     -14.020  14.565  70.910  1.00  0.00     0.027 A  
HETATM    5  C   UNL     1     -12.863  13.767  71.000  1.00  0.00    -0.376 A  
HETATM    6  C   UNL     1     -12.493  12.832  69.836  1.00  0.00    -0.016 C  
HETATM    7  C   UNL     1     -12.072  13.890  72.157  1.00  0.00     0.303 A  
HETATM    8  C   UNL     1     -11.561  13.559  68.822  1.00  0.00    -0.362 C  
HETATM    9  C   UNL     1     -12.483  14.678  73.232  1.00  0.00    -0.444 A  
HETATM   10  C   UNL     1     -12.119  11.373  70.160  1.00  0.00    -0.439 A  
HETATM   11  C   UNL     1     -12.105  10.836  71.461  1.00  0.00    -0.201 A  
HETATM   12  C   UNL     1     -11.506   9.144  69.337  1.00  0.00     0.304 A  
HETATM   13  F   UNL     1     -11.113   7.397  70.872  1.00  0.00    -0.248 F  
HETATM   14  C   UNL     1     -11.741   9.508  71.702  1.00  0.00    -0.460 A  
HETATM   15  C   UNL     1     -11.445   8.672  70.638  1.00  0.00    -0.228 A  
HETATM   16  C   UNL     1     -11.842  10.482  69.102  1.00  0.00    -0.218 A  
ENDROOT
BRANCH   8  17
HETATM   17  C   UNL     1     -10.220  14.114  69.335  1.00  0.00     0.120 C  
BRANCH  17  18
HETATM   18  C   UNL     1      -9.426  15.004  68.370  1.00  0.00    -0.201 C  
BRANCH  18  19
HETATM   19  N   UNL     1     -10.239  15.720  67.388  1.00  0.00    -0.265 NA 
HETATM   20  C   UNL     1      -9.694  14.659  65.153  1.00  0.00     0.003 C  
HETATM   21  C   UNL     1      -9.636  15.891  66.063  1.00  0.00    -0.350 C  
HETATM   22  C   UNL     1     -11.094  14.036  65.113  1.00  0.00    -0.341 C  
HETATM   23  C   UNL     1     -11.723  13.892  66.503  1.00  0.00    -0.414 C  
HETATM   24  N   UNL     1     -11.167  12.751  64.339  1.00  0.00    -0.327 NA 
HETATM   25  O   UNL     1     -12.208  16.149  64.366  1.00  0.00    -0.311 OA 
HETATM   26  C   UNL     1     -11.608  15.190  67.304  1.00  0.00    -0.223 C  
HETATM   27  C   UNL     1     -12.211  12.823  63.325  1.00  0.00    -0.410 C  
HETATM   28  C   UNL     1     -12.001  14.952  64.255  1.00  0.00    -0.338 C  
HETATM   29  N   UNL     1     -12.592  14.185  63.290  1.00  0.00    -0.594 NA 
BRANCH  24  30
HETATM   30  C   UNL     1     -10.472  11.570  64.530  1.00  0.00    -0.314 A  
HETATM   31  C   UNL     1     -10.364  10.934  65.772  1.00  0.00    -0.303 A  
HETATM   32  C   UNL     1      -9.584   9.782  65.970  1.00  0.00    -0.296 A  
HETATM   33  C   UNL     1      -8.905   9.205  64.907  1.00  0.00    -0.215 A  
HETATM   34  C   UNL     1      -9.022   9.768  63.648  1.00  0.00    -0.270 A  
HETATM   35  C   UNL     1      -9.792  10.931  63.471  1.00  0.00    -0.407 A  
ENDBRANCH  24  30
ENDBRANCH  18  19
ENDBRANCH  17  18
ENDBRANCH   8  17
TORSDOF 4
ENDMDL
MODEL      182
REMARK 921   NORMALIZED FREE ENERGY PREDICTED BY IDOCK:   -3.25 KCAL/MOL
REMARK 922        TOTAL FREE ENERGY PREDICTED BY IDOCK:   -5.88 KCAL/MOL
REMARK 923 INTER-LIGAND FREE ENERGY PREDICTED BY IDOCK:   -4.53 KCAL/MOL
REMARK 924 INTRA-LIGAND FREE ENERGY PREDICTED BY IDOCK:   -1.35 KCAL/MOL
REMARK 927      BINDING AFFINITY PREDICTED BY RF-SCORE:    0.00 PKD
ROOT
HETATM    1  F   UNL     1     -13.303   7.890  72.183  1.00  0.00    -0.299 F  
HETATM    2  C   UNL     1     -12.032   8.114  71.828  1.00  0.00    -0.305 A  
HETATM    3  C   UNL     1     -11.052   8.217  72.805  1.00  0.00    -0.407 A  
HETATM    4  C   UNL     1      -9.736   8.507  72.436  1.00  0.00    -0.357 A  
HETATM    5  C   UNL     1      -9.386   8.686  71.083  1.00  0.00    -0.274 A  
HETATM    6  C   UNL     1      -7.938   9.056  70.717  1.00  0.00    -0.172 C  
HETATM    7  C   UNL     1     -10.387   8.483  70.116  1.00  0.00    -0.214 A  
HETATM    8  C   UNL     1      -7.090   7.773  70.466  1.00  0.00    -0.047 C  
HETATM    9  C   UNL     1     -11.709   8.238  70.486  1.00  0.00    -0.067 A  
HETATM   10  C   UNL     1      -7.708  10.213  69.727  1.00  0.00    -0.176 A  
HETATM   11  C   UNL     1      -8.743  10.966  69.143  1.00  0.00    -0.055 A  
HETATM   12  C   UNL     1      -6.119  11.664  68.546  1.00  0.00    -0.050 A  
HETATM   13  F   UNL     1      -6.921  13.337  67.090  1.00  0.00    -0.162 F  
HETATM   14  C   UNL     1      -8.480  11.997  68.237  1.00  0.00    -0.167 A  
HETATM   15  C   UNL     1      -7.170  12.338  67.946  1.00  0.00    -0.106 A  
HETATM   16  C   UNL     1      -6.387  10.613  69.430  1.00  0.00    -0.060 A  
ENDROOT
BRANCH   8  17
HETATM   17  C   UNL     1      -7.549   6.802  69.364  1.00  0.00    -0.096 C  
BRANCH  17  18
HETATM   18  C   UNL     1      -6.529   6.468  68.268  1.00  0.00    -0.049 C  
BRANCH  18  19
HETATM   19  N   UNL     1      -6.265   7.555  67.326  1.00  0.00    -0.050 NA 
HETATM   20  C   UNL     1      -5.886   6.433  65.086  1.00  0.00    -0.022 C  
HETATM   21  C   UNL     1      -5.317   7.251  66.250  1.00  0.00    -0.024 C  
HETATM   22  C   UNL     1      -7.221   6.994  64.584  1.00  0.00    -0.073 C  
HETATM   23  C   UNL     1      -8.191   7.335  65.722  1.00  0.00    -0.135 C  
HETATM   24  N   UNL     1      -7.881   6.148  63.533  1.00  0.00    -0.108 NA 
HETATM   25  O   UNL     1      -6.295   9.274  64.125  1.00  0.00    -0.082 OA 
HETATM   26  C   UNL     1      -7.503   8.159  66.811  1.00  0.00    -0.090 C  
HETATM   27  C   UNL     1      -8.193   6.948  62.356  1.00  0.00    -0.063 C  
HETATM   28  C   UNL     1      -6.926   8.287  63.785  1.00  0.00    -0.080 C  
HETATM   29  N   UNL     1      -7.519   8.174  62.558  1.00  0.00    -0.103 NA 
BRANCH  24  30
HETATM   30  C   UNL     1      -8.276   4.824  63.592  1.00  0.00    -0.112 A  
HETATM   31  C   UNL     1      -9.168   4.329  64.551  1.00  0.00    -0.155 A  
HETATM   32  C   UNL     1      -9.494   2.967  64.653  1.00  0.00    -0.149 A  
HETATM   33  C   UNL     1      -8.956   2.049  63.764  1.00  0.00    -0.092 A  
HETATM   34  C   UNL     1      -8.110   2.496  62.765  1.00  0.00    -0.069 A  
HETATM   35  C   UNL     1      -7.778   3.861  62.688  1.00  0.00    -0.061 A  
ENDBRANCH  24  30
ENDBRANCH  18  19
ENDBRANCH  17  18
ENDBRANCH   8  17
TORSDOF 4
ENDMDL
MODEL      183
REMARK 921   NORMALIZED FREE ENERGY PREDICTED BY IDOCK:   -3.19 KCAL/MOL
REMARK 922        TOTAL FREE ENERGY PREDICTED BY IDOCK:   -5.81 KCAL/MOL
REMARK 923 INTER-LIGAND FREE ENERGY PREDICTED BY IDOCK:   -6.31 KCAL/MOL
REMARK 924 INTRA-LIGAND FREE ENERGY PREDICTED BY IDOCK:    0.50 KCAL/MOL
REMARK 927      BINDING AFFINITY PREDICTED BY RF-SCORE:    0.00 PKD
ROOT
HETATM    1  F   UNL     1     -14.364   9.588  72.794  1.00  0.00    -0.332 F  
HETATM    2  C   UNL     1     -13.415   8.760  72.340  1.00  0.00    -0.401 A  
HETATM    3  C   UNL     1     -13.687   7.406  72.208  1.00  0.00     0.056 A  
HETATM    4  C   UNL     1     -12.678   6.536  71.787  1.00  0.00    -0.186 A  
HETATM    5  C   UNL     1     -11.389   7.015  71.483  1.00  0.00    -0.290 A  
HETATM    6  C   UNL     1     -10.287   6.023  71.073  1.00  0.00    -0.270 C  
HETATM    7  C   UNL     1     -11.177   8.405  71.540  1.00  0.00    -0.328 A  
HETATM    8  C   UNL     1     -10.266   5.833  69.526  1.00  0.00    -0.306 C  
HETATM    9  C   UNL     1     -12.171   9.268  72.003  1.00  0.00    -0.418 A  
HETATM   10  C   UNL     1      -8.909   6.139  71.750  1.00  0.00    -0.138 A  
HETATM   11  C   UNL     1      -8.596   7.094  72.735  1.00  0.00    -0.134 A  
HETATM   12  C   UNL     1      -6.639   5.249  72.030  1.00  0.00    -0.051 A  
HETATM   13  F   UNL     1      -5.141   6.307  73.512  1.00  0.00    -0.028 F  
HETATM   14  C   UNL     1      -7.322   7.168  73.307  1.00  0.00    -0.078 A  
HETATM   15  C   UNL     1      -6.354   6.244  72.950  1.00  0.00    -0.063 A  
HETATM   16  C   UNL     1      -7.906   5.197  71.438  1.00  0.00    -0.107 A  
ENDROOT
BRANCH   8  17
HETATM   17  C   UNL     1     -10.040   7.074  68.645  1.00  0.00    -0.168 C  
BRANCH  17  18
HETATM   18  C   UNL     1      -8.808   7.932  68.964  1.00  0.00    -0.145 C  
BRANCH  18  19
HETATM   19  N   UNL     1      -9.109   9.261  69.496  1.00  0.00    -0.152 NA 
HETATM   20  C   UNL     1      -8.162  10.896  67.808  1.00  0.00    -0.116 C  
HETATM   21  C   UNL     1      -8.112  10.300  69.219  1.00  0.00    -0.155 C  
HETATM   22  C   UNL     1      -9.586  11.289  67.398  1.00  0.00    -0.169 C  
HETATM   23  C   UNL     1     -10.621  10.206  67.721  1.00  0.00    -0.304 C  
HETATM   24  N   UNL     1      -9.702  11.756  65.975  1.00  0.00    -0.227 NA 
HETATM   25  O   UNL     1      -9.929  12.797  69.366  1.00  0.00     0.463 OA 
HETATM   26  C   UNL     1     -10.470   9.702  69.157  1.00  0.00    -0.214 C  
HETATM   27  C   UNL     1     -10.349  13.059  65.916  1.00  0.00    -0.288 C  
HETATM   28  C   UNL     1      -9.967  12.578  68.166  1.00  0.00    -0.224 C  
HETATM   29  N   UNL     1     -10.393  13.507  67.257  1.00  0.00    -0.241 NA 
BRANCH  24  30
HETATM   30  C   UNL     1      -9.375  11.094  64.804  1.00  0.00    -0.185 A  
HETATM   31  C   UNL     1      -8.418  10.075  64.739  1.00  0.00    -0.180 A  
HETATM   32  C   UNL     1      -8.034   9.471  63.530  1.00  0.00    -0.139 A  
HETATM   33  C   UNL     1      -8.628   9.853  62.336  1.00  0.00    -0.200 A  
HETATM   34  C   UNL     1      -9.617  10.821  62.356  1.00  0.00    -0.172 A  
HETATM   35  C   UNL     1      -9.977  11.428  63.572  1.00  0.00    -0.424 A  
ENDBRANCH  24  30
ENDBRANCH  18  19
ENDBRANCH  17  18
ENDBRANCH   8  17
TORSDOF 4
ENDMDL
MODEL      184
REMARK 921   NORMALIZED FREE ENERGY PREDICTED BY IDOCK:   -3.17 KCAL/MOL
REMARK 922        TOTAL FREE ENERGY PREDICTED BY IDOCK:   -5.79 KCAL/MOL
REMARK 923 INTER-LIGAND FREE ENERGY PREDICTED BY IDOCK:   -5.84 KCAL/MOL
REMARK 924 INTRA-LIGAND FREE ENERGY PREDICTED BY IDOCK:    0.06 KCAL/MOL
REMARK 927      BINDING AFFINITY PREDICTED BY RF-SCORE:    0.00 PKD
ROOT
HETATM    1  F   UNL     1     -11.660   5.184  73.242  1.00  0.00    -0.357 F  
HETATM    2  C   UNL     1     -11.342   5.974  72.209  1.00  0.00    -0.303 A  
HETATM    3  C   UNL     1     -12.286   6.853  71.698  1.00  0.00    -0.413 A  
HETATM    4  C   UNL     1     -11.971   7.636  70.585  1.00  0.00    -0.122 A  
HETATM    5  C   UNL     1     -10.701   7.555  69.979  1.00  0.00    -0.248 A  
HETATM    6  C   UNL     1     -10.406   8.392  68.723  1.00  0.00    -0.225 C  
HETATM    7  C   UNL     1      -9.741   6.722  70.580  1.00  0.00    -0.180 A  
HETATM    8  C   UNL     1      -9.810   9.778  69.114  1.00  0.00    -0.192 C  
HETATM    9  C   UNL     1     -10.070   5.907  71.664  1.00  0.00    -0.233 A  
HETATM   10  C   UNL     1      -9.743   7.696  67.519  1.00  0.00    -0.197 A  
HETATM   11  C   UNL     1      -9.400   6.332  67.492  1.00  0.00    -0.113 A  
HETATM   12  C   UNL     1      -8.935   7.847  65.207  1.00  0.00     0.125 A  
HETATM   13  F   UNL     1      -7.982   5.953  64.175  1.00  0.00    -0.098 F  
HETATM   14  C   UNL     1      -8.784   5.753  66.378  1.00  0.00    -0.128 A  
HETATM   15  C   UNL     1      -8.557   6.515  65.244  1.00  0.00    -0.028 A  
HETATM   16  C   UNL     1      -9.525   8.430  66.334  1.00  0.00    -0.293 A  
ENDROOT
BRANCH   8  17
HETATM   17  C   UNL     1      -8.507   9.804  69.933  1.00  0.00    -0.217 C  
BRANCH  17  18
HETATM   18  C   UNL     1      -7.304   9.059  69.340  1.00  0.00    -0.075 C  
BRANCH  18  19
HETATM   19  N   UNL     1      -6.357   9.904  68.616  1.00  0.00    -0.046 NA 
HETATM   20  C   UNL     1      -7.776  11.478  67.228  1.00  0.00    -0.150 C  
HETATM   21  C   UNL     1      -6.772  10.322  67.273  1.00  0.00    -0.073 C  
HETATM   22  C   UNL     1      -7.355  12.645  68.129  1.00  0.00    -0.112 C  
HETATM   23  C   UNL     1      -6.896  12.189  69.519  1.00  0.00     0.044 C  
HETATM   24  N   UNL     1      -8.375  13.744  68.218  1.00  0.00    -0.156 NA 
HETATM   25  O   UNL     1      -5.128  12.930  67.024  1.00  0.00    -0.328 OA 
HETATM   26  C   UNL     1      -5.891  11.040  69.425  1.00  0.00    -0.046 C  
HETATM   27  C   UNL     1      -7.771  15.028  67.891  1.00  0.00    -0.134 C  
HETATM   28  C   UNL     1      -6.181  13.383  67.440  1.00  0.00     0.048 C  
HETATM   29  N   UNL     1      -6.499  14.710  67.362  1.00  0.00    -0.309 NA 
BRANCH  24  30
HETATM   30  C   UNL     1      -9.693  13.687  68.635  1.00  0.00    -0.116 A  
HETATM   31  C   UNL     1     -10.281  14.653  69.460  1.00  0.00    -0.040 A  
HETATM   32  C   UNL     1     -11.595  14.539  69.945  1.00  0.00    -0.340 A  
HETATM   33  C   UNL     1     -12.381  13.455  69.588  1.00  0.00    -0.187 A  
HETATM   34  C   UNL     1     -11.862  12.499  68.732  1.00  0.00    -0.347 A  
HETATM   35  C   UNL     1     -10.540  12.619  68.270  1.00  0.00    -0.250 A  
ENDBRANCH  24  30
ENDBRANCH  18  19
ENDBRANCH  17  18
ENDBRANCH   8  17
TORSDOF 4
ENDMDL
MODEL      185
REMARK 921   NORMALIZED FREE ENERGY PREDICTED BY IDOCK:   -3.07 KCAL/MOL
REMARK 922        TOTAL FREE ENERGY PREDICTED BY IDOCK:   -5.66 KCAL/MOL
REMARK 923 INTER-LIGAND FREE ENERGY PREDICTED BY IDOCK:   -4.31 KCAL/MOL
REMARK 924 INTRA-LIGAND FREE ENERGY PREDICTED BY IDOCK:   -1.35 KCAL/MOL
REMARK 927      BINDING AFFINITY PREDICTED BY RF-SCORE:    0.00 PKD
ROOT
HETATM    1  F   UNL     1     -12.882  10.586  70.019  1.00  0.00    -0.367 F  
HETATM    2  C   UNL     1     -11.691  10.722  69.422  1.00  0.00    -0.306 A  
HETATM    3  C   UNL     1     -11.175  11.990  69.194  1.00  0.00    -0.305 A  
HETATM    4  C   UNL     1      -9.959  12.132  68.521  1.00  0.00    -0.180 A  
HETATM    5  C   UNL     1      -9.241  11.003  68.079  1.00  0.00    -0.159 A  
HETATM    6  C   UNL     1      -7.931  11.197  67.295  1.00  0.00    -0.137 C  
HETATM    7  C   UNL     1      -9.748   9.734  68.409  1.00  0.00    -0.162 A  
HETATM    8  C   UNL     1      -6.711  11.233  68.264  1.00  0.00    -0.059 C  
HETATM    9  C   UNL     1     -10.985   9.593  69.041  1.00  0.00    -0.161 A  
HETATM   10  C   UNL     1      -7.730  10.391  65.998  1.00  0.00    -0.136 A  
HETATM   11  C   UNL     1      -8.679   9.493  65.475  1.00  0.00    -0.180 A  
HETATM   12  C   UNL     1      -6.335   9.907  64.038  1.00  0.00    -0.126 A  
HETATM   13  F   UNL     1      -7.050   8.309  62.459  1.00  0.00    -0.088 F  
HETATM   14  C   UNL     1      -8.439   8.774  64.301  1.00  0.00    -0.130 A  
HETATM   15  C   UNL     1      -7.269   8.987  63.591  1.00  0.00    -0.093 A  
HETATM   16  C   UNL     1      -6.566  10.604  65.229  1.00  0.00     0.006 A  
ENDROOT
BRANCH   8  17
HETATM   17  C   UNL     1      -6.464  10.013  69.169  1.00  0.00    -0.048 C  
BRANCH  17  18
HETATM   18  C   UNL     1      -7.112  10.042  70.559  1.00  0.00    -0.068 C  
BRANCH  18  19
HETATM   19  N   UNL     1      -6.538   9.103  71.522  1.00  0.00    -0.214 NA 
HETATM   20  C   UNL     1      -8.076   7.090  71.506  1.00  0.00    -0.104 C  
HETATM   21  C   UNL     1      -7.499   8.287  72.269  1.00  0.00    -0.117 C  
HETATM   22  C   UNL     1      -6.985   6.267  70.812  1.00  0.00    -0.068 C  
HETATM   23  C   UNL     1      -5.970   7.136  70.060  1.00  0.00    -0.024 C  
HETATM   24  N   UNL     1      -7.514   5.162  69.945  1.00  0.00    -0.060 NA 
HETATM   25  O   UNL     1      -5.703   5.857  72.922  1.00  0.00    -0.034 OA 
HETATM   26  C   UNL     1      -5.466   8.286  70.933  1.00  0.00    -0.029 C  
HETATM   27  C   UNL     1      -6.906   3.890  70.310  1.00  0.00    -0.034 C  
HETATM   28  C   UNL     1      -6.232   5.459  71.898  1.00  0.00    -0.034 C  
HETATM   29  N   UNL     1      -6.229   4.144  71.525  1.00  0.00    -0.017 NA 
BRANCH  24  30
HETATM   30  C   UNL     1      -8.375   5.230  68.863  1.00  0.00    -0.092 A  
HETATM   31  C   UNL     1      -9.769   5.242  68.989  1.00  0.00    -0.217 A  
HETATM   32  C   UNL     1     -10.632   5.225  67.880  1.00  0.00    -0.098 A  
HETATM   33  C   UNL     1     -10.117   5.228  66.593  1.00  0.00    -0.259 A  
HETATM   34  C   UNL     1      -8.745   5.268  66.416  1.00  0.00    -0.118 A  
HETATM   35  C   UNL     1      -7.896   5.266  67.536  1.00  0.00    -0.096 A  
ENDBRANCH  24  30
ENDBRANCH  18  19
ENDBRANCH  17  18
ENDBRANCH   8  17
TORSDOF 4
ENDMDL
MODEL      186
REMARK 921   NORMALIZED FREE ENERGY PREDICTED BY IDOCK:   -3.00 KCAL/MOL
REMARK 922        TOTAL FREE ENERGY PREDICTED BY IDOCK:   -5.58 KCAL/MOL
REMARK 923 INTER-LIGAND FREE ENERGY PREDICTED BY IDOCK:   -3.89 KCAL/MOL
REMARK 924 INTRA-LIGAND FREE ENERGY PREDICTED BY IDOCK:   -1.69 KCAL/MOL
REMARK 927      BINDING AFFINITY PREDICTED BY RF-SCORE:    0.00 PKD
ROOT
HETATM    1  F   UNL     1      -5.742   8.824  74.543  1.00  0.00    -0.096 F  
HETATM    2  C   UNL     1      -6.080   8.715  73.252  1.00  0.00    -0.091 A  
HETATM    3  C   UNL     1      -5.135   8.972  72.269  1.00  0.00    -0.053 A  
HETATM    4  C   UNL     1      -5.505   8.912  70.923  1.00  0.00    -0.029 A  
HETATM    5  C   UNL     1      -6.822   8.580  70.547  1.00  0.00    -0.039 A  
HETATM    6  C   UNL     1      -7.207   8.574  69.058  1.00  0.00    -0.073 C  
HETATM    7  C   UNL     1      -7.726   8.236  71.568  1.00  0.00    -0.114 A  
HETATM    8  C   UNL     1      -6.984   7.161  68.439  1.00  0.00    -0.076 C  
HETATM    9  C   UNL     1      -7.370   8.340  72.913  1.00  0.00    -0.146 A  
HETATM   10  C   UNL     1      -8.503   9.292  68.635  1.00  0.00    -0.123 A  
HETATM   11  C   UNL     1      -9.354   9.967  69.529  1.00  0.00    -0.247 A  
HETATM   12  C   UNL     1      -9.998  10.002  66.824  1.00  0.00    -0.267 A  
HETATM   13  F   UNL     1     -11.957  11.213  67.332  1.00  0.00    -0.251 F  
HETATM   14  C   UNL     1     -10.528  10.589  69.095  1.00  0.00    -0.250 A  
HETATM   15  C   UNL     1     -10.841  10.603  67.746  1.00  0.00    -0.286 A  
HETATM   16  C   UNL     1      -8.839   9.355  67.266  1.00  0.00    -0.136 A  
ENDROOT
BRANCH   8  17
HETATM   17  C   UNL     1      -7.738   5.970  69.056  1.00  0.00    -0.092 C  
BRANCH  17  18
HETATM   18  C   UNL     1      -9.207   5.797  68.650  1.00  0.00    -0.118 C  
BRANCH  18  19
HETATM   19  N   UNL     1      -9.465   4.675  67.749  1.00  0.00    -0.144 NA 
HETATM   20  C   UNL     1      -9.936   5.715  65.487  1.00  0.00     0.360 C  
HETATM   21  C   UNL     1     -10.450   4.919  66.691  1.00  0.00    -0.219 C  
HETATM   22  C   UNL     1      -8.599   5.174  64.966  1.00  0.00    -0.151 C  
HETATM   23  C   UNL     1      -7.591   4.896  66.086  1.00  0.00    -0.091 C  
HETATM   24  N   UNL     1      -7.993   6.004  63.871  1.00  0.00    -0.119 NA 
HETATM   25  O   UNL     1      -9.474   2.857  64.604  1.00  0.00    -0.150 OA 
HETATM   26  C   UNL     1      -8.225   4.088  67.219  1.00  0.00    -0.099 C  
HETATM   27  C   UNL     1      -7.689   5.176  62.711  1.00  0.00    -0.071 C  
HETATM   28  C   UNL     1      -8.880   3.849  64.215  1.00  0.00    -0.124 C  
HETATM   29  N   UNL     1      -8.323   3.939  62.970  1.00  0.00    -0.084 NA 
BRANCH  24  30
HETATM   30  C   UNL     1      -7.633   7.340  63.878  1.00  0.00    -0.110 A  
HETATM   31  C   UNL     1      -8.422   8.352  63.321  1.00  0.00    -0.008 A  
HETATM   32  C   UNL     1      -8.006   9.693  63.259  1.00  0.00    -0.143 A  
HETATM   33  C   UNL     1      -6.782  10.071  63.790  1.00  0.00    -0.128 A  
HETATM   34  C   UNL     1      -5.988   9.115  64.399  1.00  0.00    -0.070 A  
HETATM   35  C   UNL     1      -6.411   7.775  64.436  1.00  0.00    -0.052 A  
ENDBRANCH  24  30
ENDBRANCH  18  19
ENDBRANCH  17  18
ENDBRANCH   8  17
TORSDOF 4
ENDMDL
MODEL      187
REMARK 921   NORMALIZED FREE ENERGY PREDICTED BY IDOCK:   -2.99 KCAL/MOL
REMARK 922        TOTAL FREE ENERGY PREDICTED BY IDOCK:   -5.57 KCAL/MOL
REMARK 923 INTER-LIGAND FREE ENERGY PREDICTED BY IDOCK:   -4.26 KCAL/MOL
REMARK 924 INTRA-LIGAND FREE ENERGY PREDICTED BY IDOCK:   -1.31 KCAL/MOL
REMARK 927      BINDING AFFINITY PREDICTED BY RF-SCORE:    0.00 PKD
ROOT
HETATM    1  F   UNL     1      -9.171   8.816  64.124  1.00  0.00    -0.032 F  
HETATM    2  C   UNL     1      -8.541   8.435  65.242  1.00  0.00    -0.150 A  
HETATM    3  C   UNL     1      -7.340   9.034  65.595  1.00  0.00    -0.086 A  
HETATM    4  C   UNL     1      -6.656   8.596  66.732  1.00  0.00    -0.061 A  
HETATM    5  C   UNL     1      -7.174   7.560  67.534  1.00  0.00    -0.090 A  
HETATM    6  C   UNL     1      -6.370   7.066  68.748  1.00  0.00    -0.028 C  
HETATM    7  C   UNL     1      -8.438   7.041  67.197  1.00  0.00    -0.121 A  
HETATM    8  C   UNL     1      -6.764   7.863  70.029  1.00  0.00    -0.041 C  
HETATM    9  C   UNL     1      -9.099   7.447  66.037  1.00  0.00    -0.129 A  
HETATM   10  C   UNL     1      -6.186   5.549  68.936  1.00  0.00    -0.033 A  
HETATM   11  C   UNL     1      -6.700   4.580  68.055  1.00  0.00    -0.051 A  
HETATM   12  C   UNL     1      -5.186   3.711  70.219  1.00  0.00    -0.004 A  
HETATM   13  F   UNL     1      -5.577   1.479  69.564  1.00  0.00    -0.014 F  
HETATM   14  C   UNL     1      -6.518   3.213  68.280  1.00  0.00    -0.036 A  
HETATM   15  C   UNL     1      -5.762   2.789  69.360  1.00  0.00    -0.022 A  
HETATM   16  C   UNL     1      -5.395   5.078  70.006  1.00  0.00    -0.004 A  
ENDROOT
BRANCH   8  17
HETATM   17  C   UNL     1      -8.235   7.832  70.480  1.00  0.00    -0.120 C  
BRANCH  17  18
HETATM   18  C   UNL     1      -8.763   6.499  71.024  1.00  0.00    -0.138 C  
BRANCH  18  19
HETATM   19  N   UNL     1      -9.994   6.601  71.806  1.00  0.00    -0.176 NA 
HETATM   20  C   UNL     1     -10.509   9.077  71.940  1.00  0.00    -0.373 C  
HETATM   21  C   UNL     1     -10.111   7.786  72.661  1.00  0.00    -0.260 C  
HETATM   22  C   UNL     1     -11.711   8.873  71.010  1.00  0.00    -0.289 C  
HETATM   23  C   UNL     1     -11.588   7.614  70.145  1.00  0.00    -0.005 C  
HETATM   24  N   UNL     1     -12.053  10.080  70.184  1.00  0.00    -0.151 NA 
HETATM   25  O   UNL     1     -13.192   7.991  72.825  1.00  0.00     0.123 OA 
HETATM   26  C   UNL     1     -11.196   6.397  70.983  1.00  0.00    -0.313 C  
HETATM   27  C   UNL     1     -13.456  10.433  70.353  1.00  0.00     0.370 C  
HETATM   28  C   UNL     1     -12.979   8.744  71.889  1.00  0.00    -0.376 C  
HETATM   29  N   UNL     1     -13.903   9.646  71.439  1.00  0.00    -0.209 NA 
BRANCH  24  30
HETATM   30  C   UNL     1     -11.270  10.777  69.282  1.00  0.00    -0.272 A  
HETATM   31  C   UNL     1     -10.024  10.323  68.832  1.00  0.00    -0.209 A  
HETATM   32  C   UNL     1      -9.201  11.082  67.983  1.00  0.00    -0.159 A  
HETATM   33  C   UNL     1      -9.620  12.321  67.525  1.00  0.00    -0.184 A  
HETATM   34  C   UNL     1     -10.867  12.791  67.900  1.00  0.00    -0.242 A  
HETATM   35  C   UNL     1     -11.671  12.028  68.765  1.00  0.00    -0.377 A  
ENDBRANCH  24  30
ENDBRANCH  18  19
ENDBRANCH  17  18
ENDBRANCH   8  17
TORSDOF 4
ENDMDL
MODEL      188
REMARK 921   NORMALIZED FREE ENERGY PREDICTED BY IDOCK:   -2.85 KCAL/MOL
REMARK 922        TOTAL FREE ENERGY PREDICTED BY IDOCK:   -5.39 KCAL/MOL
REMARK 923 INTER-LIGAND FREE ENERGY PREDICTED BY IDOCK:   -4.10 KCAL/MOL
REMARK 924 INTRA-LIGAND FREE ENERGY PREDICTED BY IDOCK:   -1.30 KCAL/MOL
REMARK 927      BINDING AFFINITY PREDICTED BY RF-SCORE:    0.00 PKD
ROOT
HETATM    1  F   UNL     1      -9.307   9.589  63.503  1.00  0.00    -0.284 F  
HETATM    2  C   UNL     1      -8.578   9.283  64.584  1.00  0.00    -0.187 A  
HETATM    3  C   UNL     1      -7.275   8.831  64.430  1.00  0.00    -0.094 A  
HETATM    4  C   UNL     1      -6.535   8.460  65.556  1.00  0.00    -0.049 A  
HETATM    5  C   UNL     1      -7.088   8.548  66.848  1.00  0.00    -0.075 A  
HETATM    6  C   UNL     1      -6.264   8.081  68.060  1.00  0.00    -0.047 C  
HETATM    7  C   UNL     1      -8.377   9.098  66.971  1.00  0.00    -0.120 A  
HETATM    8  C   UNL     1      -5.435   9.263  68.649  1.00  0.00    -0.040 C  
HETATM    9  C   UNL     1      -9.133   9.426  65.845  1.00  0.00    -0.242 A  
HETATM   10  C   UNL     1      -6.940   7.160  69.093  1.00  0.00    -0.074 A  
HETATM   11  C   UNL     1      -8.268   6.706  68.990  1.00  0.00    -0.117 A  
HETATM   12  C   UNL     1      -6.741   5.818  71.138  1.00  0.00    -0.057 A  
HETATM   13  F   UNL     1      -8.616   4.644  71.954  1.00  0.00    -0.112 F  
HETATM   14  C   UNL     1      -8.839   5.883  69.965  1.00  0.00    -0.139 A  
HETATM   15  C   UNL     1      -8.071   5.445  71.031  1.00  0.00    -0.113 A  
HETATM   16  C   UNL     1      -6.181   6.666  70.176  1.00  0.00    -0.031 A  
ENDROOT
BRANCH   8  17
HETATM   17  C   UNL     1      -6.193  10.512  69.132  1.00  0.00    -0.045 C  
BRANCH  17  18
HETATM   18  C   UNL     1      -5.347  11.753  69.446  1.00  0.00    -0.057 C  
BRANCH  18  19
HETATM   19  N   UNL     1      -5.630  12.915  68.605  1.00  0.00    -0.066 NA 
HETATM   20  C   UNL     1      -7.776  12.359  67.379  1.00  0.00    -0.170 C  
HETATM   21  C   UNL     1      -6.270  12.631  67.317  1.00  0.00    -0.089 C  
HETATM   22  C   UNL     1      -8.519  13.410  68.212  1.00  0.00    -0.166 C  
HETATM   23  C   UNL     1      -7.822  13.719  69.541  1.00  0.00     0.572 C  
HETATM   24  N   UNL     1      -9.977  13.111  68.409  1.00  0.00    -0.237 NA 
HETATM   25  O   UNL     1      -7.690  15.337  66.846  1.00  0.00    -0.199 OA 
HETATM   26  C   UNL     1      -6.329  13.979  69.341  1.00  0.00    -0.115 C  
HETATM   27  C   UNL     1     -10.792  14.246  67.999  1.00  0.00    -0.239 C  
HETATM   28  C   UNL     1      -8.593  14.714  67.380  1.00  0.00    -0.199 C  
HETATM   29  N   UNL     1      -9.900  15.112  67.326  1.00  0.00    -0.227 NA 
BRANCH  24  30
HETATM   30  C   UNL     1     -10.577  12.002  68.980  1.00  0.00    -0.098 A  
HETATM   31  C   UNL     1      -9.904  10.795  69.206  1.00  0.00    -0.160 A  
HETATM   32  C   UNL     1     -10.547   9.650  69.706  1.00  0.00    -0.267 A  
HETATM   33  C   UNL     1     -11.894   9.689  70.032  1.00  0.00    -0.009 A  
HETATM   34  C   UNL     1     -12.591  10.875  69.875  1.00  0.00    -0.211 A  
HETATM   35  C   UNL     1     -11.937  12.006  69.356  1.00  0.00    -0.334 A  
ENDBRANCH  24  30
ENDBRANCH  18  19
ENDBRANCH  17  18
ENDBRANCH   8  17
TORSDOF 4
ENDMDL
MODEL      189
REMARK 921   NORMALIZED FREE ENERGY PREDICTED BY IDOCK:   -2.83 KCAL/MOL
REMARK 922        TOTAL FREE ENERGY PREDICTED BY IDOCK:   -5.36 KCAL/MOL
REMARK 923 INTER-LIGAND FREE ENERGY PREDICTED BY IDOCK:   -4.38 KCAL/MOL
REMARK 924 INTRA-LIGAND FREE ENERGY PREDICTED BY IDOCK:   -0.98 KCAL/MOL
REMARK 927      BINDING AFFINITY PREDICTED BY RF-SCORE:    0.00 PKD
ROOT
HETATM    1  F   UNL     1     -13.813  15.682  70.401  1.00  0.00    -0.199 F  
HETATM    2  C   UNL     1     -12.999  14.814  69.788  1.00  0.00     0.268 A  
HETATM    3  C   UNL     1     -13.129  14.592  68.425  1.00  0.00     2.324 A  
HETATM    4  C   UNL     1     -12.315  13.645  67.798  1.00  0.00    -0.018 A  
HETATM    5  C   UNL     1     -11.354  12.919  68.528  1.00  0.00    -0.324 A  
HETATM    6  C   UNL     1     -10.511  11.847  67.816  1.00  0.00    -0.224 C  
HETATM    7  C   UNL     1     -11.187  13.238  69.888  1.00  0.00     0.049 A  
HETATM    8  C   UNL     1      -9.195  12.466  67.255  1.00  0.00    -0.187 C  
HETATM    9  C   UNL     1     -12.030  14.151  70.524  1.00  0.00    -0.393 A  
HETATM   10  C   UNL     1     -10.368  10.467  68.484  1.00  0.00    -0.197 A  
HETATM   11  C   UNL     1     -10.974  10.119  69.706  1.00  0.00    -0.325 A  
HETATM   12  C   UNL     1      -9.503   8.173  68.371  1.00  0.00    -0.146 A  
HETATM   13  F   UNL     1      -9.913   6.679  70.148  1.00  0.00    -0.173 F  
HETATM   14  C   UNL     1     -10.799   8.855  70.277  1.00  0.00    -0.265 A  
HETATM   15  C   UNL     1     -10.066   7.892  69.605  1.00  0.00    -0.197 A  
HETATM   16  C   UNL     1      -9.656   9.448  67.815  1.00  0.00    -0.158 A  
ENDROOT
BRANCH   8  17
HETATM   17  C   UNL     1      -8.232  13.145  68.245  1.00  0.00    -0.154 C  
BRANCH  17  18
HETATM   18  C   UNL     1      -7.978  14.645  68.041  1.00  0.00    -0.136 C  
BRANCH  18  19
HETATM   19  N   UNL     1      -8.995  15.336  67.250  1.00  0.00    -0.186 NA 
HETATM   20  C   UNL     1      -9.477  17.488  68.497  1.00  0.00    -0.296 C  
HETATM   21  C   UNL     1      -9.971  16.122  68.011  1.00  0.00    -0.238 C  
HETATM   22  C   UNL     1      -8.788  18.283  67.381  1.00  0.00    -0.253 C  
HETATM   23  C   UNL     1      -7.793  17.441  66.575  1.00  0.00    -0.320 C  
HETATM   24  N   UNL     1      -8.171  19.572  67.843  1.00  0.00    -0.303 NA 
HETATM   25  O   UNL     1     -10.763  18.183  65.846  1.00  0.00    -0.358 OA 
HETATM   26  C   UNL     1      -8.411  16.109  66.144  1.00  0.00    -0.253 C  
HETATM   27  C   UNL     1      -8.649  20.686  67.035  1.00  0.00    -0.166 C  
HETATM   28  C   UNL     1      -9.884  18.805  66.420  1.00  0.00    -0.373 C  
HETATM   29  N   UNL     1      -9.719  20.155  66.278  1.00  0.00    -0.414 NA 
BRANCH  24  30
HETATM   30  C   UNL     1      -7.206  19.786  68.812  1.00  0.00    -0.317 A  
HETATM   31  C   UNL     1      -6.341  20.887  68.805  1.00  0.00    -0.105 A  
HETATM   32  C   UNL     1      -5.309  21.047  69.745  1.00  0.00    -0.353 A  
HETATM   33  C   UNL     1      -5.132  20.114  70.755  1.00  0.00    -0.263 A  
HETATM   34  C   UNL     1      -5.995  19.036  70.836  1.00  0.00     0.076 A  
HETATM   35  C   UNL     1      -7.010  18.880  69.876  1.00  0.00     0.196 A  
ENDBRANCH  24  30
ENDBRANCH  18  19
ENDBRANCH  17  18
ENDBRANCH   8  17
TORSDOF 4
ENDMDL
MODEL      190
REMARK 921   NORMALIZED FREE ENERGY PREDICTED BY IDOCK:   -2.78 KCAL/MOL
REMARK 922        TOTAL FREE ENERGY PREDICTED BY IDOCK:   -5.31 KCAL/MOL
REMARK 923 INTER-LIGAND FREE ENERGY PREDICTED BY IDOCK:   -4.47 KCAL/MOL
REMARK 924 INTRA-LIGAND FREE ENERGY PREDICTED BY IDOCK:   -0.84 KCAL/MOL
REMARK 927      BINDING AFFINITY PREDICTED BY RF-SCORE:    0.00 PKD
ROOT
HETATM    1  F   UNL     1      -9.049   8.363  64.360  1.00  0.00     0.023 F  
HETATM    2  C   UNL     1      -8.932   9.257  65.350  1.00  0.00    -0.207 A  
HETATM    3  C   UNL     1      -8.543   8.837  66.614  1.00  0.00    -0.120 A  
HETATM    4  C   UNL     1      -8.476   9.763  67.659  1.00  0.00    -0.122 A  
HETATM    5  C   UNL     1      -8.786  11.120  67.445  1.00  0.00    -0.139 A  
HETATM    6  C   UNL     1      -8.753  12.102  68.629  1.00  0.00     0.005 C  
HETATM    7  C   UNL     1      -9.086  11.524  66.131  1.00  0.00    -0.217 A  
HETATM    8  C   UNL     1      -7.340  12.746  68.769  1.00  0.00    -0.067 C  
HETATM    9  C   UNL     1      -9.197  10.593  65.098  1.00  0.00    -0.241 A  
HETATM   10  C   UNL     1      -9.944  13.058  68.820  1.00  0.00    -0.022 A  
HETATM   11  C   UNL     1     -11.075  13.082  67.982  1.00  0.00    -0.288 A  
HETATM   12  C   UNL     1     -11.026  14.802  70.167  1.00  0.00    -0.161 A  
HETATM   13  F   UNL     1     -13.104  15.684  69.487  1.00  0.00     0.030 F  
HETATM   14  C   UNL     1     -12.123  13.983  68.191  1.00  0.00    -0.307 A  
HETATM   15  C   UNL     1     -12.091  14.835  69.282  1.00  0.00    -0.261 A  
HETATM   16  C   UNL     1      -9.964  13.919  69.938  1.00  0.00     1.158 A  
ENDROOT
BRANCH   8  17
HETATM   17  C   UNL     1      -6.781  13.537  67.573  1.00  0.00    -0.144 C  
BRANCH  17  18
HETATM   18  C   UNL     1      -5.361  14.099  67.721  1.00  0.00    -0.004 C  
BRANCH  18  19
HETATM   19  N   UNL     1      -5.293  15.458  68.256  1.00  0.00    -0.105 NA 
HETATM   20  C   UNL     1      -6.483  16.915  66.559  1.00  0.00    -0.187 C  
HETATM   21  C   UNL     1      -5.177  16.530  67.263  1.00  0.00    -0.118 C  
HETATM   22  C   UNL     1      -7.634  17.120  67.550  1.00  0.00    -0.170 C  
HETATM   23  C   UNL     1      -7.723  16.007  68.600  1.00  0.00    -0.176 C  
HETATM   24  N   UNL     1      -8.963  17.370  66.896  1.00  0.00    -0.238 NA 
HETATM   25  O   UNL     1      -6.416  18.856  68.881  1.00  0.00    -0.244 OA 
HETATM   26  C   UNL     1      -6.359  15.726  69.232  1.00  0.00    -0.147 C  
HETATM   27  C   UNL     1      -9.566  18.591  67.413  1.00  0.00    -0.293 C  
HETATM   28  C   UNL     1      -7.404  18.467  68.279  1.00  0.00    -0.277 C  
HETATM   29  N   UNL     1      -8.541  19.217  68.159  1.00  0.00    -0.312 NA 
BRANCH  24  30
HETATM   30  C   UNL     1      -9.663  16.581  66.000  1.00  0.00    -0.301 A  
HETATM   31  C   UNL     1     -10.755  17.044  65.257  1.00  0.00    -0.108 A  
HETATM   32  C   UNL     1     -11.509  16.210  64.415  1.00  0.00    -0.197 A  
HETATM   33  C   UNL     1     -11.167  14.874  64.264  1.00  0.00    -0.026 A  
HETATM   34  C   UNL     1     -10.064  14.381  64.938  1.00  0.00    -0.253 A  
HETATM   35  C   UNL     1      -9.331  15.225  65.791  1.00  0.00    -0.233 A  
ENDBRANCH  24  30
ENDBRANCH  18  19
ENDBRANCH  17  18
ENDBRANCH   8  17
TORSDOF 4
ENDMDL
MODEL      191
REMARK 921   NORMALIZED FREE ENERGY PREDICTED BY IDOCK:   -2.60 KCAL/MOL
REMARK 922        TOTAL FREE ENERGY PREDICTED BY IDOCK:   -5.09 KCAL/MOL
REMARK 923 INTER-LIGAND FREE ENERGY PREDICTED BY IDOCK:   -4.77 KCAL/MOL
REMARK 924 INTRA-LIGAND FREE ENERGY PREDICTED BY IDOCK:   -0.31 KCAL/MOL
REMARK 927      BINDING AFFINITY PREDICTED BY RF-SCORE:    0.00 PKD
ROOT
HETATM    1  F   UNL     1     -10.197   7.797  73.087  1.00  0.00    -0.296 F  
HETATM    2  C   UNL     1      -9.931   8.013  71.793  1.00  0.00    -0.187 A  
HETATM    3  C   UNL     1      -8.618   8.195  71.381  1.00  0.00    -0.168 A  
HETATM    4  C   UNL     1      -8.347   8.476  70.039  1.00  0.00    -0.123 A  
HETATM    5  C   UNL     1      -9.388   8.565  69.094  1.00  0.00    -0.153 A  
HETATM    6  C   UNL     1      -9.059   8.927  67.635  1.00  0.00    -0.144 C  
HETATM    7  C   UNL     1     -10.695   8.283  69.530  1.00  0.00    -0.179 A  
HETATM    8  C   UNL     1      -8.797   7.641  66.795  1.00  0.00    -0.150 C  
HETATM    9  C   UNL     1     -10.970   8.047  70.878  1.00  0.00    -0.260 A  
HETATM   10  C   UNL     1      -9.902  10.016  66.944  1.00  0.00    -0.248 A  
HETATM   11  C   UNL     1     -10.951  10.712  67.571  1.00  0.00    -0.371 A  
HETATM   12  C   UNL     1     -10.297  11.401  64.957  1.00  0.00    -0.342 A  
HETATM   13  F   UNL     1     -12.068  12.958  64.950  1.00  0.00    -0.372 F  
HETATM   14  C   UNL     1     -11.696  11.681  66.892  1.00  0.00    -0.133 A  
HETATM   15  C   UNL     1     -11.363  12.018  65.591  1.00  0.00    -0.329 A  
HETATM   16  C   UNL     1      -9.573  10.410  65.630  1.00  0.00    -0.281 A  
ENDROOT
BRANCH   8  17
HETATM   17  C   UNL     1      -9.917   6.590  66.707  1.00  0.00    -0.224 C  
BRANCH  17  18
HETATM   18  C   UNL     1      -9.777   5.522  65.614  1.00  0.00     0.108 C  
BRANCH  18  19
HETATM   19  N   UNL     1      -9.492   4.176  66.105  1.00  0.00    -0.169 NA 
HETATM   20  C   UNL     1      -7.044   4.197  66.759  1.00  0.00    -0.064 C  
HETATM   21  C   UNL     1      -8.144   3.668  65.832  1.00  0.00    -0.093 C  
HETATM   22  C   UNL     1      -7.443   4.108  68.236  1.00  0.00    -0.063 C  
HETATM   23  C   UNL     1      -8.865   4.614  68.502  1.00  0.00    -0.123 C  
HETATM   24  N   UNL     1      -6.451   4.736  69.173  1.00  0.00    -0.038 NA 
HETATM   25  O   UNL     1      -7.882   1.645  68.156  1.00  0.00    -0.056 OA 
HETATM   26  C   UNL     1      -9.866   4.006  67.517  1.00  0.00    -0.057 C  
HETATM   27  C   UNL     1      -6.057   3.790  70.209  1.00  0.00    -0.019 C  
HETATM   28  C   UNL     1      -7.360   2.623  68.666  1.00  0.00    -0.048 C  
HETATM   29  N   UNL     1      -6.575   2.546  69.783  1.00  0.00    -0.032 NA 
BRANCH  24  30
HETATM   30  C   UNL     1      -5.980   6.037  69.212  1.00  0.00    -0.028 A  
HETATM   31  C   UNL     1      -5.803   6.756  70.399  1.00  0.00    -0.024 A  
HETATM   32  C   UNL     1      -5.407   8.103  70.419  1.00  0.00    -0.022 A  
HETATM   33  C   UNL     1      -5.141   8.772  69.234  1.00  0.00    -0.035 A  
HETATM   34  C   UNL     1      -5.251   8.089  68.036  1.00  0.00    -0.033 A  
HETATM   35  C   UNL     1      -5.667   6.746  68.032  1.00  0.00    -0.016 A  
ENDBRANCH  24  30
ENDBRANCH  18  19
ENDBRANCH  17  18
ENDBRANCH   8  17
TORSDOF 4
ENDMDL
MODEL      192
REMARK 921   NORMALIZED FREE ENERGY PREDICTED BY IDOCK:   -2.58 KCAL/MOL
REMARK 922        TOTAL FREE ENERGY PREDICTED BY IDOCK:   -5.06 KCAL/MOL
REMARK 923 INTER-LIGAND FREE ENERGY PREDICTED BY IDOCK:   -3.49 KCAL/MOL
REMARK 924 INTRA-LIGAND FREE ENERGY PREDICTED BY IDOCK:   -1.57 KCAL/MOL
REMARK 927      BINDING AFFINITY PREDICTED BY RF-SCORE:    0.00 PKD
ROOT
HETATM    1  F   UNL     1      -9.174   8.826  64.144  1.00  0.00    -0.032 F  
HETATM    2  C   UNL     1      -8.519   8.490  65.263  1.00  0.00    -0.174 A  
HETATM    3  C   UNL     1      -7.289   9.071  65.541  1.00  0.00    -0.085 A  
HETATM    4  C   UNL     1      -6.582   8.678  66.680  1.00  0.00    -0.060 A  
HETATM    5  C   UNL     1      -7.104   7.708  67.559  1.00  0.00    -0.086 A  
HETATM    6  C   UNL     1      -6.275   7.262  68.775  1.00  0.00    -0.031 C  
HETATM    7  C   UNL     1      -8.393   7.212  67.293  1.00  0.00    -0.119 A  
HETATM    8  C   UNL     1      -6.602   8.144  70.017  1.00  0.00    -0.036 C  
HETATM    9  C   UNL     1      -9.080   7.570  66.132  1.00  0.00    -0.179 A  
HETATM   10  C   UNL     1      -6.132   5.753  69.047  1.00  0.00    -0.025 A  
HETATM   11  C   UNL     1      -6.704   4.751  68.242  1.00  0.00    -0.050 A  
HETATM   12  C   UNL     1      -5.146   3.962  70.405  1.00  0.00     0.000 A  
HETATM   13  F   UNL     1      -5.625   1.710  69.898  1.00  0.00    -0.013 F  
HETATM   14  C   UNL     1      -6.556   3.394  68.543  1.00  0.00    -0.041 A  
HETATM   15  C   UNL     1      -5.777   3.010  69.622  1.00  0.00    -0.018 A  
HETATM   16  C   UNL     1      -5.320   5.320  70.118  1.00  0.00    -0.004 A  
ENDROOT
BRANCH   8  17
HETATM   17  C   UNL     1      -8.058   8.188  70.514  1.00  0.00    -0.104 C  
BRANCH  17  18
HETATM   18  C   UNL     1      -8.800   9.523  70.362  1.00  0.00    -0.234 C  
BRANCH  18  19
HETATM   19  N   UNL     1     -10.258   9.417  70.366  1.00  0.00    -0.235 NA 
HETATM   20  C   UNL     1     -10.758   6.936  70.248  1.00  0.00    -0.274 C  
HETATM   21  C   UNL     1     -10.820   8.314  69.581  1.00  0.00    -0.150 C  
HETATM   22  C   UNL     1     -11.258   6.973  71.697  1.00  0.00    -0.245 C  
HETATM   23  C   UNL     1     -10.684   8.148  72.496  1.00  0.00    -0.419 C  
HETATM   24  N   UNL     1     -11.091   5.673  72.431  1.00  0.00    -0.261 NA 
HETATM   25  O   UNL     1     -13.491   7.927  71.091  1.00  0.00    -0.188 OA 
HETATM   26  C   UNL     1     -10.816   9.463  71.726  1.00  0.00    -0.174 C  
HETATM   27  C   UNL     1     -12.358   5.248  73.011  1.00  0.00     0.482 C  
HETATM   28  C   UNL     1     -12.800   7.103  71.668  1.00  0.00    -0.379 C  
HETATM   29  N   UNL     1     -13.327   6.104  72.439  1.00  0.00     0.363 NA 
BRANCH  24  30
HETATM   30  C   UNL     1      -9.941   4.944  72.677  1.00  0.00    -0.165 A  
HETATM   31  C   UNL     1      -9.153   5.113  73.821  1.00  0.00    -0.122 A  
HETATM   32  C   UNL     1      -7.942   4.428  74.017  1.00  0.00    -0.093 A  
HETATM   33  C   UNL     1      -7.494   3.515  73.074  1.00  0.00    -0.060 A  
HETATM   34  C   UNL     1      -8.264   3.274  71.950  1.00  0.00    -0.063 A  
HETATM   35  C   UNL     1      -9.464   3.982  71.760  1.00  0.00    -0.210 A  
ENDBRANCH  24  30
ENDBRANCH  18  19
ENDBRANCH  17  18
ENDBRANCH   8  17
TORSDOF 4
ENDMDL
MODEL      193
REMARK 921   NORMALIZED FREE ENERGY PREDICTED BY IDOCK:   -2.55 KCAL/MOL
REMARK 922        TOTAL FREE ENERGY PREDICTED BY IDOCK:   -5.02 KCAL/MOL
REMARK 923 INTER-LIGAND FREE ENERGY PREDICTED BY IDOCK:   -4.75 KCAL/MOL
REMARK 924 INTRA-LIGAND FREE ENERGY PREDICTED BY IDOCK:   -0.27 KCAL/MOL
REMARK 927      BINDING AFFINITY PREDICTED BY RF-SCORE:    0.00 PKD
ROOT
HETATM    1  F   UNL     1     -12.574  11.238  70.243  1.00  0.00    -0.342 F  
HETATM    2  C   UNL     1     -11.538  10.615  69.668  1.00  0.00    -0.296 A  
HETATM    3  C   UNL     1     -10.320  10.551  70.329  1.00  0.00     0.105 A  
HETATM    4  C   UNL     1      -9.225   9.949  69.704  1.00  0.00    -0.246 A  
HETATM    5  C   UNL     1      -9.342   9.394  68.414  1.00  0.00    -0.137 A  
HETATM    6  C   UNL     1      -8.104   8.786  67.734  1.00  0.00    -0.107 C  
HETATM    7  C   UNL     1     -10.615   9.395  67.814  1.00  0.00    -0.317 A  
HETATM    8  C   UNL     1      -7.987   7.267  68.062  1.00  0.00    -0.119 C  
HETATM    9  C   UNL     1     -11.697  10.036  68.419  1.00  0.00     0.357 A  
HETATM   10  C   UNL     1      -7.803   9.179  66.276  1.00  0.00    -0.103 A  
HETATM   11  C   UNL     1      -8.587  10.075  65.526  1.00  0.00    -0.162 A  
HETATM   12  C   UNL     1      -6.307   9.018  64.337  1.00  0.00    -0.071 A  
HETATM   13  F   UNL     1      -6.840  10.168  62.349  1.00  0.00    -0.106 F  
HETATM   14  C   UNL     1      -8.279  10.386  64.198  1.00  0.00    -0.118 A  
HETATM   15  C   UNL     1      -7.141   9.856  63.615  1.00  0.00    -0.121 A  
HETATM   16  C   UNL     1      -6.635   8.686  65.656  1.00  0.00    -0.060 A  
ENDROOT
BRANCH   8  17
HETATM   17  C   UNL     1      -9.156   6.347  67.668  1.00  0.00    -0.114 C  
BRANCH  17  18
HETATM   18  C   UNL     1      -8.832   5.185  66.720  1.00  0.00    -0.110 C  
BRANCH  18  19
HETATM   19  N   UNL     1      -8.248   4.011  67.368  1.00  0.00    -0.098 NA 
HETATM   20  C   UNL     1      -7.711   4.738  69.734  1.00  0.00    -0.059 C  
HETATM   21  C   UNL     1      -7.205   4.282  68.362  1.00  0.00    -0.060 C  
HETATM   22  C   UNL     1      -8.839   3.844  70.260  1.00  0.00    -0.084 C  
HETATM   23  C   UNL     1      -9.906   3.545  69.201  1.00  0.00     0.131 C  
HETATM   24  N   UNL     1      -9.455   4.331  71.541  1.00  0.00    -0.145 NA 
HETATM   25  O   UNL     1      -7.490   1.742  70.102  1.00  0.00    -0.036 OA 
HETATM   26  C   UNL     1      -9.273   3.092  67.885  1.00  0.00    -0.196 C  
HETATM   27  C   UNL     1      -9.443   3.277  72.546  1.00  0.00    -0.117 C  
HETATM   28  C   UNL     1      -8.214   2.505  70.721  1.00  0.00    -0.049 C  
HETATM   29  N   UNL     1      -8.616   2.266  72.005  1.00  0.00    -0.067 NA 
BRANCH  24  30
HETATM   30  C   UNL     1     -10.067   5.541  71.817  1.00  0.00    -0.196 A  
HETATM   31  C   UNL     1     -10.921   6.193  70.920  1.00  0.00    -0.359 A  
HETATM   32  C   UNL     1     -11.468   7.461  71.177  1.00  0.00    -0.303 A  
HETATM   33  C   UNL     1     -11.198   8.110  72.373  1.00  0.00    -0.452 A  
HETATM   34  C   UNL     1     -10.401   7.484  73.314  1.00  0.00    -0.412 A  
HETATM   35  C   UNL     1      -9.847   6.222  73.033  1.00  0.00    -0.175 A  
ENDBRANCH  24  30
ENDBRANCH  18  19
ENDBRANCH  17  18
ENDBRANCH   8  17
TORSDOF 4
ENDMDL
MODEL      194
REMARK 921   NORMALIZED FREE ENERGY PREDICTED BY IDOCK:   -2.50 KCAL/MOL
REMARK 922        TOTAL FREE ENERGY PREDICTED BY IDOCK:   -4.95 KCAL/MOL
REMARK 923 INTER-LIGAND FREE ENERGY PREDICTED BY IDOCK:   -4.30 KCAL/MOL
REMARK 924 INTRA-LIGAND FREE ENERGY PREDICTED BY IDOCK:   -0.66 KCAL/MOL
REMARK 927      BINDING AFFINITY PREDICTED BY RF-SCORE:    0.00 PKD
ROOT
HETATM    1  F   UNL     1     -11.519  10.873  63.307  1.00  0.00    -0.140 F  
HETATM    2  C   UNL     1     -10.512  10.879  64.189  1.00  0.00    -0.327 A  
HETATM    3  C   UNL     1      -9.291  10.317  63.843  1.00  0.00    -0.337 A  
HETATM    4  C   UNL     1      -8.259  10.274  64.785  1.00  0.00    -0.163 A  
HETATM    5  C   UNL     1      -8.436  10.805  66.078  1.00  0.00    -0.169 A  
HETATM    6  C   UNL     1      -7.297  10.694  67.106  1.00  0.00    -0.098 C  
HETATM    7  C   UNL     1      -9.654  11.448  66.360  1.00  0.00    -0.228 A  
HETATM    8  C   UNL     1      -6.369  11.944  67.035  1.00  0.00    -0.141 C  
HETATM    9  C   UNL     1     -10.700  11.451  65.436  1.00  0.00    -0.313 A  
HETATM   10  C   UNL     1      -7.636  10.194  68.522  1.00  0.00    -0.088 A  
HETATM   11  C   UNL     1      -8.928   9.819  68.935  1.00  0.00    -0.144 A  
HETATM   12  C   UNL     1      -6.844   9.561  70.757  1.00  0.00    -0.105 A  
HETATM   13  F   UNL     1      -8.389   8.832  72.383  1.00  0.00    -0.216 F  
HETATM   14  C   UNL     1      -9.185   9.387  70.239  1.00  0.00    -0.285 A  
HETATM   15  C   UNL     1      -8.141   9.261  71.140  1.00  0.00     0.010 A  
HETATM   16  C   UNL     1      -6.595  10.021  69.460  1.00  0.00    -0.055 A  
ENDROOT
BRANCH   8  17
HETATM   17  C   UNL     1      -6.996  13.329  67.274  1.00  0.00     0.003 C  
BRANCH  17  18
HETATM   18  C   UNL     1      -6.337  14.209  68.345  1.00  0.00    -0.101 C  
BRANCH  18  19
HETATM   19  N   UNL     1      -7.271  14.987  69.157  1.00  0.00    -0.145 NA 
HETATM   20  C   UNL     1      -6.657  17.413  68.758  1.00  0.00    -0.206 C  
HETATM   21  C   UNL     1      -6.740  16.229  69.727  1.00  0.00    -0.079 C  
HETATM   22  C   UNL     1      -7.959  17.609  67.973  1.00  0.00    -0.241 C  
HETATM   23  C   UNL     1      -8.518  16.298  67.408  1.00  0.00    -0.190 C  
HETATM   24  N   UNL     1      -7.879  18.674  66.918  1.00  0.00    -0.230 NA 
HETATM   25  O   UNL     1      -9.375  17.818  70.026  1.00  0.00     1.149 OA 
HETATM   26  C   UNL     1      -8.557  15.203  68.475  1.00  0.00    -0.163 C  
HETATM   27  C   UNL     1      -8.954  19.642  67.086  1.00  0.00    -0.316 C  
HETATM   28  C   UNL     1      -9.009  18.219  68.933  1.00  0.00    -0.127 C  
HETATM   29  N   UNL     1      -9.519  19.344  68.348  1.00  0.00    -0.355 NA 
BRANCH  24  30
HETATM   30  C   UNL     1      -7.023  18.776  65.836  1.00  0.00    -0.268 A  
HETATM   31  C   UNL     1      -6.120  17.770  65.472  1.00  0.00    -0.051 A  
HETATM   32  C   UNL     1      -5.196  17.921  64.424  1.00  0.00     0.472 A  
HETATM   33  C   UNL     1      -5.171  19.088  63.676  1.00  0.00    -0.280 A  
HETATM   34  C   UNL     1      -6.080  20.092  63.963  1.00  0.00    -0.259 A  
HETATM   35  C   UNL     1      -6.985  19.932  65.027  1.00  0.00    -0.112 A  
ENDBRANCH  24  30
ENDBRANCH  18  19
ENDBRANCH  17  18
ENDBRANCH   8  17
TORSDOF 4
ENDMDL
MODEL      195
REMARK 921   NORMALIZED FREE ENERGY PREDICTED BY IDOCK:   -2.45 KCAL/MOL
REMARK 922        TOTAL FREE ENERGY PREDICTED BY IDOCK:   -4.90 KCAL/MOL
REMARK 923 INTER-LIGAND FREE ENERGY PREDICTED BY IDOCK:   -3.52 KCAL/MOL
REMARK 924 INTRA-LIGAND FREE ENERGY PREDICTED BY IDOCK:   -1.38 KCAL/MOL
REMARK 927      BINDING AFFINITY PREDICTED BY RF-SCORE:    0.00 PKD
ROOT
HETATM    1  F   UNL     1      -5.992  14.448  72.830  1.00  0.00    -0.114 F  
HETATM    2  C   UNL     1      -6.148  15.178  71.718  1.00  0.00     0.791 A  
HETATM    3  C   UNL     1      -5.205  16.143  71.390  1.00  0.00     0.007 A  
HETATM    4  C   UNL     1      -5.398  16.942  70.260  1.00  0.00    -0.213 A  
HETATM    5  C   UNL     1      -6.532  16.775  69.440  1.00  0.00    -0.229 A  
HETATM    6  C   UNL     1      -6.740  17.707  68.234  1.00  0.00    -0.200 C  
HETATM    7  C   UNL     1      -7.417  15.727  69.753  1.00  0.00     0.008 A  
HETATM    8  C   UNL     1      -6.085  17.104  66.955  1.00  0.00    -0.228 C  
HETATM    9  C   UNL     1      -7.248  14.959  70.905  1.00  0.00     1.096 A  
HETATM   10  C   UNL     1      -8.126  18.348  68.036  1.00  0.00    -0.288 A  
HETATM   11  C   UNL     1      -9.217  18.144  68.900  1.00  0.00    -0.172 A  
HETATM   12  C   UNL     1      -9.553  19.878  66.753  1.00  0.00    -0.523 A  
HETATM   13  F   UNL     1     -11.806  20.180  67.381  1.00  0.00     0.258 F  
HETATM   14  C   UNL     1     -10.461  18.738  68.665  1.00  0.00    -0.116 A  
HETATM   15  C   UNL     1     -10.619  19.601  67.594  1.00  0.00    -0.423 A  
HETATM   16  C   UNL     1      -8.318  19.258  66.974  1.00  0.00    -0.300 A  
ENDROOT
BRANCH   8  17
HETATM   17  C   UNL     1      -6.558  15.718  66.481  1.00  0.00     1.092 C  
BRANCH  17  18
HETATM   18  C   UNL     1      -8.048  15.398  66.659  1.00  0.00    -0.098 C  
BRANCH  18  19
HETATM   19  N   UNL     1      -8.435  14.044  66.268  1.00  0.00     0.495 NA 
HETATM   20  C   UNL     1      -9.097  12.879  68.418  1.00  0.00    -0.126 C  
HETATM   21  C   UNL     1      -8.128  12.987  67.236  1.00  0.00    -0.161 C  
HETATM   22  C   UNL     1     -10.561  12.888  67.966  1.00  0.00    -0.227 C  
HETATM   23  C   UNL     1     -10.860  13.979  66.932  1.00  0.00    -0.290 C  
HETATM   24  N   UNL     1     -11.547  12.918  69.099  1.00  0.00    -0.304 NA 
HETATM   25  O   UNL     1     -10.289  10.925  66.438  1.00  0.00    -0.237 OA 
HETATM   26  C   UNL     1      -9.828  13.974  65.803  1.00  0.00    -0.256 C  
HETATM   27  C   UNL     1     -12.508  11.831  68.968  1.00  0.00     0.372 C  
HETATM   28  C   UNL     1     -10.876  11.511  67.334  1.00  0.00    -0.246 C  
HETATM   29  N   UNL     1     -11.986  11.002  67.949  1.00  0.00    -0.580 NA 
BRANCH  24  30
HETATM   30  C   UNL     1     -11.688  13.844  70.117  1.00  0.00    -0.244 A  
HETATM   31  C   UNL     1     -12.478  13.626  71.252  1.00  0.00    -0.412 A  
HETATM   32  C   UNL     1     -12.681  14.608  72.236  1.00  0.00    -0.413 A  
HETATM   33  C   UNL     1     -12.063  15.844  72.129  1.00  0.00    -0.596 A  
HETATM   34  C   UNL     1     -11.230  16.090  71.052  1.00  0.00    -0.347 A  
HETATM   35  C   UNL     1     -11.053  15.103  70.066  1.00  0.00    -0.297 A  
ENDBRANCH  24  30
ENDBRANCH  18  19
ENDBRANCH  17  18
ENDBRANCH   8  17
TORSDOF 4
ENDMDL
MODEL      196
REMARK 921   NORMALIZED FREE ENERGY PREDICTED BY IDOCK:   -2.43 KCAL/MOL
REMARK 922        TOTAL FREE ENERGY PREDICTED BY IDOCK:   -4.87 KCAL/MOL
REMARK 923 INTER-LIGAND FREE ENERGY PREDICTED BY IDOCK:   -4.10 KCAL/MOL
REMARK 924 INTRA-LIGAND FREE ENERGY PREDICTED BY IDOCK:   -0.76 KCAL/MOL
REMARK 927      BINDING AFFINITY PREDICTED BY RF-SCORE:    0.00 PKD
ROOT
HETATM    1  F   UNL     1     -12.283  13.792  63.920  1.00  0.00    -0.465 F  
HETATM    2  C   UNL     1     -11.941  13.069  64.994  1.00  0.00    -0.397 A  
HETATM    3  C   UNL     1     -12.557  13.313  66.213  1.00  0.00    -0.140 A  
HETATM    4  C   UNL     1     -12.159  12.596  67.344  1.00  0.00    -0.179 A  
HETATM    5  C   UNL     1     -11.147  11.619  67.264  1.00  0.00    -0.346 A  
HETATM    6  C   UNL     1     -10.697  10.887  68.539  1.00  0.00    -0.239 C  
HETATM    7  C   UNL     1     -10.611  11.335  65.994  1.00  0.00    -0.314 A  
HETATM    8  C   UNL     1     -11.532   9.588  68.750  1.00  0.00     0.301 C  
HETATM    9  C   UNL     1     -10.976  12.082  64.873  1.00  0.00    -0.356 A  
HETATM   10  C   UNL     1      -9.187  10.762  68.816  1.00  0.00    -0.192 A  
HETATM   11  C   UNL     1      -8.188  11.290  67.978  1.00  0.00    -0.134 A  
HETATM   12  C   UNL     1      -7.396  10.021  70.322  1.00  0.00    -0.152 A  
HETATM   13  F   UNL     1      -5.143  10.370  69.721  1.00  0.00    -0.038 F  
HETATM   14  C   UNL     1      -6.829  11.135  68.268  1.00  0.00    -0.068 A  
HETATM   15  C   UNL     1      -6.444  10.502  69.438  1.00  0.00    -0.062 A  
HETATM   16  C   UNL     1      -8.755  10.153  70.014  1.00  0.00    -0.011 A  
ENDROOT
BRANCH   8  17
HETATM   17  C   UNL     1     -11.509   8.521  67.641  1.00  0.00     1.444 C  
BRANCH  17  18
HETATM   18  C   UNL     1     -10.344   8.585  66.645  1.00  0.00    -0.233 C  
BRANCH  18  19
HETATM   19  N   UNL     1      -9.713   7.299  66.357  1.00  0.00    -0.129 NA 
HETATM   20  C   UNL     1      -7.942   6.996  68.143  1.00  0.00    -0.119 C  
HETATM   21  C   UNL     1      -8.282   7.206  66.664  1.00  0.00    -0.112 C  
HETATM   22  C   UNL     1      -8.777   5.876  68.774  1.00  0.00    -0.109 C  
HETATM   23  C   UNL     1     -10.266   5.969  68.420  1.00  0.00    -0.220 C  
HETATM   24  N   UNL     1      -8.572   5.724  70.254  1.00  0.00    -0.130 NA 
HETATM   25  O   UNL     1      -8.056   4.154  67.108  1.00  0.00    -0.099 OA 
HETATM   26  C   UNL     1     -10.469   6.169  66.917  1.00  0.00    -0.276 C  
HETATM   27  C   UNL     1      -8.224   4.348  70.583  1.00  0.00    -0.071 C  
HETATM   28  C   UNL     1      -8.232   4.523  68.258  1.00  0.00    -0.090 C  
HETATM   29  N   UNL     1      -7.962   3.730  69.339  1.00  0.00    -0.055 NA 
BRANCH  24  30
HETATM   30  C   UNL     1      -8.755   6.650  71.266  1.00  0.00    -0.129 A  
HETATM   31  C   UNL     1      -7.747   7.015  72.166  1.00  0.00    -0.092 A  
HETATM   32  C   UNL     1      -7.970   7.891  73.241  1.00  0.00    -0.209 A  
HETATM   33  C   UNL     1      -9.218   8.463  73.431  1.00  0.00    -0.111 A  
HETATM   34  C   UNL     1     -10.234   8.174  72.537  1.00  0.00    -0.383 A  
HETATM   35  C   UNL     1     -10.000   7.281  71.477  1.00  0.00    -0.191 A  
ENDBRANCH  24  30
ENDBRANCH  18  19
ENDBRANCH  17  18
ENDBRANCH   8  17
TORSDOF 4
ENDMDL
MODEL      197
REMARK 921   NORMALIZED FREE ENERGY PREDICTED BY IDOCK:   -2.40 KCAL/MOL
REMARK 922        TOTAL FREE ENERGY PREDICTED BY IDOCK:   -4.84 KCAL/MOL
REMARK 923 INTER-LIGAND FREE ENERGY PREDICTED BY IDOCK:   -3.64 KCAL/MOL
REMARK 924 INTRA-LIGAND FREE ENERGY PREDICTED BY IDOCK:   -1.20 KCAL/MOL
REMARK 927      BINDING AFFINITY PREDICTED BY RF-SCORE:    0.00 PKD
ROOT
HETATM    1  F   UNL     1     -13.056   7.043  69.629  1.00  0.00     0.957 F  
HETATM    2  C   UNL     1     -11.754   6.729  69.626  1.00  0.00    -0.104 A  
HETATM    3  C   UNL     1     -11.230   5.978  68.583  1.00  0.00    -0.169 A  
HETATM    4  C   UNL     1      -9.884   5.605  68.610  1.00  0.00    -0.190 A  
HETATM    5  C   UNL     1      -9.046   5.990  69.675  1.00  0.00    -0.139 A  
HETATM    6  C   UNL     1      -7.582   5.517  69.698  1.00  0.00    -0.071 C  
HETATM    7  C   UNL     1      -9.590   6.828  70.665  1.00  0.00    -0.174 A  
HETATM    8  C   UNL     1      -6.660   6.549  68.982  1.00  0.00    -0.047 C  
HETATM    9  C   UNL     1     -10.944   7.163  70.662  1.00  0.00    -0.283 A  
HETATM   10  C   UNL     1      -7.027   4.921  71.005  1.00  0.00    -0.047 A  
HETATM   11  C   UNL     1      -7.783   4.769  72.183  1.00  0.00    -0.092 A  
HETATM   12  C   UNL     1      -5.156   3.858  72.185  1.00  0.00     0.000 A  
HETATM   13  F   UNL     1      -5.391   3.259  74.453  1.00  0.00     0.000 F  
HETATM   14  C   UNL     1      -7.225   4.235  73.348  1.00  0.00    -0.074 A  
HETATM   15  C   UNL     1      -5.917   3.783  73.340  1.00  0.00    -0.008 A  
HETATM   16  C   UNL     1      -5.708   4.419  71.028  1.00  0.00    -0.016 A  
ENDROOT
BRANCH   8  17
HETATM   17  C   UNL     1      -6.627   7.991  69.519  1.00  0.00    -0.038 C  
BRANCH  17  18
HETATM   18  C   UNL     1      -6.717   9.116  68.480  1.00  0.00    -0.059 C  
BRANCH  18  19
HETATM   19  N   UNL     1      -7.691   8.889  67.414  1.00  0.00    -0.096 NA 
HETATM   20  C   UNL     1      -9.588  10.505  67.872  1.00  0.00    -0.164 C  
HETATM   21  C   UNL     1      -9.099   9.055  67.788  1.00  0.00    -0.134 C  
HETATM   22  C   UNL     1      -9.182  11.323  66.641  1.00  0.00    -0.180 C  
HETATM   23  C   UNL     1      -7.717  11.116  66.243  1.00  0.00    -0.097 C  
HETATM   24  N   UNL     1      -9.526  12.782  66.739  1.00  0.00    -0.237 NA 
HETATM   25  O   UNL     1     -10.281   9.763  65.020  1.00  0.00    -0.126 OA 
HETATM   26  C   UNL     1      -7.359   9.630  66.188  1.00  0.00    -0.098 C  
HETATM   27  C   UNL     1     -10.301  13.203  65.580  1.00  0.00    -0.284 C  
HETATM   28  C   UNL     1     -10.080  10.885  65.458  1.00  0.00    -0.267 C  
HETATM   29  N   UNL     1     -10.654  12.003  64.920  1.00  0.00    -0.279 NA 
BRANCH  24  30
HETATM   30  C   UNL     1      -9.138  13.713  67.686  1.00  0.00    -0.207 A  
HETATM   31  C   UNL     1      -9.934  14.800  68.066  1.00  0.00    -0.218 A  
HETATM   32  C   UNL     1      -9.493  15.786  68.965  1.00  0.00    -0.247 A  
HETATM   33  C   UNL     1      -8.236  15.695  69.543  1.00  0.00    -0.175 A  
HETATM   34  C   UNL     1      -7.432  14.611  69.239  1.00  0.00    -0.132 A  
HETATM   35  C   UNL     1      -7.881  13.642  68.323  1.00  0.00    -0.141 A  
ENDBRANCH  24  30
ENDBRANCH  18  19
ENDBRANCH  17  18
ENDBRANCH   8  17
TORSDOF 4
ENDMDL
MODEL      198
REMARK 921   NORMALIZED FREE ENERGY PREDICTED BY IDOCK:   -2.38 KCAL/MOL
REMARK 922        TOTAL FREE ENERGY PREDICTED BY IDOCK:   -4.81 KCAL/MOL
REMARK 923 INTER-LIGAND FREE ENERGY PREDICTED BY IDOCK:   -3.76 KCAL/MOL
REMARK 924 INTRA-LIGAND FREE ENERGY PREDICTED BY IDOCK:   -1.05 KCAL/MOL
REMARK 927      BINDING AFFINITY PREDICTED BY RF-SCORE:    0.00 PKD
ROOT
HETATM    1  F   UNL     1      -9.942   3.941  64.940  1.00  0.00    -0.166 F  
HETATM    2  C   UNL     1      -9.337   4.520  65.985  1.00  0.00    -0.157 A  
HETATM    3  C   UNL     1      -7.998   4.259  66.237  1.00  0.00    -0.098 A  
HETATM    4  C   UNL     1      -7.384   4.820  67.359  1.00  0.00    -0.074 A  
HETATM    5  C   UNL     1      -8.102   5.658  68.235  1.00  0.00    -0.103 A  
HETATM    6  C   UNL     1      -7.409   6.216  69.490  1.00  0.00    -0.080 C  
HETATM    7  C   UNL     1      -9.430   5.973  67.896  1.00  0.00    -0.112 A  
HETATM    8  C   UNL     1      -6.744   7.592  69.184  1.00  0.00    -0.048 C  
HETATM    9  C   UNL     1     -10.057   5.377  66.801  1.00  0.00    -0.246 A  
HETATM   10  C   UNL     1      -8.147   6.116  70.838  1.00  0.00    -0.121 A  
HETATM   11  C   UNL     1      -9.417   5.532  70.997  1.00  0.00    -0.203 A  
HETATM   12  C   UNL     1      -8.120   6.485  73.264  1.00  0.00    -0.109 A  
HETATM   13  F   UNL     1      -9.999   5.893  74.559  1.00  0.00    -0.179 F  
HETATM   14  C   UNL     1     -10.051   5.481  72.242  1.00  0.00    -0.225 A  
HETATM   15  C   UNL     1      -9.396   5.958  73.366  1.00  0.00    -0.134 A  
HETATM   16  C   UNL     1      -7.501   6.561  72.011  1.00  0.00    -0.092 A  
ENDROOT
BRANCH   8  17
HETATM   17  C   UNL     1      -7.639   8.735  68.675  1.00  0.00    -0.097 C  
BRANCH  17  18
HETATM   18  C   UNL     1      -7.291   9.326  67.302  1.00  0.00    -0.091 C  
BRANCH  18  19
HETATM   19  N   UNL     1      -8.439   9.567  66.430  1.00  0.00    -0.125 NA 
HETATM   20  C   UNL     1      -9.745  11.439  67.529  1.00  0.00    -0.191 C  
HETATM   21  C   UNL     1      -9.678   9.969  67.102  1.00  0.00    -0.174 C  
HETATM   22  C   UNL     1      -9.325  12.387  66.400  1.00  0.00    -0.219 C  
HETATM   23  C   UNL     1      -8.045  11.938  65.688  1.00  0.00     0.833 C  
HETATM   24  N   UNL     1      -9.248  13.829  66.814  1.00  0.00    -0.253 NA 
HETATM   25  O   UNL     1     -11.030  11.514  64.789  1.00  0.00    -0.310 OA 
HETATM   26  C   UNL     1      -8.109  10.458  65.308  1.00  0.00    -0.152 C  
HETATM   27  C   UNL     1     -10.048  14.659  65.923  1.00  0.00    -0.320 C  
HETATM   28  C   UNL     1     -10.474  12.436  65.364  1.00  0.00    -0.277 C  
HETATM   29  N   UNL     1     -10.803  13.746  65.152  1.00  0.00    -0.325 NA 
BRANCH  24  30
HETATM   30  C   UNL     1      -8.488  14.418  67.809  1.00  0.00    -0.173 A  
HETATM   31  C   UNL     1      -7.262  15.049  67.569  1.00  0.00    -0.228 A  
HETATM   32  C   UNL     1      -6.460  15.566  68.600  1.00  0.00    -0.102 A  
HETATM   33  C   UNL     1      -6.883  15.497  69.918  1.00  0.00    -0.093 A  
HETATM   34  C   UNL     1      -8.113  14.930  70.202  1.00  0.00     0.588 A  
HETATM   35  C   UNL     1      -8.895  14.400  69.160  1.00  0.00     0.096 A  
ENDBRANCH  24  30
ENDBRANCH  18  19
ENDBRANCH  17  18
ENDBRANCH   8  17
TORSDOF 4
ENDMDL
MODEL      199
REMARK 921   NORMALIZED FREE ENERGY PREDICTED BY IDOCK:   -2.33 KCAL/MOL
REMARK 922        TOTAL FREE ENERGY PREDICTED BY IDOCK:   -4.75 KCAL/MOL
REMARK 923 INTER-LIGAND FREE ENERGY PREDICTED BY IDOCK:   -4.13 KCAL/MOL
REMARK 924 INTRA-LIGAND FREE ENERGY PREDICTED BY IDOCK:   -0.62 KCAL/MOL
REMARK 927      BINDING AFFINITY PREDICTED BY RF-SCORE:    0.00 PKD
ROOT
HETATM    1  F   UNL     1      -7.946   3.731  63.005  1.00  0.00    -0.069 F  
HETATM    2  C   UNL     1      -7.511   4.149  64.200  1.00  0.00    -0.070 A  
HETATM    3  C   UNL     1      -6.349   4.903  64.285  1.00  0.00    -0.033 A  
HETATM    4  C   UNL     1      -5.867   5.291  65.538  1.00  0.00    -0.021 A  
HETATM    5  C   UNL     1      -6.550   4.937  66.718  1.00  0.00    -0.050 A  
HETATM    6  C   UNL     1      -5.963   5.336  68.083  1.00  0.00    -0.022 C  
HETATM    7  C   UNL     1      -7.772   4.253  66.587  1.00  0.00    -0.093 A  
HETATM    8  C   UNL     1      -6.506   6.726  68.530  1.00  0.00    -0.039 C  
HETATM    9  C   UNL     1      -8.230   3.827  65.340  1.00  0.00    -0.101 A  
HETATM   10  C   UNL     1      -5.884   4.264  69.186  1.00  0.00    -0.022 A  
HETATM   11  C   UNL     1      -6.306   2.932  69.019  1.00  0.00    -0.029 A  
HETATM   12  C   UNL     1      -5.180   3.654  71.456  1.00  0.00     0.000 A  
HETATM   13  F   UNL     1      -5.576   1.472  72.258  1.00  0.00    -0.003 F  
HETATM   14  C   UNL     1      -6.228   2.002  70.059  1.00  0.00    -0.024 A  
HETATM   15  C   UNL     1      -5.664   2.370  71.270  1.00  0.00    -0.013 A  
HETATM   16  C   UNL     1      -5.287   4.591  70.422  1.00  0.00    -0.004 A  
ENDROOT
BRANCH   8  17
HETATM   17  C   UNL     1      -8.028   6.898  68.679  1.00  0.00    -0.120 C  
BRANCH  17  18
HETATM   18  C   UNL     1      -8.600   6.783  70.098  1.00  0.00    -0.140 C  
BRANCH  18  19
HETATM   19  N   UNL     1      -9.777   7.611  70.353  1.00  0.00    -0.179 NA 
HETATM   20  C   UNL     1      -9.164   9.931  69.540  1.00  0.00    -0.238 C  
HETATM   21  C   UNL     1      -9.510   9.008  70.712  1.00  0.00    -0.251 C  
HETATM   22  C   UNL     1     -10.146   9.777  68.373  1.00  0.00    -0.166 C  
HETATM   23  C   UNL     1     -10.438   8.312  68.029  1.00  0.00    -0.239 C  
HETATM   24  N   UNL     1      -9.769  10.566  67.152  1.00  0.00    -0.168 NA 
HETATM   25  O   UNL     1     -12.161  10.290  69.767  1.00  0.00    -0.175 OA 
HETATM   26  C   UNL     1     -10.778   7.503  69.281  1.00  0.00    -0.176 C  
HETATM   27  C   UNL     1     -10.879  11.408  66.726  1.00  0.00    -0.286 C  
HETATM   28  C   UNL     1     -11.475  10.463  68.773  1.00  0.00    -0.175 C  
HETATM   29  N   UNL     1     -11.811  11.349  67.787  1.00  0.00    -0.630 NA 
BRANCH  24  30
HETATM   30  C   UNL     1      -8.612  10.513  66.395  1.00  0.00    -0.144 A  
HETATM   31  C   UNL     1      -7.420  11.146  66.767  1.00  0.00    -0.146 A  
HETATM   32  C   UNL     1      -6.279  11.157  65.948  1.00  0.00     0.030 A  
HETATM   33  C   UNL     1      -6.286  10.497  64.729  1.00  0.00    -0.033 A  
HETATM   34  C   UNL     1      -7.424   9.812  64.340  1.00  0.00    -0.132 A  
HETATM   35  C   UNL     1      -8.564   9.827  65.163  1.00  0.00    -0.173 A  
ENDBRANCH  24  30
ENDBRANCH  18  19
ENDBRANCH  17  18
ENDBRANCH   8  17
TORSDOF 4
ENDMDL
MODEL      200
REMARK 921   NORMALIZED FREE ENERGY PREDICTED BY IDOCK:   -2.25 KCAL/MOL
REMARK 922        TOTAL FREE ENERGY PREDICTED BY IDOCK:   -4.65 KCAL/MOL
REMARK 923 INTER-LIGAND FREE ENERGY PREDICTED BY IDOCK:   -3.49 KCAL/MOL
REMARK 924 INTRA-LIGAND FREE ENERGY PREDICTED BY IDOCK:   -1.16 KCAL/MOL
REMARK 927      BINDING AFFINITY PREDICTED BY RF-SCORE:    0.00 PKD
ROOT
HETATM    1  F   UNL     1      -6.197  16.228  71.013  1.00  0.00     0.258 F  
HETATM    2  C   UNL     1      -6.217  15.159  70.207  1.00  0.00    -0.108 A  
HETATM    3  C   UNL     1      -5.471  15.166  69.036  1.00  0.00    -0.097 A  
HETATM    4  C   UNL     1      -5.537  14.072  68.169  1.00  0.00    -0.123 A  
HETATM    5  C   UNL     1      -6.340  12.955  68.471  1.00  0.00    -0.079 A  
HETATM    6  C   UNL     1      -6.430  11.791  67.470  1.00  0.00    -0.095 C  
HETATM    7  C   UNL     1      -7.008  12.945  69.710  1.00  0.00     0.384 A  
HETATM    8  C   UNL     1      -5.337  10.722  67.770  1.00  0.00    -0.039 C  
HETATM    9  C   UNL     1      -6.979  14.055  70.554  1.00  0.00     0.612 A  
HETATM   10  C   UNL     1      -7.823  11.240  67.112  1.00  0.00    -0.151 A  
HETATM   11  C   UNL     1      -9.026  11.744  67.637  1.00  0.00    -0.169 A  
HETATM   12  C   UNL     1      -9.171   9.686  65.774  1.00  0.00    -0.264 A  
HETATM   13  F   UNL     1     -11.516   9.660  66.021  1.00  0.00     0.808 F  
HETATM   14  C   UNL     1     -10.265  11.196  67.292  1.00  0.00    -0.227 A  
HETATM   15  C   UNL     1     -10.328  10.172  66.362  1.00  0.00    -0.188 A  
HETATM   16  C   UNL     1      -7.931  10.218  66.144  1.00  0.00    -0.131 A  
ENDROOT
BRANCH   8  17
HETATM   17  C   UNL     1      -5.331  10.060  69.159  1.00  0.00    -0.035 C  
BRANCH  17  18
HETATM   18  C   UNL     1      -6.593   9.286  69.561  1.00  0.00    -0.043 C  
BRANCH  18  19
HETATM   19  N   UNL     1      -6.365   8.180  70.489  1.00  0.00    -0.036 NA 
HETATM   20  C   UNL     1      -8.041   8.508  72.360  1.00  0.00    -0.134 C  
HETATM   21  C   UNL     1      -6.578   8.483  71.908  1.00  0.00    -0.076 C  
HETATM   22  C   UNL     1      -8.817   7.278  71.874  1.00  0.00    -0.122 C  
HETATM   23  C   UNL     1      -8.561   6.957  70.398  1.00  0.00    -0.143 C  
HETATM   24  N   UNL     1     -10.286   7.325  72.182  1.00  0.00    -0.191 NA 
HETATM   25  O   UNL     1      -7.246   5.645  72.938  1.00  0.00    -0.087 OA 
HETATM   26  C   UNL     1      -7.065   6.954  70.079  1.00  0.00    -0.074 C  
HETATM   27  C   UNL     1     -10.698   6.120  72.890  1.00  0.00    -0.247 C  
HETATM   28  C   UNL     1      -8.373   6.065  72.727  1.00  0.00    -0.118 C  
HETATM   29  N   UNL     1      -9.492   5.474  73.244  1.00  0.00    -0.145 NA 
BRANCH  24  30
HETATM   30  C   UNL     1     -11.231   8.266  71.814  1.00  0.00    -0.283 A  
HETATM   31  C   UNL     1     -10.915   9.450  71.137  1.00  0.00    -0.430 A  
HETATM   32  C   UNL     1     -11.872  10.437  70.845  1.00  0.00    -0.475 A  
HETATM   33  C   UNL     1     -13.200  10.250  71.198  1.00  0.00    -0.429 A  
HETATM   34  C   UNL     1     -13.572   9.073  71.822  1.00  0.00    -0.468 A  
HETATM   35  C   UNL     1     -12.599   8.104  72.124  1.00  0.00    -0.349 A  
ENDBRANCH  24  30
ENDBRANCH  18  19
ENDBRANCH  17  18
ENDBRANCH   8  17
TORSDOF 4
ENDMDL
MODEL      201
REMARK 921   NORMALIZED FREE ENERGY PREDICTED BY IDOCK:   -2.21 KCAL/MOL
REMARK 922        TOTAL FREE ENERGY PREDICTED BY IDOCK:   -4.60 KCAL/MOL
REMARK 923 INTER-LIGAND FREE ENERGY PREDICTED BY IDOCK:   -4.55 KCAL/MOL
REMARK 924 INTRA-LIGAND FREE ENERGY PREDICTED BY IDOCK:   -0.05 KCAL/MOL
REMARK 927      BINDING AFFINITY PREDICTED BY RF-SCORE:    0.00 PKD
ROOT
HETATM    1  F   UNL     1      -5.601  15.766  69.892  1.00  0.00    -0.114 F  
HETATM    2  C   UNL     1      -6.517  15.026  69.254  1.00  0.00    -0.124 A  
HETATM    3  C   UNL     1      -7.776  14.858  69.812  1.00  0.00     0.009 A  
HETATM    4  C   UNL     1      -8.712  14.040  69.173  1.00  0.00     0.288 A  
HETATM    5  C   UNL     1      -8.399  13.391  67.962  1.00  0.00    -0.165 A  
HETATM    6  C   UNL     1      -9.433  12.457  67.313  1.00  0.00    -0.191 C  
HETATM    7  C   UNL     1      -7.146  13.660  67.380  1.00  0.00    -0.097 A  
HETATM    8  C   UNL     1     -10.340  13.245  66.320  1.00  0.00    -0.290 C  
HETATM    9  C   UNL     1      -6.196  14.440  68.041  1.00  0.00    -0.162 A  
HETATM   10  C   UNL     1      -8.966  11.070  66.832  1.00  0.00    -0.162 A  
HETATM   11  C   UNL     1      -7.648  10.597  66.962  1.00  0.00    -0.110 A  
HETATM   12  C   UNL     1      -9.547   8.896  65.853  1.00  0.00    -0.293 A  
HETATM   13  F   UNL     1      -7.865   7.279  65.511  1.00  0.00    -0.089 F  
HETATM   14  C   UNL     1      -7.272   9.334  66.494  1.00  0.00    -0.086 A  
HETATM   15  C   UNL     1      -8.225   8.493  65.944  1.00  0.00    -0.125 A  
HETATM   16  C   UNL     1      -9.914  10.172  66.295  1.00  0.00    -0.304 A  
ENDROOT
BRANCH   8  17
HETATM   17  C   UNL     1      -9.666  13.979  65.147  1.00  0.00     0.015 C  
BRANCH  17  18
HETATM   18  C   UNL     1      -9.939  15.485  65.027  1.00  0.00    -0.022 C  
BRANCH  18  19
HETATM   19  N   UNL     1     -10.333  16.137  66.274  1.00  0.00    -0.315 NA 
HETATM   20  C   UNL     1      -8.284  17.408  67.051  1.00  0.00    -0.240 C  
HETATM   21  C   UNL     1      -9.280  16.268  67.286  1.00  0.00    -0.208 C  
HETATM   22  C   UNL     1      -8.986  18.731  66.724  1.00  0.00    -0.308 C  
HETATM   23  C   UNL     1     -10.104  18.572  65.687  1.00  0.00     0.173 C  
HETATM   24  N   UNL     1      -8.048  19.844  66.357  1.00  0.00    -0.324 NA 
HETATM   25  O   UNL     1     -10.355  18.729  68.820  1.00  0.00    -0.323 OA 
HETATM   26  C   UNL     1     -11.032  17.409  66.042  1.00  0.00     0.211 C  
HETATM   27  C   UNL     1      -8.298  21.017  67.183  1.00  0.00     0.121 C  
HETATM   28  C   UNL     1      -9.603  19.281  68.033  1.00  0.00    -0.340 C  
HETATM   29  N   UNL     1      -9.172  20.568  68.200  1.00  0.00     0.012 NA 
BRANCH  24  30
HETATM   30  C   UNL     1      -7.112  19.904  65.339  1.00  0.00    -0.261 A  
HETATM   31  C   UNL     1      -7.134  20.874  64.330  1.00  0.00     0.340 A  
HETATM   32  C   UNL     1      -6.229  20.872  63.255  1.00  0.00    -0.245 A  
HETATM   33  C   UNL     1      -5.239  19.904  63.175  1.00  0.00    -0.274 A  
HETATM   34  C   UNL     1      -5.144  18.954  64.177  1.00  0.00    -0.237 A  
HETATM   35  C   UNL     1      -6.069  18.959  65.236  1.00  0.00    -0.305 A  
ENDBRANCH  24  30
ENDBRANCH  18  19
ENDBRANCH  17  18
ENDBRANCH   8  17
TORSDOF 4
ENDMDL
MODEL      202
REMARK 921   NORMALIZED FREE ENERGY PREDICTED BY IDOCK:   -2.04 KCAL/MOL
REMARK 922        TOTAL FREE ENERGY PREDICTED BY IDOCK:   -4.39 KCAL/MOL
REMARK 923 INTER-LIGAND FREE ENERGY PREDICTED BY IDOCK:   -3.44 KCAL/MOL
REMARK 924 INTRA-LIGAND FREE ENERGY PREDICTED BY IDOCK:   -0.95 KCAL/MOL
REMARK 927      BINDING AFFINITY PREDICTED BY RF-SCORE:    0.00 PKD
ROOT
HETATM    1  F   UNL     1      -9.851  15.744  69.064  1.00  0.00    -0.193 F  
HETATM    2  C   UNL     1     -10.140  14.447  68.899  1.00  0.00    -0.200 A  
HETATM    3  C   UNL     1     -11.460  14.022  68.968  1.00  0.00    -0.337 A  
HETATM    4  C   UNL     1     -11.754  12.661  68.851  1.00  0.00    -0.370 A  
HETATM    5  C   UNL     1     -10.731  11.713  68.653  1.00  0.00    -0.246 A  
HETATM    6  C   UNL     1     -11.086  10.218  68.582  1.00  0.00    -0.290 C  
HETATM    7  C   UNL     1      -9.418  12.191  68.496  1.00  0.00    -0.125 A  
HETATM    8  C   UNL     1     -11.370   9.791  67.110  1.00  0.00     0.624 C  
HETATM    9  C   UNL     1      -9.118  13.545  68.657  1.00  0.00    -0.008 A  
HETATM   10  C   UNL     1     -10.251   9.228  69.415  1.00  0.00    -0.214 A  
HETATM   11  C   UNL     1      -9.186   9.609  70.253  1.00  0.00    -0.285 A  
HETATM   12  C   UNL     1      -9.886   6.919  70.162  1.00  0.00    -0.185 A  
HETATM   13  F   UNL     1      -8.108   6.433  71.633  1.00  0.00    -0.104 F  
HETATM   14  C   UNL     1      -8.450   8.667  70.976  1.00  0.00    -0.199 A  
HETATM   15  C   UNL     1      -8.806   7.330  70.926  1.00  0.00    -0.149 A  
HETATM   16  C   UNL     1     -10.603   7.861  69.416  1.00  0.00    -0.209 A  
ENDROOT
BRANCH   8  17
HETATM   17  C   UNL     1     -10.257   9.992  66.067  1.00  0.00    -0.277 C  
BRANCH  17  18
HETATM   18  C   UNL     1      -9.602   8.724  65.503  1.00  0.00     0.063 C  
BRANCH  18  19
HETATM   19  N   UNL     1      -8.371   8.955  64.748  1.00  0.00    -0.167 NA 
HETATM   20  C   UNL     1      -6.827   7.044  65.368  1.00  0.00    -0.052 C  
HETATM   21  C   UNL     1      -7.129   8.546  65.412  1.00  0.00    -0.082 C  
HETATM   22  C   UNL     1      -6.988   6.463  63.959  1.00  0.00    -0.043 C  
HETATM   23  C   UNL     1      -8.276   6.923  63.267  1.00  0.00     0.083 C  
HETATM   24  N   UNL     1      -6.831   4.971  63.895  1.00  0.00    -0.046 NA 
HETATM   25  O   UNL     1      -5.361   8.057  62.922  1.00  0.00    -0.053 OA 
HETATM   26  C   UNL     1      -8.455   8.439  63.374  1.00  0.00     0.018 C  
HETATM   27  C   UNL     1      -5.834   4.605  62.898  1.00  0.00    -0.017 C  
HETATM   28  C   UNL     1      -5.780   6.927  63.110  1.00  0.00    -0.036 C  
HETATM   29  N   UNL     1      -5.205   5.822  62.546  1.00  0.00    -0.013 NA 
BRANCH  24  30
HETATM   30  C   UNL     1      -7.539   3.983  64.557  1.00  0.00    -0.076 A  
HETATM   31  C   UNL     1      -6.928   2.954  65.282  1.00  0.00    -0.053 A  
HETATM   32  C   UNL     1      -7.656   1.910  65.878  1.00  0.00    -0.070 A  
HETATM   33  C   UNL     1      -9.039   1.882  65.791  1.00  0.00    -0.059 A  
HETATM   34  C   UNL     1      -9.693   2.906  65.129  1.00  0.00     0.061 A  
HETATM   35  C   UNL     1      -8.949   3.934  64.523  1.00  0.00    -0.132 A  
ENDBRANCH  24  30
ENDBRANCH  18  19
ENDBRANCH  17  18
ENDBRANCH   8  17
TORSDOF 4
ENDMDL
MODEL      203
REMARK 921   NORMALIZED FREE ENERGY PREDICTED BY IDOCK:   -2.02 KCAL/MOL
REMARK 922        TOTAL FREE ENERGY PREDICTED BY IDOCK:   -4.37 KCAL/MOL
REMARK 923 INTER-LIGAND FREE ENERGY PREDICTED BY IDOCK:   -3.21 KCAL/MOL
REMARK 924 INTRA-LIGAND FREE ENERGY PREDICTED BY IDOCK:   -1.16 KCAL/MOL
REMARK 927      BINDING AFFINITY PREDICTED BY RF-SCORE:    0.00 PKD
ROOT
HETATM    1  F   UNL     1      -5.409  15.118  73.983  1.00  0.00     0.093 F  
HETATM    2  C   UNL     1      -5.627  15.224  72.666  1.00  0.00     0.592 A  
HETATM    3  C   UNL     1      -5.134  16.320  71.972  1.00  0.00     0.502 A  
HETATM    4  C   UNL     1      -5.411  16.456  70.610  1.00  0.00    -0.157 A  
HETATM    5  C   UNL     1      -6.175  15.491  69.925  1.00  0.00    -0.157 A  
HETATM    6  C   UNL     1      -6.505  15.699  68.438  1.00  0.00    -0.113 C  
HETATM    7  C   UNL     1      -6.579  14.349  70.640  1.00  0.00     0.110 A  
HETATM    8  C   UNL     1      -5.411  15.051  67.536  1.00  0.00     0.113 C  
HETATM    9  C   UNL     1      -6.341  14.234  72.011  1.00  0.00     0.855 A  
HETATM   10  C   UNL     1      -7.960  15.493  67.975  1.00  0.00    -0.138 A  
HETATM   11  C   UNL     1      -9.014  15.136  68.835  1.00  0.00    -0.206 A  
HETATM   12  C   UNL     1      -9.604  15.583  66.155  1.00  0.00    -0.362 A  
HETATM   13  F   UNL     1     -11.850  15.003  66.578  1.00  0.00    -0.319 F  
HETATM   14  C   UNL     1     -10.315  14.945  68.361  1.00  0.00    -0.233 A  
HETATM   15  C   UNL     1     -10.600  15.171  67.025  1.00  0.00    -0.300 A  
HETATM   16  C   UNL     1      -8.297  15.745  66.628  1.00  0.00    -0.319 A  
ENDROOT
BRANCH   8  17
HETATM   17  C   UNL     1      -5.148  13.542  67.683  1.00  0.00     0.033 C  
BRANCH  17  18
HETATM   18  C   UNL     1      -6.368  12.616  67.588  1.00  0.00    -0.147 C  
BRANCH  18  19
HETATM   19  N   UNL     1      -6.116  11.339  66.923  1.00  0.00    -0.105 NA 
HETATM   20  C   UNL     1      -7.092   9.573  68.456  1.00  0.00    -0.070 C  
HETATM   21  C   UNL     1      -5.853  10.200  67.808  1.00  0.00    -0.042 C  
HETATM   22  C   UNL     1      -8.206   9.311  67.436  1.00  0.00    -0.117 C  
HETATM   23  C   UNL     1      -8.449  10.499  66.499  1.00  0.00    -0.139 C  
HETATM   24  N   UNL     1      -9.487   8.820  68.047  1.00  0.00    -0.142 NA 
HETATM   25  O   UNL     1      -6.765   7.898  65.956  1.00  0.00    -0.052 OA 
HETATM   26  C   UNL     1      -7.137  11.024  65.913  1.00  0.00     0.041 C  
HETATM   27  C   UNL     1      -9.918   7.585  67.406  1.00  0.00    -0.187 C  
HETATM   28  C   UNL     1      -7.795   8.087  66.582  1.00  0.00    -0.098 C  
HETATM   29  N   UNL     1      -8.818   7.181  66.615  1.00  0.00    -0.126 NA 
BRANCH  24  30
HETATM   30  C   UNL     1     -10.286   9.414  69.008  1.00  0.00    -0.210 A  
HETATM   31  C   UNL     1     -10.709   8.758  70.170  1.00  0.00    -0.239 A  
HETATM   32  C   UNL     1     -11.590   9.344  71.095  1.00  0.00    -0.415 A  
HETATM   33  C   UNL     1     -12.055  10.635  70.898  1.00  0.00    -0.489 A  
HETATM   34  C   UNL     1     -11.624  11.345  69.791  1.00  0.00    -0.407 A  
HETATM   35  C   UNL     1     -10.757  10.737  68.865  1.00  0.00    -0.259 A  
ENDBRANCH  24  30
ENDBRANCH  18  19
ENDBRANCH  17  18
ENDBRANCH   8  17
TORSDOF 4
ENDMDL
MODEL      204
REMARK 921   NORMALIZED FREE ENERGY PREDICTED BY IDOCK:   -1.61 KCAL/MOL
REMARK 922        TOTAL FREE ENERGY PREDICTED BY IDOCK:   -3.87 KCAL/MOL
REMARK 923 INTER-LIGAND FREE ENERGY PREDICTED BY IDOCK:   -3.03 KCAL/MOL
REMARK 924 INTRA-LIGAND FREE ENERGY PREDICTED BY IDOCK:   -0.84 KCAL/MOL
REMARK 927      BINDING AFFINITY PREDICTED BY RF-SCORE:    0.00 PKD
ROOT
HETATM    1  F   UNL     1      -9.273  15.598  68.919  1.00  0.00    -0.175 F  
HETATM    2  C   UNL     1      -9.788  14.369  68.789  1.00  0.00    -0.214 A  
HETATM    3  C   UNL     1     -11.135  14.214  68.492  1.00  0.00    -0.276 A  
HETATM    4  C   UNL     1     -11.681  12.930  68.412  1.00  0.00    -0.382 A  
HETATM    5  C   UNL     1     -10.882  11.789  68.617  1.00  0.00    -0.259 A  
HETATM    6  C   UNL     1     -11.527  10.393  68.574  1.00  0.00    -0.231 C  
HETATM    7  C   UNL     1      -9.504  11.983  68.824  1.00  0.00     0.027 A  
HETATM    8  C   UNL     1     -11.480   9.810  67.129  1.00  0.00     1.050 C  
HETATM    9  C   UNL     1      -8.967  13.264  68.948  1.00  0.00     0.276 A  
HETATM   10  C   UNL     1     -11.200   9.400  69.705  1.00  0.00    -0.100 A  
HETATM   11  C   UNL     1     -10.352   9.696  70.788  1.00  0.00    -0.356 A  
HETATM   12  C   UNL     1     -11.581   7.203  70.728  1.00  0.00    -0.358 A  
HETATM   13  F   UNL     1     -10.437   6.618  72.705  1.00  0.00    -0.191 F  
HETATM   14  C   UNL     1     -10.075   8.752  71.781  1.00  0.00    -0.403 A  
HETATM   15  C   UNL     1     -10.692   7.513  71.744  1.00  0.00    -0.211 A  
HETATM   16  C   UNL     1     -11.834   8.139  69.720  1.00  0.00     0.696 A  
ENDROOT
BRANCH   8  17
HETATM   17  C   UNL     1     -10.105   9.641  66.458  1.00  0.00    -0.314 C  
BRANCH  17  18
HETATM   18  C   UNL     1      -9.663   8.206  66.143  1.00  0.00    -0.084 C  
BRANCH  18  19
HETATM   19  N   UNL     1      -8.260   7.919  66.435  1.00  0.00    -0.116 NA 
HETATM   20  C   UNL     1      -8.091   5.394  66.546  1.00  0.00    -0.105 C  
HETATM   21  C   UNL     1      -8.009   6.741  67.271  1.00  0.00    -0.114 C  
HETATM   22  C   UNL     1      -7.298   5.394  65.234  1.00  0.00    -0.068 C  
HETATM   23  C   UNL     1      -7.547   6.646  64.386  1.00  0.00    -0.103 C  
HETATM   24  N   UNL     1      -7.458   4.139  64.425  1.00  0.00    -0.070 NA 
HETATM   25  O   UNL     1      -5.145   6.052  66.329  1.00  0.00    -0.008 OA 
HETATM   26  C   UNL     1      -7.427   7.920  65.224  1.00  0.00    -0.081 C  
HETATM   27  C   UNL     1      -6.156   3.570  64.102  1.00  0.00    -0.018 C  
HETATM   28  C   UNL     1      -5.791   5.331  65.587  1.00  0.00    -0.018 C  
HETATM   29  N   UNL     1      -5.235   4.289  64.898  1.00  0.00    -0.009 NA 
BRANCH  24  30
HETATM   30  C   UNL     1      -8.608   3.563  63.916  1.00  0.00    -0.090 A  
HETATM   31  C   UNL     1      -9.551   4.269  63.158  1.00  0.00    -0.098 A  
HETATM   32  C   UNL     1     -10.756   3.694  62.720  1.00  0.00    -0.180 A  
HETATM   33  C   UNL     1     -11.043   2.368  63.003  1.00  0.00    -0.217 A  
HETATM   34  C   UNL     1     -10.119   1.613  63.704  1.00  0.00    -0.128 A  
HETATM   35  C   UNL     1      -8.926   2.208  64.151  1.00  0.00    -0.104 A  
ENDBRANCH  24  30
ENDBRANCH  18  19
ENDBRANCH  17  18
ENDBRANCH   8  17
TORSDOF 4
ENDMDL
MODEL      205
REMARK 921   NORMALIZED FREE ENERGY PREDICTED BY IDOCK:   -1.35 KCAL/MOL
REMARK 922        TOTAL FREE ENERGY PREDICTED BY IDOCK:   -3.54 KCAL/MOL
REMARK 923 INTER-LIGAND FREE ENERGY PREDICTED BY IDOCK:   -3.18 KCAL/MOL
REMARK 924 INTRA-LIGAND FREE ENERGY PREDICTED BY IDOCK:   -0.36 KCAL/MOL
REMARK 927      BINDING AFFINITY PREDICTED BY RF-SCORE:    0.00 PKD
ROOT
HETATM    1  F   UNL     1     -12.487  12.243  64.122  1.00  0.00    -0.478 F  
HETATM    2  C   UNL     1     -11.268  11.691  64.078  1.00  0.00    -0.369 A  
HETATM    3  C   UNL     1     -10.260  12.306  63.348  1.00  0.00    -0.360 A  
HETATM    4  C   UNL     1      -9.004  11.700  63.258  1.00  0.00     0.135 A  
HETATM    5  C   UNL     1      -8.741  10.478  63.908  1.00  0.00    -0.176 A  
HETATM    6  C   UNL     1      -7.364   9.813  63.745  1.00  0.00    -0.129 C  
HETATM    7  C   UNL     1      -9.757   9.934  64.714  1.00  0.00    -0.305 A  
HETATM    8  C   UNL     1      -6.389  10.286  64.865  1.00  0.00    -0.121 C  
HETATM    9  C   UNL     1     -11.025  10.515  64.768  1.00  0.00     0.511 A  
HETATM   10  C   UNL     1      -7.313   8.311  63.406  1.00  0.00    -0.105 A  
HETATM   11  C   UNL     1      -8.453   7.508  63.223  1.00  0.00     0.276 A  
HETATM   12  C   UNL     1      -5.956   6.339  62.865  1.00  0.00    -0.026 A  
HETATM   13  F   UNL     1      -7.010   4.269  62.460  1.00  0.00    -0.029 F  
HETATM   14  C   UNL     1      -8.351   6.145  62.932  1.00  0.00     0.025 A  
HETATM   15  C   UNL     1      -7.103   5.571  62.754  1.00  0.00    -0.044 A  
HETATM   16  C   UNL     1      -6.061   7.697  63.185  1.00  0.00    -0.055 A  
ENDROOT
BRANCH   8  17
HETATM   17  C   UNL     1      -6.787  10.035  66.330  1.00  0.00    -0.099 C  
BRANCH  17  18
HETATM   18  C   UNL     1      -6.805  11.256  67.259  1.00  0.00    -0.108 C  
BRANCH  18  19
HETATM   19  N   UNL     1      -8.109  11.557  67.849  1.00  0.00    -0.125 NA 
HETATM   20  C   UNL     1      -9.254   9.317  68.145  1.00  0.00    -0.136 C  
HETATM   21  C   UNL     1      -9.211  10.679  67.445  1.00  0.00    -0.143 C  
HETATM   22  C   UNL     1      -9.098   9.444  69.664  1.00  0.00    -0.181 C  
HETATM   23  C   UNL     1      -7.962  10.388  70.071  1.00  0.00     0.090 C  
HETATM   24  N   UNL     1      -9.002   8.126  70.379  1.00  0.00    -0.144 NA 
HETATM   25  O   UNL     1     -11.044  10.997  69.914  1.00  0.00    -0.259 OA 
HETATM   26  C   UNL     1      -8.038  11.712  69.309  1.00  0.00     0.324 C  
HETATM   27  C   UNL     1      -9.991   8.049  71.445  1.00  0.00    -0.178 C  
HETATM   28  C   UNL     1     -10.426   9.996  70.237  1.00  0.00    -0.272 C  
HETATM   29  N   UNL     1     -10.842   9.158  71.234  1.00  0.00    -0.303 NA 
BRANCH  24  30
HETATM   30  C   UNL     1      -8.089   7.100  70.209  1.00  0.00    -0.118 A  
HETATM   31  C   UNL     1      -8.318   5.996  69.379  1.00  0.00    -0.115 A  
HETATM   32  C   UNL     1      -7.420   4.920  69.282  1.00  0.00    -0.057 A  
HETATM   33  C   UNL     1      -6.233   4.931  70.000  1.00  0.00    -0.026 A  
HETATM   34  C   UNL     1      -5.938   6.024  70.795  1.00  0.00    -0.030 A  
HETATM   35  C   UNL     1      -6.856   7.085  70.895  1.00  0.00    -0.054 A  
ENDBRANCH  24  30
ENDBRANCH  18  19
ENDBRANCH  17  18
ENDBRANCH   8  17
TORSDOF 4
ENDMDL
MODEL      206
REMARK 921   NORMALIZED FREE ENERGY PREDICTED BY IDOCK:   -1.34 KCAL/MOL
REMARK 922        TOTAL FREE ENERGY PREDICTED BY IDOCK:   -3.52 KCAL/MOL
REMARK 923 INTER-LIGAND FREE ENERGY PREDICTED BY IDOCK:   -2.88 KCAL/MOL
REMARK 924 INTRA-LIGAND FREE ENERGY PREDICTED BY IDOCK:   -0.64 KCAL/MOL
REMARK 927      BINDING AFFINITY PREDICTED BY RF-SCORE:    0.00 PKD
ROOT
HETATM    1  F   UNL     1      -5.147  10.017  62.485  1.00  0.00    -0.080 F  
HETATM    2  C   UNL     1      -6.010   9.843  63.493  1.00  0.00    -0.119 A  
HETATM    3  C   UNL     1      -7.129  10.658  63.590  1.00  0.00     0.210 A  
HETATM    4  C   UNL     1      -7.999  10.511  64.674  1.00  0.00    -0.037 A  
HETATM    5  C   UNL     1      -7.763   9.538  65.666  1.00  0.00    -0.101 A  
HETATM    6  C   UNL     1      -8.712   9.439  66.872  1.00  0.00    -0.137 C  
HETATM    7  C   UNL     1      -6.671   8.670  65.484  1.00  0.00    -0.063 A  
HETATM    8  C   UNL     1      -9.872   8.440  66.578  1.00  0.00    -0.338 C  
HETATM    9  C   UNL     1      -5.778   8.846  64.427  1.00  0.00    -0.064 A  
HETATM   10  C   UNL     1      -8.097   9.352  68.281  1.00  0.00    -0.109 A  
HETATM   11  C   UNL     1      -6.713   9.370  68.537  1.00  0.00    -0.058 A  
HETATM   12  C   UNL     1      -8.446   9.260  70.709  1.00  0.00    -0.244 A  
HETATM   13  F   UNL     1      -6.587   9.141  72.154  1.00  0.00    -0.062 F  
HETATM   14  C   UNL     1      -6.206   9.272  69.836  1.00  0.00    -0.039 A  
HETATM   15  C   UNL     1      -7.076   9.218  70.911  1.00  0.00    -0.103 A  
HETATM   16  C   UNL     1      -8.950   9.329  69.405  1.00  0.00    -0.147 A  
ENDROOT
BRANCH   8  17
HETATM   17  C   UNL     1      -9.508   6.986  66.230  1.00  0.00    -0.127 C  
BRANCH  17  18
HETATM   18  C   UNL     1      -9.129   6.700  64.771  1.00  0.00     0.806 C  
BRANCH  18  19
HETATM   19  N   UNL     1      -8.443   5.427  64.555  1.00  0.00    -0.137 NA 
HETATM   20  C   UNL     1      -7.180   4.964  66.702  1.00  0.00    -0.080 C  
HETATM   21  C   UNL     1      -7.137   5.288  65.205  1.00  0.00    -0.066 C  
HETATM   22  C   UNL     1      -8.146   3.816  67.017  1.00  0.00    -0.095 C  
HETATM   23  C   UNL     1      -9.496   3.960  66.307  1.00  0.00    -0.198 C  
HETATM   24  N   UNL     1      -8.320   3.553  68.485  1.00  0.00    -0.076 NA 
HETATM   25  O   UNL     1      -7.023   2.208  65.461  1.00  0.00    -0.045 OA 
HETATM   26  C   UNL     1      -9.314   4.272  64.821  1.00  0.00    -0.163 C  
HETATM   27  C   UNL     1      -8.064   2.151  68.787  1.00  0.00    -0.051 C  
HETATM   28  C   UNL     1      -7.484   2.495  66.554  1.00  0.00    -0.070 C  
HETATM   29  N   UNL     1      -7.495   1.621  67.606  1.00  0.00    -0.053 NA 
BRANCH  24  30
HETATM   30  C   UNL     1      -8.754   4.405  69.485  1.00  0.00    -0.082 A  
HETATM   31  C   UNL     1     -10.105   4.668  69.739  1.00  0.00    -0.243 A  
HETATM   32  C   UNL     1     -10.530   5.601  70.700  1.00  0.00    -0.340 A  
HETATM   33  C   UNL     1      -9.602   6.285  71.470  1.00  0.00    -0.168 A  
HETATM   34  C   UNL     1      -8.255   6.021  71.293  1.00  0.00    -0.123 A  
HETATM   35  C   UNL     1      -7.846   5.098  70.314  1.00  0.00    -0.079 A  
ENDBRANCH  24  30
ENDBRANCH  18  19
ENDBRANCH  17  18
ENDBRANCH   8  17
TORSDOF 4
ENDMDL
MODEL      207
REMARK 921   NORMALIZED FREE ENERGY PREDICTED BY IDOCK:   -1.17 KCAL/MOL
REMARK 922        TOTAL FREE ENERGY PREDICTED BY IDOCK:   -3.32 KCAL/MOL
REMARK 923 INTER-LIGAND FREE ENERGY PREDICTED BY IDOCK:   -3.24 KCAL/MOL
REMARK 924 INTRA-LIGAND FREE ENERGY PREDICTED BY IDOCK:   -0.08 KCAL/MOL
REMARK 927      BINDING AFFINITY PREDICTED BY RF-SCORE:    0.00 PKD
ROOT
HETATM    1  F   UNL     1     -10.893   5.225  66.077  1.00  0.00    -0.301 F  
HETATM    2  C   UNL     1     -10.200   6.038  66.885  1.00  0.00    -0.210 A  
HETATM    3  C   UNL     1     -10.765   6.467  68.078  1.00  0.00    -0.362 A  
HETATM    4  C   UNL     1     -10.063   7.359  68.893  1.00  0.00    -0.188 A  
HETATM    5  C   UNL     1      -8.783   7.821  68.527  1.00  0.00    -0.128 A  
HETATM    6  C   UNL     1      -8.062   8.843  69.421  1.00  0.00    -0.105 C  
HETATM    7  C   UNL     1      -8.207   7.293  67.358  1.00  0.00    -0.116 A  
HETATM    8  C   UNL     1      -7.178   8.118  70.481  1.00  0.00    -0.048 C  
HETATM    9  C   UNL     1      -8.925   6.438  66.522  1.00  0.00    -0.153 A  
HETATM   10  C   UNL     1      -7.427  10.078  68.755  1.00  0.00    -0.081 A  
HETATM   11  C   UNL     1      -7.477  10.339  67.374  1.00  0.00    -0.094 A  
HETATM   12  C   UNL     1      -6.235  12.208  69.015  1.00  0.00    -0.081 A  
HETATM   13  F   UNL     1      -5.687  13.482  67.108  1.00  0.00    -0.008 F  
HETATM   14  C   UNL     1      -6.869  11.468  66.817  1.00  0.00    -0.114 A  
HETATM   15  C   UNL     1      -6.254  12.394  67.642  1.00  0.00    -0.132 A  
HETATM   16  C   UNL     1      -6.819  11.061  69.565  1.00  0.00    -0.133 A  
ENDROOT
BRANCH   8  17
HETATM   17  C   UNL     1      -6.075   7.169  69.982  1.00  0.00    -0.024 C  
BRANCH  17  18
HETATM   18  C   UNL     1      -5.545   6.137  70.986  1.00  0.00    -0.018 C  
BRANCH  18  19
HETATM   19  N   UNL     1      -6.553   5.214  71.505  1.00  0.00    -0.035 NA 
HETATM   20  C   UNL     1      -8.187   4.855  69.603  1.00  0.00    -0.080 C  
HETATM   21  C   UNL     1      -7.917   5.410  71.005  1.00  0.00    -0.105 C  
HETATM   22  C   UNL     1      -7.678   3.417  69.444  1.00  0.00    -0.051 C  
HETATM   23  C   UNL     1      -6.263   3.221  69.998  1.00  0.00    -0.027 C  
HETATM   24  N   UNL     1      -7.803   2.879  68.047  1.00  0.00    -0.059 NA 
HETATM   25  O   UNL     1      -9.010   2.542  71.373  1.00  0.00    -0.075 OA 
HETATM   26  C   UNL     1      -6.128   3.810  71.403  1.00  0.00    -0.014 C  
HETATM   27  C   UNL     1      -8.519   1.611  68.051  1.00  0.00    -0.067 C  
HETATM   28  C   UNL     1      -8.643   2.480  70.211  1.00  0.00    -0.054 C  
HETATM   29  N   UNL     1      -9.051   1.495  69.356  1.00  0.00    -0.086 NA 
BRANCH  24  30
HETATM   30  C   UNL     1      -7.273   3.368  66.867  1.00  0.00    -0.063 A  
HETATM   31  C   UNL     1      -6.002   3.949  66.776  1.00  0.00    -0.024 A  
HETATM   32  C   UNL     1      -5.511   4.519  65.590  1.00  0.00    -0.013 A  
HETATM   33  C   UNL     1      -6.274   4.495  64.433  1.00  0.00    -0.030 A  
HETATM   34  C   UNL     1      -7.516   3.885  64.458  1.00  0.00    -0.075 A  
HETATM   35  C   UNL     1      -8.001   3.336  65.658  1.00  0.00    -0.086 A  
ENDBRANCH  24  30
ENDBRANCH  18  19
ENDBRANCH  17  18
ENDBRANCH   8  17
TORSDOF 4
ENDMDL
MODEL      208
REMARK 921   NORMALIZED FREE ENERGY PREDICTED BY IDOCK:   -1.01 KCAL/MOL
REMARK 922        TOTAL FREE ENERGY PREDICTED BY IDOCK:   -3.12 KCAL/MOL
REMARK 923 INTER-LIGAND FREE ENERGY PREDICTED BY IDOCK:   -1.71 KCAL/MOL
REMARK 924 INTRA-LIGAND FREE ENERGY PREDICTED BY IDOCK:   -1.40 KCAL/MOL
REMARK 927      BINDING AFFINITY PREDICTED BY RF-SCORE:    0.00 PKD
ROOT
HETATM    1  F   UNL     1      -5.401  13.484  69.792  1.00  0.00    -0.083 F  
HETATM    2  C   UNL     1      -6.232  12.784  69.010  1.00  0.00    -0.095 A  
HETATM    3  C   UNL     1      -5.753  11.690  68.302  1.00  0.00    -0.045 A  
HETATM    4  C   UNL     1      -6.608  10.995  67.444  1.00  0.00    -0.069 A  
HETATM    5  C   UNL     1      -7.955  11.381  67.294  1.00  0.00    -0.149 A  
HETATM    6  C   UNL     1      -8.854  10.626  66.300  1.00  0.00    -0.172 C  
HETATM    7  C   UNL     1      -8.427  12.435  68.096  1.00  0.00    -0.180 A  
HETATM    8  C   UNL     1      -9.576   9.438  67.005  1.00  0.00    -0.209 C  
HETATM    9  C   UNL     1      -7.563  13.158  68.920  1.00  0.00     0.040 A  
HETATM   10  C   UNL     1      -9.719  11.448  65.326  1.00  0.00    -0.276 A  
HETATM   11  C   UNL     1      -9.728  12.854  65.278  1.00  0.00    -0.006 A  
HETATM   12  C   UNL     1     -11.296  11.471  63.445  1.00  0.00    -0.303 A  
HETATM   13  F   UNL     1     -12.089  13.528  62.609  1.00  0.00    -0.283 F  
HETATM   14  C   UNL     1     -10.544  13.553  64.384  1.00  0.00    -0.394 A  
HETATM   15  C   UNL     1     -11.321  12.856  63.474  1.00  0.00    -0.351 A  
HETATM   16  C   UNL     1     -10.499  10.775  64.361  1.00  0.00    -0.344 A  
ENDROOT
BRANCH   8  17
HETATM   17  C   UNL     1     -10.479   9.749  68.212  1.00  0.00    -0.255 C  
BRANCH  17  18
HETATM   18  C   UNL     1     -11.487  10.893  68.043  1.00  0.00    -0.281 C  
BRANCH  18  19
HETATM   19  N   UNL     1     -12.087  11.369  69.288  1.00  0.00    -0.319 NA 
HETATM   20  C   UNL     1     -10.498  13.131  70.177  1.00  0.00     1.764 C  
HETATM   21  C   UNL     1     -11.146  11.753  70.345  1.00  0.00     0.855 C  
HETATM   22  C   UNL     1     -11.528  14.218  69.851  1.00  0.00    -0.243 C  
HETATM   23  C   UNL     1     -12.523  13.791  68.767  1.00  0.00     0.198 C  
HETATM   24  N   UNL     1     -10.923  15.559  69.548  1.00  0.00    -0.251 NA 
HETATM   25  O   UNL     1     -12.910  13.768  71.889  1.00  0.00    -0.333 OA 
HETATM   26  C   UNL     1     -13.103  12.406  69.056  1.00  0.00     2.470 C  
HETATM   27  C   UNL     1     -11.516  16.589  70.390  1.00  0.00     0.032 C  
HETATM   28  C   UNL     1     -12.316  14.533  71.146  1.00  0.00    -0.345 C  
HETATM   29  N   UNL     1     -12.264  15.882  71.360  1.00  0.00    -0.439 NA 
BRANCH  24  30
HETATM   30  C   UNL     1     -10.008  15.909  68.572  1.00  0.00    -0.216 A  
HETATM   31  C   UNL     1      -8.714  16.361  68.856  1.00  0.00    -0.253 A  
HETATM   32  C   UNL     1      -7.825  16.795  67.859  1.00  0.00    -0.178 A  
HETATM   33  C   UNL     1      -8.197  16.757  66.524  1.00  0.00    -0.325 A  
HETATM   34  C   UNL     1      -9.448  16.268  66.187  1.00  0.00    -0.373 A  
HETATM   35  C   UNL     1     -10.333  15.856  67.199  1.00  0.00    -0.300 A  
ENDBRANCH  24  30
ENDBRANCH  18  19
ENDBRANCH  17  18
ENDBRANCH   8  17
TORSDOF 4
ENDMDL
MODEL      209
REMARK 921   NORMALIZED FREE ENERGY PREDICTED BY IDOCK:   -0.82 KCAL/MOL
REMARK 922        TOTAL FREE ENERGY PREDICTED BY IDOCK:   -2.89 KCAL/MOL
REMARK 923 INTER-LIGAND FREE ENERGY PREDICTED BY IDOCK:   -2.13 KCAL/MOL
REMARK 924 INTRA-LIGAND FREE ENERGY PREDICTED BY IDOCK:   -0.75 KCAL/MOL
REMARK 927      BINDING AFFINITY PREDICTED BY RF-SCORE:    0.00 PKD
ROOT
HETATM    1  F   UNL     1     -13.435   6.624  69.219  1.00  0.00     3.344 F  
HETATM    2  C   UNL     1     -12.119   6.837  69.343  1.00  0.00     0.723 A  
HETATM    3  C   UNL     1     -11.265   6.497  68.303  1.00  0.00    -0.259 A  
HETATM    4  C   UNL     1      -9.887   6.669  68.456  1.00  0.00    -0.139 A  
HETATM    5  C   UNL     1      -9.351   7.194  69.648  1.00  0.00    -0.149 A  
HETATM    6  C   UNL     1      -7.825   7.321  69.802  1.00  0.00    -0.117 C  
HETATM    7  C   UNL     1     -10.253   7.613  70.643  1.00  0.00    -0.199 A  
HETATM    8  C   UNL     1      -7.337   8.717  69.309  1.00  0.00    -0.074 C  
HETATM    9  C   UNL     1     -11.625   7.400  70.509  1.00  0.00    -0.256 A  
HETATM   10  C   UNL     1      -7.177   6.808  71.101  1.00  0.00    -0.077 A  
HETATM   11  C   UNL     1      -7.894   6.216  72.157  1.00  0.00    -0.101 A  
HETATM   12  C   UNL     1      -5.129   6.392  72.388  1.00  0.00    -0.027 A  
HETATM   13  F   UNL     1      -5.273   5.440  74.540  1.00  0.00    -0.020 F  
HETATM   14  C   UNL     1      -7.258   5.781  73.323  1.00  0.00    -0.086 A  
HETATM   15  C   UNL     1      -5.880   5.872  73.429  1.00  0.00    -0.044 A  
HETATM   16  C   UNL     1      -5.772   6.853  71.234  1.00  0.00    -0.035 A  
ENDROOT
BRANCH   8  17
HETATM   17  C   UNL     1      -7.917   9.971  69.986  1.00  0.00    -0.166 C  
BRANCH  17  18
HETATM   18  C   UNL     1      -8.232  11.164  69.074  1.00  0.00    -0.062 C  
BRANCH  18  19
HETATM   19  N   UNL     1      -9.561  11.135  68.465  1.00  0.00    -0.188 NA 
HETATM   20  C   UNL     1     -10.379  13.532  68.505  1.00  0.00    -0.242 C  
HETATM   21  C   UNL     1     -10.532  12.091  69.004  1.00  0.00    -0.053 C  
HETATM   22  C   UNL     1     -10.232  13.603  66.981  1.00  0.00    -0.250 C  
HETATM   23  C   UNL     1      -9.235  12.577  66.430  1.00  0.00    -0.177 C  
HETATM   24  N   UNL     1      -9.947  14.983  66.461  1.00  0.00    -0.253 NA 
HETATM   25  O   UNL     1     -12.374  12.388  66.538  1.00  0.00    -0.511 OA 
HETATM   26  C   UNL     1      -9.501  11.182  66.996  1.00  0.00    -0.177 C  
HETATM   27  C   UNL     1     -10.908  15.348  65.429  1.00  0.00    -0.391 C  
HETATM   28  C   UNL     1     -11.620  13.329  66.353  1.00  0.00    -0.347 C  
HETATM   29  N   UNL     1     -11.907  14.350  65.491  1.00  0.00    -0.357 NA 
BRANCH  24  30
HETATM   30  C   UNL     1      -8.901  15.837  66.763  1.00  0.00    -0.267 A  
HETATM   31  C   UNL     1      -8.968  17.225  66.594  1.00  0.00    -0.279 A  
HETATM   32  C   UNL     1      -7.870  18.071  66.823  1.00  0.00    -0.260 A  
HETATM   33  C   UNL     1      -6.664  17.550  67.266  1.00  0.00    -0.191 A  
HETATM   34  C   UNL     1      -6.563  16.189  67.498  1.00  0.00    -0.200 A  
HETATM   35  C   UNL     1      -7.666  15.354  67.246  1.00  0.00    -0.245 A  
ENDBRANCH  24  30
ENDBRANCH  18  19
ENDBRANCH  17  18
ENDBRANCH   8  17
TORSDOF 4
ENDMDL
MODEL      210
REMARK 921   NORMALIZED FREE ENERGY PREDICTED BY IDOCK:   -0.78 KCAL/MOL
REMARK 922        TOTAL FREE ENERGY PREDICTED BY IDOCK:   -2.84 KCAL/MOL
REMARK 923 INTER-LIGAND FREE ENERGY PREDICTED BY IDOCK:   -2.18 KCAL/MOL
REMARK 924 INTRA-LIGAND FREE ENERGY PREDICTED BY IDOCK:   -0.66 KCAL/MOL
REMARK 927      BINDING AFFINITY PREDICTED BY RF-SCORE:    0.00 PKD
ROOT
HETATM    1  F   UNL     1     -12.778  16.792  72.631  1.00  0.00    -0.188 F  
HETATM    2  C   UNL     1     -12.677  15.668  71.910  1.00  0.00    -0.442 A  
HETATM    3  C   UNL     1     -13.537  15.455  70.842  1.00  0.00    -0.373 A  
HETATM    4  C   UNL     1     -13.467  14.257  70.127  1.00  0.00     0.763 A  
HETATM    5  C   UNL     1     -12.527  13.264  70.467  1.00  0.00    -0.332 A  
HETATM    6  C   UNL     1     -12.512  11.935  69.692  1.00  0.00     0.027 C  
HETATM    7  C   UNL     1     -11.612  13.554  71.495  1.00  0.00     1.416 A  
HETATM    8  C   UNL     1     -11.547  12.022  68.471  1.00  0.00    -0.363 C  
HETATM    9  C   UNL     1     -11.711  14.731  72.238  1.00  0.00    -0.213 A  
HETATM   10  C   UNL     1     -12.459  10.622  70.494  1.00  0.00    -0.445 A  
HETATM   11  C   UNL     1     -12.434  10.559  71.899  1.00  0.00    -0.243 A  
HETATM   12  C   UNL     1     -12.477   8.168  70.482  1.00  0.00     0.400 A  
HETATM   13  F   UNL     1     -12.345   6.987  72.519  1.00  0.00    -0.207 F  
HETATM   14  C   UNL     1     -12.369   9.339  72.579  1.00  0.00    -0.140 A  
HETATM   15  C   UNL     1     -12.392   8.153  71.865  1.00  0.00    -0.332 A  
HETATM   16  C   UNL     1     -12.513   9.391  69.805  1.00  0.00     1.018 A  
ENDROOT
BRANCH   8  17
HETATM   17  C   UNL     1     -10.068  12.351  68.736  1.00  0.00    -0.068 C  
BRANCH  17  18
HETATM   18  C   UNL     1      -9.293  11.373  69.630  1.00  0.00     0.973 C  
BRANCH  18  19
HETATM   19  N   UNL     1      -8.355  10.505  68.918  1.00  0.00    -0.138 NA 
HETATM   20  C   UNL     1      -9.528   9.858  66.768  1.00  0.00    -0.212 C  
HETATM   21  C   UNL     1      -8.957   9.430  68.124  1.00  0.00    -0.128 C  
HETATM   22  C   UNL     1      -8.545  10.727  65.976  1.00  0.00    -0.178 C  
HETATM   23  C   UNL     1      -7.901  11.827  66.827  1.00  0.00    -0.103 C  
HETATM   24  N   UNL     1      -9.112  11.278  64.699  1.00  0.00    -0.075 NA 
HETATM   25  O   UNL     1      -6.712   9.023  66.037  1.00  0.00    -0.073 OA 
HETATM   26  C   UNL     1      -7.365  11.269  68.146  1.00  0.00    -0.088 C  
HETATM   27  C   UNL     1      -8.248  10.950  63.573  1.00  0.00     0.169 C  
HETATM   28  C   UNL     1      -7.425   9.807  65.431  1.00  0.00    -0.121 C  
HETATM   29  N   UNL     1      -7.324  10.010  64.083  1.00  0.00    -0.134 NA 
BRANCH  24  30
HETATM   30  C   UNL     1     -10.225  12.078  64.505  1.00  0.00    -0.286 A  
HETATM   31  C   UNL     1     -11.327  11.689  63.735  1.00  0.00    -0.482 A  
HETATM   32  C   UNL     1     -12.411  12.544  63.475  1.00  0.00    -0.561 A  
HETATM   33  C   UNL     1     -12.441  13.821  64.015  1.00  0.00    -0.280 A  
HETATM   34  C   UNL     1     -11.399  14.233  64.827  1.00  0.00    -0.382 A  
HETATM   35  C   UNL     1     -10.312  13.372  65.061  1.00  0.00    -0.361 A  
ENDBRANCH  24  30
ENDBRANCH  18  19
ENDBRANCH  17  18
ENDBRANCH   8  17
TORSDOF 4
ENDMDL
MODEL      211
REMARK 921   NORMALIZED FREE ENERGY PREDICTED BY IDOCK:   -0.70 KCAL/MOL
REMARK 922        TOTAL FREE ENERGY PREDICTED BY IDOCK:   -2.74 KCAL/MOL
REMARK 923 INTER-LIGAND FREE ENERGY PREDICTED BY IDOCK:   -2.54 KCAL/MOL
REMARK 924 INTRA-LIGAND FREE ENERGY PREDICTED BY IDOCK:   -0.20 KCAL/MOL
REMARK 927      BINDING AFFINITY PREDICTED BY RF-SCORE:    0.00 PKD
ROOT
HETATM    1  F   UNL     1      -5.727   9.781  63.087  1.00  0.00    -0.084 F  
HETATM    2  C   UNL     1      -6.545   9.793  64.146  1.00  0.00    -0.120 A  
HETATM    3  C   UNL     1      -7.334  10.907  64.394  1.00  0.00     0.523 A  
HETATM    4  C   UNL     1      -8.146  10.940  65.531  1.00  0.00    -0.025 A  
HETATM    5  C   UNL     1      -8.185   9.852  66.425  1.00  0.00    -0.117 A  
HETATM    6  C   UNL     1      -9.049   9.943  67.694  1.00  0.00    -0.140 C  
HETATM    7  C   UNL     1      -7.443   8.704  66.092  1.00  0.00    -0.086 A  
HETATM    8  C   UNL     1     -10.483   9.397  67.422  1.00  0.00    -0.343 C  
HETATM    9  C   UNL     1      -6.598   8.689  64.981  1.00  0.00    -0.068 A  
HETATM   10  C   UNL     1      -8.421   9.529  69.038  1.00  0.00    -0.128 A  
HETATM   11  C   UNL     1      -7.094   9.083  69.181  1.00  0.00    -0.063 A  
HETATM   12  C   UNL     1      -8.651   9.319  71.472  1.00  0.00     0.194 A  
HETATM   13  F   UNL     1      -6.857   8.477  72.749  1.00  0.00    -0.101 F  
HETATM   14  C   UNL     1      -6.578   8.704  70.423  1.00  0.00    -0.037 A  
HETATM   15  C   UNL     1      -7.360   8.825  71.559  1.00  0.00    -0.085 A  
HETATM   16  C   UNL     1      -9.175   9.670  70.223  1.00  0.00    -0.285 A  
ENDROOT
BRANCH   8  17
HETATM   17  C   UNL     1     -10.628   7.943  66.939  1.00  0.00    -0.333 C  
BRANCH  17  18
HETATM   18  C   UNL     1      -9.403   7.035  67.106  1.00  0.00    -0.143 C  
BRANCH  18  19
HETATM   19  N   UNL     1      -9.465   6.127  68.250  1.00  0.00    -0.118 NA 
HETATM   20  C   UNL     1      -9.541   3.796  67.263  1.00  0.00    -0.213 C  
HETATM   21  C   UNL     1     -10.247   4.903  68.052  1.00  0.00    -0.038 C  
HETATM   22  C   UNL     1      -8.120   3.537  67.774  1.00  0.00    -0.080 C  
HETATM   23  C   UNL     1      -7.325   4.827  68.005  1.00  0.00    -0.070 C  
HETATM   24  N   UNL     1      -7.344   2.553  66.946  1.00  0.00    -0.060 NA 
HETATM   25  O   UNL     1      -8.856   3.073  70.121  1.00  0.00    -0.069 OA 
HETATM   26  C   UNL     1      -8.135   5.845  68.810  1.00  0.00    -0.103 C  
HETATM   27  C   UNL     1      -6.815   1.486  67.785  1.00  0.00    -0.032 C  
HETATM   28  C   UNL     1      -8.226   2.777  69.119  1.00  0.00    -0.054 C  
HETATM   29  N   UNL     1      -7.454   1.652  69.035  1.00  0.00    -0.043 NA 
BRANCH  24  30
HETATM   30  C   UNL     1      -7.025   2.596  65.601  1.00  0.00    -0.052 A  
HETATM   31  C   UNL     1      -5.882   3.232  65.101  1.00  0.00    -0.018 A  
HETATM   32  C   UNL     1      -5.615   3.342  63.726  1.00  0.00    -0.009 A  
HETATM   33  C   UNL     1      -6.479   2.783  62.798  1.00  0.00    -0.018 A  
HETATM   34  C   UNL     1      -7.595   2.098  63.244  1.00  0.00    -0.055 A  
HETATM   35  C   UNL     1      -7.859   2.012  64.622  1.00  0.00    -0.069 A  
ENDBRANCH  24  30
ENDBRANCH  18  19
ENDBRANCH  17  18
ENDBRANCH   8  17
TORSDOF 4
ENDMDL
MODEL      212
REMARK 921   NORMALIZED FREE ENERGY PREDICTED BY IDOCK:   -0.55 KCAL/MOL
REMARK 922        TOTAL FREE ENERGY PREDICTED BY IDOCK:   -2.55 KCAL/MOL
REMARK 923 INTER-LIGAND FREE ENERGY PREDICTED BY IDOCK:   -1.89 KCAL/MOL
REMARK 924 INTRA-LIGAND FREE ENERGY PREDICTED BY IDOCK:   -0.66 KCAL/MOL
REMARK 927      BINDING AFFINITY PREDICTED BY RF-SCORE:    0.00 PKD
ROOT
HETATM    1  F   UNL     1     -13.564  16.683  73.272  1.00  0.00    -0.362 F  
HETATM    2  C   UNL     1     -13.307  15.695  72.405  1.00  0.00    -0.488 A  
HETATM    3  C   UNL     1     -14.168  15.475  71.338  1.00  0.00    -0.399 A  
HETATM    4  C   UNL     1     -13.930  14.409  70.467  1.00  0.00     0.749 A  
HETATM    5  C   UNL     1     -12.820  13.560  70.648  1.00  0.00    -0.189 A  
HETATM    6  C   UNL     1     -12.617  12.365  69.701  1.00  0.00     0.333 C  
HETATM    7  C   UNL     1     -11.920  13.871  71.684  1.00  0.00     0.171 A  
HETATM    8  C   UNL     1     -11.738  12.774  68.481  1.00  0.00    -0.371 C  
HETATM    9  C   UNL     1     -12.182  14.907  72.581  1.00  0.00    -0.395 A  
HETATM   10  C   UNL     1     -12.304  10.988  70.318  1.00  0.00    -0.410 A  
HETATM   11  C   UNL     1     -12.204  10.751  71.701  1.00  0.00    -0.184 A  
HETATM   12  C   UNL     1     -11.908   8.591  69.977  1.00  0.00     0.428 A  
HETATM   13  F   UNL     1     -11.483   7.199  71.833  1.00  0.00    -0.259 F  
HETATM   14  C   UNL     1     -11.902   9.485  72.208  1.00  0.00     0.127 A  
HETATM   15  C   UNL     1     -11.757   8.414  71.342  1.00  0.00    -0.287 A  
HETATM   16  C   UNL     1     -12.181   9.866  69.471  1.00  0.00     0.412 A  
ENDROOT
BRANCH   8  17
HETATM   17  C   UNL     1     -10.325  13.318  68.752  1.00  0.00    -0.154 C  
BRANCH  17  18
HETATM   18  C   UNL     1      -9.280  12.309  69.246  1.00  0.00     0.862 C  
BRANCH  18  19
HETATM   19  N   UNL     1      -7.982  12.396  68.579  1.00  0.00    -0.138 NA 
HETATM   20  C   UNL     1      -8.162  14.367  66.998  1.00  0.00    -0.138 C  
HETATM   21  C   UNL     1      -8.009  12.854  67.187  1.00  0.00    -0.099 C  
HETATM   22  C   UNL     1      -7.196  15.161  67.885  1.00  0.00    -0.144 C  
HETATM   23  C   UNL     1      -7.156  14.650  69.329  1.00  0.00    -0.150 C  
HETATM   24  N   UNL     1      -7.401  16.647  67.830  1.00  0.00    -0.147 NA 
HETATM   25  O   UNL     1      -5.155  14.026  66.983  1.00  0.00     0.114 OA 
HETATM   26  C   UNL     1      -6.991  13.131  69.379  1.00  0.00     0.097 C  
HETATM   27  C   UNL     1      -6.153  17.324  67.507  1.00  0.00    -0.145 C  
HETATM   28  C   UNL     1      -5.777  15.034  67.278  1.00  0.00     0.458 C  
HETATM   29  N   UNL     1      -5.269  16.292  67.114  1.00  0.00    -0.323 NA 
BRANCH  24  30
HETATM   30  C   UNL     1      -8.532  17.389  68.123  1.00  0.00    -0.241 A  
HETATM   31  C   UNL     1      -9.835  16.912  67.934  1.00  0.00    -0.263 A  
HETATM   32  C   UNL     1     -10.973  17.706  68.154  1.00  0.00    -0.089 A  
HETATM   33  C   UNL     1     -10.841  19.010  68.607  1.00  0.00     0.524 A  
HETATM   34  C   UNL     1      -9.575  19.510  68.858  1.00  0.00    -0.460 A  
HETATM   35  C   UNL     1      -8.446  18.709  68.615  1.00  0.00    -0.337 A  
ENDBRANCH  24  30
ENDBRANCH  18  19
ENDBRANCH  17  18
ENDBRANCH   8  17
TORSDOF 4
ENDMDL
MODEL      213
REMARK 921   NORMALIZED FREE ENERGY PREDICTED BY IDOCK:   -0.18 KCAL/MOL
REMARK 922        TOTAL FREE ENERGY PREDICTED BY IDOCK:   -2.09 KCAL/MOL
REMARK 923 INTER-LIGAND FREE ENERGY PREDICTED BY IDOCK:   -1.39 KCAL/MOL
REMARK 924 INTRA-LIGAND FREE ENERGY PREDICTED BY IDOCK:   -0.70 KCAL/MOL
REMARK 927      BINDING AFFINITY PREDICTED BY RF-SCORE:    0.00 PKD
ROOT
HETATM    1  F   UNL     1     -13.723  12.831  64.334  1.00  0.00     0.315 F  
HETATM    2  C   UNL     1     -12.450  12.620  64.691  1.00  0.00    -0.466 A  
HETATM    3  C   UNL     1     -11.571  13.691  64.774  1.00  0.00    -0.374 A  
HETATM    4  C   UNL     1     -10.230  13.461  65.092  1.00  0.00    -0.316 A  
HETATM    5  C   UNL     1      -9.758  12.157  65.342  1.00  0.00    -0.178 A  
HETATM    6  C   UNL     1      -8.265  11.935  65.637  1.00  0.00     0.716 C  
HETATM    7  C   UNL     1     -10.696  11.110  65.339  1.00  0.00    -0.259 A  
HETATM    8  C   UNL     1      -7.990  12.016  67.169  1.00  0.00    -0.175 C  
HETATM    9  C   UNL     1     -12.025  11.333  64.977  1.00  0.00     0.737 A  
HETATM   10  C   UNL     1      -7.530  10.809  64.885  1.00  0.00     0.220 A  
HETATM   11  C   UNL     1      -8.140   9.974  63.930  1.00  0.00    -0.152 A  
HETATM   12  C   UNL     1      -5.426   9.632  64.429  1.00  0.00    -0.066 A  
HETATM   13  F   UNL     1      -5.400   7.826  62.912  1.00  0.00    -0.045 F  
HETATM   14  C   UNL     1      -7.431   8.955  63.288  1.00  0.00    -0.101 A  
HETATM   15  C   UNL     1      -6.079   8.793  63.541  1.00  0.00    -0.081 A  
HETATM   16  C   UNL     1      -6.145  10.632  65.092  1.00  0.00    -0.045 A  
ENDROOT
BRANCH   8  17
HETATM   17  C   UNL     1      -8.735  11.037  68.094  1.00  0.00    -0.141 C  
BRANCH  17  18
HETATM   18  C   UNL     1     -10.211  11.344  68.378  1.00  0.00    -0.198 C  
BRANCH  18  19
HETATM   19  N   UNL     1     -10.776  10.628  69.520  1.00  0.00    -0.244 NA 
HETATM   20  C   UNL     1     -10.694   8.175  68.892  1.00  0.00    -0.090 C  
HETATM   21  C   UNL     1     -11.537   9.416  69.201  1.00  0.00     0.468 C  
HETATM   22  C   UNL     1      -9.594   7.949  69.935  1.00  0.00    -0.168 C  
HETATM   23  C   UNL     1      -8.827   9.230  70.280  1.00  0.00    -0.254 C  
HETATM   24  N   UNL     1      -8.660   6.821  69.601  1.00  0.00    -0.133 NA 
HETATM   25  O   UNL     1     -11.188   7.882  71.863  1.00  0.00    -0.249 OA 
HETATM   26  C   UNL     1      -9.781  10.388  70.576  1.00  0.00     0.793 C  
HETATM   27  C   UNL     1      -8.580   5.879  70.709  1.00  0.00    -0.130 C  
HETATM   28  C   UNL     1     -10.260   7.412  71.225  1.00  0.00    -0.188 C  
HETATM   29  N   UNL     1      -9.620   6.260  71.588  1.00  0.00    -0.155 NA 
BRANCH  24  30
HETATM   30  C   UNL     1      -7.862   6.643  68.485  1.00  0.00    -0.110 A  
HETATM   31  C   UNL     1      -6.707   7.395  68.237  1.00  0.00    -0.054 A  
HETATM   32  C   UNL     1      -5.954   7.263  67.058  1.00  0.00    -0.041 A  
HETATM   33  C   UNL     1      -6.320   6.338  66.093  1.00  0.00    -0.039 A  
HETATM   34  C   UNL     1      -7.425   5.534  66.315  1.00  0.00    -0.086 A  
HETATM   35  C   UNL     1      -8.178   5.691  67.491  1.00  0.00    -0.101 A  
ENDBRANCH  24  30
ENDBRANCH  18  19
ENDBRANCH  17  18
ENDBRANCH   8  17
TORSDOF 4
ENDMDL
MODEL      214
REMARK 921   NORMALIZED FREE ENERGY PREDICTED BY IDOCK:   -0.03 KCAL/MOL
REMARK 922        TOTAL FREE ENERGY PREDICTED BY IDOCK:   -1.91 KCAL/MOL
REMARK 923 INTER-LIGAND FREE ENERGY PREDICTED BY IDOCK:   -2.34 KCAL/MOL
REMARK 924 INTRA-LIGAND FREE ENERGY PREDICTED BY IDOCK:    0.42 KCAL/MOL
REMARK 927      BINDING AFFINITY PREDICTED BY RF-SCORE:    0.00 PKD
ROOT
HETATM    1  F   UNL     1      -8.277   4.921  65.980  1.00  0.00    -0.108 F  
HETATM    2  C   UNL     1      -8.344   6.005  66.763  1.00  0.00    -0.106 A  
HETATM    3  C   UNL     1      -8.294   5.863  68.142  1.00  0.00    -0.115 A  
HETATM    4  C   UNL     1      -8.421   6.991  68.958  1.00  0.00    -0.129 A  
HETATM    5  C   UNL     1      -8.587   8.274  68.400  1.00  0.00    -0.133 A  
HETATM    6  C   UNL     1      -8.776   9.486  69.327  1.00  0.00    -0.151 C  
HETATM    7  C   UNL     1      -8.539   8.389  66.999  1.00  0.00    -0.124 A  
HETATM    8  C   UNL     1      -7.401  10.132  69.674  1.00  0.00    -0.138 C  
HETATM    9  C   UNL     1      -8.458   7.259  66.184  1.00  0.00    -0.144 A  
HETATM   10  C   UNL     1      -9.918  10.472  69.018  1.00  0.00    -0.223 A  
HETATM   11  C   UNL     1     -10.812  10.326  67.942  1.00  0.00    -0.337 A  
HETATM   12  C   UNL     1     -11.179  12.474  69.669  1.00  0.00    -0.090 A  
HETATM   13  F   UNL     1     -12.978  13.210  68.333  1.00  0.00     0.567 F  
HETATM   14  C   UNL     1     -11.823  11.260  67.696  1.00  0.00    -0.102 A  
HETATM   15  C   UNL     1     -11.999  12.326  68.562  1.00  0.00    -0.219 A  
HETATM   16  C   UNL     1     -10.150  11.554  69.895  1.00  0.00     1.068 A  
ENDROOT
BRANCH   8  17
HETATM   17  C   UNL     1      -6.524  10.642  68.516  1.00  0.00    -0.054 C  
BRANCH  17  18
HETATM   18  C   UNL     1      -5.209  11.334  68.899  1.00  0.00    -0.040 C  
BRANCH  18  19
HETATM   19  N   UNL     1      -5.359  12.697  69.405  1.00  0.00    -0.074 NA 
HETATM   20  C   UNL     1      -6.335  14.030  67.485  1.00  0.00    -0.036 C  
HETATM   21  C   UNL     1      -5.155  13.768  68.425  1.00  0.00    -0.100 C  
HETATM   22  C   UNL     1      -7.664  14.140  68.242  1.00  0.00    -0.139 C  
HETATM   23  C   UNL     1      -7.850  13.031  69.284  1.00  0.00     0.532 C  
HETATM   24  N   UNL     1      -8.865  14.265  67.349  1.00  0.00    -0.194 NA 
HETATM   25  O   UNL     1      -6.867  15.986  69.733  1.00  0.00    -0.181 OA 
HETATM   26  C   UNL     1      -6.607  12.877  70.162  1.00  0.00     0.317 C  
HETATM   27  C   UNL     1      -9.656  15.431  67.718  1.00  0.00    -0.210 C  
HETATM   28  C   UNL     1      -7.689  15.507  68.968  1.00  0.00    -0.192 C  
HETATM   29  N   UNL     1      -8.844  16.152  68.624  1.00  0.00    -0.207 NA 
BRANCH  24  30
HETATM   30  C   UNL     1      -9.315  13.410  66.358  1.00  0.00    -0.172 A  
HETATM   31  C   UNL     1     -10.423  13.688  65.549  1.00  0.00    -0.314 A  
HETATM   32  C   UNL     1     -10.922  12.774  64.605  1.00  0.00    -0.355 A  
HETATM   33  C   UNL     1     -10.297  11.550  64.418  1.00  0.00    -0.364 A  
HETATM   34  C   UNL     1      -9.166  11.251  65.158  1.00  0.00    -0.168 A  
HETATM   35  C   UNL     1      -8.692  12.169  66.111  1.00  0.00     0.094 A  
ENDBRANCH  24  30
ENDBRANCH  18  19
ENDBRANCH  17  18
ENDBRANCH   8  17
TORSDOF 4
ENDMDL
MODEL      215
REMARK 921   NORMALIZED FREE ENERGY PREDICTED BY IDOCK:    0.21 KCAL/MOL
REMARK 922        TOTAL FREE ENERGY PREDICTED BY IDOCK:   -1.62 KCAL/MOL
REMARK 923 INTER-LIGAND FREE ENERGY PREDICTED BY IDOCK:   -0.92 KCAL/MOL
REMARK 924 INTRA-LIGAND FREE ENERGY PREDICTED BY IDOCK:   -0.70 KCAL/MOL
REMARK 927      BINDING AFFINITY PREDICTED BY RF-SCORE:    0.00 PKD
ROOT
HETATM    1  F   UNL     1     -11.370  10.406  64.492  1.00  0.00     0.345 F  
HETATM    2  C   UNL     1     -11.454  11.545  65.192  1.00  0.00    -0.020 A  
HETATM    3  C   UNL     1     -12.579  12.348  65.068  1.00  0.00    -0.305 A  
HETATM    4  C   UNL     1     -12.640  13.563  65.755  1.00  0.00    -0.490 A  
HETATM    5  C   UNL     1     -11.579  13.980  66.584  1.00  0.00    -0.400 A  
HETATM    6  C   UNL     1     -11.657  15.347  67.285  1.00  0.00    -0.094 C  
HETATM    7  C   UNL     1     -10.498  13.098  66.757  1.00  0.00    -0.262 A  
HETATM    8  C   UNL     1     -12.317  15.208  68.690  1.00  0.00     0.084 C  
HETATM    9  C   UNL     1     -10.416  11.906  66.036  1.00  0.00    -0.282 A  
HETATM   10  C   UNL     1     -10.431  16.277  67.212  1.00  0.00    -0.300 A  
HETATM   11  C   UNL     1      -9.243  15.958  66.530  1.00  0.00    -0.310 A  
HETATM   12  C   UNL     1      -9.427  18.452  67.745  1.00  0.00    -0.291 A  
HETATM   13  F   UNL     1      -7.213  18.914  67.079  1.00  0.00    -0.204 F  
HETATM   14  C   UNL     1      -8.152  16.832  66.508  1.00  0.00    -0.329 A  
HETATM   15  C   UNL     1      -8.253  18.073  67.115  1.00  0.00    -0.221 A  
HETATM   16  C   UNL     1     -10.507  17.563  67.790  1.00  0.00    -0.381 A  
ENDROOT
BRANCH   8  17
HETATM   17  C   UNL     1     -11.656  14.267  69.713  1.00  0.00    -0.350 C  
BRANCH  17  18
HETATM   18  C   UNL     1     -12.348  14.134  71.076  1.00  0.00    -0.366 C  
BRANCH  18  19
HETATM   19  N   UNL     1     -13.196  12.952  71.220  1.00  0.00    -0.162 NA 
HETATM   20  C   UNL     1     -12.360  11.303  69.488  1.00  0.00    -0.243 C  
HETATM   21  C   UNL     1     -13.484  12.219  69.984  1.00  0.00     2.298 C  
HETATM   22  C   UNL     1     -11.800  10.418  70.608  1.00  0.00    -0.350 C  
HETATM   23  C   UNL     1     -11.532  11.193  71.903  1.00  0.00     2.826 C  
HETATM   24  N   UNL     1     -10.609   9.600  70.199  1.00  0.00    -0.250 NA 
HETATM   25  O   UNL     1     -14.023   9.415  71.171  1.00  0.00    -0.226 OA 
HETATM   26  C   UNL     1     -12.731  12.060  72.292  1.00  0.00     0.420 C  
HETATM   27  C   UNL     1     -10.830   8.191  70.498  1.00  0.00    -0.240 C  
HETATM   28  C   UNL     1     -12.837   9.308  70.904  1.00  0.00    -0.043 C  
HETATM   29  N   UNL     1     -12.201   8.100  70.832  1.00  0.00    -0.174 NA 
BRANCH  24  30
HETATM   30  C   UNL     1      -9.388  10.015  69.697  1.00  0.00    -0.220 A  
HETATM   31  C   UNL     1      -9.208  11.224  69.015  1.00  0.00     0.005 A  
HETATM   32  C   UNL     1      -7.983  11.593  68.436  1.00  0.00    -0.140 A  
HETATM   33  C   UNL     1      -6.875  10.767  68.553  1.00  0.00    -0.062 A  
HETATM   34  C   UNL     1      -6.989   9.585  69.263  1.00  0.00    -0.050 A  
HETATM   35  C   UNL     1      -8.228   9.221  69.821  1.00  0.00    -0.131 A  
ENDBRANCH  24  30
ENDBRANCH  18  19
ENDBRANCH  17  18
ENDBRANCH   8  17
TORSDOF 4
ENDMDL
MODEL      216
REMARK 921   NORMALIZED FREE ENERGY PREDICTED BY IDOCK:    0.31 KCAL/MOL
REMARK 922        TOTAL FREE ENERGY PREDICTED BY IDOCK:   -1.49 KCAL/MOL
REMARK 923 INTER-LIGAND FREE ENERGY PREDICTED BY IDOCK:   -2.97 KCAL/MOL
REMARK 924 INTRA-LIGAND FREE ENERGY PREDICTED BY IDOCK:    1.48 KCAL/MOL
REMARK 927      BINDING AFFINITY PREDICTED BY RF-SCORE:    0.00 PKD
ROOT
HETATM    1  F   UNL     1      -9.920   7.702  73.808  1.00  0.00    -0.339 F  
HETATM    2  C   UNL     1      -8.965   7.507  72.890  1.00  0.00    -0.158 A  
HETATM    3  C   UNL     1      -7.644   7.804  73.197  1.00  0.00    -0.145 A  
HETATM    4  C   UNL     1      -6.657   7.653  72.220  1.00  0.00    -0.056 A  
HETATM    5  C   UNL     1      -6.981   7.193  70.928  1.00  0.00    -0.057 A  
HETATM    6  C   UNL     1      -5.878   7.089  69.861  1.00  0.00    -0.023 C  
HETATM    7  C   UNL     1      -8.314   6.815  70.683  1.00  0.00    -0.129 A  
HETATM    8  C   UNL     1      -5.222   5.675  69.885  1.00  0.00    -0.004 C  
HETATM    9  C   UNL     1      -9.307   7.008  71.644  1.00  0.00    -0.158 A  
HETATM   10  C   UNL     1      -6.156   7.672  68.463  1.00  0.00    -0.032 A  
HETATM   11  C   UNL     1      -7.357   8.309  68.102  1.00  0.00    -0.096 A  
HETATM   12  C   UNL     1      -5.326   8.172  66.208  1.00  0.00    -0.025 A  
HETATM   13  F   UNL     1      -6.744   9.229  64.648  1.00  0.00    -0.076 F  
HETATM   14  C   UNL     1      -7.565   8.808  66.813  1.00  0.00    -0.090 A  
HETATM   15  C   UNL     1      -6.547   8.736  65.876  1.00  0.00    -0.057 A  
HETATM   16  C   UNL     1      -5.133   7.648  67.491  1.00  0.00    -0.026 A  
ENDROOT
BRANCH   8  17
HETATM   17  C   UNL     1      -6.125   4.451  69.654  1.00  0.00    -0.023 C  
BRANCH  17  18
HETATM   18  C   UNL     1      -5.436   3.168  69.170  1.00  0.00    -0.013 C  
BRANCH  18  19
HETATM   19  N   UNL     1      -5.447   2.976  67.721  1.00  0.00    -0.017 NA 
HETATM   20  C   UNL     1      -7.890   2.765  67.083  1.00  0.00    -0.074 C  
HETATM   21  C   UNL     1      -6.510   2.111  67.199  1.00  0.00    -0.031 C  
HETATM   22  C   UNL     1      -7.824   4.135  66.396  1.00  0.00    -0.094 C  
HETATM   23  C   UNL     1      -6.690   5.016  66.931  1.00  0.00    -0.055 C  
HETATM   24  N   UNL     1      -9.133   4.871  66.379  1.00  0.00    -0.123 NA 
HETATM   25  O   UNL     1      -6.725   3.245  64.331  1.00  0.00    -0.035 OA 
HETATM   26  C   UNL     1      -5.368   4.249  66.989  1.00  0.00    -0.013 C  
HETATM   27  C   UNL     1      -9.475   5.271  65.021  1.00  0.00     0.189 C  
HETATM   28  C   UNL     1      -7.593   3.900  64.883  1.00  0.00    -0.077 C  
HETATM   29  N   UNL     1      -8.557   4.583  64.195  1.00  0.00    -0.127 NA 
BRANCH  24  30
HETATM   30  C   UNL     1      -9.935   5.261  67.436  1.00  0.00    -0.174 A  
HETATM   31  C   UNL     1     -10.903   6.267  67.338  1.00  0.00    -0.448 A  
HETATM   32  C   UNL     1     -11.651   6.712  68.440  1.00  0.00     0.321 A  
HETATM   33  C   UNL     1     -11.473   6.132  69.687  1.00  0.00    -0.332 A  
HETATM   34  C   UNL     1     -10.565   5.097  69.825  1.00  0.00    -0.175 A  
HETATM   35  C   UNL     1      -9.811   4.676  68.715  1.00  0.00    -0.201 A  
ENDBRANCH  24  30
ENDBRANCH  18  19
ENDBRANCH  17  18
ENDBRANCH   8  17
TORSDOF 4
ENDMDL
MODEL      217
REMARK 921   NORMALIZED FREE ENERGY PREDICTED BY IDOCK:    0.33 KCAL/MOL
REMARK 922        TOTAL FREE ENERGY PREDICTED BY IDOCK:   -1.47 KCAL/MOL
REMARK 923 INTER-LIGAND FREE ENERGY PREDICTED BY IDOCK:   -2.89 KCAL/MOL
REMARK 924 INTRA-LIGAND FREE ENERGY PREDICTED BY IDOCK:    1.41 KCAL/MOL
REMARK 927      BINDING AFFINITY PREDICTED BY RF-SCORE:    0.00 PKD
ROOT
HETATM    1  F   UNL     1      -8.767   9.514  74.523  1.00  0.00     1.470 F  
HETATM    2  C   UNL     1      -8.880   8.451  73.716  1.00  0.00     0.023 A  
HETATM    3  C   UNL     1      -9.023   7.183  74.263  1.00  0.00    -0.250 A  
HETATM    4  C   UNL     1      -9.084   6.070  73.420  1.00  0.00    -0.131 A  
HETATM    5  C   UNL     1      -9.013   6.217  72.021  1.00  0.00    -0.139 A  
HETATM    6  C   UNL     1      -9.031   4.966  71.125  1.00  0.00    -0.167 C  
HETATM    7  C   UNL     1      -8.962   7.523  71.501  1.00  0.00    -0.142 A  
HETATM    8  C   UNL     1     -10.491   4.598  70.723  1.00  0.00    -0.008 C  
HETATM    9  C   UNL     1      -8.855   8.631  72.343  1.00  0.00    -0.181 A  
HETATM   10  C   UNL     1      -7.981   4.855  70.004  1.00  0.00    -0.073 A  
HETATM   11  C   UNL     1      -6.994   5.826  69.753  1.00  0.00    -0.066 A  
HETATM   12  C   UNL     1      -6.999   3.527  68.189  1.00  0.00    -0.050 A  
HETATM   13  F   UNL     1      -5.190   4.395  66.950  1.00  0.00    -0.009 F  
HETATM   14  C   UNL     1      -6.074   5.684  68.710  1.00  0.00    -0.025 A  
HETATM   15  C   UNL     1      -6.083   4.535  67.937  1.00  0.00    -0.031 A  
HETATM   16  C   UNL     1      -7.937   3.685  69.215  1.00  0.00    -0.060 A  
ENDROOT
BRANCH   8  17
HETATM   17  C   UNL     1     -11.322   5.648  69.966  1.00  0.00     0.192 C  
BRANCH  17  18
HETATM   18  C   UNL     1     -10.636   6.988  69.667  1.00  0.00    -0.234 C  
BRANCH  18  19
HETATM   19  N   UNL     1     -10.036   7.085  68.337  1.00  0.00    -0.158 NA 
HETATM   20  C   UNL     1     -11.257   8.980  67.180  1.00  0.00     0.712 C  
HETATM   21  C   UNL     1     -10.943   7.482  67.256  1.00  0.00    -0.108 C  
HETATM   22  C   UNL     1      -9.991   9.840  67.264  1.00  0.00    -0.191 C  
HETATM   23  C   UNL     1      -9.040   9.395  68.380  1.00  0.00    -0.128 C  
HETATM   24  N   UNL     1     -10.262  11.316  67.326  1.00  0.00    -0.190 NA 
HETATM   25  O   UNL     1      -8.892   8.732  65.308  1.00  0.00    -0.192 OA 
HETATM   26  C   UNL     1      -8.802   7.885  68.340  1.00  0.00    -0.130 C  
HETATM   27  C   UNL     1      -9.518  12.017  66.288  1.00  0.00    -0.229 C  
HETATM   28  C   UNL     1      -9.248   9.731  65.910  1.00  0.00    -0.187 C  
HETATM   29  N   UNL     1      -9.016  10.997  65.448  1.00  0.00    -0.197 NA 
BRANCH  24  30
HETATM   30  C   UNL     1     -11.005  12.035  68.246  1.00  0.00    -0.234 A  
HETATM   31  C   UNL     1     -11.307  13.394  68.099  1.00  0.00    -0.321 A  
HETATM   32  C   UNL     1     -11.988  14.131  69.081  1.00  0.00    -0.388 A  
HETATM   33  C   UNL     1     -12.425  13.514  70.244  1.00  0.00    -0.309 A  
HETATM   34  C   UNL     1     -12.197  12.159  70.413  1.00  0.00    -0.378 A  
HETATM   35  C   UNL     1     -11.497  11.440  69.428  1.00  0.00    -0.378 A  
ENDBRANCH  24  30
ENDBRANCH  18  19
ENDBRANCH  17  18
ENDBRANCH   8  17
TORSDOF 4
ENDMDL
MODEL      218
REMARK 921   NORMALIZED FREE ENERGY PREDICTED BY IDOCK:    0.50 KCAL/MOL
REMARK 922        TOTAL FREE ENERGY PREDICTED BY IDOCK:   -1.26 KCAL/MOL
REMARK 923 INTER-LIGAND FREE ENERGY PREDICTED BY IDOCK:   -1.08 KCAL/MOL
REMARK 924 INTRA-LIGAND FREE ENERGY PREDICTED BY IDOCK:   -0.18 KCAL/MOL
REMARK 927      BINDING AFFINITY PREDICTED BY RF-SCORE:    0.00 PKD
ROOT
HETATM    1  F   UNL     1      -5.424  14.311  70.049  1.00  0.00    -0.092 F  
HETATM    2  C   UNL     1      -6.180  13.451  69.355  1.00  0.00    -0.109 A  
HETATM    3  C   UNL     1      -7.284  12.864  69.957  1.00  0.00     1.107 A  
HETATM    4  C   UNL     1      -8.039  11.925  69.249  1.00  0.00     0.446 A  
HETATM    5  C   UNL     1      -7.701  11.572  67.927  1.00  0.00    -0.120 A  
HETATM    6  C   UNL     1      -8.522  10.496  67.196  1.00  0.00    -0.127 C  
HETATM    7  C   UNL     1      -6.632  12.256  67.320  1.00  0.00    -0.146 A  
HETATM    8  C   UNL     1      -9.704  11.144  66.414  1.00  0.00    -0.235 C  
HETATM    9  C   UNL     1      -5.852  13.160  68.041  1.00  0.00    -0.116 A  
HETATM   10  C   UNL     1      -7.766   9.377  66.456  1.00  0.00    -0.094 A  
HETATM   11  C   UNL     1      -6.363   9.269  66.417  1.00  0.00    -0.066 A  
HETATM   12  C   UNL     1      -7.865   7.296  65.159  1.00  0.00    -0.123 A  
HETATM   13  F   UNL     1      -5.868   6.270  64.438  1.00  0.00    -0.021 F  
HETATM   14  C   UNL     1      -5.726   8.241  65.717  1.00  0.00    -0.040 A  
HETATM   15  C   UNL     1      -6.482   7.262  65.094  1.00  0.00    -0.040 A  
HETATM   16  C   UNL     1      -8.500   8.343  65.836  1.00  0.00    -0.159 A  
ENDROOT
BRANCH   8  17
HETATM   17  C   UNL     1      -9.376  12.199  65.342  1.00  0.00     0.058 C  
BRANCH  17  18
HETATM   18  C   UNL     1      -9.672  13.661  65.700  1.00  0.00    -0.094 C  
BRANCH  18  19
HETATM   19  N   UNL     1     -10.390  13.850  66.960  1.00  0.00    -0.265 NA 
HETATM   20  C   UNL     1      -9.061  15.583  68.244  1.00  0.00    -0.186 C  
HETATM   21  C   UNL     1      -9.557  14.138  68.132  1.00  0.00    -0.218 C  
HETATM   22  C   UNL     1     -10.188  16.599  68.030  1.00  0.00    -0.280 C  
HETATM   23  C   UNL     1     -11.067  16.269  66.819  1.00  0.00     0.081 C  
HETATM   24  N   UNL     1      -9.723  18.027  68.000  1.00  0.00    -0.296 NA 
HETATM   25  O   UNL     1     -11.621  15.664  69.857  1.00  0.00    -0.296 OA 
HETATM   26  C   UNL     1     -11.502  14.802  66.830  1.00  0.00    -0.338 C  
HETATM   27  C   UNL     1     -10.474  18.829  68.956  1.00  0.00     0.203 C  
HETATM   28  C   UNL     1     -11.077  16.602  69.298  1.00  0.00    -0.199 C  
HETATM   29  N   UNL     1     -11.189  17.892  69.737  1.00  0.00     1.701 NA 
BRANCH  24  30
HETATM   30  C   UNL     1      -8.800  18.633  67.166  1.00  0.00    -0.274 A  
HETATM   31  C   UNL     1      -9.119  19.691  66.306  1.00  0.00    -0.429 A  
HETATM   32  C   UNL     1      -8.194  20.239  65.402  1.00  0.00     0.466 A  
HETATM   33  C   UNL     1      -6.893  19.761  65.354  1.00  0.00    -0.321 A  
HETATM   34  C   UNL     1      -6.515  18.750  66.221  1.00  0.00    -0.230 A  
HETATM   35  C   UNL     1      -7.458  18.200  67.106  1.00  0.00    -0.224 A  
ENDBRANCH  24  30
ENDBRANCH  18  19
ENDBRANCH  17  18
ENDBRANCH   8  17
TORSDOF 4
ENDMDL
MODEL      219
REMARK 921   NORMALIZED FREE ENERGY PREDICTED BY IDOCK:    0.82 KCAL/MOL
REMARK 922        TOTAL FREE ENERGY PREDICTED BY IDOCK:   -0.86 KCAL/MOL
REMARK 923 INTER-LIGAND FREE ENERGY PREDICTED BY IDOCK:    0.34 KCAL/MOL
REMARK 924 INTRA-LIGAND FREE ENERGY PREDICTED BY IDOCK:   -1.20 KCAL/MOL
REMARK 927      BINDING AFFINITY PREDICTED BY RF-SCORE:    0.00 PKD
ROOT
HETATM    1  F   UNL     1     -12.852   9.746  73.037  1.00  0.00    -0.071 F  
HETATM    2  C   UNL     1     -12.392   8.815  72.192  1.00  0.00    -0.389 A  
HETATM    3  C   UNL     1     -12.771   7.489  72.355  1.00  0.00     0.042 A  
HETATM    4  C   UNL     1     -12.246   6.511  71.507  1.00  0.00    -0.328 A  
HETATM    5  C   UNL     1     -11.345   6.852  70.479  1.00  0.00    -0.374 A  
HETATM    6  C   UNL     1     -10.745   5.744  69.597  1.00  0.00    -0.416 C  
HETATM    7  C   UNL     1     -11.057   8.216  70.287  1.00  0.00    -0.221 A  
HETATM    8  C   UNL     1     -11.635   5.500  68.341  1.00  0.00     1.985 C  
HETATM    9  C   UNL     1     -11.545   9.187  71.161  1.00  0.00    -0.386 A  
HETATM   10  C   UNL     1      -9.225   5.749  69.348  1.00  0.00    -0.144 A  
HETATM   11  C   UNL     1      -8.344   6.702  69.890  1.00  0.00    -0.132 A  
HETATM   12  C   UNL     1      -7.271   4.651  68.349  1.00  0.00    -0.064 A  
HETATM   13  F   UNL     1      -5.132   5.609  68.608  1.00  0.00     0.000 F  
HETATM   14  C   UNL     1      -6.973   6.671  69.619  1.00  0.00    -0.067 A  
HETATM   15  C   UNL     1      -6.447   5.645  68.852  1.00  0.00    -0.042 A  
HETATM   16  C   UNL     1      -8.647   4.702  68.598  1.00  0.00    -0.099 A  
ENDROOT
BRANCH   8  17
HETATM   17  C   UNL     1     -11.887   6.682  67.388  1.00  0.00     1.484 C  
BRANCH  17  18
HETATM   18  C   UNL     1     -10.752   7.705  67.242  1.00  0.00    -0.274 C  
BRANCH  18  19
HETATM   19  N   UNL     1     -10.158   7.774  65.908  1.00  0.00     0.493 NA 
HETATM   20  C   UNL     1      -8.969  10.009  65.811  1.00  0.00    -0.187 C  
HETATM   21  C   UNL     1     -10.100   9.109  65.304  1.00  0.00     0.692 C  
HETATM   22  C   UNL     1      -7.618   9.285  65.826  1.00  0.00    -0.098 C  
HETATM   23  C   UNL     1      -7.700   7.880  66.433  1.00  0.00    -0.096 C  
HETATM   24  N   UNL     1      -6.505  10.086  66.440  1.00  0.00    -0.071 NA 
HETATM   25  O   UNL     1      -7.703   8.697  63.395  1.00  0.00    -0.124 OA 
HETATM   26  C   UNL     1      -8.862   7.083  65.838  1.00  0.00    -0.103 C  
HETATM   27  C   UNL     1      -5.372  10.168  65.528  1.00  0.00    -0.067 C  
HETATM   28  C   UNL     1      -7.125   9.162  64.364  1.00  0.00    -0.091 C  
HETATM   29  N   UNL     1      -5.857   9.669  64.297  1.00  0.00    -0.080 NA 
BRANCH  24  30
HETATM   30  C   UNL     1      -6.410  10.629  67.709  1.00  0.00    -0.059 A  
HETATM   31  C   UNL     1      -6.433  12.006  67.960  1.00  0.00    -0.061 A  
HETATM   32  C   UNL     1      -6.249  12.547  69.244  1.00  0.00    -0.105 A  
HETATM   33  C   UNL     1      -6.067  11.712  70.336  1.00  0.00    -0.074 A  
HETATM   34  C   UNL     1      -6.089  10.341  70.146  1.00  0.00    -0.088 A  
HETATM   35  C   UNL     1      -6.255   9.817  68.853  1.00  0.00    -0.041 A  
ENDBRANCH  24  30
ENDBRANCH  18  19
ENDBRANCH  17  18
ENDBRANCH   8  17
TORSDOF 4
ENDMDL
MODEL      220
REMARK 921   NORMALIZED FREE ENERGY PREDICTED BY IDOCK:    1.02 KCAL/MOL
REMARK 922        TOTAL FREE ENERGY PREDICTED BY IDOCK:   -0.62 KCAL/MOL
REMARK 923 INTER-LIGAND FREE ENERGY PREDICTED BY IDOCK:   -2.55 KCAL/MOL
REMARK 924 INTRA-LIGAND FREE ENERGY PREDICTED BY IDOCK:    1.93 KCAL/MOL
REMARK 927      BINDING AFFINITY PREDICTED BY RF-SCORE:    0.00 PKD
ROOT
HETATM    1  F   UNL     1     -11.677  12.138  65.435  1.00  0.00    -0.384 F  
HETATM    2  C   UNL     1     -11.374  11.353  66.477  1.00  0.00    -0.122 A  
HETATM    3  C   UNL     1     -12.280  11.213  67.520  1.00  0.00     1.052 A  
HETATM    4  C   UNL     1     -11.939  10.439  68.631  1.00  0.00     0.210 A  
HETATM    5  C   UNL     1     -10.692   9.787  68.705  1.00  0.00    -0.243 A  
HETATM    6  C   UNL     1     -10.329   8.985  69.967  1.00  0.00    -0.226 C  
HETATM    7  C   UNL     1      -9.839   9.877  67.590  1.00  0.00    -0.198 A  
HETATM    8  C   UNL     1     -10.771   7.498  69.819  1.00  0.00    -0.249 C  
HETATM    9  C   UNL     1     -10.160  10.687  66.500  1.00  0.00    -0.275 A  
HETATM   10  C   UNL     1      -8.944   9.210  70.602  1.00  0.00    -0.292 A  
HETATM   11  C   UNL     1      -7.989  10.117  70.106  1.00  0.00    -0.029 A  
HETATM   12  C   UNL     1      -7.378   8.709  72.424  1.00  0.00    -0.020 A  
HETATM   13  F   UNL     1      -5.252   9.729  72.454  1.00  0.00    -0.073 F  
HETATM   14  C   UNL     1      -6.739  10.271  70.712  1.00  0.00     0.098 A  
HETATM   15  C   UNL     1      -6.444   9.566  71.867  1.00  0.00     0.312 A  
HETATM   16  C   UNL     1      -8.617   8.535  71.798  1.00  0.00    -0.254 A  
ENDROOT
BRANCH   8  17
HETATM   17  C   UNL     1     -10.201   6.683  68.645  1.00  0.00    -0.184 C  
BRANCH  17  18
HETATM   18  C   UNL     1      -9.547   7.478  67.507  1.00  0.00    -0.142 C  
BRANCH  18  19
HETATM   19  N   UNL     1      -9.557   6.808  66.207  1.00  0.00    -0.090 NA 
HETATM   20  C   UNL     1      -7.821   4.971  66.377  1.00  0.00    -0.099 C  
HETATM   21  C   UNL     1      -8.265   6.293  65.744  1.00  0.00    -0.136 C  
HETATM   22  C   UNL     1      -8.937   3.921  66.365  1.00  0.00    -0.133 C  
HETATM   23  C   UNL     1     -10.288   4.481  66.824  1.00  0.00    -0.090 C  
HETATM   24  N   UNL     1      -8.590   2.654  67.094  1.00  0.00    -0.100 NA 
HETATM   25  O   UNL     1      -9.258   4.030  63.885  1.00  0.00    -0.131 OA 
HETATM   26  C   UNL     1     -10.618   5.794  66.112  1.00  0.00     0.055 C  
HETATM   27  C   UNL     1      -8.797   1.497  66.234  1.00  0.00    -0.117 C  
HETATM   28  C   UNL     1      -9.087   3.399  64.915  1.00  0.00    -0.139 C  
HETATM   29  N   UNL     1      -9.008   2.034  64.943  1.00  0.00    -0.119 NA 
BRANCH  24  30
HETATM   30  C   UNL     1      -8.215   2.475  68.414  1.00  0.00    -0.057 A  
HETATM   31  C   UNL     1      -9.055   1.912  69.382  1.00  0.00    -0.163 A  
HETATM   32  C   UNL     1      -8.694   1.815  70.736  1.00  0.00    -0.103 A  
HETATM   33  C   UNL     1      -7.451   2.254  71.163  1.00  0.00    -0.033 A  
HETATM   34  C   UNL     1      -6.564   2.771  70.234  1.00  0.00    -0.033 A  
HETATM   35  C   UNL     1      -6.948   2.879  68.886  1.00  0.00    -0.044 A  
ENDBRANCH  24  30
ENDBRANCH  18  19
ENDBRANCH  17  18
ENDBRANCH   8  17
TORSDOF 4
ENDMDL
MODEL      221
REMARK 921   NORMALIZED FREE ENERGY PREDICTED BY IDOCK:    1.40 KCAL/MOL
REMARK 922        TOTAL FREE ENERGY PREDICTED BY IDOCK:   -0.15 KCAL/MOL
REMARK 923 INTER-LIGAND FREE ENERGY PREDICTED BY IDOCK:    0.19 KCAL/MOL
REMARK 924 INTRA-LIGAND FREE ENERGY PREDICTED BY IDOCK:   -0.33 KCAL/MOL
REMARK 927      BINDING AFFINITY PREDICTED BY RF-SCORE:    0.00 PKD
ROOT
HETATM    1  F   UNL     1     -12.437   8.962  70.952  1.00  0.00    -0.286 F  
HETATM    2  C   UNL     1     -11.539   8.296  70.215  1.00  0.00     0.017 A  
HETATM    3  C   UNL     1     -11.907   7.781  68.980  1.00  0.00     1.488 A  
HETATM    4  C   UNL     1     -10.985   7.038  68.238  1.00  0.00    -0.148 A  
HETATM    5  C   UNL     1      -9.680   6.814  68.721  1.00  0.00    -0.132 A  
HETATM    6  C   UNL     1      -8.708   5.947  67.902  1.00  0.00    -0.104 C  
HETATM    7  C   UNL     1      -9.316   7.429  69.932  1.00  0.00    -0.154 A  
HETATM    8  C   UNL     1      -7.881   6.830  66.919  1.00  0.00    -0.108 C  
HETATM    9  C   UNL     1     -10.249   8.132  70.694  1.00  0.00    -0.211 A  
HETATM   10  C   UNL     1      -7.920   4.843  68.632  1.00  0.00    -0.084 A  
HETATM   11  C   UNL     1      -8.045   4.567  70.006  1.00  0.00    -0.067 A  
HETATM   12  C   UNL     1      -6.343   2.968  68.497  1.00  0.00    -0.029 A  
HETATM   13  F   UNL     1      -5.744   1.800  70.456  1.00  0.00    -0.013 F  
HETATM   14  C   UNL     1      -7.294   3.563  70.624  1.00  0.00    -0.040 A  
HETATM   15  C   UNL     1      -6.449   2.771  69.864  1.00  0.00    -0.029 A  
HETATM   16  C   UNL     1      -7.074   3.994  67.888  1.00  0.00    -0.059 A  
ENDROOT
BRANCH   8  17
HETATM   17  C   UNL     1      -7.018   7.960  67.507  1.00  0.00    -0.075 C  
BRANCH  17  18
HETATM   18  C   UNL     1      -7.761   9.089  68.233  1.00  0.00    -0.095 C  
BRANCH  18  19
HETATM   19  N   UNL     1      -6.900  10.018  68.963  1.00  0.00    -0.053 NA 
HETATM   20  C   UNL     1      -7.821  10.085  71.322  1.00  0.00     1.510 C  
HETATM   21  C   UNL     1      -7.559  10.817  70.002  1.00  0.00     0.308 C  
HETATM   22  C   UNL     1      -6.583   9.333  71.822  1.00  0.00     0.118 C  
HETATM   23  C   UNL     1      -5.889   8.527  70.718  1.00  0.00    -0.032 C  
HETATM   24  N   UNL     1      -6.832   8.495  73.043  1.00  0.00    -0.248 NA 
HETATM   25  O   UNL     1      -5.129  11.370  71.832  1.00  0.00    -0.304 OA 
HETATM   26  C   UNL     1      -5.677   9.372  69.461  1.00  0.00    -0.034 C  
HETATM   27  C   UNL     1      -5.878   8.826  74.093  1.00  0.00    -0.121 C  
HETATM   28  C   UNL     1      -5.581  10.375  72.375  1.00  0.00     0.520 C  
HETATM   29  N   UNL     1      -5.234  10.002  73.644  1.00  0.00    -0.325 NA 
BRANCH  24  30
HETATM   30  C   UNL     1      -7.733   7.462  73.231  1.00  0.00    -0.095 A  
HETATM   31  C   UNL     1      -9.101   7.665  73.449  1.00  0.00    -0.296 A  
HETATM   32  C   UNL     1      -9.990   6.612  73.723  1.00  0.00    -0.297 A  
HETATM   33  C   UNL     1      -9.536   5.302  73.756  1.00  0.00    -0.139 A  
HETATM   34  C   UNL     1      -8.202   5.045  73.495  1.00  0.00    -0.107 A  
HETATM   35  C   UNL     1      -7.321   6.112  73.240  1.00  0.00    -0.088 A  
ENDBRANCH  24  30
ENDBRANCH  18  19
ENDBRANCH  17  18
ENDBRANCH   8  17
TORSDOF 4
ENDMDL
MODEL      222
REMARK 921   NORMALIZED FREE ENERGY PREDICTED BY IDOCK:    1.55 KCAL/MOL
REMARK 922        TOTAL FREE ENERGY PREDICTED BY IDOCK:    0.04 KCAL/MOL
REMARK 923 INTER-LIGAND FREE ENERGY PREDICTED BY IDOCK:    1.03 KCAL/MOL
REMARK 924 INTRA-LIGAND FREE ENERGY PREDICTED BY IDOCK:   -0.99 KCAL/MOL
REMARK 927      BINDING AFFINITY PREDICTED BY RF-SCORE:    0.00 PKD
ROOT
HETATM    1  F   UNL     1     -11.950   4.261  65.906  1.00  0.00     1.683 F  
HETATM    2  C   UNL     1     -10.726   4.343  66.441  1.00  0.00     0.504 A  
HETATM    3  C   UNL     1      -9.632   3.864  65.733  1.00  0.00    -0.182 A  
HETATM    4  C   UNL     1      -8.363   3.899  66.317  1.00  0.00    -0.105 A  
HETATM    5  C   UNL     1      -8.174   4.424  67.611  1.00  0.00    -0.099 A  
HETATM    6  C   UNL     1      -6.772   4.398  68.243  1.00  0.00    -0.047 C  
HETATM    7  C   UNL     1      -9.290   4.983  68.259  1.00  0.00    -0.160 A  
HETATM    8  C   UNL     1      -5.997   5.709  67.913  1.00  0.00    -0.017 C  
HETATM    9  C   UNL     1     -10.565   4.908  67.696  1.00  0.00     0.091 A  
HETATM   10  C   UNL     1      -6.631   3.885  69.688  1.00  0.00    -0.033 A  
HETATM   11  C   UNL     1      -7.709   3.424  70.467  1.00  0.00    -0.043 A  
HETATM   12  C   UNL     1      -5.158   3.322  71.568  1.00  0.00     0.000 A  
HETATM   13  F   UNL     1      -6.083   2.497  73.574  1.00  0.00    -0.009 F  
HETATM   14  C   UNL     1      -7.528   2.983  71.781  1.00  0.00    -0.047 A  
HETATM   15  C   UNL     1      -6.254   2.935  72.321  1.00  0.00    -0.014 A  
HETATM   16  C   UNL     1      -5.346   3.790  70.263  1.00  0.00    -0.008 A  
ENDROOT
BRANCH   8  17
HETATM   17  C   UNL     1      -6.613   7.049  68.352  1.00  0.00    -0.055 C  
BRANCH  17  18
HETATM   18  C   UNL     1      -6.128   7.627  69.687  1.00  0.00    -0.030 C  
BRANCH  18  19
HETATM   19  N   UNL     1      -7.103   8.465  70.382  1.00  0.00    -0.036 NA 
HETATM   20  C   UNL     1      -7.499  10.451  68.859  1.00  0.00    -0.099 C  
HETATM   21  C   UNL     1      -6.957   9.911  70.187  1.00  0.00    -0.138 C  
HETATM   22  C   UNL     1      -8.910   9.932  68.558  1.00  0.00    -0.122 C  
HETATM   23  C   UNL     1      -9.055   8.425  68.795  1.00  0.00    -0.143 C  
HETATM   24  N   UNL     1      -9.428  10.329  67.205  1.00  0.00    -0.149 NA 
HETATM   25  O   UNL     1      -9.877  10.789  70.701  1.00  0.00     1.113 OA 
HETATM   26  C   UNL     1      -8.485   8.018  70.155  1.00  0.00    -0.128 C  
HETATM   27  C   UNL     1     -10.726  10.978  67.326  1.00  0.00    -0.265 C  
HETATM   28  C   UNL     1      -9.902  10.674  69.486  1.00  0.00    -0.084 C  
HETATM   29  N   UNL     1     -10.888  11.217  68.710  1.00  0.00    -0.198 NA 
BRANCH  24  30
HETATM   30  C   UNL     1      -8.895  10.080  65.953  1.00  0.00    -0.144 A  
HETATM   31  C   UNL     1      -8.249  11.056  65.184  1.00  0.00     0.146 A  
HETATM   32  C   UNL     1      -7.789  10.812  63.879  1.00  0.00     0.243 A  
HETATM   33  C   UNL     1      -7.934   9.558  63.308  1.00  0.00    -0.143 A  
HETATM   34  C   UNL     1      -8.521   8.545  64.047  1.00  0.00    -0.043 A  
HETATM   35  C   UNL     1      -8.993   8.810  65.345  1.00  0.00    -0.211 A  
ENDBRANCH  24  30
ENDBRANCH  18  19
ENDBRANCH  17  18
ENDBRANCH   8  17
TORSDOF 4
ENDMDL
MODEL      223
REMARK 921   NORMALIZED FREE ENERGY PREDICTED BY IDOCK:    2.29 KCAL/MOL
REMARK 922        TOTAL FREE ENERGY PREDICTED BY IDOCK:    0.95 KCAL/MOL
REMARK 923 INTER-LIGAND FREE ENERGY PREDICTED BY IDOCK:   -0.15 KCAL/MOL
REMARK 924 INTRA-LIGAND FREE ENERGY PREDICTED BY IDOCK:    1.09 KCAL/MOL
REMARK 927      BINDING AFFINITY PREDICTED BY RF-SCORE:    0.00 PKD
ROOT
HETATM    1  F   UNL     1      -9.761  19.500  70.144  1.00  0.00    -0.027 F  
HETATM    2  C   UNL     1     -10.012  18.442  69.363  1.00  0.00     0.094 A  
HETATM    3  C   UNL     1     -10.769  18.600  68.211  1.00  0.00    -0.083 A  
HETATM    4  C   UNL     1     -11.077  17.485  67.428  1.00  0.00     0.097 A  
HETATM    5  C   UNL     1     -10.620  16.201  67.785  1.00  0.00    -0.309 A  
HETATM    6  C   UNL     1     -11.022  14.988  66.928  1.00  0.00    -0.324 C  
HETATM    7  C   UNL     1      -9.779  16.094  68.907  1.00  0.00    -0.242 A  
HETATM    8  C   UNL     1      -9.970  14.734  65.807  1.00  0.00    -0.375 C  
HETATM    9  C   UNL     1      -9.509  17.199  69.714  1.00  0.00     0.766 A  
HETATM   10  C   UNL     1     -11.551  13.731  67.644  1.00  0.00    -0.381 A  
HETATM   11  C   UNL     1     -11.702  13.626  69.039  1.00  0.00    -0.375 A  
HETATM   12  C   UNL     1     -12.486  11.469  67.470  1.00  0.00     1.648 A  
HETATM   13  F   UNL     1     -13.026  10.272  69.428  1.00  0.00     0.055 F  
HETATM   14  C   UNL     1     -12.172  12.454  69.640  1.00  0.00    -0.171 A  
HETATM   15  C   UNL     1     -12.562  11.385  68.850  1.00  0.00     0.669 A  
HETATM   16  C   UNL     1     -11.988  12.632  66.873  1.00  0.00    -0.345 A  
ENDROOT
BRANCH   8  17
HETATM   17  C   UNL     1      -8.512  14.469  66.224  1.00  0.00     0.497 C  
BRANCH  17  18
HETATM   18  C   UNL     1      -7.762  15.632  66.886  1.00  0.00    -0.203 C  
BRANCH  18  19
HETATM   19  N   UNL     1      -6.890  15.247  67.994  1.00  0.00    -0.126 NA 
HETATM   20  C   UNL     1      -7.880  13.109  68.924  1.00  0.00     0.118 C  
HETATM   21  C   UNL     1      -7.549  14.591  69.127  1.00  0.00    -0.102 C  
HETATM   22  C   UNL     1      -6.687  12.321  68.371  1.00  0.00    -0.064 C  
HETATM   23  C   UNL     1      -5.990  13.033  67.207  1.00  0.00     0.083 C  
HETATM   24  N   UNL     1      -7.005  10.893  68.033  1.00  0.00    -0.071 NA 
HETATM   25  O   UNL     1      -5.158  12.977  70.241  1.00  0.00    -0.086 OA 
HETATM   26  C   UNL     1      -5.708  14.499  67.540  1.00  0.00     0.164 C  
HETATM   27  C   UNL     1      -6.072   9.991  68.695  1.00  0.00    -0.044 C  
HETATM   28  C   UNL     1      -5.664  12.134  69.518  1.00  0.00    -0.087 C  
HETATM   29  N   UNL     1      -5.372  10.803  69.617  1.00  0.00    -0.038 NA 
BRANCH  24  30
HETATM   30  C   UNL     1      -7.950  10.387  67.158  1.00  0.00    -0.115 A  
HETATM   31  C   UNL     1      -8.438   9.077  67.226  1.00  0.00    -0.114 A  
HETATM   32  C   UNL     1      -9.333   8.550  66.279  1.00  0.00    -0.287 A  
HETATM   33  C   UNL     1      -9.798   9.340  65.240  1.00  0.00     0.042 A  
HETATM   34  C   UNL     1      -9.385  10.659  65.159  1.00  0.00    -0.254 A  
HETATM   35  C   UNL     1      -8.475  11.165  66.104  1.00  0.00    -0.156 A  
ENDBRANCH  24  30
ENDBRANCH  18  19
ENDBRANCH  17  18
ENDBRANCH   8  17
TORSDOF 4
ENDMDL
MODEL      224
REMARK 921   NORMALIZED FREE ENERGY PREDICTED BY IDOCK:    2.56 KCAL/MOL
REMARK 922        TOTAL FREE ENERGY PREDICTED BY IDOCK:    1.29 KCAL/MOL
REMARK 923 INTER-LIGAND FREE ENERGY PREDICTED BY IDOCK:    2.17 KCAL/MOL
REMARK 924 INTRA-LIGAND FREE ENERGY PREDICTED BY IDOCK:   -0.88 KCAL/MOL
REMARK 927      BINDING AFFINITY PREDICTED BY RF-SCORE:    0.00 PKD
ROOT
HETATM    1  F   UNL     1     -13.322   8.623  69.389  1.00  0.00     3.142 F  
HETATM    2  C   UNL     1     -11.997   8.478  69.267  1.00  0.00     1.669 A  
HETATM    3  C   UNL     1     -11.400   8.619  68.022  1.00  0.00     0.837 A  
HETATM    4  C   UNL     1     -10.025   8.413  67.887  1.00  0.00    -0.228 A  
HETATM    5  C   UNL     1      -9.231   8.074  69.001  1.00  0.00    -0.148 A  
HETATM    6  C   UNL     1      -7.729   7.802  68.808  1.00  0.00    -0.113 C  
HETATM    7  C   UNL     1      -9.855   8.031  70.261  1.00  0.00    -0.184 A  
HETATM    8  C   UNL     1      -6.906   9.114  68.985  1.00  0.00    -0.055 C  
HETATM    9  C   UNL     1     -11.235   8.193  70.388  1.00  0.00    -0.221 A  
HETATM   10  C   UNL     1      -7.125   6.542  69.455  1.00  0.00    -0.073 A  
HETATM   11  C   UNL     1      -7.867   5.612  70.206  1.00  0.00    -0.098 A  
HETATM   12  C   UNL     1      -5.165   5.103  69.789  1.00  0.00    -0.003 A  
HETATM   13  F   UNL     1      -5.351   3.164  71.117  1.00  0.00    -0.003 F  
HETATM   14  C   UNL     1      -7.265   4.492  70.787  1.00  0.00    -0.041 A  
HETATM   15  C   UNL     1      -5.919   4.246  70.573  1.00  0.00    -0.014 A  
HETATM   16  C   UNL     1      -5.764   6.239  69.234  1.00  0.00    -0.020 A  
ENDROOT
BRANCH   8  17
HETATM   17  C   UNL     1      -7.012   9.863  70.325  1.00  0.00    -0.147 C  
BRANCH  17  18
HETATM   18  C   UNL     1      -7.105  11.393  70.256  1.00  0.00     0.905 C  
BRANCH  18  19
HETATM   19  N   UNL     1      -7.073  11.947  68.903  1.00  0.00    -0.111 NA 
HETATM   20  C   UNL     1      -9.485  12.462  68.324  1.00  0.00    -0.203 C  
HETATM   21  C   UNL     1      -8.227  11.630  68.056  1.00  0.00    -0.146 C  
HETATM   22  C   UNL     1      -9.180  13.962  68.406  1.00  0.00    -0.194 C  
HETATM   23  C   UNL     1      -7.953  14.275  69.270  1.00  0.00     0.125 C  
HETATM   24  N   UNL     1     -10.360  14.804  68.798  1.00  0.00    -0.242 NA 
HETATM   25  O   UNL     1      -8.127  14.053  66.136  1.00  0.00     1.044 OA 
HETATM   26  C   UNL     1      -6.767  13.385  68.897  1.00  0.00    -0.110 C  
HETATM   27  C   UNL     1     -10.571  15.871  67.829  1.00  0.00    -0.302 C  
HETATM   28  C   UNL     1      -8.913  14.475  66.969  1.00  0.00    -0.240 C  
HETATM   29  N   UNL     1      -9.727  15.549  66.741  1.00  0.00    -0.231 NA 
BRANCH  24  30
HETATM   30  C   UNL     1     -11.146  14.739  69.935  1.00  0.00    -0.233 A  
HETATM   31  C   UNL     1     -11.197  15.757  70.894  1.00  0.00    -0.404 A  
HETATM   32  C   UNL     1     -11.932  15.641  72.086  1.00  0.00    -0.552 A  
HETATM   33  C   UNL     1     -12.676  14.500  72.341  1.00  0.00    -0.414 A  
HETATM   34  C   UNL     1     -12.700  13.487  71.399  1.00  0.00    -0.423 A  
HETATM   35  C   UNL     1     -11.944  13.610  70.220  1.00  0.00    -0.397 A  
ENDBRANCH  24  30
ENDBRANCH  18  19
ENDBRANCH  17  18
ENDBRANCH   8  17
TORSDOF 4
ENDMDL
MODEL      225
REMARK 921   NORMALIZED FREE ENERGY PREDICTED BY IDOCK:    2.63 KCAL/MOL
REMARK 922        TOTAL FREE ENERGY PREDICTED BY IDOCK:    1.37 KCAL/MOL
REMARK 923 INTER-LIGAND FREE ENERGY PREDICTED BY IDOCK:    2.40 KCAL/MOL
REMARK 924 INTRA-LIGAND FREE ENERGY PREDICTED BY IDOCK:   -1.03 KCAL/MOL
REMARK 927      BINDING AFFINITY PREDICTED BY RF-SCORE:    0.00 PKD
ROOT
HETATM    1  F   UNL     1      -6.125   4.402  72.391  1.00  0.00    -0.013 F  
HETATM    2  C   UNL     1      -6.760   4.730  71.259  1.00  0.00    -0.035 A  
HETATM    3  C   UNL     1      -7.099   3.739  70.348  1.00  0.00    -0.038 A  
HETATM    4  C   UNL     1      -7.711   4.089  69.142  1.00  0.00    -0.053 A  
HETATM    5  C   UNL     1      -8.002   5.435  68.841  1.00  0.00    -0.094 A  
HETATM    6  C   UNL     1      -8.629   5.790  67.482  1.00  0.00    -0.105 C  
HETATM    7  C   UNL     1      -7.728   6.400  69.828  1.00  0.00    -0.109 A  
HETATM    8  C   UNL     1     -10.184   5.777  67.575  1.00  0.00    -0.239 C  
HETATM    9  C   UNL     1      -7.076   6.056  71.012  1.00  0.00    -0.069 A  
HETATM   10  C   UNL     1      -8.017   6.952  66.676  1.00  0.00    -0.108 A  
HETATM   11  C   UNL     1      -6.907   7.704  67.101  1.00  0.00    -0.068 A  
HETATM   12  C   UNL     1      -8.012   8.287  64.617  1.00  0.00    -0.145 A  
HETATM   13  F   UNL     1      -6.459  10.044  64.366  1.00  0.00    -0.105 F  
HETATM   14  C   UNL     1      -6.401   8.760  66.338  1.00  0.00    -0.061 A  
HETATM   15  C   UNL     1      -6.957   9.043  65.101  1.00  0.00    -0.080 A  
HETATM   16  C   UNL     1      -8.535   7.250  65.397  1.00  0.00    -0.096 A  
ENDROOT
BRANCH   8  17
HETATM   17  C   UNL     1     -10.860   6.717  68.589  1.00  0.00    -0.319 C  
BRANCH  17  18
HETATM   18  C   UNL     1     -10.176   8.067  68.842  1.00  0.00    -0.209 C  
BRANCH  18  19
HETATM   19  N   UNL     1     -11.066   9.125  69.315  1.00  0.00    -0.059 NA 
HETATM   20  C   UNL     1      -9.552  11.062  69.927  1.00  0.00     0.818 C  
HETATM   21  C   UNL     1     -10.533   9.977  70.383  1.00  0.00    -0.240 C  
HETATM   22  C   UNL     1     -10.079  11.849  68.722  1.00  0.00    -0.120 C  
HETATM   23  C   UNL     1     -10.659  10.946  67.628  1.00  0.00    -0.263 C  
HETATM   24  N   UNL     1      -9.093  12.833  68.160  1.00  0.00    -0.202 NA 
HETATM   25  O   UNL     1     -12.196  12.534  69.868  1.00  0.00    -0.253 OA 
HETATM   26  C   UNL     1     -11.628   9.917  68.211  1.00  0.00     0.396 C  
HETATM   27  C   UNL     1      -9.688  14.160  68.077  1.00  0.00    -0.226 C  
HETATM   28  C   UNL     1     -11.195  12.798  69.221  1.00  0.00    -0.190 C  
HETATM   29  N   UNL     1     -10.897  14.065  68.803  1.00  0.00    -0.257 NA 
BRANCH  24  30
HETATM   30  C   UNL     1      -7.820  12.615  67.664  1.00  0.00    -0.162 A  
HETATM   31  C   UNL     1      -7.435  12.947  66.360  1.00  0.00     1.336 A  
HETATM   32  C   UNL     1      -6.165  12.642  65.843  1.00  0.00     3.794 A  
HETATM   33  C   UNL     1      -5.217  12.017  66.637  1.00  0.00     0.099 A  
HETATM   34  C   UNL     1      -5.532  11.715  67.951  1.00  0.00    -0.048 A  
HETATM   35  C   UNL     1      -6.814  12.010  68.447  1.00  0.00    -0.072 A  
ENDBRANCH  24  30
ENDBRANCH  18  19
ENDBRANCH  17  18
ENDBRANCH   8  17
TORSDOF 4
ENDMDL
MODEL      226
REMARK 921   NORMALIZED FREE ENERGY PREDICTED BY IDOCK:    3.12 KCAL/MOL
REMARK 922        TOTAL FREE ENERGY PREDICTED BY IDOCK:    1.97 KCAL/MOL
REMARK 923 INTER-LIGAND FREE ENERGY PREDICTED BY IDOCK:    0.41 KCAL/MOL
REMARK 924 INTRA-LIGAND FREE ENERGY PREDICTED BY IDOCK:    1.56 KCAL/MOL
REMARK 927      BINDING AFFINITY PREDICTED BY RF-SCORE:    0.00 PKD
ROOT
HETATM    1  F   UNL     1     -11.457   2.449  71.351  1.00  0.00     1.898 F  
HETATM    2  C   UNL     1     -11.256   3.768  71.464  1.00  0.00     2.128 A  
HETATM    3  C   UNL     1     -12.029   4.510  72.346  1.00  0.00     0.996 A  
HETATM    4  C   UNL     1     -11.855   5.895  72.420  1.00  0.00    -0.263 A  
HETATM    5  C   UNL     1     -10.897   6.548  71.621  1.00  0.00    -0.281 A  
HETATM    6  C   UNL     1     -10.769   8.080  71.690  1.00  0.00    -0.284 C  
HETATM    7  C   UNL     1     -10.070   5.752  70.808  1.00  0.00    -0.260 A  
HETATM    8  C   UNL     1      -9.725   8.495  72.771  1.00  0.00    -0.229 C  
HETATM    9  C   UNL     1     -10.273   4.376  70.699  1.00  0.00    -0.097 A  
HETATM   10  C   UNL     1     -10.712   8.869  70.369  1.00  0.00    -0.261 A  
HETATM   11  C   UNL     1     -10.783   8.276  69.095  1.00  0.00    -0.117 A  
HETATM   12  C   UNL     1     -10.619  11.048  69.243  1.00  0.00    -0.236 A  
HETATM   13  F   UNL     1     -10.577  11.146  66.887  1.00  0.00    -0.248 F  
HETATM   14  C   UNL     1     -10.711   9.038  67.926  1.00  0.00    -0.200 A  
HETATM   15  C   UNL     1     -10.630  10.418  68.009  1.00  0.00    -0.221 A  
HETATM   16  C   UNL     1     -10.662  10.280  70.411  1.00  0.00    -0.270 A  
ENDROOT
BRANCH   8  17
HETATM   17  C   UNL     1      -8.284   7.975  72.628  1.00  0.00    -0.203 C  
BRANCH  17  18
HETATM   18  C   UNL     1      -7.755   7.791  71.199  1.00  0.00    -0.084 C  
BRANCH  18  19
HETATM   19  N   UNL     1      -6.898   8.874  70.720  1.00  0.00    -0.058 NA 
HETATM   20  C   UNL     1      -5.759   7.970  68.645  1.00  0.00    -0.035 C  
HETATM   21  C   UNL     1      -5.640   8.462  70.091  1.00  0.00    -0.021 C  
HETATM   22  C   UNL     1      -6.593   8.921  67.779  1.00  0.00    -0.061 C  
HETATM   23  C   UNL     1      -7.890   9.367  68.461  1.00  0.00    -0.089 C  
HETATM   24  N   UNL     1      -6.847   8.413  66.388  1.00  0.00    -0.069 NA 
HETATM   25  O   UNL     1      -5.156  10.912  68.268  1.00  0.00    -0.037 OA 
HETATM   26  C   UNL     1      -7.633   9.842  69.892  1.00  0.00    -0.163 C  
HETATM   27  C   UNL     1      -6.439   9.402  65.400  1.00  0.00    -0.070 C  
HETATM   28  C   UNL     1      -5.734  10.176  67.485  1.00  0.00    -0.045 C  
HETATM   29  N   UNL     1      -5.716  10.373  66.132  1.00  0.00    -0.070 NA 
BRANCH  24  30
HETATM   30  C   UNL     1      -7.463   7.244  65.980  1.00  0.00    -0.080 A  
HETATM   31  C   UNL     1      -8.701   6.813  66.473  1.00  0.00    -0.139 A  
HETATM   32  C   UNL     1      -9.274   5.582  66.114  1.00  0.00    -0.166 A  
HETATM   33  C   UNL     1      -8.633   4.747  65.212  1.00  0.00    -0.137 A  
HETATM   34  C   UNL     1      -7.432   5.152  64.656  1.00  0.00    -0.072 A  
HETATM   35  C   UNL     1      -6.862   6.378  65.040  1.00  0.00    -0.047 A  
ENDBRANCH  24  30
ENDBRANCH  18  19
ENDBRANCH  17  18
ENDBRANCH   8  17
TORSDOF 4
ENDMDL
MODEL      227
REMARK 921   NORMALIZED FREE ENERGY PREDICTED BY IDOCK:    3.50 KCAL/MOL
REMARK 922        TOTAL FREE ENERGY PREDICTED BY IDOCK:    2.44 KCAL/MOL
REMARK 923 INTER-LIGAND FREE ENERGY PREDICTED BY IDOCK:    3.19 KCAL/MOL
REMARK 924 INTRA-LIGAND FREE ENERGY PREDICTED BY IDOCK:   -0.75 KCAL/MOL
REMARK 927      BINDING AFFINITY PREDICTED BY RF-SCORE:    0.00 PKD
ROOT
HETATM    1  F   UNL     1     -12.886   9.400  70.235  1.00  0.00     0.043 F  
HETATM    2  C   UNL     1     -11.585   9.715  70.216  1.00  0.00    -0.198 A  
HETATM    3  C   UNL     1     -10.825   9.576  71.369  1.00  0.00    -0.382 A  
HETATM    4  C   UNL     1      -9.481   9.959  71.362  1.00  0.00     1.354 A  
HETATM    5  C   UNL     1      -8.882  10.474  70.196  1.00  0.00     0.659 A  
HETATM    6  C   UNL     1      -7.415  10.935  70.238  1.00  0.00     0.789 C  
HETATM    7  C   UNL     1      -9.658  10.514  69.023  1.00  0.00    -0.213 A  
HETATM    8  C   UNL     1      -6.460   9.762  69.861  1.00  0.00    -0.062 C  
HETATM    9  C   UNL     1     -11.011  10.175  69.041  1.00  0.00    -0.265 A  
HETATM   10  C   UNL     1      -7.061  12.305  69.630  1.00  0.00     0.329 A  
HETATM   11  C   UNL     1      -8.002  13.173  69.047  1.00  0.00     0.279 A  
HETATM   12  C   UNL     1      -5.357  14.017  69.193  1.00  0.00    -0.077 A  
HETATM   13  F   UNL     1      -5.951  15.996  68.057  1.00  0.00    -0.094 F  
HETATM   14  C   UNL     1      -7.625  14.400  68.494  1.00  0.00    -0.125 A  
HETATM   15  C   UNL     1      -6.306  14.813  68.572  1.00  0.00    -0.086 A  
HETATM   16  C   UNL     1      -5.733  12.776  69.718  1.00  0.00    -0.110 A  
ENDROOT
BRANCH   8  17
HETATM   17  C   UNL     1      -6.634   9.095  68.486  1.00  0.00    -0.055 C  
BRANCH  17  18
HETATM   18  C   UNL     1      -5.835   9.695  67.321  1.00  0.00    -0.051 C  
BRANCH  18  19
HETATM   19  N   UNL     1      -6.517  10.765  66.597  1.00  0.00    -0.098 NA 
HETATM   20  C   UNL     1      -6.442  10.089  64.157  1.00  0.00    -0.131 C  
HETATM   21  C   UNL     1      -6.001  11.060  65.257  1.00  0.00     0.184 C  
HETATM   22  C   UNL     1      -7.952   9.830  64.187  1.00  0.00    -0.143 C  
HETATM   23  C   UNL     1      -8.482   9.553  65.598  1.00  0.00    -0.143 C  
HETATM   24  N   UNL     1      -8.410   8.783  63.211  1.00  0.00    -0.183 NA 
HETATM   25  O   UNL     1      -8.553  12.251  63.980  1.00  0.00     1.371 OA 
HETATM   26  C   UNL     1      -7.978  10.596  66.597  1.00  0.00    -0.134 C  
HETATM   27  C   UNL     1      -9.480   9.302  62.371  1.00  0.00     0.466 C  
HETATM   28  C   UNL     1      -8.665  11.087  63.631  1.00  0.00     0.051 C  
HETATM   29  N   UNL     1      -9.507  10.692  62.629  1.00  0.00    -0.305 NA 
BRANCH  24  30
HETATM   30  C   UNL     1      -8.023   7.460  63.097  1.00  0.00    -0.093 A  
HETATM   31  C   UNL     1      -6.685   7.050  63.064  1.00  0.00    -0.051 A  
HETATM   32  C   UNL     1      -6.305   5.712  62.861  1.00  0.00    -0.021 A  
HETATM   33  C   UNL     1      -7.268   4.726  62.716  1.00  0.00    -0.039 A  
HETATM   34  C   UNL     1      -8.606   5.073  62.794  1.00  0.00    -0.115 A  
HETATM   35  C   UNL     1      -8.969   6.419  62.979  1.00  0.00     0.837 A  
ENDBRANCH  24  30
ENDBRANCH  18  19
ENDBRANCH  17  18
ENDBRANCH   8  17
TORSDOF 4
ENDMDL
MODEL      228
REMARK 921   NORMALIZED FREE ENERGY PREDICTED BY IDOCK:    3.52 KCAL/MOL
REMARK 922        TOTAL FREE ENERGY PREDICTED BY IDOCK:    2.47 KCAL/MOL
REMARK 923 INTER-LIGAND FREE ENERGY PREDICTED BY IDOCK:    0.80 KCAL/MOL
REMARK 924 INTRA-LIGAND FREE ENERGY PREDICTED BY IDOCK:    1.67 KCAL/MOL
REMARK 927      BINDING AFFINITY PREDICTED BY RF-SCORE:    0.00 PKD
ROOT
HETATM    1  F   UNL     1      -6.623   9.747  74.179  1.00  0.00     0.349 F  
HETATM    2  C   UNL     1      -6.928   9.672  72.877  1.00  0.00     1.605 A  
HETATM    3  C   UNL     1      -5.978  10.019  71.927  1.00  0.00     0.352 A  
HETATM    4  C   UNL     1      -6.316   9.994  70.571  1.00  0.00    -0.116 A  
HETATM    5  C   UNL     1      -7.606   9.610  70.153  1.00  0.00    -0.165 A  
HETATM    6  C   UNL     1      -7.959   9.644  68.656  1.00  0.00    -0.089 C  
HETATM    7  C   UNL     1      -8.511   9.176  71.138  1.00  0.00    -0.175 A  
HETATM    8  C   UNL     1      -7.649   8.271  67.987  1.00  0.00    -0.102 C  
HETATM    9  C   UNL     1      -8.189   9.244  72.494  1.00  0.00     1.180 A  
HETATM   10  C   UNL     1      -9.283  10.309  68.233  1.00  0.00    -0.139 A  
HETATM   11  C   UNL     1     -10.187  10.902  69.133  1.00  0.00    -0.215 A  
HETATM   12  C   UNL     1     -10.777  11.014  66.418  1.00  0.00    -0.286 A  
HETATM   13  F   UNL     1     -12.807  12.098  66.929  1.00  0.00     0.813 F  
HETATM   14  C   UNL     1     -11.384  11.479  68.697  1.00  0.00    -0.330 A  
HETATM   15  C   UNL     1     -11.669  11.531  67.343  1.00  0.00    -0.151 A  
HETATM   16  C   UNL     1      -9.594  10.411  66.860  1.00  0.00    -0.207 A  
ENDROOT
BRANCH   8  17
HETATM   17  C   UNL     1      -8.350   7.018  68.539  1.00  0.00    -0.121 C  
BRANCH  17  18
HETATM   18  C   UNL     1      -8.866   6.005  67.508  1.00  0.00    -0.109 C  
BRANCH  18  19
HETATM   19  N   UNL     1      -7.823   5.331  66.737  1.00  0.00    -0.100 NA 
HETATM   20  C   UNL     1      -8.197   6.034  64.332  1.00  0.00    -0.082 C  
HETATM   21  C   UNL     1      -8.197   4.918  65.381  1.00  0.00    -0.121 C  
HETATM   22  C   UNL     1      -6.915   6.874  64.383  1.00  0.00    -0.055 C  
HETATM   23  C   UNL     1      -6.520   7.273  65.809  1.00  0.00    -0.045 C  
HETATM   24  N   UNL     1      -6.928   8.060  63.462  1.00  0.00    -0.075 NA 
HETATM   25  O   UNL     1      -5.400   4.907  64.063  1.00  0.00    -0.009 OA 
HETATM   26  C   UNL     1      -6.552   6.070  66.753  1.00  0.00    -0.056 C  
HETATM   27  C   UNL     1      -5.751   8.052  62.603  1.00  0.00    -0.069 C  
HETATM   28  C   UNL     1      -5.768   6.033  63.771  1.00  0.00    -0.022 C  
HETATM   29  N   UNL     1      -5.168   6.778  62.794  1.00  0.00    -0.030 NA 
BRANCH  24  30
HETATM   30  C   UNL     1      -7.813   9.122  63.409  1.00  0.00    -0.132 A  
HETATM   31  C   UNL     1      -8.800   9.253  62.425  1.00  0.00    -0.242 A  
HETATM   32  C   UNL     1      -9.635  10.379  62.333  1.00  0.00    -0.178 A  
HETATM   33  C   UNL     1      -9.529  11.407  63.257  1.00  0.00    -0.330 A  
HETATM   34  C   UNL     1      -8.604  11.300  64.280  1.00  0.00     0.387 A  
HETATM   35  C   UNL     1      -7.762  10.176  64.347  1.00  0.00    -0.134 A  
ENDBRANCH  24  30
ENDBRANCH  18  19
ENDBRANCH  17  18
ENDBRANCH   8  17
TORSDOF 4
ENDMDL
MODEL      229
REMARK 921   NORMALIZED FREE ENERGY PREDICTED BY IDOCK:    3.56 KCAL/MOL
REMARK 922        TOTAL FREE ENERGY PREDICTED BY IDOCK:    2.52 KCAL/MOL
REMARK 923 INTER-LIGAND FREE ENERGY PREDICTED BY IDOCK:    3.10 KCAL/MOL
REMARK 924 INTRA-LIGAND FREE ENERGY PREDICTED BY IDOCK:   -0.58 KCAL/MOL
REMARK 927      BINDING AFFINITY PREDICTED BY RF-SCORE:    0.00 PKD
ROOT
HETATM    1  F   UNL     1     -10.467  16.322  63.714  1.00  0.00     1.138 F  
HETATM    2  C   UNL     1     -10.867  15.299  64.480  1.00  0.00    -0.119 A  
HETATM    3  C   UNL     1     -12.039  14.623  64.170  1.00  0.00    -0.346 A  
HETATM    4  C   UNL     1     -12.484  13.593  65.002  1.00  0.00    -0.454 A  
HETATM    5  C   UNL     1     -11.753  13.222  66.148  1.00  0.00    -0.416 A  
HETATM    6  C   UNL     1     -12.299  12.119  67.071  1.00  0.00     0.695 C  
HETATM    7  C   UNL     1     -10.524  13.866  66.378  1.00  0.00    -0.284 A  
HETATM    8  C   UNL     1     -11.765  10.721  66.633  1.00  0.00     0.990 C  
HETATM    9  C   UNL     1     -10.102  14.925  65.573  1.00  0.00    -0.400 A  
HETATM   10  C   UNL     1     -12.319  12.379  68.589  1.00  0.00     0.296 A  
HETATM   11  C   UNL     1     -11.879  13.575  69.187  1.00  0.00    -0.386 A  
HETATM   12  C   UNL     1     -12.932  11.596  70.833  1.00  0.00    -0.145 A  
HETATM   13  F   UNL     1     -12.468  12.946  72.710  1.00  0.00     0.130 F  
HETATM   14  C   UNL     1     -11.904  13.754  70.573  1.00  0.00    -0.296 A  
HETATM   15  C   UNL     1     -12.431  12.764  71.385  1.00  0.00    -0.121 A  
HETATM   16  C   UNL     1     -12.878  11.408  69.447  1.00  0.00     0.661 A  
ENDROOT
BRANCH   8  17
HETATM   17  C   UNL     1     -10.243  10.503  66.599  1.00  0.00    -0.289 C  
BRANCH  17  18
HETATM   18  C   UNL     1      -9.757   9.066  66.367  1.00  0.00    -0.268 C  
BRANCH  18  19
HETATM   19  N   UNL     1      -9.008   8.485  67.480  1.00  0.00    -0.134 NA 
HETATM   20  C   UNL     1     -10.064   6.222  67.902  1.00  0.00    -0.169 C  
HETATM   21  C   UNL     1      -9.779   7.643  68.399  1.00  0.00    -0.158 C  
HETATM   22  C   UNL     1      -8.806   5.538  67.355  1.00  0.00    -0.105 C  
HETATM   23  C   UNL     1      -7.994   6.442  66.420  1.00  0.00    -0.110 C  
HETATM   24  N   UNL     1      -9.063   4.194  66.736  1.00  0.00    -0.127 NA 
HETATM   25  O   UNL     1      -7.503   5.845  69.470  1.00  0.00    -0.073 OA 
HETATM   26  C   UNL     1      -7.772   7.824  67.036  1.00  0.00    -0.104 C  
HETATM   27  C   UNL     1      -8.196   3.184  67.329  1.00  0.00    -0.083 C  
HETATM   28  C   UNL     1      -7.913   5.146  68.558  1.00  0.00    -0.086 C  
HETATM   29  N   UNL     1      -7.614   3.816  68.452  1.00  0.00    -0.061 NA 
BRANCH  24  30
HETATM   30  C   UNL     1      -9.898   3.856  65.686  1.00  0.00    -0.146 A  
HETATM   31  C   UNL     1     -10.904   4.700  65.200  1.00  0.00    -0.025 A  
HETATM   32  C   UNL     1     -11.800   4.310  64.191  1.00  0.00     1.943 A  
HETATM   33  C   UNL     1     -11.693   3.058  63.605  1.00  0.00     1.750 A  
HETATM   34  C   UNL     1     -10.682   2.207  64.014  1.00  0.00     0.214 A  
HETATM   35  C   UNL     1      -9.805   2.605  65.038  1.00  0.00     0.188 A  
ENDBRANCH  24  30
ENDBRANCH  18  19
ENDBRANCH  17  18
ENDBRANCH   8  17
TORSDOF 4
ENDMDL
MODEL      230
REMARK 921   NORMALIZED FREE ENERGY PREDICTED BY IDOCK:    4.42 KCAL/MOL
REMARK 922        TOTAL FREE ENERGY PREDICTED BY IDOCK:    3.58 KCAL/MOL
REMARK 923 INTER-LIGAND FREE ENERGY PREDICTED BY IDOCK:    4.11 KCAL/MOL
REMARK 924 INTRA-LIGAND FREE ENERGY PREDICTED BY IDOCK:   -0.53 KCAL/MOL
REMARK 927      BINDING AFFINITY PREDICTED BY RF-SCORE:    0.00 PKD
ROOT
HETATM    1  F   UNL     1     -10.452  16.328  63.699  1.00  0.00     1.527 F  
HETATM    2  C   UNL     1     -10.822  15.268  64.429  1.00  0.00     0.080 A  
HETATM    3  C   UNL     1     -12.049  14.664  64.192  1.00  0.00    -0.346 A  
HETATM    4  C   UNL     1     -12.457  13.593  64.992  1.00  0.00    -0.454 A  
HETATM    5  C   UNL     1     -11.635  13.109  66.030  1.00  0.00    -0.393 A  
HETATM    6  C   UNL     1     -12.138  11.964  66.924  1.00  0.00     0.248 C  
HETATM    7  C   UNL     1     -10.361  13.687  66.178  1.00  0.00    -0.297 A  
HETATM    8  C   UNL     1     -11.715  10.583  66.338  1.00  0.00     1.573 C  
HETATM    9  C   UNL     1      -9.972  14.785  65.410  1.00  0.00    -0.369 A  
HETATM   10  C   UNL     1     -11.997  12.112  68.451  1.00  0.00    -0.257 A  
HETATM   11  C   UNL     1     -11.446  13.242  69.083  1.00  0.00    -0.357 A  
HETATM   12  C   UNL     1     -12.422  11.190  70.685  1.00  0.00    -0.448 A  
HETATM   13  F   UNL     1     -11.715  12.378  72.595  1.00  0.00     2.440 F  
HETATM   14  C   UNL     1     -11.326  13.319  70.473  1.00  0.00     0.562 A  
HETATM   15  C   UNL     1     -11.816  12.293  71.263  1.00  0.00     0.997 A  
HETATM   16  C   UNL     1     -12.513  11.103  69.291  1.00  0.00    -0.008 A  
ENDROOT
BRANCH   8  17
HETATM   17  C   UNL     1     -10.215  10.308  66.135  1.00  0.00    -0.285 C  
BRANCH  17  18
HETATM   18  C   UNL     1      -9.826   8.892  65.690  1.00  0.00     0.077 C  
BRANCH  18  19
HETATM   19  N   UNL     1      -8.646   8.822  64.830  1.00  0.00    -0.171 NA 
HETATM   20  C   UNL     1      -7.158   7.051  65.864  1.00  0.00    -0.073 C  
HETATM   21  C   UNL     1      -7.380   8.524  65.507  1.00  0.00    -0.084 C  
HETATM   22  C   UNL     1      -7.454   6.120  64.683  1.00  0.00    -0.085 C  
HETATM   23  C   UNL     1      -8.766   6.462  63.968  1.00  0.00     0.515 C  
HETATM   24  N   UNL     1      -7.377   4.659  65.025  1.00  0.00    -0.071 NA 
HETATM   25  O   UNL     1      -5.833   7.254  63.150  1.00  0.00    -0.043 OA 
HETATM   26  C   UNL     1      -8.860   7.957  63.660  1.00  0.00     0.808 C  
HETATM   27  C   UNL     1      -6.478   3.967  64.112  1.00  0.00    -0.041 C  
HETATM   28  C   UNL     1      -6.292   6.249  63.668  1.00  0.00    -0.029 C  
HETATM   29  N   UNL     1      -5.818   4.995  63.400  1.00  0.00    -0.017 NA 
BRANCH  24  30
HETATM   30  C   UNL     1      -8.082   3.942  65.976  1.00  0.00    -0.101 A  
HETATM   31  C   UNL     1      -8.800   4.542  67.017  1.00  0.00    -0.113 A  
HETATM   32  C   UNL     1      -9.439   3.801  68.024  1.00  0.00    -0.221 A  
HETATM   33  C   UNL     1      -9.406   2.415  68.001  1.00  0.00    -0.253 A  
HETATM   34  C   UNL     1      -8.753   1.773  66.964  1.00  0.00    -0.124 A  
HETATM   35  C   UNL     1      -8.102   2.530  65.973  1.00  0.00    -0.084 A  
ENDBRANCH  24  30
ENDBRANCH  18  19
ENDBRANCH  17  18
ENDBRANCH   8  17
TORSDOF 4
ENDMDL
MODEL      231
REMARK 921   NORMALIZED FREE ENERGY PREDICTED BY IDOCK:    4.90 KCAL/MOL
REMARK 922        TOTAL FREE ENERGY PREDICTED BY IDOCK:    4.17 KCAL/MOL
REMARK 923 INTER-LIGAND FREE ENERGY PREDICTED BY IDOCK:    2.18 KCAL/MOL
REMARK 924 INTRA-LIGAND FREE ENERGY PREDICTED BY IDOCK:    2.00 KCAL/MOL
REMARK 927      BINDING AFFINITY PREDICTED BY RF-SCORE:    0.00 PKD
ROOT
HETATM    1  F   UNL     1     -13.292  15.055  64.338  1.00  0.00     0.307 F  
HETATM    2  C   UNL     1     -12.614  14.047  64.900  1.00  0.00    -0.342 A  
HETATM    3  C   UNL     1     -12.558  12.815  64.263  1.00  0.00    -0.405 A  
HETATM    4  C   UNL     1     -11.897  11.749  64.878  1.00  0.00    -0.135 A  
HETATM    5  C   UNL     1     -11.275  11.908  66.132  1.00  0.00    -0.387 A  
HETATM    6  C   UNL     1     -10.602  10.700  66.804  1.00  0.00    -0.297 C  
HETATM    7  C   UNL     1     -11.273  13.194  66.703  1.00  0.00    -0.335 A  
HETATM    8  C   UNL     1      -9.100  10.609  66.396  1.00  0.00    -0.183 C  
HETATM    9  C   UNL     1     -11.971  14.247  66.111  1.00  0.00    -0.422 A  
HETATM   10  C   UNL     1     -10.907  10.424  68.289  1.00  0.00    -0.299 A  
HETATM   11  C   UNL     1     -11.778  11.205  69.070  1.00  0.00    -0.408 A  
HETATM   12  C   UNL     1     -10.605   8.977  70.248  1.00  0.00    -0.250 A  
HETATM   13  F   UNL     1     -11.656   9.530  72.284  1.00  0.00    -0.364 F  
HETATM   14  C   UNL     1     -12.009  10.921  70.419  1.00  0.00    -0.453 A  
HETATM   15  C   UNL     1     -11.421   9.809  70.997  1.00  0.00    -0.383 A  
HETATM   16  C   UNL     1     -10.353   9.282  68.905  1.00  0.00    -0.231 A  
ENDROOT
BRANCH   8  17
HETATM   17  C   UNL     1      -8.188  11.807  66.712  1.00  0.00    -0.147 C  
BRANCH  17  18
HETATM   18  C   UNL     1      -8.170  12.950  65.688  1.00  0.00     2.197 C  
BRANCH  18  19
HETATM   19  N   UNL     1      -8.408  14.279  66.250  1.00  0.00     0.593 NA 
HETATM   20  C   UNL     1      -8.779  13.911  68.729  1.00  0.00     0.006 C  
HETATM   21  C   UNL     1      -9.349  14.339  67.372  1.00  0.00    -0.203 C  
HETATM   22  C   UNL     1      -7.431  14.578  69.025  1.00  0.00    -0.131 C  
HETATM   23  C   UNL     1      -6.469  14.534  67.832  1.00  0.00    -0.175 C  
HETATM   24  N   UNL     1      -6.773  14.088  70.283  1.00  0.00     0.048 NA 
HETATM   25  O   UNL     1      -8.320  16.903  68.761  1.00  0.00    -0.242 OA 
HETATM   26  C   UNL     1      -7.156  14.992  66.545  1.00  0.00     1.648 C  
HETATM   27  C   UNL     1      -6.436  15.206  71.152  1.00  0.00     0.649 C  
HETATM   28  C   UNL     1      -7.699  16.059  69.387  1.00  0.00    -0.173 C  
HETATM   29  N   UNL     1      -7.095  16.321  70.585  1.00  0.00     1.562 NA 
BRANCH  24  30
HETATM   30  C   UNL     1      -6.397  12.803  70.634  1.00  0.00     0.557 A  
HETATM   31  C   UNL     1      -6.894  11.656  70.004  1.00  0.00     0.265 A  
HETATM   32  C   UNL     1      -6.570  10.356  70.427  1.00  0.00    -0.121 A  
HETATM   33  C   UNL     1      -5.700  10.162  71.488  1.00  0.00     0.078 A  
HETATM   34  C   UNL     1      -5.141  11.264  72.111  1.00  0.00     0.195 A  
HETATM   35  C   UNL     1      -5.490  12.559  71.687  1.00  0.00     0.156 A  
ENDBRANCH  24  30
ENDBRANCH  18  19
ENDBRANCH  17  18
ENDBRANCH   8  17
TORSDOF 4
ENDMDL
MODEL      232
REMARK 921   NORMALIZED FREE ENERGY PREDICTED BY IDOCK:    4.90 KCAL/MOL
REMARK 922        TOTAL FREE ENERGY PREDICTED BY IDOCK:    4.18 KCAL/MOL
REMARK 923 INTER-LIGAND FREE ENERGY PREDICTED BY IDOCK:    4.50 KCAL/MOL
REMARK 924 INTRA-LIGAND FREE ENERGY PREDICTED BY IDOCK:   -0.32 KCAL/MOL
REMARK 927      BINDING AFFINITY PREDICTED BY RF-SCORE:    0.00 PKD
ROOT
HETATM    1  F   UNL     1     -11.984   3.321  65.391  1.00  0.00     2.892 F  
HETATM    2  C   UNL     1     -10.781   3.495  65.952  1.00  0.00     1.641 A  
HETATM    3  C   UNL     1      -9.641   3.072  65.282  1.00  0.00    -0.022 A  
HETATM    4  C   UNL     1      -8.392   3.203  65.893  1.00  0.00    -0.097 A  
HETATM    5  C   UNL     1      -8.270   3.771  67.177  1.00  0.00    -0.095 A  
HETATM    6  C   UNL     1      -6.885   3.853  67.842  1.00  0.00    -0.047 C  
HETATM    7  C   UNL     1      -9.435   4.272  67.785  1.00  0.00    -0.215 A  
HETATM    8  C   UNL     1      -6.188   5.203  67.495  1.00  0.00    -0.038 C  
HETATM    9  C   UNL     1     -10.688   4.100  67.195  1.00  0.00     1.366 A  
HETATM   10  C   UNL     1      -6.746   3.386  69.303  1.00  0.00    -0.037 A  
HETATM   11  C   UNL     1      -7.810   2.874  70.068  1.00  0.00    -0.048 A  
HETATM   12  C   UNL     1      -5.286   2.966  71.230  1.00  0.00    -0.004 A  
HETATM   13  F   UNL     1      -6.205   2.133  73.235  1.00  0.00    -0.010 F  
HETATM   14  C   UNL     1      -7.634   2.479  71.397  1.00  0.00    -0.040 A  
HETATM   15  C   UNL     1      -6.373   2.527  71.968  1.00  0.00    -0.014 A  
HETATM   16  C   UNL     1      -5.472   3.389  69.909  1.00  0.00    -0.016 A  
ENDROOT
BRANCH   8  17
HETATM   17  C   UNL     1      -6.900   6.510  67.885  1.00  0.00    -0.074 C  
BRANCH  17  18
HETATM   18  C   UNL     1      -8.015   6.994  66.948  1.00  0.00    -0.115 C  
BRANCH  18  19
HETATM   19  N   UNL     1      -8.155   8.447  66.863  1.00  0.00    -0.099 NA 
HETATM   20  C   UNL     1      -8.624   9.221  69.229  1.00  0.00    -0.139 C  
HETATM   21  C   UNL     1      -9.119   9.050  67.789  1.00  0.00    -0.134 C  
HETATM   22  C   UNL     1      -7.233   9.863  69.290  1.00  0.00    -0.073 C  
HETATM   23  C   UNL     1      -6.246   9.242  68.296  1.00  0.00    -0.053 C  
HETATM   24  N   UNL     1      -6.654   9.930  70.674  1.00  0.00    -0.187 NA 
HETATM   25  O   UNL     1      -7.916  11.892  67.993  1.00  0.00    -0.129 OA 
HETATM   26  C   UNL     1      -6.857   9.136  66.897  1.00  0.00    -0.080 C  
HETATM   27  C   UNL     1      -6.248  11.292  70.993  1.00  0.00     0.603 C  
HETATM   28  C   UNL     1      -7.386  11.368  68.959  1.00  0.00    -0.108 C  
HETATM   29  N   UNL     1      -6.795  12.087  69.960  1.00  0.00     0.163 NA 
BRANCH  24  30
HETATM   30  C   UNL     1      -6.397   8.906  71.569  1.00  0.00    -0.075 A  
HETATM   31  C   UNL     1      -5.728   9.096  72.784  1.00  0.00    -0.023 A  
HETATM   32  C   UNL     1      -5.398   8.034  73.642  1.00  0.00    -0.046 A  
HETATM   33  C   UNL     1      -5.762   6.735  73.322  1.00  0.00    -0.046 A  
HETATM   34  C   UNL     1      -6.471   6.502  72.157  1.00  0.00    -0.054 A  
HETATM   35  C   UNL     1      -6.777   7.574  71.299  1.00  0.00    -0.049 A  
ENDBRANCH  24  30
ENDBRANCH  18  19
ENDBRANCH  17  18
ENDBRANCH   8  17
TORSDOF 4
ENDMDL
MODEL      233
REMARK 921   NORMALIZED FREE ENERGY PREDICTED BY IDOCK:    7.97 KCAL/MOL
REMARK 922        TOTAL FREE ENERGY PREDICTED BY IDOCK:    7.95 KCAL/MOL
REMARK 923 INTER-LIGAND FREE ENERGY PREDICTED BY IDOCK:    7.90 KCAL/MOL
REMARK 924 INTRA-LIGAND FREE ENERGY PREDICTED BY IDOCK:    0.06 KCAL/MOL
REMARK 927      BINDING AFFINITY PREDICTED BY RF-SCORE:    0.00 PKD
ROOT
HETATM    1  F   UNL     1     -13.363  15.903  63.146  1.00  0.00     1.665 F  
HETATM    2  C   UNL     1     -12.974  15.318  64.286  1.00  0.00     0.972 A  
HETATM    3  C   UNL     1     -13.585  14.143  64.701  1.00  0.00     1.897 A  
HETATM    4  C   UNL     1     -13.217  13.565  65.919  1.00  0.00     0.501 A  
HETATM    5  C   UNL     1     -12.224  14.152  66.728  1.00  0.00    -0.429 A  
HETATM    6  C   UNL     1     -11.881  13.518  68.087  1.00  0.00    -0.400 C  
HETATM    7  C   UNL     1     -11.563  15.289  66.231  1.00  0.00     0.008 A  
HETATM    8  C   UNL     1     -10.730  12.477  67.932  1.00  0.00    -0.239 C  
HETATM    9  C   UNL     1     -11.961  15.892  65.037  1.00  0.00     0.447 A  
HETATM   10  C   UNL     1     -11.789  14.436  69.320  1.00  0.00    -0.365 A  
HETATM   11  C   UNL     1     -12.014  15.825  69.284  1.00  0.00    -0.305 A  
HETATM   12  C   UNL     1     -11.458  14.650  71.742  1.00  0.00     0.041 A  
HETATM   13  F   UNL     1     -11.535  16.781  72.750  1.00  0.00    -0.459 F  
HETATM   14  C   UNL     1     -11.902  16.616  70.431  1.00  0.00     0.690 A  
HETATM   15  C   UNL     1     -11.626  16.022  71.651  1.00  0.00    -0.459 A  
HETATM   16  C   UNL     1     -11.542  13.865  70.587  1.00  0.00    -0.073 A  
ENDROOT
BRANCH   8  17
HETATM   17  C   UNL     1      -9.386  12.960  67.360  1.00  0.00    -0.194 C  
BRANCH  17  18
HETATM   18  C   UNL     1      -9.175  14.477  67.279  1.00  0.00    -0.207 C  
BRANCH  18  19
HETATM   19  N   UNL     1      -7.944  14.889  66.605  1.00  0.00     0.106 NA 
HETATM   20  C   UNL     1      -8.177  17.384  66.235  1.00  0.00    -0.288 C  
HETATM   21  C   UNL     1      -8.082  15.978  65.634  1.00  0.00     1.551 C  
HETATM   22  C   UNL     1      -7.091  17.637  67.287  1.00  0.00    -0.177 C  
HETATM   23  C   UNL     1      -6.938  16.477  68.277  1.00  0.00    -0.143 C  
HETATM   24  N   UNL     1      -7.225  18.953  67.997  1.00  0.00    -0.239 NA 
HETATM   25  O   UNL     1      -5.206  17.109  65.728  1.00  0.00    -0.262 OA 
HETATM   26  C   UNL     1      -6.846  15.133  67.551  1.00  0.00    -0.174 C  
HETATM   27  C   UNL     1      -5.981  19.706  67.917  1.00  0.00    -0.208 C  
HETATM   28  C   UNL     1      -5.745  17.834  66.548  1.00  0.00    -0.181 C  
HETATM   29  N   UNL     1      -5.192  19.010  66.973  1.00  0.00    -0.147 NA 
BRANCH  24  30
HETATM   30  C   UNL     1      -8.284  19.447  68.739  1.00  0.00    -0.347 A  
HETATM   31  C   UNL     1      -8.146  20.453  69.703  1.00  0.00     1.040 A  
HETATM   32  C   UNL     1      -9.213  20.884  70.508  1.00  0.00     2.553 A  
HETATM   33  C   UNL     1     -10.477  20.337  70.348  1.00  0.00     1.243 A  
HETATM   34  C   UNL     1     -10.676  19.377  69.372  1.00  0.00     0.923 A  
HETATM   35  C   UNL     1      -9.594  18.943  68.587  1.00  0.00    -0.443 A  
ENDBRANCH  24  30
ENDBRANCH  18  19
ENDBRANCH  17  18
ENDBRANCH   8  17
TORSDOF 4
ENDMDL
MODEL      234
REMARK 921   NORMALIZED FREE ENERGY PREDICTED BY IDOCK:   10.27 KCAL/MOL
REMARK 922        TOTAL FREE ENERGY PREDICTED BY IDOCK:   10.79 KCAL/MOL
REMARK 923 INTER-LIGAND FREE ENERGY PREDICTED BY IDOCK:    6.36 KCAL/MOL
REMARK 924 INTRA-LIGAND FREE ENERGY PREDICTED BY IDOCK:    4.43 KCAL/MOL
REMARK 927      BINDING AFFINITY PREDICTED BY RF-SCORE:    0.00 PKD
ROOT
HETATM    1  F   UNL     1     -12.939  14.786  73.816  1.00  0.00    -0.574 F  
HETATM    2  C   UNL     1     -12.660  14.404  72.564  1.00  0.00    -0.269 A  
HETATM    3  C   UNL     1     -13.295  13.293  72.025  1.00  0.00    -0.582 A  
HETATM    4  C   UNL     1     -12.961  12.863  70.739  1.00  0.00    -0.017 A  
HETATM    5  C   UNL     1     -11.996  13.547  69.973  1.00  0.00    -0.410 A  
HETATM    6  C   UNL     1     -11.615  13.015  68.581  1.00  0.00    -0.354 C  
HETATM    7  C   UNL     1     -11.443  14.720  70.516  1.00  0.00    -0.300 A  
HETATM    8  C   UNL     1     -12.518  13.653  67.483  1.00  0.00     0.117 C  
HETATM    9  C   UNL     1     -11.742  15.125  71.818  1.00  0.00    -0.480 A  
HETATM   10  C   UNL     1     -10.121  12.892  68.229  1.00  0.00    -0.242 A  
HETATM   11  C   UNL     1      -9.076  13.226  69.111  1.00  0.00     0.626 A  
HETATM   12  C   UNL     1      -8.408  12.198  66.615  1.00  0.00    -0.051 A  
HETATM   13  F   UNL     1      -6.125  12.474  67.140  1.00  0.00    -0.144 F  
HETATM   14  C   UNL     1      -7.735  13.111  68.735  1.00  0.00    -0.006 A  
HETATM   15  C   UNL     1      -7.411  12.597  67.490  1.00  0.00    -0.151 A  
HETATM   16  C   UNL     1      -9.750  12.343  66.983  1.00  0.00    -0.211 A  
ENDROOT
BRANCH   8  17
HETATM   17  C   UNL     1     -12.518  15.186  67.343  1.00  0.00     0.861 C  
BRANCH  17  18
HETATM   18  C   UNL     1     -11.153  15.863  67.163  1.00  0.00    -0.148 C  
BRANCH  18  19
HETATM   19  N   UNL     1     -10.321  15.891  68.365  1.00  0.00    -0.234 NA 
HETATM   20  C   UNL     1      -8.017  16.592  67.577  1.00  0.00    -0.186 C  
HETATM   21  C   UNL     1      -8.918  15.508  68.178  1.00  0.00    -0.179 C  
HETATM   22  C   UNL     1      -8.195  17.945  68.277  1.00  0.00    -0.290 C  
HETATM   23  C   UNL     1      -9.666  18.317  68.492  1.00  0.00    -0.379 C  
HETATM   24  N   UNL     1      -7.430  19.067  67.636  1.00  0.00    -0.228 NA 
HETATM   25  O   UNL     1      -7.655  17.041  70.548  1.00  0.00     2.266 OA 
HETATM   26  C   UNL     1     -10.451  17.155  69.104  1.00  0.00    -0.296 C  
HETATM   27  C   UNL     1      -6.597  19.745  68.620  1.00  0.00    -0.297 C  
HETATM   28  C   UNL     1      -7.501  17.862  69.659  1.00  0.00     0.508 C  
HETATM   29  N   UNL     1      -6.635  18.915  69.765  1.00  0.00    -0.159 NA 
BRANCH  24  30
HETATM   30  C   UNL     1      -7.497  19.548  66.341  1.00  0.00    -0.266 A  
HETATM   31  C   UNL     1      -8.564  19.281  65.475  1.00  0.00     0.723 A  
HETATM   32  C   UNL     1      -8.579  19.703  64.135  1.00  0.00     6.189 A  
HETATM   33  C   UNL     1      -7.525  20.445  63.623  1.00  0.00     2.079 A  
HETATM   34  C   UNL     1      -6.471  20.779  64.454  1.00  0.00    -0.296 A  
HETATM   35  C   UNL     1      -6.462  20.333  65.787  1.00  0.00    -0.262 A  
ENDBRANCH  24  30
ENDBRANCH  18  19
ENDBRANCH  17  18
ENDBRANCH   8  17
TORSDOF 4
ENDMDL
MODEL      235
REMARK 921   NORMALIZED FREE ENERGY PREDICTED BY IDOCK:   10.29 KCAL/MOL
REMARK 922        TOTAL FREE ENERGY PREDICTED BY IDOCK:   10.82 KCAL/MOL
REMARK 923 INTER-LIGAND FREE ENERGY PREDICTED BY IDOCK:    8.30 KCAL/MOL
REMARK 924 INTRA-LIGAND FREE ENERGY PREDICTED BY IDOCK:    2.51 KCAL/MOL
REMARK 927      BINDING AFFINITY PREDICTED BY RF-SCORE:    0.00 PKD
ROOT
HETATM    1  F   UNL     1      -8.734   6.818  70.422  1.00  0.00    -0.142 F  
HETATM    2  C   UNL     1      -8.649   8.152  70.331  1.00  0.00    -0.131 A  
HETATM    3  C   UNL     1      -8.155   8.885  71.401  1.00  0.00    -0.160 A  
HETATM    4  C   UNL     1      -8.119  10.280  71.325  1.00  0.00     2.583 A  
HETATM    5  C   UNL     1      -8.568  10.954  70.172  1.00  0.00     1.385 A  
HETATM    6  C   UNL     1      -8.564  12.492  70.143  1.00  0.00     4.086 C  
HETATM    7  C   UNL     1      -8.975  10.174  69.074  1.00  0.00    -0.168 A  
HETATM    8  C   UNL     1      -7.213  13.027  69.577  1.00  0.00     0.369 C  
HETATM    9  C   UNL     1      -9.053   8.784  69.166  1.00  0.00    -0.141 A  
HETATM   10  C   UNL     1      -9.829  13.217  69.647  1.00  0.00     1.320 A  
HETATM   11  C   UNL     1     -11.000  12.558  69.230  1.00  0.00    -0.138 A  
HETATM   12  C   UNL     1     -10.996  15.339  69.248  1.00  0.00    -0.261 A  
HETATM   13  F   UNL     1     -13.182  15.322  68.364  1.00  0.00     1.158 F  
HETATM   14  C   UNL     1     -12.116  13.265  68.773  1.00  0.00    -0.254 A  
HETATM   15  C   UNL     1     -12.106  14.649  68.787  1.00  0.00    -0.202 A  
HETATM   16  C   UNL     1      -9.870  14.628  69.676  1.00  0.00     0.165 A  
ENDROOT
BRANCH   8  17
HETATM   17  C   UNL     1      -6.796  12.595  68.161  1.00  0.00    -0.090 C  
BRANCH  17  18
HETATM   18  C   UNL     1      -5.502  13.205  67.606  1.00  0.00    -0.073 C  
BRANCH  18  19
HETATM   19  N   UNL     1      -5.281  14.604  67.967  1.00  0.00    -0.160 NA 
HETATM   20  C   UNL     1      -6.551  15.959  66.243  1.00  0.00     1.719 C  
HETATM   21  C   UNL     1      -5.204  15.548  66.848  1.00  0.00     0.953 C  
HETATM   22  C   UNL     1      -7.566  16.364  67.317  1.00  0.00    -0.166 C  
HETATM   23  C   UNL     1      -7.614  15.384  68.495  1.00  0.00    -0.122 C  
HETATM   24  N   UNL     1      -8.940  16.648  66.780  1.00  0.00    -0.222 NA 
HETATM   25  O   UNL     1      -6.090  18.130  68.301  1.00  0.00    -0.178 OA 
HETATM   26  C   UNL     1      -6.210  15.064  69.010  1.00  0.00    -0.098 C  
HETATM   27  C   UNL     1      -9.395  17.963  67.209  1.00  0.00    -0.258 C  
HETATM   28  C   UNL     1      -7.163  17.760  67.854  1.00  0.00    -0.210 C  
HETATM   29  N   UNL     1      -8.252  18.582  67.765  1.00  0.00    -0.248 NA 
BRANCH  24  30
HETATM   30  C   UNL     1      -9.788  15.825  66.060  1.00  0.00    -0.337 A  
HETATM   31  C   UNL     1     -10.760  16.307  65.175  1.00  0.00    -0.350 A  
HETATM   32  C   UNL     1     -11.671  15.465  64.516  1.00  0.00    -0.277 A  
HETATM   33  C   UNL     1     -11.616  14.092  64.701  1.00  0.00    -0.414 A  
HETATM   34  C   UNL     1     -10.639  13.563  65.526  1.00  0.00    -0.299 A  
HETATM   35  C   UNL     1      -9.746  14.420  66.192  1.00  0.00    -0.335 A  
ENDBRANCH  24  30
ENDBRANCH  18  19
ENDBRANCH  17  18
ENDBRANCH   8  17
TORSDOF 4
ENDMDL
MODEL      236
REMARK 921   NORMALIZED FREE ENERGY PREDICTED BY IDOCK:   10.40 KCAL/MOL
REMARK 922        TOTAL FREE ENERGY PREDICTED BY IDOCK:   10.95 KCAL/MOL
REMARK 923 INTER-LIGAND FREE ENERGY PREDICTED BY IDOCK:    5.16 KCAL/MOL
REMARK 924 INTRA-LIGAND FREE ENERGY PREDICTED BY IDOCK:    5.79 KCAL/MOL
REMARK 927      BINDING AFFINITY PREDICTED BY RF-SCORE:    0.00 PKD
ROOT
HETATM    1  F   UNL     1     -12.570   8.739  71.244  1.00  0.00    -0.313 F  
HETATM    2  C   UNL     1     -11.358   9.268  71.038  1.00  0.00    -0.320 A  
HETATM    3  C   UNL     1     -10.394   9.189  72.033  1.00  0.00    -0.137 A  
HETATM    4  C   UNL     1      -9.148   9.791  71.838  1.00  0.00     2.327 A  
HETATM    5  C   UNL     1      -8.851  10.468  70.639  1.00  0.00     1.884 A  
HETATM    6  C   UNL     1      -7.488  11.164  70.478  1.00  0.00     1.874 C  
HETATM    7  C   UNL     1      -9.819  10.448  69.618  1.00  0.00    -0.179 A  
HETATM    8  C   UNL     1      -6.446  10.192  69.848  1.00  0.00    -0.086 C  
HETATM    9  C   UNL     1     -11.079   9.887  69.830  1.00  0.00    -0.294 A  
HETATM   10  C   UNL     1      -7.463  12.608  69.943  1.00  0.00     1.304 A  
HETATM   11  C   UNL     1      -8.616  13.339  69.601  1.00  0.00     1.736 A  
HETATM   12  C   UNL     1      -6.148  14.603  69.382  1.00  0.00    -0.109 A  
HETATM   13  F   UNL     1      -7.233  16.519  68.538  1.00  0.00    -0.147 F  
HETATM   14  C   UNL     1      -8.536  14.643  69.104  1.00  0.00    -0.035 A  
HETATM   15  C   UNL     1      -7.303  15.265  68.999  1.00  0.00    -0.157 A  
HETATM   16  C   UNL     1      -6.229  13.287  69.852  1.00  0.00    -0.097 A  
ENDROOT
BRANCH   8  17
HETATM   17  C   UNL     1      -6.757   9.588  68.467  1.00  0.00    -0.053 C  
BRANCH  17  18
HETATM   18  C   UNL     1      -8.223   9.612  68.017  1.00  0.00    -0.110 C  
BRANCH  18  19
HETATM   19  N   UNL     1      -9.048   8.534  68.560  1.00  0.00    -0.136 NA 
HETATM   20  C   UNL     1      -9.754   7.148  66.560  1.00  0.00    -0.199 C  
HETATM   21  C   UNL     1     -10.152   8.083  67.707  1.00  0.00    -0.195 C  
HETATM   22  C   UNL     1      -8.842   6.010  67.033  1.00  0.00    -0.113 C  
HETATM   23  C   UNL     1      -7.711   6.493  67.947  1.00  0.00    -0.104 C  
HETATM   24  N   UNL     1      -8.320   5.146  65.920  1.00  0.00    -0.115 NA 
HETATM   25  O   UNL     1     -10.458   5.192  68.760  1.00  0.00    -0.148 OA 
HETATM   26  C   UNL     1      -8.240   7.408  69.052  1.00  0.00    -0.128 C  
HETATM   27  C   UNL     1      -8.610   3.743  66.185  1.00  0.00    -0.113 C  
HETATM   28  C   UNL     1      -9.709   4.995  67.816  1.00  0.00    -0.153 C  
HETATM   29  N   UNL     1      -9.505   3.755  67.279  1.00  0.00    -0.198 NA 
BRANCH  24  30
HETATM   30  C   UNL     1      -7.574   5.499  64.810  1.00  0.00    -0.079 A  
HETATM   31  C   UNL     1      -7.301   6.826  64.456  1.00  0.00    -0.090 A  
HETATM   32  C   UNL     1      -6.616   7.173  63.280  1.00  0.00    -0.052 A  
HETATM   33  C   UNL     1      -6.146   6.186  62.427  1.00  0.00    -0.026 A  
HETATM   34  C   UNL     1      -6.345   4.858  62.759  1.00  0.00    -0.025 A  
HETATM   35  C   UNL     1      -7.049   4.528  63.930  1.00  0.00    -0.049 A  
ENDBRANCH  24  30
ENDBRANCH  18  19
ENDBRANCH  17  18
ENDBRANCH   8  17
TORSDOF 4
ENDMDL
MODEL      237
REMARK 921   NORMALIZED FREE ENERGY PREDICTED BY IDOCK:   10.54 KCAL/MOL
REMARK 922        TOTAL FREE ENERGY PREDICTED BY IDOCK:   11.13 KCAL/MOL
REMARK 923 INTER-LIGAND FREE ENERGY PREDICTED BY IDOCK:   12.06 KCAL/MOL
REMARK 924 INTRA-LIGAND FREE ENERGY PREDICTED BY IDOCK:   -0.92 KCAL/MOL
REMARK 927      BINDING AFFINITY PREDICTED BY RF-SCORE:    0.00 PKD
ROOT
HETATM    1  F   UNL     1     -11.216  12.744  65.917  1.00  0.00    -0.295 F  
HETATM    2  C   UNL     1     -11.277  11.837  66.901  1.00  0.00    -0.327 A  
HETATM    3  C   UNL     1     -12.489  11.581  67.527  1.00  0.00     1.648 A  
HETATM    4  C   UNL     1     -12.540  10.676  68.590  1.00  0.00     1.322 A  
HETATM    5  C   UNL     1     -11.379  10.010  69.030  1.00  0.00    -0.136 A  
HETATM    6  C   UNL     1     -11.461   9.060  70.237  1.00  0.00    -0.147 C  
HETATM    7  C   UNL     1     -10.189  10.225  68.312  1.00  0.00    -0.184 A  
HETATM    8  C   UNL     1     -11.769   7.605  69.771  1.00  0.00     0.364 C  
HETATM    9  C   UNL     1     -10.128  11.162  67.279  1.00  0.00    -0.218 A  
HETATM   10  C   UNL     1     -10.402   9.195  71.347  1.00  0.00    -0.409 A  
HETATM   11  C   UNL     1      -9.366  10.147  71.333  1.00  0.00     2.537 A  
HETATM   12  C   UNL     1      -9.571   8.466  73.538  1.00  0.00     0.306 A  
HETATM   13  F   UNL     1      -7.632   9.458  74.443  1.00  0.00     0.202 F  
HETATM   14  C   UNL     1      -8.420  10.217  72.359  1.00  0.00     5.976 A  
HETATM   15  C   UNL     1      -8.530   9.377  73.454  1.00  0.00     2.724 A  
HETATM   16  C   UNL     1     -10.499   8.379  72.495  1.00  0.00    -0.372 A  
ENDROOT
BRANCH   8  17
HETATM   17  C   UNL     1     -10.790   6.932  68.794  1.00  0.00    -0.238 C  
BRANCH  17  18
HETATM   18  C   UNL     1     -11.231   6.843  67.327  1.00  0.00    -0.161 C  
BRANCH  18  19
HETATM   19  N   UNL     1     -10.766   5.652  66.618  1.00  0.00    -0.300 NA 
HETATM   20  C   UNL     1      -8.362   6.138  65.981  1.00  0.00    -0.136 C  
HETATM   21  C   UNL     1      -9.807   5.888  65.535  1.00  0.00     0.503 C  
HETATM   22  C   UNL     1      -7.887   5.101  67.004  1.00  0.00    -0.096 C  
HETATM   23  C   UNL     1      -8.912   4.843  68.114  1.00  0.00    -0.123 C  
HETATM   24  N   UNL     1      -6.523   5.383  67.568  1.00  0.00    -0.050 NA 
HETATM   25  O   UNL     1      -8.376   3.147  65.519  1.00  0.00    -0.096 OA 
HETATM   26  C   UNL     1     -10.308   4.600  67.537  1.00  0.00     0.069 C  
HETATM   27  C   UNL     1      -5.656   4.223  67.413  1.00  0.00    -0.021 C  
HETATM   28  C   UNL     1      -7.629   3.771  66.254  1.00  0.00    -0.084 C  
HETATM   29  N   UNL     1      -6.362   3.351  66.553  1.00  0.00    -0.031 NA 
BRANCH  24  30
HETATM   30  C   UNL     1      -6.068   6.499  68.248  1.00  0.00    -0.028 A  
HETATM   31  C   UNL     1      -5.806   6.509  69.623  1.00  0.00    -0.015 A  
HETATM   32  C   UNL     1      -5.427   7.671  70.315  1.00  0.00    -0.023 A  
HETATM   33  C   UNL     1      -5.264   8.869  69.636  1.00  0.00    -0.030 A  
HETATM   34  C   UNL     1      -5.460   8.899  68.266  1.00  0.00    -0.038 A  
HETATM   35  C   UNL     1      -5.857   7.731  67.592  1.00  0.00    -0.037 A  
ENDBRANCH  24  30
ENDBRANCH  18  19
ENDBRANCH  17  18
ENDBRANCH   8  17
TORSDOF 4
ENDMDL
MODEL      238
REMARK 921   NORMALIZED FREE ENERGY PREDICTED BY IDOCK:   12.22 KCAL/MOL
REMARK 922        TOTAL FREE ENERGY PREDICTED BY IDOCK:   13.20 KCAL/MOL
REMARK 923 INTER-LIGAND FREE ENERGY PREDICTED BY IDOCK:    8.90 KCAL/MOL
REMARK 924 INTRA-LIGAND FREE ENERGY PREDICTED BY IDOCK:    4.30 KCAL/MOL
REMARK 927      BINDING AFFINITY PREDICTED BY RF-SCORE:    0.00 PKD
ROOT
HETATM    1  F   UNL     1     -13.199  14.311  65.560  1.00  0.00    -0.541 F  
HETATM    2  C   UNL     1     -12.049  13.972  66.157  1.00  0.00    -0.446 A  
HETATM    3  C   UNL     1     -11.964  12.779  66.861  1.00  0.00    -0.380 A  
HETATM    4  C   UNL     1     -10.781  12.454  67.530  1.00  0.00    -0.256 A  
HETATM    5  C   UNL     1      -9.667  13.315  67.490  1.00  0.00    -0.224 A  
HETATM    6  C   UNL     1      -8.398  12.951  68.281  1.00  0.00    -0.157 C  
HETATM    7  C   UNL     1      -9.759  14.469  66.691  1.00  0.00    -0.285 A  
HETATM    8  C   UNL     1      -7.421  12.118  67.398  1.00  0.00    -0.156 C  
HETATM    9  C   UNL     1     -10.955  14.816  66.061  1.00  0.00    -0.328 A  
HETATM   10  C   UNL     1      -7.746  14.037  69.157  1.00  0.00     0.068 A  
HETATM   11  C   UNL     1      -8.247  15.345  69.291  1.00  0.00    -0.252 A  
HETATM   12  C   UNL     1      -5.995  14.648  70.764  1.00  0.00    -0.142 A  
HETATM   13  F   UNL     1      -5.885  16.853  71.593  1.00  0.00     0.410 F  
HETATM   14  C   UNL     1      -7.607  16.298  70.088  1.00  0.00     1.142 A  
HETATM   15  C   UNL     1      -6.486  15.942  70.819  1.00  0.00     0.798 A  
HETATM   16  C   UNL     1      -6.621  13.704  69.943  1.00  0.00     0.032 A  
ENDROOT
BRANCH   8  17
HETATM   17  C   UNL     1      -6.914  12.743  66.087  1.00  0.00     2.581 C  
BRANCH  17  18
HETATM   18  C   UNL     1      -6.777  11.803  64.881  1.00  0.00     3.033 C  
BRANCH  18  19
HETATM   19  N   UNL     1      -8.012  11.123  64.493  1.00  0.00     0.484 NA 
HETATM   20  C   UNL     1      -7.715   8.713  65.214  1.00  0.00    -0.092 C  
HETATM   21  C   UNL     1      -7.866   9.726  64.074  1.00  0.00    -0.141 C  
HETATM   22  C   UNL     1      -8.765   8.917  66.311  1.00  0.00    -0.141 C  
HETATM   23  C   UNL     1      -8.927  10.386  66.717  1.00  0.00    -0.153 C  
HETATM   24  N   UNL     1      -8.573   8.032  67.510  1.00  0.00    -0.126 NA 
HETATM   25  O   UNL     1     -10.705   8.698  64.744  1.00  0.00     4.276 OA 
HETATM   26  C   UNL     1      -9.078  11.289  65.491  1.00  0.00    -0.170 C  
HETATM   27  C   UNL     1      -9.796   7.298  67.804  1.00  0.00    -0.149 C  
HETATM   28  C   UNL     1     -10.123   8.402  65.775  1.00  0.00     0.682 C  
HETATM   29  N   UNL     1     -10.629   7.511  66.681  1.00  0.00    -0.189 NA 
BRANCH  24  30
HETATM   30  C   UNL     1      -7.482   7.920  68.352  1.00  0.00    -0.100 A  
HETATM   31  C   UNL     1      -7.364   8.622  69.558  1.00  0.00    -0.068 A  
HETATM   32  C   UNL     1      -6.213   8.564  70.361  1.00  0.00    -0.035 A  
HETATM   33  C   UNL     1      -5.142   7.764  69.993  1.00  0.00    -0.023 A  
HETATM   34  C   UNL     1      -5.231   7.010  68.836  1.00  0.00    -0.014 A  
HETATM   35  C   UNL     1      -6.382   7.093  68.034  1.00  0.00    -0.044 A  
ENDBRANCH  24  30
ENDBRANCH  18  19
ENDBRANCH  17  18
ENDBRANCH   8  17
TORSDOF 4
ENDMDL
MODEL      239
REMARK 921   NORMALIZED FREE ENERGY PREDICTED BY IDOCK:   13.25 KCAL/MOL
REMARK 922        TOTAL FREE ENERGY PREDICTED BY IDOCK:   14.47 KCAL/MOL
REMARK 923 INTER-LIGAND FREE ENERGY PREDICTED BY IDOCK:   15.98 KCAL/MOL
REMARK 924 INTRA-LIGAND FREE ENERGY PREDICTED BY IDOCK:   -1.51 KCAL/MOL
REMARK 927      BINDING AFFINITY PREDICTED BY RF-SCORE:    0.00 PKD
ROOT
HETATM    1  F   UNL     1     -12.755   4.218  66.560  1.00  0.00     7.420 F  
HETATM    2  C   UNL     1     -11.950   5.288  66.599  1.00  0.00     3.900 A  
HETATM    3  C   UNL     1     -12.500   6.560  66.665  1.00  0.00     5.977 A  
HETATM    4  C   UNL     1     -11.660   7.677  66.649  1.00  0.00     2.715 A  
HETATM    5  C   UNL     1     -10.260   7.530  66.578  1.00  0.00    -0.166 A  
HETATM    6  C   UNL     1      -9.368   8.781  66.509  1.00  0.00    -0.260 C  
HETATM    7  C   UNL     1      -9.738   6.224  66.606  1.00  0.00    -0.195 A  
HETATM    8  C   UNL     1      -8.956   9.241  67.940  1.00  0.00    -0.130 C  
HETATM    9  C   UNL     1     -10.577   5.110  66.576  1.00  0.00    -0.320 A  
HETATM   10  C   UNL     1      -8.255   8.828  65.447  1.00  0.00    -0.137 A  
HETATM   11  C   UNL     1      -8.008   7.797  64.521  1.00  0.00    -0.135 A  
HETATM   12  C   UNL     1      -6.451  10.095  64.369  1.00  0.00    -0.122 A  
HETATM   13  F   UNL     1      -5.222   9.117  62.610  1.00  0.00    -0.070 F  
HETATM   14  C   UNL     1      -6.973   7.883  63.586  1.00  0.00    -0.075 A  
HETATM   15  C   UNL     1      -6.203   9.032  63.517  1.00  0.00    -0.089 A  
HETATM   16  C   UNL     1      -7.469   9.994  65.323  1.00  0.00    -0.137 A  
ENDROOT
BRANCH   8  17
HETATM   17  C   UNL     1      -8.190   8.248  68.831  1.00  0.00    -0.116 C  
BRANCH  17  18
HETATM   18  C   UNL     1      -8.109   8.582  70.326  1.00  0.00    -0.106 C  
BRANCH  18  19
HETATM   19  N   UNL     1      -9.247   8.120  71.120  1.00  0.00    -0.148 NA 
HETATM   20  C   UNL     1      -9.768   5.792  70.267  1.00  0.00    -0.223 C  
HETATM   21  C   UNL     1     -10.202   7.254  70.423  1.00  0.00    -0.194 C  
HETATM   22  C   UNL     1      -9.253   5.200  71.583  1.00  0.00    -0.145 C  
HETATM   23  C   UNL     1      -8.279   6.130  72.315  1.00  0.00    -0.109 C  
HETATM   24  N   UNL     1      -8.694   3.812  71.449  1.00  0.00    -0.091 NA 
HETATM   25  O   UNL     1     -11.352   5.714  72.845  1.00  0.00    -0.289 OA 
HETATM   26  C   UNL     1      -8.832   7.552  72.411  1.00  0.00    -0.127 C  
HETATM   27  C   UNL     1      -9.331   2.911  72.399  1.00  0.00    -0.103 C  
HETATM   28  C   UNL     1     -10.472   4.942  72.502  1.00  0.00    -0.205 C  
HETATM   29  N   UNL     1     -10.425   3.641  72.919  1.00  0.00    -0.165 NA 
BRANCH  24  30
HETATM   30  C   UNL     1      -7.660   3.355  70.651  1.00  0.00    -0.040 A  
HETATM   31  C   UNL     1      -6.309   3.490  70.992  1.00  0.00    -0.019 A  
HETATM   32  C   UNL     1      -5.267   3.099  70.134  1.00  0.00    -0.008 A  
HETATM   33  C   UNL     1      -5.550   2.523  68.905  1.00  0.00    -0.021 A  
HETATM   34  C   UNL     1      -6.871   2.321  68.545  1.00  0.00    -0.039 A  
HETATM   35  C   UNL     1      -7.902   2.735  69.407  1.00  0.00    -0.049 A  
ENDBRANCH  24  30
ENDBRANCH  18  19
ENDBRANCH  17  18
ENDBRANCH   8  17
TORSDOF 4
ENDMDL
MODEL      240
REMARK 921   NORMALIZED FREE ENERGY PREDICTED BY IDOCK:   14.62 KCAL/MOL
REMARK 922        TOTAL FREE ENERGY PREDICTED BY IDOCK:   16.16 KCAL/MOL
REMARK 923 INTER-LIGAND FREE ENERGY PREDICTED BY IDOCK:   16.58 KCAL/MOL
REMARK 924 INTRA-LIGAND FREE ENERGY PREDICTED BY IDOCK:   -0.42 KCAL/MOL
REMARK 927      BINDING AFFINITY PREDICTED BY RF-SCORE:    0.00 PKD
ROOT
HETATM    1  F   UNL     1     -13.969  12.370  64.085  1.00  0.00     0.541 F  
HETATM    2  C   UNL     1     -12.668  12.200  64.353  1.00  0.00    -0.217 A  
HETATM    3  C   UNL     1     -11.730  13.045  63.776  1.00  0.00    -0.547 A  
HETATM    4  C   UNL     1     -10.370  12.831  64.013  1.00  0.00    -0.392 A  
HETATM    5  C   UNL     1      -9.936  11.776  64.840  1.00  0.00    -0.280 A  
HETATM    6  C   UNL     1      -8.429  11.538  65.037  1.00  0.00     0.550 C  
HETATM    7  C   UNL     1     -10.918  11.000  65.481  1.00  0.00    -0.086 A  
HETATM    8  C   UNL     1      -7.903  12.334  66.269  1.00  0.00     0.586 C  
HETATM    9  C   UNL     1     -12.275  11.184  65.209  1.00  0.00     1.877 A  
HETATM   10  C   UNL     1      -7.891  10.102  64.891  1.00  0.00    -0.147 A  
HETATM   11  C   UNL     1      -8.693   8.990  64.575  1.00  0.00    -0.153 A  
HETATM   12  C   UNL     1      -5.958   8.591  64.868  1.00  0.00    -0.052 A  
HETATM   13  F   UNL     1      -6.280   6.284  64.499  1.00  0.00    -0.027 F  
HETATM   14  C   UNL     1      -8.157   7.704  64.470  1.00  0.00    -0.098 A  
HETATM   15  C   UNL     1      -6.793   7.514  64.616  1.00  0.00    -0.051 A  
HETATM   16  C   UNL     1      -6.502   9.872  65.001  1.00  0.00    -0.106 A  
ENDROOT
BRANCH   8  17
HETATM   17  C   UNL     1      -8.539  12.054  67.642  1.00  0.00    -0.163 C  
BRANCH  17  18
HETATM   18  C   UNL     1      -8.130  10.749  68.339  1.00  0.00    -0.127 C  
BRANCH  18  19
HETATM   19  N   UNL     1      -7.698  10.906  69.726  1.00  0.00     0.056 NA 
HETATM   20  C   UNL     1      -5.764  12.542  69.654  1.00  0.00    -0.102 C  
HETATM   21  C   UNL     1      -6.261  11.118  69.927  1.00  0.00    -0.133 C  
HETATM   22  C   UNL     1      -6.640  13.600  70.334  1.00  0.00     0.264 C  
HETATM   23  C   UNL     1      -8.140  13.347  70.141  1.00  0.00     2.685 C  
HETATM   24  N   UNL     1      -6.270  15.013  69.986  1.00  0.00    -0.149 NA 
HETATM   25  O   UNL     1      -6.344  12.631  72.623  1.00  0.00     2.317 OA 
HETATM   26  C   UNL     1      -8.506  11.896  70.454  1.00  0.00     4.734 C  
HETATM   27  C   UNL     1      -6.049  15.796  71.194  1.00  0.00     0.708 C  
HETATM   28  C   UNL     1      -6.329  13.575  71.851  1.00  0.00     1.623 C  
HETATM   29  N   UNL     1      -6.021  14.848  72.243  1.00  0.00     0.516 NA 
BRANCH  24  30
HETATM   30  C   UNL     1      -6.212  15.626  68.747  1.00  0.00    -0.103 A  
HETATM   31  C   UNL     1      -6.033  14.924  67.549  1.00  0.00     0.031 A  
HETATM   32  C   UNL     1      -5.891  15.565  66.307  1.00  0.00     3.147 A  
HETATM   33  C   UNL     1      -5.957  16.948  66.221  1.00  0.00     0.206 A  
HETATM   34  C   UNL     1      -6.184  17.684  67.371  1.00  0.00    -0.166 A  
HETATM   35  C   UNL     1      -6.306  17.027  68.608  1.00  0.00    -0.164 A  
ENDBRANCH  24  30
ENDBRANCH  18  19
ENDBRANCH  17  18
ENDBRANCH   8  17
TORSDOF 4
ENDMDL
MODEL      241
REMARK 921   NORMALIZED FREE ENERGY PREDICTED BY IDOCK:   15.08 KCAL/MOL
REMARK 922        TOTAL FREE ENERGY PREDICTED BY IDOCK:   16.74 KCAL/MOL
REMARK 923 INTER-LIGAND FREE ENERGY PREDICTED BY IDOCK:   17.08 KCAL/MOL
REMARK 924 INTRA-LIGAND FREE ENERGY PREDICTED BY IDOCK:   -0.35 KCAL/MOL
REMARK 927      BINDING AFFINITY PREDICTED BY RF-SCORE:    0.00 PKD
ROOT
HETATM    1  F   UNL     1     -12.755   4.218  66.560  1.00  0.00     7.420 F  
HETATM    2  C   UNL     1     -11.922   5.266  66.580  1.00  0.00     3.900 A  
HETATM    3  C   UNL     1     -12.437   6.554  66.637  1.00  0.00     5.977 A  
HETATM    4  C   UNL     1     -11.568   7.647  66.602  1.00  0.00     2.715 A  
HETATM    5  C   UNL     1     -10.174   7.462  66.522  1.00  0.00    -0.149 A  
HETATM    6  C   UNL     1      -9.250   8.689  66.432  1.00  0.00    -0.245 C  
HETATM    7  C   UNL     1      -9.685   6.144  66.559  1.00  0.00    -0.184 A  
HETATM    8  C   UNL     1      -8.814   9.154  67.854  1.00  0.00    -0.128 C  
HETATM    9  C   UNL     1     -10.554   5.052  66.548  1.00  0.00    -0.289 A  
HETATM   10  C   UNL     1      -8.144   8.694  65.360  1.00  0.00    -0.121 A  
HETATM   11  C   UNL     1      -7.933   7.648  64.444  1.00  0.00    -0.123 A  
HETATM   12  C   UNL     1      -6.316   9.902  64.254  1.00  0.00    -0.125 A  
HETATM   13  F   UNL     1      -5.129   8.872  62.496  1.00  0.00    -0.066 F  
HETATM   14  C   UNL     1      -6.903   7.696  63.500  1.00  0.00    -0.059 A  
HETATM   15  C   UNL     1      -6.103   8.823  63.412  1.00  0.00    -0.085 A  
HETATM   16  C   UNL     1      -7.329   9.838  65.217  1.00  0.00    -0.120 A  
ENDROOT
BRANCH   8  17
HETATM   17  C   UNL     1      -8.067   8.150  68.750  1.00  0.00    -0.120 C  
BRANCH  17  18
HETATM   18  C   UNL     1      -7.964   8.498  70.241  1.00  0.00    -0.103 C  
BRANCH  18  19
HETATM   19  N   UNL     1      -9.107   8.075  71.048  1.00  0.00    -0.145 NA 
HETATM   20  C   UNL     1     -10.302  10.211  71.703  1.00  0.00     1.868 C  
HETATM   21  C   UNL     1      -9.493   8.983  72.133  1.00  0.00     0.093 C  
HETATM   22  C   UNL     1     -11.463   9.841  70.773  1.00  0.00    -0.342 C  
HETATM   23  C   UNL     1     -11.051   8.868  69.662  1.00  0.00    -0.056 C  
HETATM   24  N   UNL     1     -12.202  11.026  70.221  1.00  0.00    -0.340 NA 
HETATM   25  O   UNL     1     -12.480   8.224  72.390  1.00  0.00    -0.344 OA 
HETATM   26  C   UNL     1     -10.260   7.685  70.223  1.00  0.00    -0.205 C  
HETATM   27  C   UNL     1     -13.630  10.905  70.484  1.00  0.00     0.897 C  
HETATM   28  C   UNL     1     -12.567   9.173  71.628  1.00  0.00    -0.360 C  
HETATM   29  N   UNL     1     -13.744   9.827  71.391  1.00  0.00    -0.245 NA 
BRANCH  24  30
HETATM   30  C   UNL     1     -11.727  12.086  69.470  1.00  0.00    -0.342 A  
HETATM   31  C   UNL     1     -12.020  13.425  69.756  1.00  0.00    -0.396 A  
HETATM   32  C   UNL     1     -11.601  14.486  68.936  1.00  0.00    -0.341 A  
HETATM   33  C   UNL     1     -10.838  14.238  67.806  1.00  0.00    -0.259 A  
HETATM   34  C   UNL     1     -10.477  12.935  67.509  1.00  0.00    -0.226 A  
HETATM   35  C   UNL     1     -10.920  11.883  68.330  1.00  0.00    -0.273 A  
ENDBRANCH  24  30
ENDBRANCH  18  19
ENDBRANCH  17  18
ENDBRANCH   8  17
TORSDOF 4
ENDMDL
MODEL      242
REMARK 921   NORMALIZED FREE ENERGY PREDICTED BY IDOCK:   15.14 KCAL/MOL
REMARK 922        TOTAL FREE ENERGY PREDICTED BY IDOCK:   16.81 KCAL/MOL
REMARK 923 INTER-LIGAND FREE ENERGY PREDICTED BY IDOCK:   -0.06 KCAL/MOL
REMARK 924 INTRA-LIGAND FREE ENERGY PREDICTED BY IDOCK:   16.86 KCAL/MOL
REMARK 927      BINDING AFFINITY PREDICTED BY RF-SCORE:    0.00 PKD
ROOT
HETATM    1  F   UNL     1      -7.014   7.349  63.902  1.00  0.00    -0.051 F  
HETATM    2  C   UNL     1      -7.108   7.604  65.213  1.00  0.00    -0.063 A  
HETATM    3  C   UNL     1      -6.657   8.817  65.713  1.00  0.00    -0.060 A  
HETATM    4  C   UNL     1      -6.705   9.059  67.088  1.00  0.00    -0.066 A  
HETATM    5  C   UNL     1      -7.216   8.091  67.976  1.00  0.00    -0.094 A  
HETATM    6  C   UNL     1      -7.205   8.369  69.489  1.00  0.00    -0.061 C  
HETATM    7  C   UNL     1      -7.748   6.912  67.424  1.00  0.00    -0.110 A  
HETATM    8  C   UNL     1      -8.533   9.055  69.931  1.00  0.00    -0.139 C  
HETATM    9  C   UNL     1      -7.659   6.652  66.056  1.00  0.00    -0.086 A  
HETATM   10  C   UNL     1      -6.675   7.272  70.431  1.00  0.00    -0.052 A  
HETATM   11  C   UNL     1      -6.186   6.028  69.990  1.00  0.00    -0.027 A  
HETATM   12  C   UNL     1      -6.111   6.576  72.715  1.00  0.00    -0.050 A  
HETATM   13  F   UNL     1      -5.245   4.416  73.100  1.00  0.00    -0.005 F  
HETATM   14  C   UNL     1      -5.731   5.059  70.889  1.00  0.00    -0.016 A  
HETATM   15  C   UNL     1      -5.696   5.341  72.245  1.00  0.00    -0.017 A  
HETATM   16  C   UNL     1      -6.594   7.532  71.815  1.00  0.00    -0.042 A  
ENDROOT
BRANCH   8  17
HETATM   17  C   UNL     1      -9.856   8.317  69.666  1.00  0.00    -0.184 C  
BRANCH  17  18
HETATM   18  C   UNL     1     -11.078   8.778  70.471  1.00  0.00    -0.246 C  
BRANCH  18  19
HETATM   19  N   UNL     1     -11.742   7.724  71.235  1.00  0.00    -0.283 NA 
HETATM   20  C   UNL     1     -11.446   5.609  69.871  1.00  0.00     0.519 C  
HETATM   21  C   UNL     1     -12.389   6.673  70.443  1.00  0.00     0.071 C  
HETATM   22  C   UNL     1     -10.475   5.070  70.928  1.00  0.00    -0.142 C  
HETATM   23  C   UNL     1      -9.830   6.178  71.767  1.00  0.00    -0.185 C  
HETATM   24  N   UNL     1      -9.446   4.122  70.381  1.00  0.00    -0.160 NA 
HETATM   25  O   UNL     1     -12.293   4.361  72.495  1.00  0.00     0.949 OA 
HETATM   26  C   UNL     1     -10.877   7.166  72.285  1.00  0.00    -0.232 C  
HETATM   27  C   UNL     1      -9.454   2.872  71.130  1.00  0.00    -0.155 C  
HETATM   28  C   UNL     1     -11.268   4.135  71.873  1.00  0.00     1.032 C  
HETATM   29  N   UNL     1     -10.616   2.935  71.933  1.00  0.00     0.314 NA 
BRANCH  24  30
HETATM   30  C   UNL     1      -8.504   4.325  69.388  1.00  0.00    -0.072 A  
HETATM   31  C   UNL     1      -8.838   4.622  68.061  1.00  0.00    -0.118 A  
HETATM   32  C   UNL     1      -7.875   4.741  67.045  1.00  0.00    -0.098 A  
HETATM   33  C   UNL     1      -6.527   4.597  67.337  1.00  0.00    -0.045 A  
HETATM   34  C   UNL     1      -6.143   4.354  68.644  1.00  0.00    -0.031 A  
HETATM   35  C   UNL     1      -7.121   4.220  69.646  1.00  0.00    -0.049 A  
ENDBRANCH  24  30
ENDBRANCH  18  19
ENDBRANCH  17  18
ENDBRANCH   8  17
TORSDOF 4
ENDMDL
MODEL      243
REMARK 921   NORMALIZED FREE ENERGY PREDICTED BY IDOCK:   15.82 KCAL/MOL
REMARK 922        TOTAL FREE ENERGY PREDICTED BY IDOCK:   17.64 KCAL/MOL
REMARK 923 INTER-LIGAND FREE ENERGY PREDICTED BY IDOCK:   18.73 KCAL/MOL
REMARK 924 INTRA-LIGAND FREE ENERGY PREDICTED BY IDOCK:   -1.09 KCAL/MOL
REMARK 927      BINDING AFFINITY PREDICTED BY RF-SCORE:    0.00 PKD
ROOT
HETATM    1  F   UNL     1     -13.371   6.475  74.370  1.00  0.00     7.665 F  
HETATM    2  C   UNL     1     -12.541   7.174  73.585  1.00  0.00     3.692 A  
HETATM    3  C   UNL     1     -11.378   7.712  74.119  1.00  0.00     3.252 A  
HETATM    4  C   UNL     1     -10.542   8.487  73.312  1.00  0.00     0.855 A  
HETATM    5  C   UNL     1     -10.856   8.723  71.958  1.00  0.00    -0.428 A  
HETATM    6  C   UNL     1      -9.941   9.625  71.113  1.00  0.00    -0.066 C  
HETATM    7  C   UNL     1     -11.993   8.085  71.430  1.00  0.00    -0.328 A  
HETATM    8  C   UNL     1      -8.836   8.781  70.409  1.00  0.00    -0.185 C  
HETATM    9  C   UNL     1     -12.852   7.348  72.246  1.00  0.00     0.004 A  
HETATM   10  C   UNL     1     -10.590  10.724  70.252  1.00  0.00     0.181 A  
HETATM   11  C   UNL     1     -11.976  10.965  70.200  1.00  0.00    -0.435 A  
HETATM   12  C   UNL     1     -10.300  12.628  68.732  1.00  0.00    -0.132 A  
HETATM   13  F   UNL     1     -12.193  13.760  67.898  1.00  0.00    -0.386 F  
HETATM   14  C   UNL     1     -12.516  11.967  69.389  1.00  0.00     0.164 A  
HETATM   15  C   UNL     1     -11.674  12.791  68.661  1.00  0.00    -0.324 A  
HETATM   16  C   UNL     1      -9.764  11.605  69.522  1.00  0.00     0.747 A  
ENDROOT
BRANCH   8  17
HETATM   17  C   UNL     1      -9.277   7.651  69.462  1.00  0.00    -0.150 C  
BRANCH  17  18
HETATM   18  C   UNL     1     -10.320   8.012  68.396  1.00  0.00    -0.199 C  
BRANCH  18  19
HETATM   19  N   UNL     1     -10.174   7.297  67.129  1.00  0.00    -0.239 NA 
HETATM   20  C   UNL     1      -9.521   9.056  65.428  1.00  0.00    -0.163 C  
HETATM   21  C   UNL     1     -10.556   8.043  65.927  1.00  0.00     1.939 C  
HETATM   22  C   UNL     1      -8.113   8.454  65.352  1.00  0.00    -0.133 C  
HETATM   23  C   UNL     1      -7.740   7.652  66.604  1.00  0.00    -0.098 C  
HETATM   24  N   UNL     1      -7.045   9.447  64.995  1.00  0.00    -0.097 NA 
HETATM   25  O   UNL     1      -8.802   6.580  63.843  1.00  0.00     0.472 OA 
HETATM   26  C   UNL     1      -8.850   6.673  66.990  1.00  0.00    -0.114 C  
HETATM   27  C   UNL     1      -6.272   8.977  63.853  1.00  0.00    -0.087 C  
HETATM   28  C   UNL     1      -8.063   7.508  64.128  1.00  0.00    -0.055 C  
HETATM   29  N   UNL     1      -6.995   7.869  63.354  1.00  0.00    -0.074 NA 
BRANCH  24  30
HETATM   30  C   UNL     1      -6.684  10.618  65.637  1.00  0.00    -0.072 A  
HETATM   31  C   UNL     1      -5.493  10.765  66.358  1.00  0.00    -0.091 A  
HETATM   32  C   UNL     1      -5.179  11.930  67.076  1.00  0.00    -0.104 A  
HETATM   33  C   UNL     1      -6.045  13.013  67.068  1.00  0.00     0.529 A  
HETATM   34  C   UNL     1      -7.211  12.936  66.328  1.00  0.00     2.054 A  
HETATM   35  C   UNL     1      -7.520  11.756  65.629  1.00  0.00     1.131 A  
ENDBRANCH  24  30
ENDBRANCH  18  19
ENDBRANCH  17  18
ENDBRANCH   8  17
TORSDOF 4
ENDMDL
MODEL      244
REMARK 921   NORMALIZED FREE ENERGY PREDICTED BY IDOCK:   16.09 KCAL/MOL
REMARK 922        TOTAL FREE ENERGY PREDICTED BY IDOCK:   17.98 KCAL/MOL
REMARK 923 INTER-LIGAND FREE ENERGY PREDICTED BY IDOCK:   18.20 KCAL/MOL
REMARK 924 INTRA-LIGAND FREE ENERGY PREDICTED BY IDOCK:   -0.22 KCAL/MOL
REMARK 927      BINDING AFFINITY PREDICTED BY RF-SCORE:    0.00 PKD
ROOT
HETATM    1  F   UNL     1     -11.257  10.494  73.249  1.00  0.00     5.220 F  
HETATM    2  C   UNL     1     -10.972   9.492  72.408  1.00  0.00     1.216 A  
HETATM    3  C   UNL     1     -10.966   8.184  72.871  1.00  0.00    -0.307 A  
HETATM    4  C   UNL     1     -10.614   7.146  72.006  1.00  0.00    -0.237 A  
HETATM    5  C   UNL     1     -10.274   7.406  70.663  1.00  0.00    -0.202 A  
HETATM    6  C   UNL     1      -9.840   6.245  69.752  1.00  0.00    -0.195 C  
HETATM    7  C   UNL     1     -10.381   8.732  70.206  1.00  0.00    -0.227 A  
HETATM    8  C   UNL     1     -11.071   5.632  69.019  1.00  0.00    -0.024 C  
HETATM    9  C   UNL     1     -10.689   9.774  71.081  1.00  0.00    -0.284 A  
HETATM   10  C   UNL     1      -8.573   6.422  68.895  1.00  0.00    -0.123 A  
HETATM   11  C   UNL     1      -7.775   7.582  68.902  1.00  0.00    -0.115 A  
HETATM   12  C   UNL     1      -6.970   5.447  67.313  1.00  0.00    -0.065 A  
HETATM   13  F   UNL     1      -5.154   6.739  66.542  1.00  0.00    -0.014 F  
HETATM   14  C   UNL     1      -6.643   7.698  68.091  1.00  0.00    -0.054 A  
HETATM   15  C   UNL     1      -6.248   6.629  67.304  1.00  0.00    -0.036 A  
HETATM   16  C   UNL     1      -8.120   5.345  68.104  1.00  0.00    -0.095 A  
ENDROOT
BRANCH   8  17
HETATM   17  C   UNL     1     -11.917   6.554  68.123  1.00  0.00     1.912 C  
BRANCH  17  18
HETATM   18  C   UNL     1     -11.212   7.786  67.541  1.00  0.00     0.485 C  
BRANCH  18  19
HETATM   19  N   UNL     1     -10.955   7.721  66.103  1.00  0.00     1.632 NA 
HETATM   20  C   UNL     1     -10.665  10.125  65.357  1.00  0.00     0.296 C  
HETATM   21  C   UNL     1     -11.487   8.833  65.308  1.00  0.00     8.106 C  
HETATM   22  C   UNL     1      -9.172   9.869  65.127  1.00  0.00    -0.234 C  
HETATM   23  C   UNL     1      -8.637   8.686  65.941  1.00  0.00    -0.177 C  
HETATM   24  N   UNL     1      -8.312  11.089  65.297  1.00  0.00    -0.022 NA 
HETATM   25  O   UNL     1      -9.522   8.737  62.922  1.00  0.00     0.825 OA 
HETATM   26  C   UNL     1      -9.540   7.459  65.801  1.00  0.00     0.426 C  
HETATM   27  C   UNL     1      -7.482  11.297  64.118  1.00  0.00     1.323 C  
HETATM   28  C   UNL     1      -8.964   9.566  63.623  1.00  0.00    -0.173 C  
HETATM   29  N   UNL     1      -7.994  10.404  63.149  1.00  0.00    -0.146 NA 
BRANCH  24  30
HETATM   30  C   UNL     1      -8.165  11.914  66.398  1.00  0.00     0.049 A  
HETATM   31  C   UNL     1      -7.238  11.675  67.420  1.00  0.00    -0.128 A  
HETATM   32  C   UNL     1      -7.159  12.472  68.574  1.00  0.00    -0.107 A  
HETATM   33  C   UNL     1      -7.995  13.568  68.727  1.00  0.00    -0.002 A  
HETATM   34  C   UNL     1      -8.893  13.876  67.720  1.00  0.00    -0.189 A  
HETATM   35  C   UNL     1      -8.972  13.057  66.580  1.00  0.00    -0.132 A  
ENDBRANCH  24  30
ENDBRANCH  18  19
ENDBRANCH  17  18
ENDBRANCH   8  17
TORSDOF 4
ENDMDL
MODEL      245
REMARK 921   NORMALIZED FREE ENERGY PREDICTED BY IDOCK:   16.52 KCAL/MOL
REMARK 922        TOTAL FREE ENERGY PREDICTED BY IDOCK:   18.51 KCAL/MOL
REMARK 923 INTER-LIGAND FREE ENERGY PREDICTED BY IDOCK:    8.40 KCAL/MOL
REMARK 924 INTRA-LIGAND FREE ENERGY PREDICTED BY IDOCK:   10.11 KCAL/MOL
REMARK 927      BINDING AFFINITY PREDICTED BY RF-SCORE:    0.00 PKD
ROOT
HETATM    1  F   UNL     1     -12.578  11.007  64.336  1.00  0.00     0.531 F  
HETATM    2  C   UNL     1     -12.304  12.190  64.900  1.00  0.00    -0.179 A  
HETATM    3  C   UNL     1     -13.200  13.242  64.764  1.00  0.00     0.285 A  
HETATM    4  C   UNL     1     -12.886  14.491  65.306  1.00  0.00    -0.102 A  
HETATM    5  C   UNL     1     -11.678  14.696  66.001  1.00  0.00    -0.306 A  
HETATM    6  C   UNL     1     -11.341  16.098  66.539  1.00  0.00     0.360 C  
HETATM    7  C   UNL     1     -10.839  13.585  66.198  1.00  0.00    -0.284 A  
HETATM    8  C   UNL     1     -11.871  16.269  67.995  1.00  0.00     0.313 C  
HETATM    9  C   UNL     1     -11.130  12.349  65.619  1.00  0.00    -0.343 A  
HETATM   10  C   UNL     1      -9.936  16.667  66.269  1.00  0.00    -0.336 A  
HETATM   11  C   UNL     1      -8.939  15.987  65.545  1.00  0.00     0.424 A  
HETATM   12  C   UNL     1      -8.372  18.548  66.468  1.00  0.00    -0.297 A  
HETATM   13  F   UNL     1      -6.191  18.354  65.593  1.00  0.00    -0.210 F  
HETATM   14  C   UNL     1      -7.672  16.542  65.342  1.00  0.00     2.521 A  
HETATM   15  C   UNL     1      -7.399  17.819  65.804  1.00  0.00    -0.090 A  
HETATM   16  C   UNL     1      -9.629  17.977  66.695  1.00  0.00    -0.315 A  
ENDROOT
BRANCH   8  17
HETATM   17  C   UNL     1     -11.367  15.291  69.071  1.00  0.00    -0.311 C  
BRANCH  17  18
HETATM   18  C   UNL     1     -11.847  13.837  68.962  1.00  0.00    -0.357 C  
BRANCH  18  19
HETATM   19  N   UNL     1     -10.783  12.856  68.756  1.00  0.00    -0.242 NA 
HETATM   20  C   UNL     1      -8.868  14.140  67.708  1.00  0.00    -0.185 C  
HETATM   21  C   UNL     1      -9.946  13.060  67.570  1.00  0.00    -0.212 C  
HETATM   22  C   UNL     1      -8.065  13.993  69.006  1.00  0.00     0.087 C  
HETATM   23  C   UNL     1      -8.952  13.750  70.231  1.00  0.00     3.216 C  
HETATM   24  N   UNL     1      -7.086  15.107  69.246  1.00  0.00    -0.156 NA 
HETATM   25  O   UNL     1      -7.368  11.639  68.518  1.00  0.00    -0.088 OA 
HETATM   26  C   UNL     1      -9.977  12.645  69.968  1.00  0.00     2.606 C  
HETATM   27  C   UNL     1      -5.752  14.572  69.483  1.00  0.00    -0.095 C  
HETATM   28  C   UNL     1      -7.109  12.786  68.842  1.00  0.00    -0.067 C  
HETATM   29  N   UNL     1      -5.841  13.203  69.142  1.00  0.00    -0.076 NA 
BRANCH  24  30
HETATM   30  C   UNL     1      -7.313  16.467  69.351  1.00  0.00    -0.123 A  
HETATM   31  C   UNL     1      -8.497  17.013  69.862  1.00  0.00     1.484 A  
HETATM   32  C   UNL     1      -8.748  18.395  69.883  1.00  0.00     1.481 A  
HETATM   33  C   UNL     1      -7.795  19.288  69.418  1.00  0.00    -0.041 A  
HETATM   34  C   UNL     1      -6.586  18.800  68.952  1.00  0.00    -0.286 A  
HETATM   35  C   UNL     1      -6.358  17.413  68.920  1.00  0.00    -0.202 A  
ENDBRANCH  24  30
ENDBRANCH  18  19
ENDBRANCH  17  18
ENDBRANCH   8  17
TORSDOF 4
ENDMDL
MODEL      246
REMARK 921   NORMALIZED FREE ENERGY PREDICTED BY IDOCK:   17.81 KCAL/MOL
REMARK 922        TOTAL FREE ENERGY PREDICTED BY IDOCK:   20.10 KCAL/MOL
REMARK 923 INTER-LIGAND FREE ENERGY PREDICTED BY IDOCK:   21.23 KCAL/MOL
REMARK 924 INTRA-LIGAND FREE ENERGY PREDICTED BY IDOCK:   -1.12 KCAL/MOL
REMARK 927      BINDING AFFINITY PREDICTED BY RF-SCORE:    0.00 PKD
ROOT
HETATM    1  F   UNL     1     -12.736   4.771  65.997  1.00  0.00     4.114 F  
HETATM    2  C   UNL     1     -12.137   5.877  66.455  1.00  0.00     3.174 A  
HETATM    3  C   UNL     1     -12.853   7.063  66.542  1.00  0.00    10.653 A  
HETATM    4  C   UNL     1     -12.211   8.228  66.967  1.00  0.00     7.013 A  
HETATM    5  C   UNL     1     -10.847   8.216  67.321  1.00  0.00    -0.130 A  
HETATM    6  C   UNL     1     -10.159   9.528  67.735  1.00  0.00    -0.244 C  
HETATM    7  C   UNL     1     -10.179   6.978  67.309  1.00  0.00    -0.301 A  
HETATM    8  C   UNL     1     -10.259   9.739  69.276  1.00  0.00    -0.216 C  
HETATM    9  C   UNL     1     -10.807   5.824  66.842  1.00  0.00    -0.337 A  
HETATM   10  C   UNL     1      -8.798   9.871  67.101  1.00  0.00    -0.146 A  
HETATM   11  C   UNL     1      -8.147   9.062  66.152  1.00  0.00    -0.111 A  
HETATM   12  C   UNL     1      -6.951  11.470  66.861  1.00  0.00    -0.134 A  
HETATM   13  F   UNL     1      -5.132  10.953  65.453  1.00  0.00    -0.094 F  
HETATM   14  C   UNL     1      -6.903   9.412  65.619  1.00  0.00    -0.078 A  
HETATM   15  C   UNL     1      -6.315  10.614  65.977  1.00  0.00    -0.132 A  
HETATM   16  C   UNL     1      -8.182  11.102  67.415  1.00  0.00    -0.132 A  
ENDROOT
BRANCH   8  17
HETATM   17  C   UNL     1      -9.661   8.661  70.197  1.00  0.00    -0.181 C  
BRANCH  17  18
HETATM   18  C   UNL     1     -10.127   8.667  71.659  1.00  0.00    -0.294 C  
BRANCH  18  19
HETATM   19  N   UNL     1     -11.271   7.801  71.939  1.00  0.00    -0.254 NA 
HETATM   20  C   UNL     1     -10.475   5.446  71.455  1.00  0.00    -0.289 C  
HETATM   21  C   UNL     1     -11.397   6.613  71.090  1.00  0.00    -0.306 C  
HETATM   22  C   UNL     1     -10.508   5.131  72.955  1.00  0.00    -0.210 C  
HETATM   23  C   UNL     1     -10.406   6.385  73.830  1.00  0.00    -0.338 C  
HETATM   24  N   UNL     1      -9.521   4.081  73.379  1.00  0.00    -0.110 NA 
HETATM   25  O   UNL     1     -12.986   4.782  73.009  1.00  0.00     0.331 OA 
HETATM   26  C   UNL     1     -11.382   7.468  73.367  1.00  0.00     0.194 C  
HETATM   27  C   UNL     1     -10.192   3.016  74.112  1.00  0.00    -0.146 C  
HETATM   28  C   UNL     1     -11.849   4.422  73.265  1.00  0.00     0.072 C  
HETATM   29  N   UNL     1     -11.572   3.255  73.923  1.00  0.00     0.120 NA 
BRANCH  24  30
HETATM   30  C   UNL     1      -8.144   4.064  73.242  1.00  0.00    -0.089 A  
HETATM   31  C   UNL     1      -7.312   5.089  73.707  1.00  0.00    -0.083 A  
HETATM   32  C   UNL     1      -5.925   5.100  73.485  1.00  0.00    -0.031 A  
HETATM   33  C   UNL     1      -5.315   4.053  72.811  1.00  0.00     0.000 A  
HETATM   34  C   UNL     1      -6.088   2.990  72.378  1.00  0.00    -0.009 A  
HETATM   35  C   UNL     1      -7.478   3.004  72.591  1.00  0.00    -0.049 A  
ENDBRANCH  24  30
ENDBRANCH  18  19
ENDBRANCH  17  18
ENDBRANCH   8  17
TORSDOF 4
ENDMDL
MODEL      247
REMARK 921   NORMALIZED FREE ENERGY PREDICTED BY IDOCK:   18.63 KCAL/MOL
REMARK 922        TOTAL FREE ENERGY PREDICTED BY IDOCK:   21.11 KCAL/MOL
REMARK 923 INTER-LIGAND FREE ENERGY PREDICTED BY IDOCK:   19.24 KCAL/MOL
REMARK 924 INTRA-LIGAND FREE ENERGY PREDICTED BY IDOCK:    1.87 KCAL/MOL
REMARK 927      BINDING AFFINITY PREDICTED BY RF-SCORE:    0.00 PKD
ROOT
HETATM    1  F   UNL     1      -9.346  20.746  71.683  1.00  0.00     0.673 F  
HETATM    2  C   UNL     1      -9.891  19.763  70.954  1.00  0.00     1.782 A  
HETATM    3  C   UNL     1     -11.094  19.979  70.298  1.00  0.00     2.880 A  
HETATM    4  C   UNL     1     -11.689  18.936  69.584  1.00  0.00     6.310 A  
HETATM    5  C   UNL     1     -11.078  17.668  69.510  1.00  0.00     1.098 A  
HETATM    6  C   UNL     1     -11.786  16.527  68.760  1.00  0.00     0.243 C  
HETATM    7  C   UNL     1      -9.815  17.515  70.111  1.00  0.00     1.362 A  
HETATM    8  C   UNL     1     -11.352  16.502  67.263  1.00  0.00     0.276 C  
HETATM    9  C   UNL     1      -9.243  18.542  70.861  1.00  0.00     4.703 A  
HETATM   10  C   UNL     1     -11.890  15.154  69.448  1.00  0.00    -0.357 A  
HETATM   11  C   UNL     1     -11.387  14.878  70.733  1.00  0.00    -0.266 A  
HETATM   12  C   UNL     1     -12.730  12.848  69.388  1.00  0.00     0.686 A  
HETATM   13  F   UNL     1     -12.280  11.392  71.188  1.00  0.00    -0.430 F  
HETATM   14  C   UNL     1     -11.494  13.608  71.306  1.00  0.00     1.181 A  
HETATM   15  C   UNL     1     -12.165  12.603  70.629  1.00  0.00    -0.285 A  
HETATM   16  C   UNL     1     -12.595  14.113  68.805  1.00  0.00     0.402 A  
ENDROOT
BRANCH   8  17
HETATM   17  C   UNL     1      -9.857  16.330  66.943  1.00  0.00    -0.253 C  
BRANCH  17  18
HETATM   18  C   UNL     1      -8.924  17.472  67.365  1.00  0.00    -0.230 C  
BRANCH  18  19
HETATM   19  N   UNL     1      -7.728  17.049  68.092  1.00  0.00    -0.190 NA 
HETATM   20  C   UNL     1      -8.207  14.686  68.868  1.00  0.00    -0.145 C  
HETATM   21  C   UNL     1      -7.956  16.153  69.230  1.00  0.00    -0.194 C  
HETATM   22  C   UNL     1      -7.175  14.153  67.867  1.00  0.00    -0.158 C  
HETATM   23  C   UNL     1      -6.925  15.114  66.699  1.00  0.00     1.181 C  
HETATM   24  N   UNL     1      -7.458  12.760  67.383  1.00  0.00    -0.156 NA 
HETATM   25  O   UNL     1      -5.213  14.729  69.310  1.00  0.00    -0.090 OA 
HETATM   26  C   UNL     1      -6.681  16.541  67.194  1.00  0.00    -0.197 C  
HETATM   27  C   UNL     1      -6.296  11.904  67.580  1.00  0.00    -0.086 C  
HETATM   28  C   UNL     1      -5.841  13.940  68.623  1.00  0.00    -0.088 C  
HETATM   29  N   UNL     1      -5.421  12.659  68.394  1.00  0.00    -0.054 NA 
BRANCH  24  30
HETATM   30  C   UNL     1      -8.578  12.265  66.737  1.00  0.00    -0.149 A  
HETATM   31  C   UNL     1      -8.965  12.666  65.453  1.00  0.00     0.751 A  
HETATM   32  C   UNL     1     -10.150  12.220  64.844  1.00  0.00    -0.274 A  
HETATM   33  C   UNL     1     -10.979  11.322  65.498  1.00  0.00    -0.199 A  
HETATM   34  C   UNL     1     -10.613  10.856  66.749  1.00  0.00    -0.313 A  
HETATM   35  C   UNL     1      -9.433  11.326  67.353  1.00  0.00    -0.175 A  
ENDBRANCH  24  30
ENDBRANCH  18  19
ENDBRANCH  17  18
ENDBRANCH   8  17
TORSDOF 4
ENDMDL
MODEL      248
REMARK 921   NORMALIZED FREE ENERGY PREDICTED BY IDOCK:   21.94 KCAL/MOL
REMARK 922        TOTAL FREE ENERGY PREDICTED BY IDOCK:   25.20 KCAL/MOL
REMARK 923 INTER-LIGAND FREE ENERGY PREDICTED BY IDOCK:   10.21 KCAL/MOL
REMARK 924 INTRA-LIGAND FREE ENERGY PREDICTED BY IDOCK:   14.99 KCAL/MOL
REMARK 927      BINDING AFFINITY PREDICTED BY RF-SCORE:    0.00 PKD
ROOT
HETATM    1  F   UNL     1      -6.721  15.218  70.962  1.00  0.00     0.244 F  
HETATM    2  C   UNL     1      -7.451  14.404  70.190  1.00  0.00     0.501 A  
HETATM    3  C   UNL     1      -6.990  13.126  69.908  1.00  0.00     0.476 A  
HETATM    4  C   UNL     1      -7.726  12.298  69.057  1.00  0.00     0.152 A  
HETATM    5  C   UNL     1      -8.938  12.737  68.488  1.00  0.00    -0.046 A  
HETATM    6  C   UNL     1      -9.695  11.820  67.513  1.00  0.00    -0.185 C  
HETATM    7  C   UNL     1      -9.418  14.003  68.869  1.00  0.00     0.007 A  
HETATM    8  C   UNL     1     -10.716  10.927  68.281  1.00  0.00    -0.244 C  
HETATM    9  C   UNL     1      -8.662  14.847  69.683  1.00  0.00     0.101 A  
HETATM   10  C   UNL     1     -10.198  12.418  66.186  1.00  0.00    -0.262 A  
HETATM   11  C   UNL     1      -9.995  13.756  65.801  1.00  0.00    -0.293 A  
HETATM   12  C   UNL     1     -11.303  12.064  64.024  1.00  0.00    -0.478 A  
HETATM   13  F   UNL     1     -11.591  13.879  62.546  1.00  0.00     1.027 F  
HETATM   14  C   UNL     1     -10.487  14.253  64.590  1.00  0.00    -0.325 A  
HETATM   15  C   UNL     1     -11.136  13.403  63.711  1.00  0.00    -0.031 A  
HETATM   16  C   UNL     1     -10.836  11.577  65.249  1.00  0.00    -0.319 A  
ENDROOT
BRANCH   8  17
HETATM   17  C   UNL     1     -11.808  11.622  69.113  1.00  0.00    -0.390 C  
BRANCH  17  18
HETATM   18  C   UNL     1     -11.929  13.144  68.959  1.00  0.00    -0.285 C  
BRANCH  18  19
HETATM   19  N   UNL     1     -12.205  13.864  70.201  1.00  0.00    -0.345 NA 
HETATM   20  C   UNL     1      -9.999  14.904  70.886  1.00  0.00     1.209 C  
HETATM   21  C   UNL     1     -11.113  13.894  71.178  1.00  0.00     1.631 C  
HETATM   22  C   UNL     1     -10.553  16.293  70.546  1.00  0.00     0.144 C  
HETATM   23  C   UNL     1     -11.714  16.243  69.546  1.00  0.00    -0.094 C  
HETATM   24  N   UNL     1      -9.504  17.281  70.124  1.00  0.00     1.489 NA 
HETATM   25  O   UNL     1     -11.846  16.496  72.679  1.00  0.00    -0.541 OA 
HETATM   26  C   UNL     1     -12.759  15.204  69.956  1.00  0.00    -0.164 C  
HETATM   27  C   UNL     1      -9.590  18.492  70.927  1.00  0.00     3.891 C  
HETATM   28  C   UNL     1     -11.061  16.940  71.858  1.00  0.00     1.129 C  
HETATM   29  N   UNL     1     -10.478  18.170  71.980  1.00  0.00     3.414 NA 
BRANCH  24  30
HETATM   30  C   UNL     1      -8.600  17.209  69.079  1.00  0.00    -0.101 A  
HETATM   31  C   UNL     1      -7.376  17.889  69.072  1.00  0.00    -0.194 A  
HETATM   32  C   UNL     1      -6.507  17.876  67.968  1.00  0.00    -0.186 A  
HETATM   33  C   UNL     1      -6.825  17.144  66.834  1.00  0.00    -0.242 A  
HETATM   34  C   UNL     1      -8.000  16.413  66.813  1.00  0.00    -0.295 A  
HETATM   35  C   UNL     1      -8.868  16.451  67.918  1.00  0.00    -0.184 A  
ENDBRANCH  24  30
ENDBRANCH  18  19
ENDBRANCH  17  18
ENDBRANCH   8  17
TORSDOF 4
ENDMDL
MODEL      249
REMARK 921   NORMALIZED FREE ENERGY PREDICTED BY IDOCK:   25.94 KCAL/MOL
REMARK 922        TOTAL FREE ENERGY PREDICTED BY IDOCK:   30.13 KCAL/MOL
REMARK 923 INTER-LIGAND FREE ENERGY PREDICTED BY IDOCK:   21.24 KCAL/MOL
REMARK 924 INTRA-LIGAND FREE ENERGY PREDICTED BY IDOCK:    8.89 KCAL/MOL
REMARK 927      BINDING AFFINITY PREDICTED BY RF-SCORE:    0.00 PKD
ROOT
HETATM    1  F   UNL     1     -13.330  15.057  64.234  1.00  0.00     0.358 F  
HETATM    2  C   UNL     1     -12.652  13.916  64.411  1.00  0.00    -0.168 A  
HETATM    3  C   UNL     1     -12.707  12.925  63.440  1.00  0.00    -0.106 A  
HETATM    4  C   UNL     1     -12.045  11.713  63.652  1.00  0.00    -0.359 A  
HETATM    5  C   UNL     1     -11.312  11.485  64.834  1.00  0.00    -0.189 A  
HETATM    6  C   UNL     1     -10.639  10.120  65.057  1.00  0.00     0.308 C  
HETATM    7  C   UNL     1     -11.203  12.545  65.751  1.00  0.00    -0.356 A  
HETATM    8  C   UNL     1      -9.184  10.127  64.500  1.00  0.00    -0.305 C  
HETATM    9  C   UNL     1     -11.901  13.739  65.561  1.00  0.00    -0.378 A  
HETATM   10  C   UNL     1     -10.829   9.425  66.419  1.00  0.00     0.258 A  
HETATM   11  C   UNL     1     -11.594   9.958  67.472  1.00  0.00     1.010 A  
HETATM   12  C   UNL     1     -10.426   7.461  67.833  1.00  0.00    -0.265 A  
HETATM   13  F   UNL     1     -11.275   7.409  70.033  1.00  0.00    -0.265 F  
HETATM   14  C   UNL     1     -11.721   9.293  68.695  1.00  0.00     1.042 A  
HETATM   15  C   UNL     1     -11.137   8.049  68.866  1.00  0.00     0.285 A  
HETATM   16  C   UNL     1     -10.277   8.142  66.620  1.00  0.00    -0.329 A  
ENDROOT
BRANCH   8  17
HETATM   17  C   UNL     1      -8.194  11.162  65.063  1.00  0.00     0.303 C  
BRANCH  17  18
HETATM   18  C   UNL     1      -7.962  12.424  64.222  1.00  0.00     4.428 C  
BRANCH  18  19
HETATM   19  N   UNL     1      -8.322  13.676  64.885  1.00  0.00     4.422 NA 
HETATM   20  C   UNL     1      -9.681  13.003  66.915  1.00  0.00    -0.238 C  
HETATM   21  C   UNL     1      -9.630  13.694  65.549  1.00  0.00     0.054 C  
HETATM   22  C   UNL     1      -8.527  13.436  67.826  1.00  0.00    -0.181 C  
HETATM   23  C   UNL     1      -7.172  13.441  67.110  1.00  0.00     0.134 C  
HETATM   24  N   UNL     1      -8.462  12.686  69.125  1.00  0.00     0.498 NA 
HETATM   25  O   UNL     1      -9.088  15.871  67.677  1.00  0.00    -0.196 OA 
HETATM   26  C   UNL     1      -7.253  14.168  65.767  1.00  0.00     6.399 C  
HETATM   27  C   UNL     1      -8.434  13.612  70.249  1.00  0.00     3.250 C  
HETATM   28  C   UNL     1      -8.825  14.871  68.325  1.00  0.00    -0.172 C  
HETATM   29  N   UNL     1      -8.738  14.875  69.689  1.00  0.00     0.015 NA 
BRANCH  24  30
HETATM   30  C   UNL     1      -8.340  11.326  69.349  1.00  0.00     0.324 A  
HETATM   31  C   UNL     1      -7.741  10.447  68.438  1.00  0.00    -0.098 A  
HETATM   32  C   UNL     1      -7.701   9.057  68.639  1.00  0.00    -0.096 A  
HETATM   33  C   UNL     1      -8.237   8.500  69.789  1.00  0.00    -0.121 A  
HETATM   34  C   UNL     1      -8.794   9.333  70.745  1.00  0.00    -0.282 A  
HETATM   35  C   UNL     1      -8.843  10.720  70.520  1.00  0.00     2.259 A  
ENDBRANCH  24  30
ENDBRANCH  18  19
ENDBRANCH  17  18
ENDBRANCH   8  17
TORSDOF 4
ENDMDL
MODEL      250
REMARK 921   NORMALIZED FREE ENERGY PREDICTED BY IDOCK:   28.73 KCAL/MOL
REMARK 922        TOTAL FREE ENERGY PREDICTED BY IDOCK:   33.57 KCAL/MOL
REMARK 923 INTER-LIGAND FREE ENERGY PREDICTED BY IDOCK:    7.42 KCAL/MOL
REMARK 924 INTRA-LIGAND FREE ENERGY PREDICTED BY IDOCK:   26.15 KCAL/MOL
REMARK 927      BINDING AFFINITY PREDICTED BY RF-SCORE:    0.00 PKD
ROOT
HETATM    1  F   UNL     1     -10.771   5.240  66.109  1.00  0.00    -0.287 F  
HETATM    2  C   UNL     1      -9.720   6.037  66.340  1.00  0.00    -0.121 A  
HETATM    3  C   UNL     1      -8.442   5.497  66.379  1.00  0.00    -0.119 A  
HETATM    4  C   UNL     1      -7.352   6.320  66.675  1.00  0.00    -0.078 A  
HETATM    5  C   UNL     1      -7.531   7.695  66.924  1.00  0.00    -0.094 A  
HETATM    6  C   UNL     1      -6.316   8.562  67.298  1.00  0.00    -0.057 C  
HETATM    7  C   UNL     1      -8.827   8.223  66.784  1.00  0.00    -0.158 A  
HETATM    8  C   UNL     1      -5.663   9.173  66.022  1.00  0.00    -0.049 C  
HETATM    9  C   UNL     1      -9.921   7.394  66.533  1.00  0.00    -0.194 A  
HETATM   10  C   UNL     1      -6.440   9.511  68.505  1.00  0.00    -0.052 A  
HETATM   11  C   UNL     1      -7.596   9.627  69.299  1.00  0.00    -0.091 A  
HETATM   12  C   UNL     1      -5.368  11.135  70.001  1.00  0.00    -0.062 A  
HETATM   13  F   UNL     1      -6.607  12.102  71.758  1.00  0.00     2.017 F  
HETATM   14  C   UNL     1      -7.661  10.517  70.375  1.00  0.00     0.694 A  
HETATM   15  C   UNL     1      -6.546  11.263  70.718  1.00  0.00     0.904 A  
HETATM   16  C   UNL     1      -5.316  10.265  68.907  1.00  0.00    -0.034 A  
ENDROOT
BRANCH   8  17
HETATM   17  C   UNL     1      -6.531  10.064  65.117  1.00  0.00    -0.115 C  
BRANCH  17  18
HETATM   18  C   UNL     1      -6.637  11.546  65.503  1.00  0.00     1.063 C  
BRANCH  18  19
HETATM   19  N   UNL     1      -7.871  12.203  65.076  1.00  0.00     2.415 NA 
HETATM   20  C   UNL     1      -9.672  10.428  65.228  1.00  0.00    -0.339 C  
HETATM   21  C   UNL     1      -8.827  11.359  64.353  1.00  0.00     0.308 C  
HETATM   22  C   UNL     1     -10.288  11.161  66.425  1.00  0.00    -0.252 C  
HETATM   23  C   UNL     1      -9.284  12.062  67.153  1.00  0.00    -0.190 C  
HETATM   24  N   UNL     1     -11.016  10.261  67.381  1.00  0.00    -0.284 NA 
HETATM   25  O   UNL     1     -11.441  12.875  65.010  1.00  0.00    -0.300 OA 
HETATM   26  C   UNL     1      -8.514  12.946  66.170  1.00  0.00     0.703 C  
HETATM   27  C   UNL     1     -12.372  10.744  67.606  1.00  0.00     2.250 C  
HETATM   28  C   UNL     1     -11.449  12.041  65.901  1.00  0.00    -0.333 C  
HETATM   29  N   UNL     1     -12.569  11.746  66.628  1.00  0.00     1.274 NA 
BRANCH  24  30
HETATM   30  C   UNL     1     -10.547   9.168  68.088  1.00  0.00    -0.183 A  
HETATM   31  C   UNL     1      -9.726   9.275  69.216  1.00  0.00    -0.169 A  
HETATM   32  C   UNL     1      -9.187   8.156  69.872  1.00  0.00    -0.151 A  
HETATM   33  C   UNL     1      -9.485   6.875  69.432  1.00  0.00    -0.148 A  
HETATM   34  C   UNL     1     -10.335   6.715  68.351  1.00  0.00    -0.220 A  
HETATM   35  C   UNL     1     -10.851   7.846  67.695  1.00  0.00    -0.125 A  
ENDBRANCH  24  30
ENDBRANCH  18  19
ENDBRANCH  17  18
ENDBRANCH   8  17
TORSDOF 4
ENDMDL
MODEL      251
REMARK 921   NORMALIZED FREE ENERGY PREDICTED BY IDOCK:   29.83 KCAL/MOL
REMARK 922        TOTAL FREE ENERGY PREDICTED BY IDOCK:   34.93 KCAL/MOL
REMARK 923 INTER-LIGAND FREE ENERGY PREDICTED BY IDOCK:   30.47 KCAL/MOL
REMARK 924 INTRA-LIGAND FREE ENERGY PREDICTED BY IDOCK:    4.46 KCAL/MOL
REMARK 927      BINDING AFFINITY PREDICTED BY RF-SCORE:    0.00 PKD
ROOT
HETATM    1  F   UNL     1     -13.301  15.318  64.054  1.00  0.00     0.493 F  
HETATM    2  C   UNL     1     -12.333  14.394  64.011  1.00  0.00    -0.205 A  
HETATM    3  C   UNL     1     -11.668  14.149  62.818  1.00  0.00     2.564 A  
HETATM    4  C   UNL     1     -10.698  13.145  62.761  1.00  0.00     2.964 A  
HETATM    5  C   UNL     1     -10.375  12.384  63.903  1.00  0.00    -0.450 A  
HETATM    6  C   UNL     1      -9.340  11.252  63.792  1.00  0.00    -0.160 C  
HETATM    7  C   UNL     1     -11.004  12.724  65.114  1.00  0.00    -0.323 A  
HETATM    8  C   UNL     1      -7.908  11.786  64.099  1.00  0.00     2.360 C  
HETATM    9  C   UNL     1     -12.005  13.695  65.161  1.00  0.00    -0.391 A  
HETATM   10  C   UNL     1      -9.687   9.882  64.402  1.00  0.00    -0.177 A  
HETATM   11  C   UNL     1     -10.904   9.594  65.048  1.00  0.00     2.335 A  
HETATM   12  C   UNL     1      -9.047   7.542  64.778  1.00  0.00     0.845 A  
HETATM   13  F   UNL     1     -10.490   6.112  65.975  1.00  0.00    -0.082 F  
HETATM   14  C   UNL     1     -11.162   8.336  65.599  1.00  0.00     5.353 A  
HETATM   15  C   UNL     1     -10.232   7.320  65.459  1.00  0.00     2.113 A  
HETATM   16  C   UNL     1      -8.779   8.811  64.252  1.00  0.00    -0.038 A  
ENDROOT
BRANCH   8  17
HETATM   17  C   UNL     1      -7.652  12.434  65.471  1.00  0.00     2.832 C  
BRANCH  17  18
HETATM   18  C   UNL     1      -8.657  13.499  65.929  1.00  0.00     1.231 C  
BRANCH  18  19
HETATM   19  N   UNL     1      -8.755  13.667  67.378  1.00  0.00    -0.202 NA 
HETATM   20  C   UNL     1      -8.989  11.325  68.317  1.00  0.00    -0.172 C  
HETATM   21  C   UNL     1      -9.613  12.704  68.076  1.00  0.00    -0.213 C  
HETATM   22  C   UNL     1      -7.577  11.425  68.905  1.00  0.00    -0.114 C  
HETATM   23  C   UNL     1      -6.702  12.457  68.185  1.00  0.00    -0.075 C  
HETATM   24  N   UNL     1      -6.877  10.103  69.035  1.00  0.00    -0.054 NA 
HETATM   25  O   UNL     1      -8.301  12.791  70.874  1.00  0.00     6.382 OA 
HETATM   26  C   UNL     1      -7.435  13.788  68.015  1.00  0.00    -0.139 C  
HETATM   27  C   UNL     1      -6.399   9.909  70.397  1.00  0.00    -0.106 C  
HETATM   28  C   UNL     1      -7.706  11.841  70.391  1.00  0.00     3.094 C  
HETATM   29  N   UNL     1      -7.006  10.943  71.148  1.00  0.00     1.099 NA 
BRANCH  24  30
HETATM   30  C   UNL     1      -6.578   9.168  68.060  1.00  0.00    -0.060 A  
HETATM   31  C   UNL     1      -7.132   9.193  66.774  1.00  0.00    -0.082 A  
HETATM   32  C   UNL     1      -6.887   8.189  65.822  1.00  0.00    -0.063 A  
HETATM   33  C   UNL     1      -6.042   7.132  66.121  1.00  0.00    -0.036 A  
HETATM   34  C   UNL     1      -5.429   7.090  67.361  1.00  0.00    -0.020 A  
HETATM   35  C   UNL     1      -5.699   8.092  68.309  1.00  0.00    -0.033 A  
ENDBRANCH  24  30
ENDBRANCH  18  19
ENDBRANCH  17  18
ENDBRANCH   8  17
TORSDOF 4
ENDMDL
MODEL      252
REMARK 921   NORMALIZED FREE ENERGY PREDICTED BY IDOCK:   30.99 KCAL/MOL
REMARK 922        TOTAL FREE ENERGY PREDICTED BY IDOCK:   36.36 KCAL/MOL
REMARK 923 INTER-LIGAND FREE ENERGY PREDICTED BY IDOCK:   28.79 KCAL/MOL
REMARK 924 INTRA-LIGAND FREE ENERGY PREDICTED BY IDOCK:    7.57 KCAL/MOL
REMARK 927      BINDING AFFINITY PREDICTED BY RF-SCORE:    0.00 PKD
ROOT
HETATM    1  F   UNL     1     -11.861   9.157  71.794  1.00  0.00    -0.365 F  
HETATM    2  C   UNL     1     -10.644   9.678  71.590  1.00  0.00     0.163 A  
HETATM    3  C   UNL     1      -9.680   9.583  72.583  1.00  0.00     2.722 A  
HETATM    4  C   UNL     1      -8.429  10.175  72.390  1.00  0.00     5.976 A  
HETATM    5  C   UNL     1      -8.128  10.859  71.196  1.00  0.00     4.793 A  
HETATM    6  C   UNL     1      -6.760  11.545  71.039  1.00  0.00     2.069 C  
HETATM    7  C   UNL     1      -9.098  10.855  70.177  1.00  0.00     1.370 A  
HETATM    8  C   UNL     1      -5.726  10.569  70.400  1.00  0.00    -0.087 C  
HETATM    9  C   UNL     1     -10.362  10.302  70.386  1.00  0.00    -0.069 A  
HETATM   10  C   UNL     1      -6.724  12.993  70.514  1.00  0.00     1.026 A  
HETATM   11  C   UNL     1      -7.870  13.736  70.180  1.00  0.00     1.711 A  
HETATM   12  C   UNL     1      -5.393  14.981  69.967  1.00  0.00    -0.111 A  
HETATM   13  F   UNL     1      -6.463  16.913  69.139  1.00  0.00    -0.165 F  
HETATM   14  C   UNL     1      -7.781  15.043  69.693  1.00  0.00    -0.115 A  
HETATM   15  C   UNL     1      -6.543  15.656  69.591  1.00  0.00    -0.181 A  
HETATM   16  C   UNL     1      -5.484  13.663  70.427  1.00  0.00    -0.131 A  
ENDROOT
BRANCH   8  17
HETATM   17  C   UNL     1      -6.044   9.979  69.015  1.00  0.00    -0.040 C  
BRANCH  17  18
HETATM   18  C   UNL     1      -6.240  10.978  67.867  1.00  0.00    -0.053 C  
BRANCH  18  19
HETATM   19  N   UNL     1      -7.569  11.582  67.801  1.00  0.00    -0.105 NA 
HETATM   20  C   UNL     1      -8.571  10.779  65.617  1.00  0.00    -0.185 C  
HETATM   21  C   UNL     1      -8.041  11.943  66.460  1.00  0.00     0.006 C  
HETATM   22  C   UNL     1      -9.558   9.903  66.397  1.00  0.00    -0.200 C  
HETATM   23  C   UNL     1      -9.065   9.559  67.806  1.00  0.00    -0.133 C  
HETATM   24  N   UNL     1     -10.002   8.676  65.653  1.00  0.00     0.227 NA 
HETATM   25  O   UNL     1     -11.092  11.804  66.941  1.00  0.00    -0.276 OA 
HETATM   26  C   UNL     1      -8.572  10.805  68.544  1.00  0.00    -0.148 C  
HETATM   27  C   UNL     1     -11.456   8.607  65.604  1.00  0.00     6.419 C  
HETATM   28  C   UNL     1     -10.893  10.677  66.517  1.00  0.00    -0.099 C  
HETATM   29  N   UNL     1     -11.898   9.869  66.062  1.00  0.00     2.981 NA 
BRANCH  24  30
HETATM   30  C   UNL     1      -9.244   7.641  65.135  1.00  0.00     0.668 A  
HETATM   31  C   UNL     1      -7.939   7.808  64.657  1.00  0.00    -0.136 A  
HETATM   32  C   UNL     1      -7.212   6.767  64.054  1.00  0.00    -0.071 A  
HETATM   33  C   UNL     1      -7.766   5.501  63.940  1.00  0.00    -0.089 A  
HETATM   34  C   UNL     1      -9.034   5.273  64.445  1.00  0.00     0.075 A  
HETATM   35  C   UNL     1      -9.755   6.330  65.028  1.00  0.00     1.342 A  
ENDBRANCH  24  30
ENDBRANCH  18  19
ENDBRANCH  17  18
ENDBRANCH   8  17
TORSDOF 4
ENDMDL
MODEL      253
REMARK 921   NORMALIZED FREE ENERGY PREDICTED BY IDOCK:   31.32 KCAL/MOL
REMARK 922        TOTAL FREE ENERGY PREDICTED BY IDOCK:   36.77 KCAL/MOL
REMARK 923 INTER-LIGAND FREE ENERGY PREDICTED BY IDOCK:   22.57 KCAL/MOL
REMARK 924 INTRA-LIGAND FREE ENERGY PREDICTED BY IDOCK:   14.20 KCAL/MOL
REMARK 927      BINDING AFFINITY PREDICTED BY RF-SCORE:    0.00 PKD
ROOT
HETATM    1  F   UNL     1     -12.287   5.925  65.846  1.00  0.00     1.619 F  
HETATM    2  C   UNL     1     -11.831   7.083  66.339  1.00  0.00     3.614 A  
HETATM    3  C   UNL     1     -12.652   8.202  66.338  1.00  0.00    12.262 A  
HETATM    4  C   UNL     1     -12.155   9.424  66.802  1.00  0.00     6.098 A  
HETATM    5  C   UNL     1     -10.835   9.533  67.281  1.00  0.00    -0.188 A  
HETATM    6  C   UNL     1     -10.304  10.904  67.734  1.00  0.00    -0.218 C  
HETATM    7  C   UNL     1     -10.064   8.359  67.352  1.00  0.00    -0.301 A  
HETATM    8  C   UNL     1     -10.566  11.119  69.255  1.00  0.00    -0.212 C  
HETATM    9  C   UNL     1     -10.544   7.149  66.848  1.00  0.00    -0.371 A  
HETATM   10  C   UNL     1      -8.924  11.359  67.223  1.00  0.00    -0.159 A  
HETATM   11  C   UNL     1      -8.119  10.601  66.353  1.00  0.00    -0.148 A  
HETATM   12  C   UNL     1      -7.207  13.110  67.129  1.00  0.00     0.077 A  
HETATM   13  F   UNL     1      -5.226  12.742  65.904  1.00  0.00     1.616 F  
HETATM   14  C   UNL     1      -6.865  11.053  65.932  1.00  0.00     0.036 A  
HETATM   15  C   UNL     1      -6.419  12.305  66.322  1.00  0.00     1.334 A  
HETATM   16  C   UNL     1      -8.448  12.641  67.572  1.00  0.00    -0.176 A  
ENDROOT
BRANCH   8  17
HETATM   17  C   UNL     1      -9.966  10.106  70.246  1.00  0.00    -0.081 C  
BRANCH  17  18
HETATM   18  C   UNL     1     -10.859   8.926  70.652  1.00  0.00    -0.239 C  
BRANCH  18  19
HETATM   19  N   UNL     1     -11.048   7.916  69.612  1.00  0.00    -0.104 NA 
HETATM   20  C   UNL     1      -8.743   6.964  69.165  1.00  0.00    -0.135 C  
HETATM   21  C   UNL     1      -9.945   7.768  68.658  1.00  0.00    -0.182 C  
HETATM   22  C   UNL     1      -9.166   5.644  69.821  1.00  0.00    -0.138 C  
HETATM   23  C   UNL     1     -10.340   5.810  70.793  1.00  0.00    -0.301 C  
HETATM   24  N   UNL     1      -8.033   4.886  70.450  1.00  0.00    -0.069 NA 
HETATM   25  O   UNL     1     -10.405   4.832  67.803  1.00  0.00    -0.071 OA 
HETATM   26  C   UNL     1     -11.474   6.621  70.164  1.00  0.00    -0.385 C  
HETATM   27  C   UNL     1      -7.992   3.519  69.948  1.00  0.00    -0.049 C  
HETATM   28  C   UNL     1      -9.592   4.667  68.698  1.00  0.00    -0.162 C  
HETATM   29  N   UNL     1      -8.892   3.503  68.858  1.00  0.00    -0.099 NA 
BRANCH  24  30
HETATM   30  C   UNL     1      -7.154   5.283  71.442  1.00  0.00    -0.066 A  
HETATM   31  C   UNL     1      -6.973   4.577  72.637  1.00  0.00    -0.062 A  
HETATM   32  C   UNL     1      -6.142   5.038  73.672  1.00  0.00    -0.038 A  
HETATM   33  C   UNL     1      -5.431   6.219  73.526  1.00  0.00    -0.041 A  
HETATM   34  C   UNL     1      -5.535   6.926  72.342  1.00  0.00    -0.037 A  
HETATM   35  C   UNL     1      -6.386   6.461  71.323  1.00  0.00    -0.049 A  
ENDBRANCH  24  30
ENDBRANCH  18  19
ENDBRANCH  17  18
ENDBRANCH   8  17
TORSDOF 4
ENDMDL
MODEL      254
REMARK 921   NORMALIZED FREE ENERGY PREDICTED BY IDOCK:   33.87 KCAL/MOL
REMARK 922        TOTAL FREE ENERGY PREDICTED BY IDOCK:   39.92 KCAL/MOL
REMARK 923 INTER-LIGAND FREE ENERGY PREDICTED BY IDOCK:    0.55 KCAL/MOL
REMARK 924 INTRA-LIGAND FREE ENERGY PREDICTED BY IDOCK:   39.37 KCAL/MOL
REMARK 927      BINDING AFFINITY PREDICTED BY RF-SCORE:    0.00 PKD
ROOT
HETATM    1  F   UNL     1     -10.798   8.145  73.051  1.00  0.00    -0.403 F  
HETATM    2  C   UNL     1     -10.442   7.393  72.002  1.00  0.00    -0.199 A  
HETATM    3  C   UNL     1     -10.091   6.064  72.196  1.00  0.00    -0.208 A  
HETATM    4  C   UNL     1      -9.666   5.297  71.108  1.00  0.00    -0.232 A  
HETATM    5  C   UNL     1      -9.600   5.849  69.814  1.00  0.00    -0.189 A  
HETATM    6  C   UNL     1      -9.078   4.991  68.649  1.00  0.00    -0.139 C  
HETATM    7  C   UNL     1     -10.051   7.170  69.642  1.00  0.00    -0.196 A  
HETATM    8  C   UNL     1     -10.251   4.237  67.952  1.00  0.00     0.161 C  
HETATM    9  C   UNL     1     -10.433   7.950  70.734  1.00  0.00    -0.218 A  
HETATM   10  C   UNL     1      -8.024   5.602  67.706  1.00  0.00    -0.098 A  
HETATM   11  C   UNL     1      -7.496   6.898  67.852  1.00  0.00    -0.099 A  
HETATM   12  C   UNL     1      -6.515   5.307  65.793  1.00  0.00    -0.036 A  
HETATM   13  F   UNL     1      -5.152   7.099  65.091  1.00  0.00    -0.024 F  
HETATM   14  C   UNL     1      -6.551   7.410  66.958  1.00  0.00    -0.061 A  
HETATM   15  C   UNL     1      -6.068   6.611  65.936  1.00  0.00    -0.034 A  
HETATM   16  C   UNL     1      -7.482   4.808  66.672  1.00  0.00    -0.086 A  
ENDROOT
BRANCH   8  17
HETATM   17  C   UNL     1     -11.399   5.071  67.357  1.00  0.00     2.150 C  
BRANCH  17  18
HETATM   18  C   UNL     1     -11.024   6.435  66.761  1.00  0.00    -0.251 C  
BRANCH  18  19
HETATM   19  N   UNL     1      -9.591   6.720  66.738  1.00  0.00    -0.161 NA 
HETATM   20  C   UNL     1      -9.388   9.111  65.925  1.00  0.00    -0.306 C  
HETATM   21  C   UNL     1      -9.136   7.621  65.674  1.00  0.00     0.084 C  
HETATM   22  C   UNL     1      -8.942   9.545  67.326  1.00  0.00    -0.131 C  
HETATM   23  C   UNL     1      -9.399   8.578  68.423  1.00  0.00    -0.137 C  
HETATM   24  N   UNL     1      -9.290  10.966  67.662  1.00  0.00    -0.155 NA 
HETATM   25  O   UNL     1      -6.589   8.748  67.018  1.00  0.00    -0.060 OA 
HETATM   26  C   UNL     1      -9.082   7.128  68.056  1.00  0.00    -0.132 C  
HETATM   27  C   UNL     1      -8.106  11.693  68.100  1.00  0.00    -0.148 C  
HETATM   28  C   UNL     1      -7.395   9.607  67.337  1.00  0.00    -0.087 C  
HETATM   29  N   UNL     1      -7.021  10.839  67.796  1.00  0.00    -0.076 NA 
BRANCH  24  30
HETATM   30  C   UNL     1     -10.528  11.584  67.690  1.00  0.00    -0.189 A  
HETATM   31  C   UNL     1     -11.135  12.142  66.558  1.00  0.00    -0.352 A  
HETATM   32  C   UNL     1     -12.352  12.842  66.617  1.00  0.00    -0.044 A  
HETATM   33  C   UNL     1     -13.024  12.978  67.821  1.00  0.00     2.504 A  
HETATM   34  C   UNL     1     -12.491  12.399  68.960  1.00  0.00     0.411 A  
HETATM   35  C   UNL     1     -11.263  11.718  68.888  1.00  0.00    -0.311 A  
ENDBRANCH  24  30
ENDBRANCH  18  19
ENDBRANCH  17  18
ENDBRANCH   8  17
TORSDOF 4
ENDMDL
MODEL      255
REMARK 921   NORMALIZED FREE ENERGY PREDICTED BY IDOCK:   34.47 KCAL/MOL
REMARK 922        TOTAL FREE ENERGY PREDICTED BY IDOCK:   40.66 KCAL/MOL
REMARK 923 INTER-LIGAND FREE ENERGY PREDICTED BY IDOCK:   41.03 KCAL/MOL
REMARK 924 INTRA-LIGAND FREE ENERGY PREDICTED BY IDOCK:   -0.37 KCAL/MOL
REMARK 927      BINDING AFFINITY PREDICTED BY RF-SCORE:    0.00 PKD
ROOT
HETATM    1  F   UNL     1     -13.988   7.869  68.134  1.00  0.00    13.716 F  
HETATM    2  C   UNL     1     -12.749   7.874  67.627  1.00  0.00    10.024 A  
HETATM    3  C   UNL     1     -12.473   8.619  66.489  1.00  0.00    11.285 A  
HETATM    4  C   UNL     1     -11.194   8.579  65.930  1.00  0.00     3.900 A  
HETATM    5  C   UNL     1     -10.173   7.800  66.511  1.00  0.00    -0.195 A  
HETATM    6  C   UNL     1      -8.791   7.737  65.839  1.00  0.00    -0.176 C  
HETATM    7  C   UNL     1     -10.465   7.133  67.714  1.00  0.00    -0.284 A  
HETATM    8  C   UNL     1      -7.858   8.854  66.397  1.00  0.00    -0.103 C  
HETATM    9  C   UNL     1     -11.754   7.137  68.248  1.00  0.00     1.066 A  
HETATM   10  C   UNL     1      -8.136   6.357  65.641  1.00  0.00    -0.131 A  
HETATM   11  C   UNL     1      -8.732   5.143  66.027  1.00  0.00    -0.130 A  
HETATM   12  C   UNL     1      -6.264   5.045  64.750  1.00  0.00    -0.033 A  
HETATM   13  F   UNL     1      -6.251   2.701  65.009  1.00  0.00    -0.017 F  
HETATM   14  C   UNL     1      -8.087   3.917  65.839  1.00  0.00    -0.101 A  
HETATM   15  C   UNL     1      -6.858   3.877  65.202  1.00  0.00    -0.053 A  
HETATM   16  C   UNL     1      -6.900   6.272  64.967  1.00  0.00    -0.051 A  
ENDROOT
BRANCH   8  17
HETATM   17  C   UNL     1      -7.572   8.875  67.908  1.00  0.00    -0.093 C  
BRANCH  17  18
HETATM   18  C   UNL     1      -7.511  10.252  68.581  1.00  0.00    -0.086 C  
BRANCH  18  19
HETATM   19  N   UNL     1      -7.146  11.353  67.690  1.00  0.00    -0.087 NA 
HETATM   20  C   UNL     1      -9.338  12.402  66.975  1.00  0.00    -0.204 C  
HETATM   21  C   UNL     1      -8.078  11.620  66.590  1.00  0.00    -0.121 C  
HETATM   22  C   UNL     1      -9.014  13.641  67.817  1.00  0.00    -0.196 C  
HETATM   23  C   UNL     1      -8.016  13.353  68.944  1.00  0.00     0.114 C  
HETATM   24  N   UNL     1     -10.228  14.365  68.328  1.00  0.00    -0.235 NA 
HETATM   25  O   UNL     1      -7.457  14.612  66.115  1.00  0.00     1.464 OA 
HETATM   26  C   UNL     1      -6.803  12.577  68.428  1.00  0.00    -0.085 C  
HETATM   27  C   UNL     1     -10.173  15.774  67.964  1.00  0.00    -0.229 C  
HETATM   28  C   UNL     1      -8.403  14.711  66.880  1.00  0.00    -0.126 C  
HETATM   29  N   UNL     1      -9.108  15.871  67.039  1.00  0.00    -0.207 NA 
BRANCH  24  30
HETATM   30  C   UNL     1     -11.260  13.897  69.121  1.00  0.00    -0.269 A  
HETATM   31  C   UNL     1     -11.140  12.784  69.963  1.00  0.00     0.406 A  
HETATM   32  C   UNL     1     -12.220  12.268  70.698  1.00  0.00    -0.378 A  
HETATM   33  C   UNL     1     -13.463  12.879  70.638  1.00  0.00     0.860 A  
HETATM   34  C   UNL     1     -13.620  14.013  69.860  1.00  0.00     1.806 A  
HETATM   35  C   UNL     1     -12.533  14.506  69.116  1.00  0.00    -0.025 A  
ENDBRANCH  24  30
ENDBRANCH  18  19
ENDBRANCH  17  18
ENDBRANCH   8  17
TORSDOF 4
ENDMDL
MODEL      256
REMARK 921   NORMALIZED FREE ENERGY PREDICTED BY IDOCK:   35.04 KCAL/MOL
REMARK 922        TOTAL FREE ENERGY PREDICTED BY IDOCK:   41.36 KCAL/MOL
REMARK 923 INTER-LIGAND FREE ENERGY PREDICTED BY IDOCK:   34.84 KCAL/MOL
REMARK 924 INTRA-LIGAND FREE ENERGY PREDICTED BY IDOCK:    6.51 KCAL/MOL
REMARK 927      BINDING AFFINITY PREDICTED BY RF-SCORE:    0.00 PKD
ROOT
HETATM    1  F   UNL     1      -9.474  20.795  71.955  1.00  0.00     0.757 F  
HETATM    2  C   UNL     1      -9.997  19.782  71.253  1.00  0.00     2.344 A  
HETATM    3  C   UNL     1     -10.943  20.042  70.271  1.00  0.00     2.345 A  
HETATM    4  C   UNL     1     -11.528  18.979  69.578  1.00  0.00     4.346 A  
HETATM    5  C   UNL     1     -11.165  17.646  69.854  1.00  0.00     1.722 A  
HETATM    6  C   UNL     1     -11.868  16.498  69.110  1.00  0.00     0.251 C  
HETATM    7  C   UNL     1     -10.137  17.429  70.790  1.00  0.00     2.542 A  
HETATM    8  C   UNL     1     -11.095  16.134  67.806  1.00  0.00    -0.254 C  
HETATM    9  C   UNL     1      -9.585  18.486  71.514  1.00  0.00     6.077 A  
HETATM   10  C   UNL     1     -12.390  15.305  69.932  1.00  0.00    -0.323 A  
HETATM   11  C   UNL     1     -12.275  15.204  71.330  1.00  0.00    -0.401 A  
HETATM   12  C   UNL     1     -13.603  13.172  69.975  1.00  0.00     2.239 A  
HETATM   13  F   UNL     1     -13.883  12.027  72.017  1.00  0.00    -0.357 F  
HETATM   14  C   UNL     1     -12.753  14.091  72.027  1.00  0.00    -0.367 A  
HETATM   15  C   UNL     1     -13.413  13.084  71.344  1.00  0.00     0.017 A  
HETATM   16  C   UNL     1     -13.097  14.274  69.276  1.00  0.00     1.371 A  
ENDROOT
BRANCH   8  17
HETATM   17  C   UNL     1      -9.626  15.694  67.931  1.00  0.00    -0.206 C  
BRANCH  17  18
HETATM   18  C   UNL     1      -8.672  16.666  68.639  1.00  0.00    -0.250 C  
BRANCH  18  19
HETATM   19  N   UNL     1      -8.498  16.420  70.069  1.00  0.00     0.980 NA 
HETATM   20  C   UNL     1      -8.353  13.903  70.312  1.00  0.00     2.515 C  
HETATM   21  C   UNL     1      -9.121  15.199  70.588  1.00  0.00     1.580 C  
HETATM   22  C   UNL     1      -6.866  14.026  70.663  1.00  0.00     0.570 C  
HETATM   23  C   UNL     1      -6.236  15.322  70.140  1.00  0.00    -0.131 C  
HETATM   24  N   UNL     1      -6.050  12.824  70.286  1.00  0.00    -0.119 NA 
HETATM   25  O   UNL     1      -7.299  14.698  73.035  1.00  0.00     2.917 OA 
HETATM   26  C   UNL     1      -7.093  16.539  70.488  1.00  0.00     1.827 C  
HETATM   27  C   UNL     1      -5.300  12.334  71.435  1.00  0.00    -0.012 C  
HETATM   28  C   UNL     1      -6.735  14.003  72.206  1.00  0.00     2.562 C  
HETATM   29  N   UNL     1      -5.831  13.035  72.542  1.00  0.00     0.361 NA 
BRANCH  24  30
HETATM   30  C   UNL     1      -5.873  12.236  69.046  1.00  0.00    -0.066 A  
HETATM   31  C   UNL     1      -5.223  12.870  67.980  1.00  0.00    -0.094 A  
HETATM   32  C   UNL     1      -5.126  12.296  66.701  1.00  0.00     0.317 A  
HETATM   33  C   UNL     1      -5.656  11.039  66.455  1.00  0.00    -0.113 A  
HETATM   34  C   UNL     1      -6.262  10.350  67.491  1.00  0.00    -0.057 A  
HETATM   35  C   UNL     1      -6.367  10.945  68.760  1.00  0.00    -0.048 A  
ENDBRANCH  24  30
ENDBRANCH  18  19
ENDBRANCH  17  18
ENDBRANCH   8  17
TORSDOF 4
ENDMDL
MODEL      257
REMARK 921   NORMALIZED FREE ENERGY PREDICTED BY IDOCK:   35.99 KCAL/MOL
REMARK 922        TOTAL FREE ENERGY PREDICTED BY IDOCK:   42.53 KCAL/MOL
REMARK 923 INTER-LIGAND FREE ENERGY PREDICTED BY IDOCK:   30.83 KCAL/MOL
REMARK 924 INTRA-LIGAND FREE ENERGY PREDICTED BY IDOCK:   11.70 KCAL/MOL
REMARK 927      BINDING AFFINITY PREDICTED BY RF-SCORE:    0.00 PKD
ROOT
HETATM    1  F   UNL     1     -12.907  15.274  66.771  1.00  0.00     0.643 F  
HETATM    2  C   UNL     1     -11.783  14.701  67.220  1.00  0.00    -0.385 A  
HETATM    3  C   UNL     1     -11.741  13.328  67.417  1.00  0.00    -0.419 A  
HETATM    4  C   UNL     1     -10.586  12.740  67.938  1.00  0.00    -0.232 A  
HETATM    5  C   UNL     1      -9.457  13.519  68.258  1.00  0.00    -0.212 A  
HETATM    6  C   UNL     1      -8.221  12.846  68.879  1.00  0.00     0.247 C  
HETATM    7  C   UNL     1      -9.504  14.893  67.959  1.00  0.00    -0.198 A  
HETATM    8  C   UNL     1      -7.229  12.386  67.768  1.00  0.00    -0.119 C  
HETATM    9  C   UNL     1     -10.672  15.488  67.480  1.00  0.00    -0.300 A  
HETATM   10  C   UNL     1      -7.580  13.496  70.119  1.00  0.00     1.625 A  
HETATM   11  C   UNL     1      -8.064  14.668  70.731  1.00  0.00     2.165 A  
HETATM   12  C   UNL     1      -5.872  13.399  71.879  1.00  0.00     0.407 A  
HETATM   13  F   UNL     1      -5.753  15.116  73.490  1.00  0.00     0.027 F  
HETATM   14  C   UNL     1      -7.434  15.226  71.846  1.00  0.00     4.165 A  
HETATM   15  C   UNL     1      -6.344  14.587  72.412  1.00  0.00     1.058 A  
HETATM   16  C   UNL     1      -6.487  12.858  70.744  1.00  0.00     0.969 A  
ENDROOT
BRANCH   8  17
HETATM   17  C   UNL     1      -6.669  13.450  66.808  1.00  0.00     1.381 C  
BRANCH  17  18
HETATM   18  C   UNL     1      -6.795  13.160  65.307  1.00  0.00     8.929 C  
BRANCH  18  19
HETATM   19  N   UNL     1      -8.166  13.149  64.798  1.00  0.00     4.423 NA 
HETATM   20  C   UNL     1      -8.713  10.713  64.373  1.00  0.00    -0.145 C  
HETATM   21  C   UNL     1      -8.471  12.115  63.805  1.00  0.00     2.098 C  
HETATM   22  C   UNL     1      -9.686  10.729  65.558  1.00  0.00    -0.239 C  
HETATM   23  C   UNL     1      -9.373  11.835  66.572  1.00  0.00    -0.217 C  
HETATM   24  N   UNL     1      -9.851   9.396  66.229  1.00  0.00    -0.261 NA 
HETATM   25  O   UNL     1     -11.517  11.849  64.269  1.00  0.00    -0.350 OA 
HETATM   26  C   UNL     1      -9.162  13.183  65.879  1.00  0.00     0.188 C  
HETATM   27  C   UNL     1     -11.260   9.034  66.308  1.00  0.00     2.056 C  
HETATM   28  C   UNL     1     -11.113  10.961  65.002  1.00  0.00     0.160 C  
HETATM   29  N   UNL     1     -11.924   9.972  65.484  1.00  0.00     4.019 NA 
BRANCH  24  30
HETATM   30  C   UNL     1      -8.897   8.585  66.818  1.00  0.00    -0.139 A  
HETATM   31  C   UNL     1      -8.326   8.852  68.068  1.00  0.00    -0.121 A  
HETATM   32  C   UNL     1      -7.296   8.068  68.615  1.00  0.00    -0.089 A  
HETATM   33  C   UNL     1      -6.823   6.958  67.932  1.00  0.00    -0.081 A  
HETATM   34  C   UNL     1      -7.392   6.622  66.716  1.00  0.00    -0.078 A  
HETATM   35  C   UNL     1      -8.409   7.428  66.174  1.00  0.00    -0.139 A  
ENDBRANCH  24  30
ENDBRANCH  18  19
ENDBRANCH  17  18
ENDBRANCH   8  17
TORSDOF 4
ENDMDL
MODEL      258
REMARK 921   NORMALIZED FREE ENERGY PREDICTED BY IDOCK:   36.99 KCAL/MOL
REMARK 922        TOTAL FREE ENERGY PREDICTED BY IDOCK:   43.76 KCAL/MOL
REMARK 923 INTER-LIGAND FREE ENERGY PREDICTED BY IDOCK:   14.78 KCAL/MOL
REMARK 924 INTRA-LIGAND FREE ENERGY PREDICTED BY IDOCK:   28.99 KCAL/MOL
REMARK 927      BINDING AFFINITY PREDICTED BY RF-SCORE:    0.00 PKD
ROOT
HETATM    1  F   UNL     1     -13.331  13.217  72.549  1.00  0.00    -0.560 F  
HETATM    2  C   UNL     1     -12.801  12.535  71.526  1.00  0.00    -0.265 A  
HETATM    3  C   UNL     1     -12.980  12.992  70.228  1.00  0.00     0.352 A  
HETATM    4  C   UNL     1     -12.474  12.248  69.158  1.00  0.00     0.337 A  
HETATM    5  C   UNL     1     -11.773  11.046  69.379  1.00  0.00    -0.394 A  
HETATM    6  C   UNL     1     -11.275  10.227  68.176  1.00  0.00    -0.294 C  
HETATM    7  C   UNL     1     -11.531  10.665  70.711  1.00  0.00    -0.307 A  
HETATM    8  C   UNL     1      -9.831  10.657  67.778  1.00  0.00    -0.187 C  
HETATM    9  C   UNL     1     -12.075  11.382  71.777  1.00  0.00     0.643 A  
HETATM   10  C   UNL     1     -11.548   8.711  68.161  1.00  0.00     1.564 A  
HETATM   11  C   UNL     1     -12.239   8.027  69.178  1.00  0.00     2.563 A  
HETATM   12  C   UNL     1     -11.390   6.574  66.964  1.00  0.00    -0.069 A  
HETATM   13  F   UNL     1     -12.235   4.611  67.960  1.00  0.00     5.930 F  
HETATM   14  C   UNL     1     -12.446   6.646  69.123  1.00  0.00     2.644 A  
HETATM   15  C   UNL     1     -12.021   5.930  68.016  1.00  0.00     3.179 A  
HETATM   16  C   UNL     1     -11.159   7.952  67.036  1.00  0.00     0.348 A  
ENDROOT
BRANCH   8  17
HETATM   17  C   UNL     1      -8.719  10.539  68.836  1.00  0.00    -0.154 C  
BRANCH  17  18
HETATM   18  C   UNL     1      -9.167  10.454  70.301  1.00  0.00     0.641 C  
BRANCH  18  19
HETATM   19  N   UNL     1     -10.420   9.734  70.517  1.00  0.00    -0.295 NA 
HETATM   20  C   UNL     1      -9.769   7.298  70.764  1.00  0.00    -0.171 C  
HETATM   21  C   UNL     1     -10.486   8.382  69.953  1.00  0.00    -0.222 C  
HETATM   22  C   UNL     1     -10.129   7.357  72.253  1.00  0.00    -0.196 C  
HETATM   23  C   UNL     1     -10.086   8.780  72.821  1.00  0.00     0.176 C  
HETATM   24  N   UNL     1      -9.350   6.399  73.107  1.00  0.00    -0.135 NA 
HETATM   25  O   UNL     1     -12.590   7.142  71.850  1.00  0.00    -0.323 OA 
HETATM   26  C   UNL     1     -10.843   9.761  71.925  1.00  0.00     0.675 C  
HETATM   27  C   UNL     1     -10.250   5.573  73.901  1.00  0.00    -0.241 C  
HETATM   28  C   UNL     1     -11.566   6.804  72.420  1.00  0.00    -0.245 C  
HETATM   29  N   UNL     1     -11.537   5.821  73.369  1.00  0.00     0.178 NA 
BRANCH  24  30
HETATM   30  C   UNL     1      -7.981   6.288  73.278  1.00  0.00    -0.105 A  
HETATM   31  C   UNL     1      -7.193   7.295  73.847  1.00  0.00    -0.098 A  
HETATM   32  C   UNL     1      -5.794   7.204  73.936  1.00  0.00    -0.057 A  
HETATM   33  C   UNL     1      -5.135   6.073  73.481  1.00  0.00    -0.024 A  
HETATM   34  C   UNL     1      -5.875   5.027  72.957  1.00  0.00    -0.022 A  
HETATM   35  C   UNL     1      -7.273   5.141  72.858  1.00  0.00    -0.089 A  
ENDBRANCH  24  30
ENDBRANCH  18  19
ENDBRANCH  17  18
ENDBRANCH   8  17
TORSDOF 4
ENDMDL
MODEL      259
REMARK 921   NORMALIZED FREE ENERGY PREDICTED BY IDOCK:   37.35 KCAL/MOL
REMARK 922        TOTAL FREE ENERGY PREDICTED BY IDOCK:   44.21 KCAL/MOL
REMARK 923 INTER-LIGAND FREE ENERGY PREDICTED BY IDOCK:   40.57 KCAL/MOL
REMARK 924 INTRA-LIGAND FREE ENERGY PREDICTED BY IDOCK:    3.64 KCAL/MOL
REMARK 927      BINDING AFFINITY PREDICTED BY RF-SCORE:    0.00 PKD
ROOT
HETATM    1  F   UNL     1     -12.101  11.121  64.931  1.00  0.00     0.185 F  
HETATM    2  C   UNL     1     -12.083  12.292  65.580  1.00  0.00    -0.234 A  
HETATM    3  C   UNL     1     -13.217  13.091  65.590  1.00  0.00     0.861 A  
HETATM    4  C   UNL     1     -13.179  14.338  66.220  1.00  0.00     1.095 A  
HETATM    5  C   UNL     1     -12.006  14.792  66.857  1.00  0.00    -0.212 A  
HETATM    6  C   UNL     1     -11.983  16.191  67.495  1.00  0.00     0.780 C  
HETATM    7  C   UNL     1     -10.907  13.916  66.906  1.00  0.00    -0.286 A  
HETATM    8  C   UNL     1     -12.421  16.121  68.989  1.00  0.00     0.750 C  
HETATM    9  C   UNL     1     -10.931  12.690  66.238  1.00  0.00    -0.314 A  
HETATM   10  C   UNL     1     -10.787  17.113  67.192  1.00  0.00    -0.080 A  
HETATM   11  C   UNL     1      -9.714  16.758  66.353  1.00  0.00    -0.309 A  
HETATM   12  C   UNL     1      -9.723  19.308  67.462  1.00  0.00    -0.406 A  
HETATM   13  F   UNL     1      -7.638  19.731  66.445  1.00  0.00    -0.241 F  
HETATM   14  C   UNL     1      -8.644  17.627  66.124  1.00  0.00    -0.154 A  
HETATM   15  C   UNL     1      -8.657  18.896  66.680  1.00  0.00    -0.307 A  
HETATM   16  C   UNL     1     -10.779  18.425  67.713  1.00  0.00    -0.371 A  
ENDROOT
BRANCH   8  17
HETATM   17  C   UNL     1     -11.608  15.229  69.943  1.00  0.00    -0.335 C  
BRANCH  17  18
HETATM   18  C   UNL     1     -12.247  14.909  71.301  1.00  0.00    -0.325 C  
BRANCH  18  19
HETATM   19  N   UNL     1     -12.031  13.541  71.772  1.00  0.00     0.509 NA 
HETATM   20  C   UNL     1     -10.928  12.325  69.843  1.00  0.00     0.365 C  
HETATM   21  C   UNL     1     -12.147  12.490  70.757  1.00  0.00    -0.146 C  
HETATM   22  C   UNL     1      -9.616  12.270  70.635  1.00  0.00     6.743 C  
HETATM   23  C   UNL     1      -9.523  13.355  71.712  1.00  0.00    12.924 C  
HETATM   24  N   UNL     1      -8.386  12.241  69.773  1.00  0.00     1.732 NA 
HETATM   25  O   UNL     1     -10.343  10.336  72.048  1.00  0.00     2.088 OA 
HETATM   26  C   UNL     1     -10.796  13.411  72.559  1.00  0.00     7.547 C  
HETATM   27  C   UNL     1      -7.539  11.111  70.130  1.00  0.00     1.047 C  
HETATM   28  C   UNL     1      -9.531  10.885  71.322  1.00  0.00     5.874 C  
HETATM   29  N   UNL     1      -8.331  10.318  70.992  1.00  0.00     1.089 NA 
BRANCH  24  30
HETATM   30  C   UNL     1      -7.960  13.149  68.821  1.00  0.00     0.050 A  
HETATM   31  C   UNL     1      -8.758  13.576  67.753  1.00  0.00    -0.189 A  
HETATM   32  C   UNL     1      -8.283  14.432  66.745  1.00  0.00     0.080 A  
HETATM   33  C   UNL     1      -6.987  14.920  66.794  1.00  0.00     1.034 A  
HETATM   34  C   UNL     1      -6.175  14.569  67.858  1.00  0.00    -0.167 A  
HETATM   35  C   UNL     1      -6.659  13.697  68.849  1.00  0.00    -0.105 A  
ENDBRANCH  24  30
ENDBRANCH  18  19
ENDBRANCH  17  18
ENDBRANCH   8  17
TORSDOF 4
ENDMDL
MODEL      260
REMARK 921   NORMALIZED FREE ENERGY PREDICTED BY IDOCK:   47.84 KCAL/MOL
REMARK 922        TOTAL FREE ENERGY PREDICTED BY IDOCK:   57.16 KCAL/MOL
REMARK 923 INTER-LIGAND FREE ENERGY PREDICTED BY IDOCK:   29.23 KCAL/MOL
REMARK 924 INTRA-LIGAND FREE ENERGY PREDICTED BY IDOCK:   27.92 KCAL/MOL
REMARK 927      BINDING AFFINITY PREDICTED BY RF-SCORE:    0.00 PKD
ROOT
HETATM    1  F   UNL     1      -7.674  15.447  71.645  1.00  0.00     2.181 F  
HETATM    2  C   UNL     1      -7.876  14.489  70.732  1.00  0.00     2.076 A  
HETATM    3  C   UNL     1      -9.161  14.023  70.496  1.00  0.00     3.351 A  
HETATM    4  C   UNL     1      -9.363  12.985  69.583  1.00  0.00     1.866 A  
HETATM    5  C   UNL     1      -8.280  12.410  68.889  1.00  0.00     0.215 A  
HETATM    6  C   UNL     1      -8.532  11.234  67.930  1.00  0.00    -0.133 C  
HETATM    7  C   UNL     1      -7.005  12.971  69.085  1.00  0.00    -0.020 A  
HETATM    8  C   UNL     1      -8.808  11.750  66.486  1.00  0.00    -0.183 C  
HETATM    9  C   UNL     1      -6.797  13.977  70.030  1.00  0.00     0.124 A  
HETATM   10  C   UNL     1      -7.618   9.998  68.034  1.00  0.00    -0.088 A  
HETATM   11  C   UNL     1      -6.570   9.872  68.964  1.00  0.00    -0.052 A  
HETATM   12  C   UNL     1      -7.083   7.728  67.269  1.00  0.00    -0.086 A  
HETATM   13  F   UNL     1      -5.254   6.577  68.211  1.00  0.00    -0.006 F  
HETATM   14  C   UNL     1      -5.759   8.734  69.005  1.00  0.00    -0.040 A  
HETATM   15  C   UNL     1      -6.023   7.671  68.158  1.00  0.00    -0.039 A  
HETATM   16  C   UNL     1      -7.875   8.881  67.210  1.00  0.00    -0.096 A  
ENDROOT
BRANCH   8  17
HETATM   17  C   UNL     1      -7.727  12.605  65.801  1.00  0.00     2.452 C  
BRANCH  17  18
HETATM   18  C   UNL     1      -7.426  13.972  66.430  1.00  0.00     2.147 C  
BRANCH  18  19
HETATM   19  N   UNL     1      -7.961  14.156  67.779  1.00  0.00    -0.154 NA 
HETATM   20  C   UNL     1      -7.782  16.640  68.245  1.00  0.00    -0.183 C  
HETATM   21  C   UNL     1      -7.332  15.213  68.576  1.00  0.00    -0.119 C  
HETATM   22  C   UNL     1      -9.309  16.759  68.166  1.00  0.00    -0.234 C  
HETATM   23  C   UNL     1      -9.954  15.631  67.355  1.00  0.00    -0.232 C  
HETATM   24  N   UNL     1      -9.791  18.108  67.716  1.00  0.00    -0.298 NA 
HETATM   25  O   UNL     1      -9.676  15.876  70.479  1.00  0.00     0.437 OA 
HETATM   26  C   UNL     1      -9.427  14.261  67.787  1.00  0.00    -0.216 C  
HETATM   27  C   UNL     1     -10.753  18.651  68.666  1.00  0.00     0.298 C  
HETATM   28  C   UNL     1      -9.868  16.710  69.609  1.00  0.00     0.066 C  
HETATM   29  N   UNL     1     -10.672  17.800  69.792  1.00  0.00     0.549 NA 
BRANCH  24  30
HETATM   30  C   UNL     1      -9.516  18.793  66.545  1.00  0.00    -0.338 A  
HETATM   31  C   UNL     1      -9.220  18.158  65.333  1.00  0.00     1.384 A  
HETATM   32  C   UNL     1      -8.858  18.864  64.174  1.00  0.00     9.077 A  
HETATM   33  C   UNL     1      -8.814  20.250  64.184  1.00  0.00     4.628 A  
HETATM   34  C   UNL     1      -9.150  20.926  65.344  1.00  0.00     1.397 A  
HETATM   35  C   UNL     1      -9.491  20.204  66.501  1.00  0.00    -0.497 A  
ENDBRANCH  24  30
ENDBRANCH  18  19
ENDBRANCH  17  18
ENDBRANCH   8  17
TORSDOF 4
ENDMDL
MODEL      261
REMARK 921   NORMALIZED FREE ENERGY PREDICTED BY IDOCK:   58.59 KCAL/MOL
REMARK 922        TOTAL FREE ENERGY PREDICTED BY IDOCK:   70.42 KCAL/MOL
REMARK 923 INTER-LIGAND FREE ENERGY PREDICTED BY IDOCK:   71.45 KCAL/MOL
REMARK 924 INTRA-LIGAND FREE ENERGY PREDICTED BY IDOCK:   -1.03 KCAL/MOL
REMARK 927      BINDING AFFINITY PREDICTED BY RF-SCORE:    0.00 PKD
ROOT
HETATM    1  F   UNL     1     -13.320  12.148  63.488  1.00  0.00    -0.414 F  
HETATM    2  C   UNL     1     -12.283  11.333  63.720  1.00  0.00     0.562 A  
HETATM    3  C   UNL     1     -11.108  11.491  62.999  1.00  0.00     0.018 A  
HETATM    4  C   UNL     1     -10.048  10.604  63.203  1.00  0.00    -0.192 A  
HETATM    5  C   UNL     1     -10.149   9.557  64.141  1.00  0.00     1.385 A  
HETATM    6  C   UNL     1      -8.983   8.568  64.302  1.00  0.00     0.371 C  
HETATM    7  C   UNL     1     -11.320   9.486  64.918  1.00  0.00     5.592 A  
HETATM    8  C   UNL     1      -7.990   9.063  65.397  1.00  0.00    -0.111 C  
HETATM    9  C   UNL     1     -12.396  10.343  64.683  1.00  0.00     5.692 A  
HETATM   10  C   UNL     1      -9.300   7.060  64.321  1.00  0.00     2.078 A  
HETATM   11  C   UNL     1     -10.595   6.528  64.186  1.00  0.00     7.518 A  
HETATM   12  C   UNL     1      -8.466   4.754  64.411  1.00  0.00    -0.134 A  
HETATM   13  F   UNL     1      -9.991   2.956  64.359  1.00  0.00    -0.154 F  
HETATM   14  C   UNL     1     -10.830   5.151  64.226  1.00  0.00     1.763 A  
HETATM   15  C   UNL     1      -9.764   4.274  64.337  1.00  0.00    -0.118 A  
HETATM   16  C   UNL     1      -8.237   6.134  64.400  1.00  0.00    -0.063 A  
ENDROOT
BRANCH   8  17
HETATM   17  C   UNL     1      -8.530   9.287  66.820  1.00  0.00    -0.129 C  
BRANCH  17  18
HETATM   18  C   UNL     1      -7.491   9.381  67.946  1.00  0.00    -0.084 C  
BRANCH  18  19
HETATM   19  N   UNL     1      -7.648  10.536  68.828  1.00  0.00    -0.093 NA 
HETATM   20  C   UNL     1     -10.120  10.641  69.375  1.00  0.00    -0.199 C  
HETATM   21  C   UNL     1      -8.906  11.278  68.692  1.00  0.00    -0.141 C  
HETATM   22  C   UNL     1      -9.814  10.214  70.816  1.00  0.00     0.588 C  
HETATM   23  C   UNL     1      -8.483   9.467  70.947  1.00  0.00    -0.124 C  
HETATM   24  N   UNL     1     -10.934   9.466  71.480  1.00  0.00    -0.372 NA 
HETATM   25  O   UNL     1      -9.083  12.500  71.526  1.00  0.00    13.680 OA 
HETATM   26  C   UNL     1      -7.353  10.210  70.231  1.00  0.00    -0.095 C  
HETATM   27  C   UNL     1     -11.282  10.089  72.750  1.00  0.00     4.075 C  
HETATM   28  C   UNL     1      -9.750  11.491  71.689  1.00  0.00    11.466 C  
HETATM   29  N   UNL     1     -10.594  11.324  72.751  1.00  0.00    11.149 NA 
BRANCH  24  30
HETATM   30  C   UNL     1     -11.556   8.292  71.094  1.00  0.00    -0.279 A  
HETATM   31  C   UNL     1     -12.393   8.196  69.976  1.00  0.00     1.063 A  
HETATM   32  C   UNL     1     -13.087   7.020  69.646  1.00  0.00     3.428 A  
HETATM   33  C   UNL     1     -12.934   5.877  70.416  1.00  0.00     3.725 A  
HETATM   34  C   UNL     1     -12.077   5.906  71.502  1.00  0.00     0.294 A  
HETATM   35  C   UNL     1     -11.405   7.097  71.830  1.00  0.00    -0.294 A  
ENDBRANCH  24  30
ENDBRANCH  18  19
ENDBRANCH  17  18
ENDBRANCH   8  17
TORSDOF 4
ENDMDL
MODEL      262
REMARK 921   NORMALIZED FREE ENERGY PREDICTED BY IDOCK:   62.09 KCAL/MOL
REMARK 922        TOTAL FREE ENERGY PREDICTED BY IDOCK:   74.73 KCAL/MOL
REMARK 923 INTER-LIGAND FREE ENERGY PREDICTED BY IDOCK:   65.53 KCAL/MOL
REMARK 924 INTRA-LIGAND FREE ENERGY PREDICTED BY IDOCK:    9.20 KCAL/MOL
REMARK 927      BINDING AFFINITY PREDICTED BY RF-SCORE:    0.00 PKD
ROOT
HETATM    1  F   UNL     1     -11.168  10.145  65.151  1.00  0.00     0.345 F  
HETATM    2  C   UNL     1     -10.973  11.368  65.662  1.00  0.00    -0.190 A  
HETATM    3  C   UNL     1     -12.046  12.236  65.800  1.00  0.00    -0.287 A  
HETATM    4  C   UNL     1     -11.831  13.530  66.281  1.00  0.00    -0.431 A  
HETATM    5  C   UNL     1     -10.540  13.964  66.639  1.00  0.00    -0.274 A  
HETATM    6  C   UNL     1     -10.331  15.412  67.115  1.00  0.00    -0.271 C  
HETATM    7  C   UNL     1      -9.493  13.027  66.573  1.00  0.00    -0.246 A  
HETATM    8  C   UNL     1     -10.478  15.508  68.663  1.00  0.00    -0.237 C  
HETATM    9  C   UNL     1      -9.699  11.750  66.051  1.00  0.00    -0.254 A  
HETATM   10  C   UNL     1      -9.173  16.223  66.503  1.00  0.00    -0.299 A  
HETATM   11  C   UNL     1      -8.298  15.724  65.521  1.00  0.00     1.817 A  
HETATM   12  C   UNL     1      -7.978  18.361  66.344  1.00  0.00    -0.288 A  
HETATM   13  F   UNL     1      -6.108  18.553  64.920  1.00  0.00    -0.279 F  
HETATM   14  C   UNL     1      -7.252  16.498  65.009  1.00  0.00     5.529 A  
HETATM   15  C   UNL     1      -7.101  17.810  65.424  1.00  0.00     0.517 A  
HETATM   16  C   UNL     1      -9.006  17.574  66.876  1.00  0.00    -0.264 A  
ENDROOT
BRANCH   8  17
HETATM   17  C   UNL     1      -9.540  14.656  69.537  1.00  0.00     0.140 C  
BRANCH  17  18
HETATM   18  C   UNL     1      -9.828  14.637  71.044  1.00  0.00     2.242 C  
BRANCH  18  19
HETATM   19  N   UNL     1      -9.561  13.359  71.702  1.00  0.00    10.104 NA 
HETATM   20  C   UNL     1      -9.241  11.685  69.828  1.00  0.00     1.630 C  
HETATM   21  C   UNL     1     -10.075  12.169  71.018  1.00  0.00     7.347 C  
HETATM   22  C   UNL     1      -7.748  11.599  70.166  1.00  0.00     1.956 C  
HETATM   23  C   UNL     1      -7.232  12.837  70.907  1.00  0.00     3.920 C  
HETATM   24  N   UNL     1      -6.877  11.256  68.992  1.00  0.00    -0.089 NA 
HETATM   25  O   UNL     1      -8.094  10.061  72.110  1.00  0.00     2.065 OA 
HETATM   26  C   UNL     1      -8.146  13.209  72.075  1.00  0.00    13.280 C  
HETATM   27  C   UNL     1      -6.036  10.106  69.298  1.00  0.00    -0.037 C  
HETATM   28  C   UNL     1      -7.533  10.360  71.069  1.00  0.00     1.611 C  
HETATM   29  N   UNL     1      -6.550   9.591  70.510  1.00  0.00    -0.082 NA 
BRANCH  24  30
HETATM   30  C   UNL     1      -6.730  11.916  67.785  1.00  0.00    -0.087 A  
HETATM   31  C   UNL     1      -7.807  12.260  66.960  1.00  0.00    -0.108 A  
HETATM   32  C   UNL     1      -7.638  12.853  65.697  1.00  0.00     3.787 A  
HETATM   33  C   UNL     1      -6.368  13.154  65.230  1.00  0.00     9.607 A  
HETATM   34  C   UNL     1      -5.273  12.881  66.031  1.00  0.00     3.472 A  
HETATM   35  C   UNL     1      -5.459  12.270  67.284  1.00  0.00    -0.113 A  
ENDBRANCH  24  30
ENDBRANCH  18  19
ENDBRANCH  17  18
ENDBRANCH   8  17
TORSDOF 4
ENDMDL
MODEL      263
REMARK 921   NORMALIZED FREE ENERGY PREDICTED BY IDOCK:   63.36 KCAL/MOL
REMARK 922        TOTAL FREE ENERGY PREDICTED BY IDOCK:   76.29 KCAL/MOL
REMARK 923 INTER-LIGAND FREE ENERGY PREDICTED BY IDOCK:   69.60 KCAL/MOL
REMARK 924 INTRA-LIGAND FREE ENERGY PREDICTED BY IDOCK:    6.69 KCAL/MOL
REMARK 927      BINDING AFFINITY PREDICTED BY RF-SCORE:    0.00 PKD
ROOT
HETATM    1  F   UNL     1     -12.328  10.038  69.841  1.00  0.00    -0.188 F  
HETATM    2  C   UNL     1     -12.227   9.161  68.834  1.00  0.00     2.501 A  
HETATM    3  C   UNL     1     -13.377   8.676  68.226  1.00  0.00    14.226 A  
HETATM    4  C   UNL     1     -13.272   7.719  67.213  1.00  0.00    16.386 A  
HETATM    5  C   UNL     1     -12.013   7.246  66.791  1.00  0.00     3.715 A  
HETATM    6  C   UNL     1     -11.937   6.154  65.711  1.00  0.00     3.965 C  
HETATM    7  C   UNL     1     -10.869   7.828  67.366  1.00  0.00    -0.207 A  
HETATM    8  C   UNL     1     -11.851   6.791  64.291  1.00  0.00    14.589 C  
HETATM    9  C   UNL     1     -10.975   8.750  68.408  1.00  0.00     0.101 A  
HETATM   10  C   UNL     1     -11.015   4.945  65.957  1.00  0.00     0.026 A  
HETATM   11  C   UNL     1     -10.244   4.769  67.121  1.00  0.00    -0.181 A  
HETATM   12  C   UNL     1     -10.171   2.773  65.186  1.00  0.00     0.621 A  
HETATM   13  F   UNL     1      -8.594   1.602  66.490  1.00  0.00    -0.084 F  
HETATM   14  C   UNL     1      -9.410   3.660  67.287  1.00  0.00    -0.235 A  
HETATM   15  C   UNL     1      -9.381   2.670  66.319  1.00  0.00     0.022 A  
HETATM   16  C   UNL     1     -10.982   3.899  65.009  1.00  0.00     0.255 A  
ENDROOT
BRANCH   8  17
HETATM   17  C   UNL     1     -10.677   7.740  63.990  1.00  0.00    11.649 C  
BRANCH  17  18
HETATM   18  C   UNL     1     -10.741   9.138  64.619  1.00  0.00     4.659 C  
BRANCH  18  19
HETATM   19  N   UNL     1      -9.497   9.902  64.542  1.00  0.00    -0.291 NA 
HETATM   20  C   UNL     1      -9.246  11.018  66.802  1.00  0.00    -0.174 C  
HETATM   21  C   UNL     1      -9.473  11.160  65.294  1.00  0.00    -0.226 C  
HETATM   22  C   UNL     1      -8.068  10.091  67.124  1.00  0.00    -0.117 C  
HETATM   23  C   UNL     1      -8.091   8.793  66.309  1.00  0.00    -0.107 C  
HETATM   24  N   UNL     1      -7.892   9.818  68.590  1.00  0.00    -0.080 NA 
HETATM   25  O   UNL     1      -6.428  11.408  65.769  1.00  0.00     0.147 OA 
HETATM   26  C   UNL     1      -8.315   9.072  64.822  1.00  0.00    -0.173 C  
HETATM   27  C   UNL     1      -6.529  10.121  69.006  1.00  0.00    -0.044 C  
HETATM   28  C   UNL     1      -6.759  10.851  66.803  1.00  0.00    -0.120 C  
HETATM   29  N   UNL     1      -5.956  10.805  67.909  1.00  0.00    -0.043 NA 
BRANCH  24  30
HETATM   30  C   UNL     1      -8.782   9.266  69.495  1.00  0.00    -0.146 A  
HETATM   31  C   UNL     1      -9.509  10.026  70.419  1.00  0.00     0.062 A  
HETATM   32  C   UNL     1     -10.345   9.445  71.388  1.00  0.00    -0.326 A  
HETATM   33  C   UNL     1     -10.505   8.069  71.441  1.00  0.00    -0.257 A  
HETATM   34  C   UNL     1      -9.848   7.278  70.514  1.00  0.00    -0.183 A  
HETATM   35  C   UNL     1      -9.001   7.874  69.563  1.00  0.00    -0.142 A  
ENDBRANCH  24  30
ENDBRANCH  18  19
ENDBRANCH  17  18
ENDBRANCH   8  17
TORSDOF 4
ENDMDL
MODEL      264
REMARK 921   NORMALIZED FREE ENERGY PREDICTED BY IDOCK:   85.07 KCAL/MOL
REMARK 922        TOTAL FREE ENERGY PREDICTED BY IDOCK:  103.09 KCAL/MOL
REMARK 923 INTER-LIGAND FREE ENERGY PREDICTED BY IDOCK:  103.58 KCAL/MOL
REMARK 924 INTRA-LIGAND FREE ENERGY PREDICTED BY IDOCK:   -0.49 KCAL/MOL
REMARK 927      BINDING AFFINITY PREDICTED BY RF-SCORE:    0.00 PKD
ROOT
HETATM    1  F   UNL     1     -11.165  10.140  65.161  1.00  0.00     0.345 F  
HETATM    2  C   UNL     1     -10.956  11.419  65.495  1.00  0.00    -0.183 A  
HETATM    3  C   UNL     1     -12.028  12.298  65.560  1.00  0.00    -0.387 A  
HETATM    4  C   UNL     1     -11.800  13.645  65.855  1.00  0.00    -0.406 A  
HETATM    5  C   UNL     1     -10.497  14.123  66.098  1.00  0.00    -0.297 A  
HETATM    6  C   UNL     1     -10.277  15.621  66.368  1.00  0.00    -0.300 C  
HETATM    7  C   UNL     1      -9.449  13.185  66.115  1.00  0.00    -0.156 A  
HETATM    8  C   UNL     1     -10.361  15.924  67.894  1.00  0.00    -0.269 C  
HETATM    9  C   UNL     1      -9.669  11.850  65.777  1.00  0.00    -0.258 A  
HETATM   10  C   UNL     1      -9.149  16.343  65.606  1.00  0.00     0.123 A  
HETATM   11  C   UNL     1      -8.312  15.717  64.664  1.00  0.00     7.384 A  
HETATM   12  C   UNL     1      -7.973  18.440  65.114  1.00  0.00     1.842 A  
HETATM   13  F   UNL     1      -6.164  18.440  63.602  1.00  0.00     0.521 F  
HETATM   14  C   UNL     1      -7.292  16.415  64.011  1.00  0.00    14.803 A  
HETATM   15  C   UNL     1      -7.131  17.772  64.241  1.00  0.00     5.895 A  
HETATM   16  C   UNL     1      -8.974  17.732  65.788  1.00  0.00     0.309 A  
ENDROOT
BRANCH   8  17
HETATM   17  C   UNL     1      -9.384  15.196  68.834  1.00  0.00    -0.207 C  
BRANCH  17  18
HETATM   18  C   UNL     1      -7.926  15.677  68.821  1.00  0.00    -0.172 C  
BRANCH  18  19
HETATM   19  N   UNL     1      -7.281  15.712  70.132  1.00  0.00     0.159 NA 
HETATM   20  C   UNL     1      -9.167  15.925  71.811  1.00  0.00     5.867 C  
HETATM   21  C   UNL     1      -7.936  16.547  71.144  1.00  0.00     5.776 C  
HETATM   22  C   UNL     1      -8.906  14.489  72.279  1.00  0.00     7.538 C  
HETATM   23  C   UNL     1      -8.195  13.637  71.222  1.00  0.00     7.461 C  
HETATM   24  N   UNL     1     -10.124  13.794  72.819  1.00  0.00     8.065 NA 
HETATM   25  O   UNL     1      -6.945  15.117  73.700  1.00  0.00     3.630 OA 
HETATM   26  C   UNL     1      -6.982  14.366  70.642  1.00  0.00     0.542 C  
HETATM   27  C   UNL     1      -9.860  13.261  74.148  1.00  0.00    13.929 C  
HETATM   28  C   UNL     1      -8.014  14.552  73.542  1.00  0.00     8.023 C  
HETATM   29  N   UNL     1      -8.622  13.827  74.530  1.00  0.00     7.432 NA 
BRANCH  24  30
HETATM   30  C   UNL     1     -11.338  13.544  72.204  1.00  0.00     3.566 A  
HETATM   31  C   UNL     1     -12.106  14.538  71.586  1.00  0.00    -0.379 A  
HETATM   32  C   UNL     1     -13.377  14.287  71.041  1.00  0.00    -0.326 A  
HETATM   33  C   UNL     1     -13.909  13.007  71.069  1.00  0.00     1.081 A  
HETATM   34  C   UNL     1     -13.166  11.979  71.622  1.00  0.00    -0.361 A  
HETATM   35  C   UNL     1     -11.904  12.252  72.180  1.00  0.00     2.993 A  
ENDBRANCH  24  30
ENDBRANCH  18  19
ENDBRANCH  17  18
ENDBRANCH   8  17
TORSDOF 4
ENDMDL
MODEL      265
REMARK 921   NORMALIZED FREE ENERGY PREDICTED BY IDOCK:   86.03 KCAL/MOL
REMARK 922        TOTAL FREE ENERGY PREDICTED BY IDOCK:  104.27 KCAL/MOL
REMARK 923 INTER-LIGAND FREE ENERGY PREDICTED BY IDOCK:  104.94 KCAL/MOL
REMARK 924 INTRA-LIGAND FREE ENERGY PREDICTED BY IDOCK:   -0.67 KCAL/MOL
REMARK 927      BINDING AFFINITY PREDICTED BY RF-SCORE:    0.00 PKD
ROOT
HETATM    1  F   UNL     1     -12.087   3.480  65.689  1.00  0.00     3.385 F  
HETATM    2  C   UNL     1     -10.908   3.687  66.290  1.00  0.00     2.301 A  
HETATM    3  C   UNL     1      -9.736   3.285  65.665  1.00  0.00     0.033 A  
HETATM    4  C   UNL     1      -8.512   3.451  66.319  1.00  0.00    -0.110 A  
HETATM    5  C   UNL     1      -8.449   4.032  67.600  1.00  0.00    -0.104 A  
HETATM    6  C   UNL     1      -7.090   4.152  68.312  1.00  0.00    -0.055 C  
HETATM    7  C   UNL     1      -9.646   4.512  68.162  1.00  0.00    -0.203 A  
HETATM    8  C   UNL     1      -6.412   5.514  67.977  1.00  0.00    -0.044 C  
HETATM    9  C   UNL     1     -10.873   4.305  67.530  1.00  0.00     1.746 A  
HETATM   10  C   UNL     1      -6.993   3.701  69.782  1.00  0.00    -0.041 A  
HETATM   11  C   UNL     1      -8.072   3.172  70.514  1.00  0.00    -0.058 A  
HETATM   12  C   UNL     1      -5.592   3.333  71.763  1.00  0.00    -0.008 A  
HETATM   13  F   UNL     1      -6.563   2.496  73.743  1.00  0.00    -0.018 F  
HETATM   14  C   UNL     1      -7.933   2.793  71.853  1.00  0.00    -0.054 A  
HETATM   15  C   UNL     1      -6.695   2.875  72.466  1.00  0.00    -0.022 A  
HETATM   16  C   UNL     1      -5.741   3.739  70.433  1.00  0.00    -0.013 A  
ENDROOT
BRANCH   8  17
HETATM   17  C   UNL     1      -7.168   6.808  68.329  1.00  0.00    -0.088 C  
BRANCH  17  18
HETATM   18  C   UNL     1      -8.263   7.255  67.352  1.00  0.00    -0.116 C  
BRANCH  18  19
HETATM   19  N   UNL     1      -8.439   8.703  67.250  1.00  0.00    -0.114 NA 
HETATM   20  C   UNL     1      -9.219   9.127  64.878  1.00  0.00    -0.135 C  
HETATM   21  C   UNL     1      -8.132   9.294  65.944  1.00  0.00    -0.111 C  
HETATM   22  C   UNL     1     -10.609   9.500  65.407  1.00  0.00     1.145 C  
HETATM   23  C   UNL     1     -10.903   8.900  66.786  1.00  0.00     0.080 C  
HETATM   24  N   UNL     1     -11.723   9.227  64.437  1.00  0.00     9.773 NA 
HETATM   25  O   UNL     1      -9.925  11.809  66.091  1.00  0.00    -0.214 OA 
HETATM   26  C   UNL     1      -9.747   9.143  67.757  1.00  0.00    -0.154 C  
HETATM   27  C   UNL     1     -12.528  10.423  64.233  1.00  0.00     5.941 C  
HETATM   28  C   UNL     1     -10.681  11.043  65.515  1.00  0.00    -0.148 C  
HETATM   29  N   UNL     1     -11.792  11.467  64.840  1.00  0.00     0.123 NA 
BRANCH  24  30
HETATM   30  C   UNL     1     -12.094   8.035  63.839  1.00  0.00    23.531 A  
HETATM   31  C   UNL     1     -13.242   7.896  63.050  1.00  0.00    19.220 A  
HETATM   32  C   UNL     1     -13.653   6.661  62.520  1.00  0.00    10.253 A  
HETATM   33  C   UNL     1     -12.899   5.519  62.740  1.00  0.00     7.484 A  
HETATM   34  C   UNL     1     -11.727   5.615  63.470  1.00  0.00     6.319 A  
HETATM   35  C   UNL     1     -11.340   6.855  64.009  1.00  0.00    15.418 A  
ENDBRANCH  24  30
ENDBRANCH  18  19
ENDBRANCH  17  18
ENDBRANCH   8  17
TORSDOF 4
ENDMDL
MODEL      266
REMARK 921   NORMALIZED FREE ENERGY PREDICTED BY IDOCK:   90.52 KCAL/MOL
REMARK 922        TOTAL FREE ENERGY PREDICTED BY IDOCK:  109.81 KCAL/MOL
REMARK 923 INTER-LIGAND FREE ENERGY PREDICTED BY IDOCK:  110.34 KCAL/MOL
REMARK 924 INTRA-LIGAND FREE ENERGY PREDICTED BY IDOCK:   -0.53 KCAL/MOL
REMARK 927      BINDING AFFINITY PREDICTED BY RF-SCORE:    0.00 PKD
ROOT
HETATM    1  F   UNL     1     -11.053  10.732  64.610  1.00  0.00    -0.283 F  
HETATM    2  C   UNL     1     -10.299  11.429  65.469  1.00  0.00    -0.266 A  
HETATM    3  C   UNL     1      -9.083  11.953  65.050  1.00  0.00     0.295 A  
HETATM    4  C   UNL     1      -8.272  12.632  65.963  1.00  0.00     1.023 A  
HETATM    5  C   UNL     1      -8.675  12.803  67.302  1.00  0.00    -0.200 A  
HETATM    6  C   UNL     1      -7.733  13.509  68.292  1.00  0.00    -0.137 C  
HETATM    7  C   UNL     1      -9.952  12.340  67.666  1.00  0.00    -0.199 A  
HETATM    8  C   UNL     1      -8.011  15.043  68.316  1.00  0.00    -0.128 C  
HETATM    9  C   UNL     1     -10.743  11.623  66.767  1.00  0.00    -0.299 A  
HETATM   10  C   UNL     1      -7.490  12.854  69.665  1.00  0.00     0.788 A  
HETATM   11  C   UNL     1      -8.069  11.636  70.067  1.00  0.00     2.027 A  
HETATM   12  C   UNL     1      -6.312  12.893  71.817  1.00  0.00     2.417 A  
HETATM   13  F   UNL     1      -6.709  11.191  73.400  1.00  0.00     3.573 F  
HETATM   14  C   UNL     1      -7.827  11.091  71.331  1.00  0.00     5.950 A  
HETATM   15  C   UNL     1      -6.950  11.724  72.196  1.00  0.00     7.415 A  
HETATM   16  C   UNL     1      -6.578  13.450  70.561  1.00  0.00     0.510 A  
ENDROOT
BRANCH   8  17
HETATM   17  C   UNL     1      -9.425  15.520  68.693  1.00  0.00    -0.204 C  
BRANCH  17  18
HETATM   18  C   UNL     1      -9.596  16.143  70.084  1.00  0.00     0.647 C  
BRANCH  18  19
HETATM   19  N   UNL     1     -10.876  16.814  70.302  1.00  0.00    -0.093 NA 
HETATM   20  C   UNL     1     -10.778  18.932  68.916  1.00  0.00     0.540 C  
HETATM   21  C   UNL     1     -10.838  18.279  70.301  1.00  0.00     2.205 C  
HETATM   22  C   UNL     1     -11.818  18.347  67.955  1.00  0.00     2.436 C  
HETATM   23  C   UNL     1     -11.867  16.815  67.989  1.00  0.00     0.756 C  
HETATM   24  N   UNL     1     -11.708  18.863  66.549  1.00  0.00     1.575 NA 
HETATM   25  O   UNL     1     -13.755  18.862  69.455  1.00  0.00    18.926 OA 
HETATM   26  C   UNL     1     -11.935  16.292  69.425  1.00  0.00     0.075 C  
HETATM   27  C   UNL     1     -12.987  19.392  66.097  1.00  0.00     9.305 C  
HETATM   28  C   UNL     1     -13.208  18.893  68.364  1.00  0.00    10.607 C  
HETATM   29  N   UNL     1     -13.791  19.447  67.259  1.00  0.00     6.628 NA 
BRANCH  24  30
HETATM   30  C   UNL     1     -10.636  18.810  65.676  1.00  0.00    -0.154 A  
HETATM   31  C   UNL     1      -9.345  18.433  66.064  1.00  0.00    -0.012 A  
HETATM   32  C   UNL     1      -8.248  18.466  65.187  1.00  0.00     2.154 A  
HETATM   33  C   UNL     1      -8.419  18.852  63.866  1.00  0.00    10.471 A  
HETATM   34  C   UNL     1      -9.686  19.184  63.420  1.00  0.00    16.572 A  
HETATM   35  C   UNL     1     -10.770  19.164  64.316  1.00  0.00     5.418 A  
ENDBRANCH  24  30
ENDBRANCH  18  19
ENDBRANCH  17  18
ENDBRANCH   8  17
TORSDOF 4
ENDMDL
MODEL      267
REMARK 921   NORMALIZED FREE ENERGY PREDICTED BY IDOCK:   93.40 KCAL/MOL
REMARK 922        TOTAL FREE ENERGY PREDICTED BY IDOCK:  113.36 KCAL/MOL
REMARK 923 INTER-LIGAND FREE ENERGY PREDICTED BY IDOCK:  114.92 KCAL/MOL
REMARK 924 INTRA-LIGAND FREE ENERGY PREDICTED BY IDOCK:   -1.56 KCAL/MOL
REMARK 927      BINDING AFFINITY PREDICTED BY RF-SCORE:    0.00 PKD
ROOT
HETATM    1  F   UNL     1     -13.101  11.099  73.325  1.00  0.00     1.812 F  
HETATM    2  C   UNL     1     -11.868  11.340  72.863  1.00  0.00     6.549 A  
HETATM    3  C   UNL     1     -10.809  10.544  73.279  1.00  0.00    11.056 A  
HETATM    4  C   UNL     1      -9.514  10.832  72.839  1.00  0.00    14.164 A  
HETATM    5  C   UNL     1      -9.268  11.912  71.969  1.00  0.00    18.666 A  
HETATM    6  C   UNL     1      -7.824  12.232  71.547  1.00  0.00    10.832 C  
HETATM    7  C   UNL     1     -10.377  12.638  71.496  1.00  0.00     9.296 A  
HETATM    8  C   UNL     1      -7.452  11.471  70.239  1.00  0.00     1.715 C  
HETATM    9  C   UNL     1     -11.664  12.379  71.970  1.00  0.00     3.175 A  
HETATM   10  C   UNL     1      -7.346  13.694  71.627  1.00  0.00     5.056 A  
HETATM   11  C   UNL     1      -8.147  14.760  72.076  1.00  0.00     5.400 A  
HETATM   12  C   UNL     1      -5.514  15.307  71.373  1.00  0.00     0.067 A  
HETATM   13  F   UNL     1      -5.896  17.591  71.816  1.00  0.00     0.398 F  
HETATM   14  C   UNL     1      -7.669  16.072  72.114  1.00  0.00     8.832 A  
HETATM   15  C   UNL     1      -6.355  16.336  71.763  1.00  0.00     2.732 A  
HETATM   16  C   UNL     1      -6.005  13.999  71.308  1.00  0.00    -0.146 A  
ENDROOT
BRANCH   8  17
HETATM   17  C   UNL     1      -8.306  11.723  68.983  1.00  0.00     0.180 C  
BRANCH  17  18
HETATM   18  C   UNL     1      -7.648  12.524  67.851  1.00  0.00    -0.133 C  
BRANCH  18  19
HETATM   19  N   UNL     1      -8.316  12.413  66.555  1.00  0.00     0.022 NA 
HETATM   20  C   UNL     1     -10.694  13.194  66.948  1.00  0.00    -0.270 C  
HETATM   21  C   UNL     1      -9.736  12.050  66.597  1.00  0.00    -0.208 C  
HETATM   22  C   UNL     1     -10.409  14.458  66.128  1.00  0.00    -0.298 C  
HETATM   23  C   UNL     1      -8.917  14.806  66.069  1.00  0.00     0.073 C  
HETATM   24  N   UNL     1     -11.237  15.644  66.532  1.00  0.00    -0.136 NA 
HETATM   25  O   UNL     1     -10.657  13.300  63.923  1.00  0.00    -0.305 OA 
HETATM   26  C   UNL     1      -8.074  13.585  65.701  1.00  0.00     3.289 C  
HETATM   27  C   UNL     1     -11.925  16.203  65.376  1.00  0.00     1.068 C  
HETATM   28  C   UNL     1     -10.916  14.217  64.686  1.00  0.00    -0.382 C  
HETATM   29  N   UNL     1     -11.747  15.249  64.348  1.00  0.00    -0.353 NA 
BRANCH  24  30
HETATM   30  C   UNL     1     -11.334  16.269  67.762  1.00  0.00    -0.081 A  
HETATM   31  C   UNL     1     -12.398  17.108  68.116  1.00  0.00     2.593 A  
HETATM   32  C   UNL     1     -12.441  17.804  69.336  1.00  0.00     7.597 A  
HETATM   33  C   UNL     1     -11.423  17.655  70.265  1.00  0.00     2.750 A  
HETATM   34  C   UNL     1     -10.375  16.796  69.983  1.00  0.00     0.163 A  
HETATM   35  C   UNL     1     -10.337  16.121  68.750  1.00  0.00    -0.248 A  
ENDBRANCH  24  30
ENDBRANCH  18  19
ENDBRANCH  17  18
ENDBRANCH   8  17
TORSDOF 4
ENDMDL
