MODEL        1
REMARK 921   NORMALIZED FREE ENERGY PREDICTED BY IDOCK:   -7.43 KCAL/MOL
REMARK 922        TOTAL FREE ENERGY PREDICTED BY IDOCK:   -8.90 KCAL/MOL
REMARK 923 INTER-LIGAND FREE ENERGY PREDICTED BY IDOCK:   -9.60 KCAL/MOL
REMARK 924 INTRA-LIGAND FREE ENERGY PREDICTED BY IDOCK:    0.70 KCAL/MOL
REMARK 927      BINDING AFFINITY PREDICTED BY RF-SCORE:    0.00 PKD
ROOT
HETATM    1  C   UNL     1     -11.412  14.865  67.568  1.00  0.00    -0.361 C  
HETATM    2  C   UNL     1     -11.876  15.464  66.366  1.00  0.00     0.323 C  
HETATM    3  C   UNL     1     -10.837  14.406  66.340  1.00  0.00    -0.314 C  
HETATM    4  C   UNL     1     -10.710  14.171  64.638  1.00  0.00    -0.408 C  
HETATM    5  C   UNL     1     -10.740  13.300  68.077  1.00  0.00    -0.240 C  
HETATM    6  C   UNL     1      -6.827  17.123  66.385  1.00  0.00    -0.284 C  
HETATM    7  C   UNL     1      -7.648  16.999  67.735  1.00  0.00    -0.180 C  
HETATM    8  C   UNL     1     -10.864  13.103  66.739  1.00  0.00    -0.289 C  
HETATM    9  C   UNL     1      -6.566  17.030  68.808  1.00  0.00    -0.187 C  
HETATM   10  C   UNL     1      -6.168  18.216  69.338  1.00  0.00    -0.251 C  
HETATM   11  C   UNL     1      -9.014  13.064  66.496  1.00  0.00    -0.076 C  
HETATM   12  O   UNL     1      -6.533  20.581  69.509  1.00  0.00    -0.235 OA 
HETATM   13  C   UNL     1     -11.985  12.177  66.177  1.00  0.00    -0.225 C  
HETATM   14  C   UNL     1      -6.830  19.526  68.967  1.00  0.00    -0.349 C  
HETATM   15  C   UNL     1      -7.841  19.474  67.853  1.00  0.00    -0.330 C  
HETATM   16  C   UNL     1      -8.471  18.288  67.983  1.00  0.00    -0.273 C  
HETATM   17  C   UNL     1      -8.128  14.294  67.282  1.00  0.00    -0.178 C  
HETATM   18  O   UNL     1      -7.667  13.783  68.541  1.00  0.00    -0.131 OA 
HETATM   19  F   UNL     1     -10.123  19.359  69.306  1.00  0.00    -0.460 F  
HETATM   20  C   UNL     1      -8.704  15.842  67.461  1.00  0.00    -0.178 C  
HETATM   21  C   UNL     1      -9.544  18.153  69.046  1.00  0.00    -0.154 C  
HETATM   22  F   UNL     1      -9.087  16.334  66.193  1.00  0.00    -0.279 F  
HETATM   23  C   UNL     1     -10.635  17.215  68.572  1.00  0.00    -0.361 C  
HETATM   24  C   UNL     1     -10.097  15.802  68.300  1.00  0.00    -0.222 C  
HETATM   25  H   UNL     1      -7.175  14.467  68.978  1.00  0.00     0.000 HD 
ENDROOT
BRANCH   5  26
HETATM   26  C   UNL     1     -10.054  11.861  68.495  1.00  0.00    -0.206 C  
HETATM   27  O   UNL     1      -9.013  11.694  69.118  1.00  0.00     0.123 OA 
BRANCH  26  28
HETATM   28  S   UNL     1     -10.877  10.432  67.825  1.00  0.00    -0.311 SA 
HETATM   29  F   UNL     1     -10.574   7.990  68.687  1.00  0.00    -0.217 F  
HETATM   30  C   UNL     1     -10.423   9.262  69.150  1.00  0.00    -0.217 C  
ENDBRANCH  26  28
ENDBRANCH   5  26
BRANCH   5  31
HETATM   31  O   UNL     1     -12.051  13.136  68.883  1.00  0.00    -0.301 OA 
BRANCH  31  32
HETATM   32  C   UNL     1     -12.241  12.884  70.215  1.00  0.00    -0.289 C  
HETATM   33  O   UNL     1     -12.203  11.780  70.727  1.00  0.00    -0.378 OA 
BRANCH  32  34
HETATM   34  C   UNL     1     -12.428  14.105  70.963  1.00  0.00    -0.367 A  
HETATM   35  C   UNL     1     -11.472  15.012  71.396  1.00  0.00    -0.369 A  
HETATM   36  O   UNL     1     -13.669  14.544  71.342  1.00  0.00    -0.375 OA 
HETATM   37  C   UNL     1     -12.157  16.042  72.077  1.00  0.00    -0.606 A  
HETATM   38  C   UNL     1     -13.491  15.710  72.023  1.00  0.00    -0.447 A  
ENDBRANCH  32  34
ENDBRANCH  31  32
ENDBRANCH   5  31
TORSDOF 5
ENDMDL
MODEL        2
REMARK 921   NORMALIZED FREE ENERGY PREDICTED BY IDOCK:   -7.35 KCAL/MOL
REMARK 922        TOTAL FREE ENERGY PREDICTED BY IDOCK:   -8.79 KCAL/MOL
REMARK 923 INTER-LIGAND FREE ENERGY PREDICTED BY IDOCK:   -9.50 KCAL/MOL
REMARK 924 INTRA-LIGAND FREE ENERGY PREDICTED BY IDOCK:    0.71 KCAL/MOL
REMARK 927      BINDING AFFINITY PREDICTED BY RF-SCORE:    0.00 PKD
ROOT
HETATM    1  C   UNL     1     -11.253  13.748  67.515  1.00  0.00    -0.316 C  
HETATM    2  C   UNL     1     -11.924  13.320  68.692  1.00  0.00    -0.345 C  
HETATM    3  C   UNL     1     -10.766  14.244  68.766  1.00  0.00    -0.262 C  
HETATM    4  C   UNL     1     -10.802  14.615  70.449  1.00  0.00     0.056 C  
HETATM    5  C   UNL     1     -10.331  15.169  66.976  1.00  0.00    -0.271 C  
HETATM    6  C   UNL     1      -7.162  11.073  69.419  1.00  0.00    -0.114 C  
HETATM    7  C   UNL     1      -7.803  11.173  67.973  1.00  0.00    -0.114 C  
HETATM    8  C   UNL     1     -10.579  15.499  68.269  1.00  0.00    -0.255 C  
HETATM    9  C   UNL     1      -6.621  10.916  67.047  1.00  0.00    -0.090 C  
HETATM   10  C   UNL     1      -6.322   9.648  66.661  1.00  0.00    -0.066 C  
HETATM   11  C   UNL     1      -8.779  15.338  68.734  1.00  0.00    -0.195 C  
HETATM   12  O   UNL     1      -6.969   7.338  66.625  1.00  0.00    -0.069 OA 
HETATM   13  C   UNL     1     -11.627  16.600  68.618  1.00  0.00     0.081 C  
HETATM   14  C   UNL     1      -7.186   8.465  67.045  1.00  0.00    -0.080 C  
HETATM   15  C   UNL     1      -8.301   8.738  68.019  1.00  0.00    -0.119 C  
HETATM   16  C   UNL     1      -8.753   9.975  67.723  1.00  0.00    -0.125 C  
HETATM   17  C   UNL     1      -7.976  13.946  68.158  1.00  0.00    -0.148 C  
HETATM   18  O   UNL     1      -7.315  14.282  66.931  1.00  0.00    -0.317 OA 
HETATM   19  F   UNL     1     -10.370   8.994  66.291  1.00  0.00    -0.357 F  
HETATM   20  C   UNL     1      -8.725  12.468  68.027  1.00  0.00    -0.186 C  
HETATM   21  C   UNL     1      -9.673  10.140  66.529  1.00  0.00    -0.200 C  
HETATM   22  F   UNL     1      -9.309  12.141  69.272  1.00  0.00     0.160 F  
HETATM   23  C   UNL     1     -10.679  11.241  66.794  1.00  0.00    -0.323 C  
HETATM   24  C   UNL     1      -9.997  12.599  67.023  1.00  0.00    -0.220 C  
HETATM   25  H   UNL     1      -6.869  13.508  66.611  1.00  0.00     0.000 HD 
ENDROOT
BRANCH   5  26
HETATM   26  C   UNL     1      -9.422  16.472  66.539  1.00  0.00    -0.273 C  
HETATM   27  O   UNL     1      -8.486  16.487  65.749  1.00  0.00    -0.394 OA 
BRANCH  26  28
HETATM   28  S   UNL     1      -9.789  17.961  67.442  1.00  0.00    -0.317 SA 
HETATM   29  F   UNL     1     -10.431  20.247  66.362  1.00  0.00    -0.524 F  
HETATM   30  C   UNL     1     -10.455  18.923  66.041  1.00  0.00    -0.446 C  
ENDBRANCH  26  28
ENDBRANCH   5  26
BRANCH   5  31
HETATM   31  O   UNL     1     -11.511  15.416  66.005  1.00  0.00    -0.180 OA 
BRANCH  31  32
HETATM   32  C   UNL     1     -11.545  15.400  64.636  1.00  0.00    -0.311 C  
HETATM   33  O   UNL     1     -11.481  16.387  63.927  1.00  0.00    -1.063 OA 
BRANCH  32  34
HETATM   34  C   UNL     1     -11.596  14.050  64.125  1.00  0.00    -0.266 A  
HETATM   35  C   UNL     1     -10.548  13.187  63.847  1.00  0.00    -0.195 A  
HETATM   36  O   UNL     1     -12.782  13.421  63.850  1.00  0.00    -0.670 OA 
HETATM   37  C   UNL     1     -11.115  11.984  63.374  1.00  0.00    -0.476 A  
HETATM   38  C   UNL     1     -12.477  12.177  63.388  1.00  0.00    -0.512 A  
ENDBRANCH  32  34
ENDBRANCH  31  32
ENDBRANCH   5  31
TORSDOF 5
ENDMDL
MODEL        3
REMARK 921   NORMALIZED FREE ENERGY PREDICTED BY IDOCK:   -7.08 KCAL/MOL
REMARK 922        TOTAL FREE ENERGY PREDICTED BY IDOCK:   -8.44 KCAL/MOL
REMARK 923 INTER-LIGAND FREE ENERGY PREDICTED BY IDOCK:   -9.29 KCAL/MOL
REMARK 924 INTRA-LIGAND FREE ENERGY PREDICTED BY IDOCK:    0.84 KCAL/MOL
REMARK 927      BINDING AFFINITY PREDICTED BY RF-SCORE:    0.00 PKD
ROOT
HETATM    1  C   UNL     1      -9.371  14.761  68.929  1.00  0.00    -0.184 C  
HETATM    2  C   UNL     1      -9.940  15.122  70.179  1.00  0.00     0.025 C  
HETATM    3  C   UNL     1     -10.720  15.240  68.924  1.00  0.00    -0.245 C  
HETATM    4  C   UNL     1     -12.258  15.659  69.580  1.00  0.00    -0.231 C  
HETATM    5  C   UNL     1      -9.939  14.147  67.360  1.00  0.00    -0.240 C  
HETATM    6  C   UNL     1      -9.819  19.857  67.769  1.00  0.00    -0.530 C  
HETATM    7  C   UNL     1      -8.656  18.803  67.550  1.00  0.00    -0.292 C  
HETATM    8  C   UNL     1     -11.117  14.304  68.016  1.00  0.00    -0.286 C  
HETATM    9  C   UNL     1      -7.941  19.320  66.309  1.00  0.00    -0.319 C  
HETATM   10  C   UNL     1      -6.913  20.199  66.432  1.00  0.00    -0.273 C  
HETATM   11  C   UNL     1     -11.637  15.708  66.902  1.00  0.00     0.193 C  
HETATM   12  O   UNL     1      -5.395  21.346  67.895  1.00  0.00    -0.276 OA 
HETATM   13  C   UNL     1     -11.910  13.062  68.527  1.00  0.00    -0.360 C  
HETATM   14  C   UNL     1      -6.376  20.625  67.783  1.00  0.00    -0.297 C  
HETATM   15  C   UNL     1      -7.148  20.157  68.988  1.00  0.00    -0.162 C  
HETATM   16  C   UNL     1      -7.601  18.925  68.679  1.00  0.00    -0.366 C  
HETATM   17  C   UNL     1     -10.456  16.902  66.599  1.00  0.00    -0.257 C  
HETATM   18  O   UNL     1      -9.791  16.577  65.370  1.00  0.00    -0.530 OA 
HETATM   19  F   UNL     1      -5.659  18.005  69.682  1.00  0.00    -0.180 F  
HETATM   20  C   UNL     1      -9.353  17.386  67.744  1.00  0.00    -0.255 C  
HETATM   21  C   UNL     1      -6.637  17.758  68.767  1.00  0.00    -0.227 C  
HETATM   22  F   UNL     1     -10.048  17.760  68.916  1.00  0.00    -0.321 F  
HETATM   23  C   UNL     1      -7.369  16.507  69.206  1.00  0.00    -0.201 C  
HETATM   24  C   UNL     1      -8.467  16.104  68.210  1.00  0.00    -0.180 C  
HETATM   25  H   UNL     1      -9.134  17.241  65.202  1.00  0.00     0.000 HD 
ENDROOT
BRANCH   5  26
HETATM   26  C   UNL     1     -10.513  13.646  65.899  1.00  0.00    -0.296 C  
HETATM   27  O   UNL     1     -10.181  14.060  64.795  1.00  0.00    -0.416 OA 
BRANCH  26  28
HETATM   28  S   UNL     1     -11.855  12.481  65.995  1.00  0.00    -0.386 SA 
HETATM   29  F   UNL     1     -13.378  11.783  63.997  1.00  0.00    -0.474 F  
HETATM   30  C   UNL     1     -12.135  12.301  64.201  1.00  0.00    -0.436 C  
ENDBRANCH  26  28
ENDBRANCH   5  26
BRANCH   5  31
HETATM   31  O   UNL     1      -9.162  12.857  67.719  1.00  0.00    -0.184 OA 
BRANCH  31  32
HETATM   32  C   UNL     1      -8.081  12.280  67.109  1.00  0.00    -0.173 C  
HETATM   33  O   UNL     1      -6.964  12.762  67.072  1.00  0.00    -0.052 OA 
BRANCH  32  34
HETATM   34  C   UNL     1      -8.410  10.983  66.567  1.00  0.00    -0.163 A  
HETATM   35  C   UNL     1      -8.522   9.769  67.228  1.00  0.00    -0.125 A  
HETATM   36  O   UNL     1      -8.682  10.798  65.237  1.00  0.00    -0.189 OA 
HETATM   37  C   UNL     1      -8.869   8.801  66.261  1.00  0.00    -0.187 A  
HETATM   38  C   UNL     1      -8.949   9.473  65.064  1.00  0.00    -0.213 A  
ENDBRANCH  32  34
ENDBRANCH  31  32
ENDBRANCH   5  31
TORSDOF 5
ENDMDL
MODEL        4
REMARK 921   NORMALIZED FREE ENERGY PREDICTED BY IDOCK:   -7.01 KCAL/MOL
REMARK 922        TOTAL FREE ENERGY PREDICTED BY IDOCK:   -8.36 KCAL/MOL
REMARK 923 INTER-LIGAND FREE ENERGY PREDICTED BY IDOCK:   -9.01 KCAL/MOL
REMARK 924 INTRA-LIGAND FREE ENERGY PREDICTED BY IDOCK:    0.66 KCAL/MOL
REMARK 927      BINDING AFFINITY PREDICTED BY RF-SCORE:    0.00 PKD
ROOT
HETATM    1  C   UNL     1      -8.251   8.977  66.647  1.00  0.00    -0.118 C  
HETATM    2  C   UNL     1      -7.087   9.402  65.952  1.00  0.00    -0.091 C  
HETATM    3  C   UNL     1      -7.280   9.724  67.387  1.00  0.00    -0.086 C  
HETATM    4  C   UNL     1      -5.745  10.428  67.731  1.00  0.00    -0.044 C  
HETATM    5  C   UNL     1      -8.699   8.551  68.314  1.00  0.00    -0.143 C  
HETATM    6  C   UNL     1      -9.339  14.095  67.030  1.00  0.00    -0.253 C  
HETATM    7  C   UNL     1     -10.224  12.831  66.667  1.00  0.00    -0.246 C  
HETATM    8  C   UNL     1      -7.404   8.925  68.483  1.00  0.00    -0.081 C  
HETATM    9  C   UNL     1     -11.619  13.235  67.129  1.00  0.00    -0.402 C  
HETATM   10  C   UNL     1     -12.459  13.877  66.278  1.00  0.00    -0.454 C  
HETATM   11  C   UNL     1      -7.890  10.445  69.449  1.00  0.00    -0.163 C  
HETATM   12  O   UNL     1     -12.885  14.631  64.040  1.00  0.00    -0.690 OA 
HETATM   13  C   UNL     1      -6.301   7.855  68.752  1.00  0.00    -0.044 C  
HETATM   14  C   UNL     1     -12.096  14.133  64.830  1.00  0.00    -0.441 C  
HETATM   15  C   UNL     1     -10.688  13.792  64.422  1.00  0.00    -0.333 C  
HETATM   16  C   UNL     1     -10.356  12.692  65.129  1.00  0.00    -0.312 C  
HETATM   17  C   UNL     1      -9.158  11.380  68.791  1.00  0.00    -0.089 C  
HETATM   18  O   UNL     1     -10.387  10.969  69.405  1.00  0.00    -0.356 OA 
HETATM   19  F   UNL     1     -11.105  11.354  63.319  1.00  0.00    -0.448 F  
HETATM   20  C   UNL     1      -9.367  11.583  67.155  1.00  0.00    -0.172 C  
HETATM   21  C   UNL     1     -10.882  11.348  64.663  1.00  0.00    -0.292 C  
HETATM   22  F   UNL     1      -8.156  12.050  66.595  1.00  0.00    -0.169 F  
HETATM   23  C   UNL     1      -9.869  10.260  64.954  1.00  0.00    -0.404 C  
HETATM   24  C   UNL     1      -9.583  10.130  66.457  1.00  0.00    -0.236 C  
HETATM   25  H   UNL     1     -11.092  11.488  69.039  1.00  0.00     0.000 HD 
ENDROOT
BRANCH   5  26
HETATM   26  C   UNL     1      -9.091   8.233  69.882  1.00  0.00    -0.147 C  
HETATM   27  O   UNL     1      -8.339   7.836  70.764  1.00  0.00    -0.113 OA 
BRANCH  26  28
HETATM   28  S   UNL     1     -10.828   8.361  70.248  1.00  0.00    -0.230 SA 
HETATM   29  F   UNL     1     -11.854   8.405  72.645  1.00  0.00    -0.432 F  
HETATM   30  C   UNL     1     -10.665   8.677  72.038  1.00  0.00    -0.357 C  
ENDBRANCH  26  28
ENDBRANCH   5  26
BRANCH   5  31
HETATM   31  O   UNL     1      -8.895   7.117  67.766  1.00  0.00    -0.125 OA 
BRANCH  31  32
HETATM   32  C   UNL     1     -10.023   6.343  67.704  1.00  0.00    -0.126 C  
HETATM   33  O   UNL     1     -11.073   6.685  67.193  1.00  0.00    -0.392 OA 
BRANCH  32  34
HETATM   34  C   UNL     1      -9.795   5.031  68.262  1.00  0.00    -0.150 A  
HETATM   35  C   UNL     1      -9.760   4.649  69.595  1.00  0.00    -0.283 A  
HETATM   36  O   UNL     1      -9.587   3.930  67.473  1.00  0.00    -0.190 OA 
HETATM   37  C   UNL     1      -9.510   3.260  69.622  1.00  0.00    -0.209 A  
HETATM   38  C   UNL     1      -9.407   2.869  68.307  1.00  0.00    -0.195 A  
ENDBRANCH  32  34
ENDBRANCH  31  32
ENDBRANCH   5  31
TORSDOF 5
ENDMDL
MODEL        5
REMARK 921   NORMALIZED FREE ENERGY PREDICTED BY IDOCK:   -6.93 KCAL/MOL
REMARK 922        TOTAL FREE ENERGY PREDICTED BY IDOCK:   -8.26 KCAL/MOL
REMARK 923 INTER-LIGAND FREE ENERGY PREDICTED BY IDOCK:   -8.88 KCAL/MOL
REMARK 924 INTRA-LIGAND FREE ENERGY PREDICTED BY IDOCK:    0.62 KCAL/MOL
REMARK 927      BINDING AFFINITY PREDICTED BY RF-SCORE:    0.00 PKD
ROOT
HETATM    1  C   UNL     1      -8.430   8.857  66.686  1.00  0.00    -0.122 C  
HETATM    2  C   UNL     1      -7.273   9.177  65.926  1.00  0.00    -0.093 C  
HETATM    3  C   UNL     1      -7.371   9.545  67.359  1.00  0.00    -0.087 C  
HETATM    4  C   UNL     1      -5.773  10.139  67.612  1.00  0.00    -0.045 C  
HETATM    5  C   UNL     1      -8.827   8.504  68.382  1.00  0.00    -0.139 C  
HETATM    6  C   UNL     1      -9.115  14.049  66.982  1.00  0.00    -0.256 C  
HETATM    7  C   UNL     1     -10.108  12.848  66.695  1.00  0.00    -0.247 C  
HETATM    8  C   UNL     1      -7.501   8.783  68.481  1.00  0.00    -0.089 C  
HETATM    9  C   UNL     1     -11.445  13.366  67.211  1.00  0.00    -0.374 C  
HETATM   10  C   UNL     1     -12.275  14.050  66.383  1.00  0.00    -0.492 C  
HETATM   11  C   UNL     1      -7.825  10.358  69.428  1.00  0.00    -0.163 C  
HETATM   12  O   UNL     1     -12.753  14.782  64.148  1.00  0.00    -0.758 OA 
HETATM   13  C   UNL     1      -6.469   7.640  68.727  1.00  0.00    -0.048 C  
HETATM   14  C   UNL     1     -11.965  14.245  64.913  1.00  0.00    -0.425 C  
HETATM   15  C   UNL     1     -10.608  13.789  64.449  1.00  0.00    -0.316 C  
HETATM   16  C   UNL     1     -10.325  12.683  65.169  1.00  0.00    -0.312 C  
HETATM   17  C   UNL     1      -9.051  11.370  68.804  1.00  0.00    -0.089 C  
HETATM   18  O   UNL     1     -10.275  11.067  69.486  1.00  0.00    -0.418 OA 
HETATM   19  F   UNL     1     -11.259  11.365  63.433  1.00  0.00    -0.463 F  
HETATM   20  C   UNL     1      -9.324  11.550  67.175  1.00  0.00    -0.172 C  
HETATM   21  C   UNL     1     -10.972  11.373  64.764  1.00  0.00    -0.234 C  
HETATM   22  F   UNL     1      -8.110  11.911  66.547  1.00  0.00    -0.166 F  
HETATM   23  C   UNL     1     -10.029  10.219  65.036  1.00  0.00    -0.393 C  
HETATM   24  C   UNL     1      -9.681  10.102  66.528  1.00  0.00    -0.252 C  
HETATM   25  H   UNL     1     -10.957  11.630  69.140  1.00  0.00     0.000 HD 
ENDROOT
BRANCH   5  26
HETATM   26  C   UNL     1      -9.164   8.254  69.976  1.00  0.00    -0.151 C  
HETATM   27  O   UNL     1      -8.365   7.990  70.866  1.00  0.00    -0.112 OA 
BRANCH  26  28
HETATM   28  S   UNL     1     -10.900   8.236  70.367  1.00  0.00    -0.234 SA 
HETATM   29  F   UNL     1     -11.894   8.365  72.774  1.00  0.00    -0.452 F  
HETATM   30  C   UNL     1     -10.746   8.705  72.123  1.00  0.00    -0.347 C  
ENDBRANCH  26  28
ENDBRANCH   5  26
BRANCH   5  31
HETATM   31  O   UNL     1      -9.155   7.077  67.884  1.00  0.00    -0.128 OA 
BRANCH  31  32
HETATM   32  C   UNL     1     -10.209   6.625  67.135  1.00  0.00    -0.213 C  
HETATM   33  O   UNL     1     -11.337   7.080  67.175  1.00  0.00    -0.240 OA 
BRANCH  32  34
HETATM   34  C   UNL     1      -9.802   5.575  66.230  1.00  0.00    -0.145 A  
HETATM   35  C   UNL     1      -8.522   5.215  65.838  1.00  0.00    -0.121 A  
HETATM   36  O   UNL     1     -10.709   4.745  65.624  1.00  0.00    -0.274 OA 
HETATM   37  C   UNL     1      -8.651   4.127  64.948  1.00  0.00    -0.118 A  
HETATM   38  C   UNL     1     -10.000   3.880  64.845  1.00  0.00    -0.196 A  
ENDBRANCH  32  34
ENDBRANCH  31  32
ENDBRANCH   5  31
TORSDOF 5
ENDMDL
MODEL        6
REMARK 921   NORMALIZED FREE ENERGY PREDICTED BY IDOCK:   -6.90 KCAL/MOL
REMARK 922        TOTAL FREE ENERGY PREDICTED BY IDOCK:   -8.21 KCAL/MOL
REMARK 923 INTER-LIGAND FREE ENERGY PREDICTED BY IDOCK:   -9.14 KCAL/MOL
REMARK 924 INTRA-LIGAND FREE ENERGY PREDICTED BY IDOCK:    0.92 KCAL/MOL
REMARK 927      BINDING AFFINITY PREDICTED BY RF-SCORE:    0.00 PKD
ROOT
HETATM    1  C   UNL     1     -11.327  12.007  67.672  1.00  0.00    -0.375 C  
HETATM    2  C   UNL     1     -11.907  12.179  66.387  1.00  0.00    -0.321 C  
HETATM    3  C   UNL     1     -10.490  11.765  66.536  1.00  0.00    -0.265 C  
HETATM    4  C   UNL     1     -10.107  11.453  64.885  1.00  0.00    -0.323 C  
HETATM    5  C   UNL     1     -10.038  11.028  68.407  1.00  0.00    -0.184 C  
HETATM    6  C   UNL     1      -8.298  16.082  66.353  1.00  0.00    -0.344 C  
HETATM    7  C   UNL     1      -9.082  15.709  67.679  1.00  0.00    -0.193 C  
HETATM    8  C   UNL     1      -9.926  10.662  67.104  1.00  0.00    -0.234 C  
HETATM    9  C   UNL     1      -8.254  16.371  68.774  1.00  0.00    -0.234 C  
HETATM   10  C   UNL     1      -8.525  17.646  69.154  1.00  0.00     0.110 C  
HETATM   11  C   UNL     1      -8.271  11.506  66.930  1.00  0.00    -0.167 C  
HETATM   12  O   UNL     1      -9.993  19.537  68.997  1.00  0.00    -0.442 OA 
HETATM   13  C   UNL     1     -10.408   9.256  66.633  1.00  0.00    -0.292 C  
HETATM   14  C   UNL     1      -9.696  18.423  68.591  1.00  0.00    -0.361 C  
HETATM   15  C   UNL     1     -10.449  17.773  67.460  1.00  0.00    -0.376 C  
HETATM   16  C   UNL     1     -10.442  16.450  67.726  1.00  0.00    -0.300 C  
HETATM   17  C   UNL     1      -8.161  13.083  67.575  1.00  0.00    -0.181 C  
HETATM   18  O   UNL     1      -7.633  12.991  68.905  1.00  0.00    -0.275 OA 
HETATM   19  F   UNL     1     -12.520  16.706  68.839  1.00  0.00     0.260 F  
HETATM   20  C   UNL     1      -9.423  14.163  67.527  1.00  0.00    -0.210 C  
HETATM   21  C   UNL     1     -11.413  15.917  68.761  1.00  0.00    -0.393 C  
HETATM   22  F   UNL     1      -9.874  14.276  66.192  1.00  0.00    -0.274 F  
HETATM   23  C   UNL     1     -11.870  14.524  68.380  1.00  0.00    -0.351 C  
HETATM   24  C   UNL     1     -10.698  13.533  68.316  1.00  0.00    -0.271 C  
HETATM   25  H   UNL     1      -7.571  13.868  69.263  1.00  0.00     0.000 HD 
ENDROOT
BRANCH   5  26
HETATM   26  C   UNL     1      -8.789  10.155  69.035  1.00  0.00    -0.166 C  
HETATM   27  O   UNL     1      -7.972  10.532  69.867  1.00  0.00    -0.092 OA 
BRANCH  26  28
HETATM   28  S   UNL     1      -8.562   8.555  68.292  1.00  0.00    -0.139 SA 
HETATM   29  F   UNL     1      -6.309   7.652  67.339  1.00  0.00    -0.046 F  
HETATM   30  C   UNL     1      -6.738   8.581  68.239  1.00  0.00    -0.065 C  
ENDBRANCH  26  28
ENDBRANCH   5  26
BRANCH   5  31
HETATM   31  O   UNL     1     -11.179  10.326  69.184  1.00  0.00    -0.228 OA 
BRANCH  31  32
HETATM   32  C   UNL     1     -11.592  10.486  70.479  1.00  0.00    -0.350 C  
HETATM   33  O   UNL     1     -12.054  11.513  70.940  1.00  0.00    -0.349 OA 
BRANCH  32  34
HETATM   34  C   UNL     1     -11.476   9.255  71.226  1.00  0.00    -0.347 A  
HETATM   35  C   UNL     1     -10.439   8.828  72.040  1.00  0.00    -0.414 A  
HETATM   36  O   UNL     1     -12.465   8.306  71.220  1.00  0.00    -0.303 OA 
HETATM   37  C   UNL     1     -10.803   7.562  72.547  1.00  0.00    -0.349 A  
HETATM   38  C   UNL     1     -12.041   7.284  72.016  1.00  0.00    -0.290 A  
ENDBRANCH  32  34
ENDBRANCH  31  32
ENDBRANCH   5  31
TORSDOF 5
ENDMDL
MODEL        7
REMARK 921   NORMALIZED FREE ENERGY PREDICTED BY IDOCK:   -6.86 KCAL/MOL
REMARK 922        TOTAL FREE ENERGY PREDICTED BY IDOCK:   -8.16 KCAL/MOL
REMARK 923 INTER-LIGAND FREE ENERGY PREDICTED BY IDOCK:   -8.88 KCAL/MOL
REMARK 924 INTRA-LIGAND FREE ENERGY PREDICTED BY IDOCK:    0.71 KCAL/MOL
REMARK 927      BINDING AFFINITY PREDICTED BY RF-SCORE:    0.00 PKD
ROOT
HETATM    1  C   UNL     1      -8.376   8.765  66.973  1.00  0.00    -0.103 C  
HETATM    2  C   UNL     1      -7.106   9.278  66.599  1.00  0.00    -0.082 C  
HETATM    3  C   UNL     1      -7.676   9.555  67.940  1.00  0.00    -0.087 C  
HETATM    4  C   UNL     1      -6.329  10.346  68.667  1.00  0.00    -0.051 C  
HETATM    5  C   UNL     1      -9.203   8.274  68.469  1.00  0.00    -0.136 C  
HETATM    6  C   UNL     1      -9.864  13.794  67.096  1.00  0.00    -0.242 C  
HETATM    7  C   UNL     1     -10.542  12.486  66.513  1.00  0.00    -0.265 C  
HETATM    8  C   UNL     1      -8.021   8.725  68.964  1.00  0.00    -0.111 C  
HETATM    9  C   UNL     1     -12.032  12.790  66.608  1.00  0.00    -0.411 C  
HETATM   10  C   UNL     1     -12.670  13.397  65.574  1.00  0.00    -0.469 C  
HETATM   11  C   UNL     1      -8.836  10.190  69.784  1.00  0.00    -0.152 C  
HETATM   12  O   UNL     1     -12.565  14.173  63.306  1.00  0.00    -0.766 OA 
HETATM   13  C   UNL     1      -6.954   7.721  69.499  1.00  0.00    -0.058 C  
HETATM   14  C   UNL     1     -11.970  13.708  64.267  1.00  0.00    -0.445 C  
HETATM   15  C   UNL     1     -10.485  13.465  64.229  1.00  0.00    -0.325 C  
HETATM   16  C   UNL     1     -10.271  12.372  64.991  1.00  0.00    -0.306 C  
HETATM   17  C   UNL     1      -9.955  11.057  68.830  1.00  0.00    -0.207 C  
HETATM   18  O   UNL     1     -11.269  10.556  69.109  1.00  0.00    -0.228 OA 
HETATM   19  F   UNL     1     -10.446  11.032  63.043  1.00  0.00    -0.368 F  
HETATM   20  C   UNL     1      -9.756  11.283  67.195  1.00  0.00    -0.181 C  
HETATM   21  C   UNL     1     -10.571  11.009  64.399  1.00  0.00    -0.325 C  
HETATM   22  F   UNL     1      -8.477  11.838  66.965  1.00  0.00    -0.148 F  
HETATM   23  C   UNL     1      -9.595   9.981  64.931  1.00  0.00    -0.375 C  
HETATM   24  C   UNL     1      -9.691   9.835  66.458  1.00  0.00    -0.267 C  
HETATM   25  H   UNL     1     -11.891  11.038  68.578  1.00  0.00     0.000 HD 
ENDROOT
BRANCH   5  26
HETATM   26  C   UNL     1      -9.957   7.897  69.885  1.00  0.00    -0.192 C  
HETATM   27  O   UNL     1     -11.142   8.053  70.152  1.00  0.00    -0.251 OA 
BRANCH  26  28
HETATM   28  S   UNL     1      -8.865   7.340  71.175  1.00  0.00    -0.140 SA 
HETATM   29  F   UNL     1      -8.977   8.106  73.665  1.00  0.00    -0.294 F  
HETATM   30  C   UNL     1      -9.801   8.029  72.582  1.00  0.00    -0.279 C  
ENDBRANCH  26  28
ENDBRANCH   5  26
BRANCH   5  31
HETATM   31  O   UNL     1      -9.158   6.843  67.882  1.00  0.00    -0.124 OA 
BRANCH  31  32
HETATM   32  C   UNL     1     -10.175   5.965  67.620  1.00  0.00    -0.187 C  
HETATM   33  O   UNL     1     -11.240   6.265  67.113  1.00  0.00    -0.334 OA 
BRANCH  32  34
HETATM   34  C   UNL     1      -9.804   4.611  67.958  1.00  0.00    -0.113 A  
HETATM   35  C   UNL     1      -9.611   4.051  69.212  1.00  0.00    -0.247 A  
HETATM   36  O   UNL     1      -9.600   3.652  67.000  1.00  0.00    -0.209 OA 
HETATM   37  C   UNL     1      -9.266   2.697  69.013  1.00  0.00    -0.216 A  
HETATM   38  C   UNL     1      -9.267   2.502  67.651  1.00  0.00    -0.184 A  
ENDBRANCH  32  34
ENDBRANCH  31  32
ENDBRANCH   5  31
TORSDOF 5
ENDMDL
MODEL        8
REMARK 921   NORMALIZED FREE ENERGY PREDICTED BY IDOCK:   -6.85 KCAL/MOL
REMARK 922        TOTAL FREE ENERGY PREDICTED BY IDOCK:   -8.15 KCAL/MOL
REMARK 923 INTER-LIGAND FREE ENERGY PREDICTED BY IDOCK:   -8.80 KCAL/MOL
REMARK 924 INTRA-LIGAND FREE ENERGY PREDICTED BY IDOCK:    0.64 KCAL/MOL
REMARK 927      BINDING AFFINITY PREDICTED BY RF-SCORE:    0.00 PKD
ROOT
HETATM    1  C   UNL     1     -10.798  11.105  68.089  1.00  0.00    -0.266 C  
HETATM    2  C   UNL     1     -11.910  11.145  67.207  1.00  0.00     0.263 C  
HETATM    3  C   UNL     1     -10.699  11.960  66.945  1.00  0.00    -0.285 C  
HETATM    4  C   UNL     1     -11.101  12.581  65.388  1.00  0.00    -0.337 C  
HETATM    5  C   UNL     1      -9.037  11.328  67.989  1.00  0.00    -0.156 C  
HETATM    6  C   UNL     1     -11.976  16.122  69.069  1.00  0.00    -0.060 C  
HETATM    7  C   UNL     1     -11.581  14.908  70.007  1.00  0.00    -0.331 C  
HETATM    8  C   UNL     1      -9.404  11.605  66.711  1.00  0.00    -0.193 C  
HETATM    9  C   UNL     1     -10.904  15.584  71.192  1.00  0.00    -0.147 C  
HETATM   10  C   UNL     1     -11.640  15.974  72.265  1.00  0.00    -0.474 C  
HETATM   11  C   UNL     1      -8.952  13.406  66.890  1.00  0.00    -0.216 C  
HETATM   12  O   UNL     1     -13.766  15.948  73.378  1.00  0.00    -0.459 OA 
HETATM   13  C   UNL     1      -9.108  10.589  65.565  1.00  0.00    -0.214 C  
HETATM   14  C   UNL     1     -13.121  15.677  72.375  1.00  0.00    -0.460 C  
HETATM   15  C   UNL     1     -13.776  15.076  71.161  1.00  0.00    -0.484 C  
HETATM   16  C   UNL     1     -12.853  14.260  70.611  1.00  0.00    -0.378 C  
HETATM   17  C   UNL     1      -9.496  14.179  68.312  1.00  0.00    -0.211 C  
HETATM   18  O   UNL     1      -8.441  14.131  69.282  1.00  0.00    -0.352 OA 
HETATM   19  F   UNL     1     -13.753  12.463  71.871  1.00  0.00    -0.450 F  
HETATM   20  C   UNL     1     -10.955  13.825  69.025  1.00  0.00    -0.243 C  
HETATM   21  C   UNL     1     -12.627  12.898  71.239  1.00  0.00    -0.256 C  
HETATM   22  F   UNL     1     -11.976  13.945  68.055  1.00  0.00    -0.355 F  
HETATM   23  C   UNL     1     -12.279  11.882  70.172  1.00  0.00    -0.319 C  
HETATM   24  C   UNL     1     -10.986  12.250  69.429  1.00  0.00    -0.092 C  
HETATM   25  H   UNL     1      -8.743  14.561  70.073  1.00  0.00     0.000 HD 
ENDROOT
BRANCH   5  26
HETATM   26  C   UNL     1      -7.418  11.613  67.867  1.00  0.00    -0.105 C  
HETATM   27  O   UNL     1      -6.764  11.717  66.836  1.00  0.00    -0.140 OA 
BRANCH  26  28
HETATM   28  S   UNL     1      -6.553  11.621  69.422  1.00  0.00    -0.103 SA 
HETATM   29  F   UNL     1      -5.134   9.643  70.356  1.00  0.00    -0.027 F  
HETATM   30  C   UNL     1      -5.580  10.101  69.153  1.00  0.00    -0.038 C  
ENDBRANCH  26  28
ENDBRANCH   5  26
BRANCH   5  31
HETATM   31  O   UNL     1      -8.948   9.821  68.327  1.00  0.00    -0.119 OA 
BRANCH  31  32
HETATM   32  C   UNL     1      -9.202   9.164  69.501  1.00  0.00    -0.159 C  
HETATM   33  O   UNL     1      -8.912   9.580  70.608  1.00  0.00    -0.241 OA 
BRANCH  32  34
HETATM   34  C   UNL     1      -9.927   7.936  69.273  1.00  0.00    -0.190 A  
HETATM   35  C   UNL     1     -10.076   7.222  68.094  1.00  0.00    -0.201 A  
HETATM   36  O   UNL     1     -10.587   7.283  70.281  1.00  0.00    -0.218 OA 
HETATM   37  C   UNL     1     -10.867   6.091  68.390  1.00  0.00    -0.361 A  
HETATM   38  C   UNL     1     -11.159   6.175  69.732  1.00  0.00    -0.416 A  
ENDBRANCH  32  34
ENDBRANCH  31  32
ENDBRANCH   5  31
TORSDOF 5
ENDMDL
MODEL        9
REMARK 921   NORMALIZED FREE ENERGY PREDICTED BY IDOCK:   -6.81 KCAL/MOL
REMARK 922        TOTAL FREE ENERGY PREDICTED BY IDOCK:   -8.10 KCAL/MOL
REMARK 923 INTER-LIGAND FREE ENERGY PREDICTED BY IDOCK:   -8.84 KCAL/MOL
REMARK 924 INTRA-LIGAND FREE ENERGY PREDICTED BY IDOCK:    0.73 KCAL/MOL
REMARK 927      BINDING AFFINITY PREDICTED BY RF-SCORE:    0.00 PKD
ROOT
HETATM    1  C   UNL     1      -9.466  14.011  65.720  1.00  0.00    -0.043 C  
HETATM    2  C   UNL     1     -10.214  13.515  64.620  1.00  0.00    -0.341 C  
HETATM    3  C   UNL     1     -10.888  14.161  65.772  1.00  0.00    -0.297 C  
HETATM    4  C   UNL     1     -12.502  14.214  65.169  1.00  0.00    -0.453 C  
HETATM    5  C   UNL     1      -9.623  15.296  66.939  1.00  0.00    -0.233 C  
HETATM    6  C   UNL     1     -11.901  10.272  68.479  1.00  0.00     0.227 C  
HETATM    7  C   UNL     1     -10.394  10.763  68.428  1.00  0.00    -0.199 C  
HETATM    8  C   UNL     1     -10.802  15.423  66.278  1.00  0.00    -0.301 C  
HETATM    9  C   UNL     1      -9.876  10.452  69.827  1.00  0.00    -0.134 C  
HETATM   10  C   UNL     1      -9.314   9.244  70.091  1.00  0.00    -0.258 C  
HETATM   11  C   UNL     1     -11.780  14.825  67.750  1.00  0.00    -0.368 C  
HETATM   12  O   UNL     1      -8.506   7.155  69.229  1.00  0.00    -0.131 OA 
HETATM   13  C   UNL     1     -11.043  16.627  65.316  1.00  0.00    -0.036 C  
HETATM   14  C   UNL     1      -9.092   8.206  69.011  1.00  0.00    -0.148 C  
HETATM   15  C   UNL     1      -9.679   8.510  67.659  1.00  0.00    -0.201 C  
HETATM   16  C   UNL     1      -9.562   9.844  67.498  1.00  0.00    -0.183 C  
HETATM   17  C   UNL     1     -11.180  13.432  68.534  1.00  0.00    -0.283 C  
HETATM   18  O   UNL     1     -10.361  13.851  69.633  1.00  0.00    -0.403 OA 
HETATM   19  F   UNL     1      -7.484   9.487  66.411  1.00  0.00    -0.092 F  
HETATM   20  C   UNL     1     -10.455  12.182  67.713  1.00  0.00    -0.205 C  
HETATM   21  C   UNL     1      -8.210  10.408  67.105  1.00  0.00    -0.122 C  
HETATM   22  F   UNL     1     -11.319  11.754  66.680  1.00  0.00    -0.331 F  
HETATM   23  C   UNL     1      -8.387  11.618  66.212  1.00  0.00    -0.027 C  
HETATM   24  C   UNL     1      -9.151  12.747  66.921  1.00  0.00    -0.221 C  
HETATM   25  H   UNL     1     -10.027  13.077  70.069  1.00  0.00     0.000 HD 
ENDROOT
BRANCH   5  26
HETATM   26  C   UNL     1      -9.841  16.450  68.095  1.00  0.00    -0.238 C  
HETATM   27  O   UNL     1      -9.595  16.352  69.291  1.00  0.00    -0.249 OA 
BRANCH  26  28
HETATM   28  S   UNL     1     -10.652  17.926  67.518  1.00  0.00    -0.329 SA 
HETATM   29  F   UNL     1     -10.624  20.227  68.745  1.00  0.00    -0.519 F  
HETATM   30  C   UNL     1      -9.876  19.089  68.690  1.00  0.00    -0.413 C  
ENDBRANCH  26  28
ENDBRANCH   5  26
BRANCH   5  31
HETATM   31  O   UNL     1      -8.409  15.947  66.235  1.00  0.00    -0.299 OA 
BRANCH  31  32
HETATM   32  C   UNL     1      -7.211  16.367  66.750  1.00  0.00    -0.210 C  
HETATM   33  O   UNL     1      -6.350  15.631  67.195  1.00  0.00    -0.308 OA 
BRANCH  32  34
HETATM   34  C   UNL     1      -7.061  17.799  66.638  1.00  0.00    -0.222 A  
HETATM   35  C   UNL     1      -6.467  18.681  67.527  1.00  0.00    -0.197 A  
HETATM   36  O   UNL     1      -7.512  18.495  65.547  1.00  0.00    -0.516 OA 
HETATM   37  C   UNL     1      -6.567  19.971  66.962  1.00  0.00    -0.237 A  
HETATM   38  C   UNL     1      -7.216  19.807  65.760  1.00  0.00    -0.318 A  
ENDBRANCH  32  34
ENDBRANCH  31  32
ENDBRANCH   5  31
TORSDOF 5
ENDMDL
MODEL       10
REMARK 921   NORMALIZED FREE ENERGY PREDICTED BY IDOCK:   -6.77 KCAL/MOL
REMARK 922        TOTAL FREE ENERGY PREDICTED BY IDOCK:   -8.04 KCAL/MOL
REMARK 923 INTER-LIGAND FREE ENERGY PREDICTED BY IDOCK:   -8.59 KCAL/MOL
REMARK 924 INTRA-LIGAND FREE ENERGY PREDICTED BY IDOCK:    0.55 KCAL/MOL
REMARK 927      BINDING AFFINITY PREDICTED BY RF-SCORE:    0.00 PKD
ROOT
HETATM    1  C   UNL     1      -8.569  12.594  67.379  1.00  0.00    -0.189 C  
HETATM    2  C   UNL     1      -8.332  11.822  66.210  1.00  0.00     0.024 C  
HETATM    3  C   UNL     1      -9.712  12.178  66.624  1.00  0.00    -0.228 C  
HETATM    4  C   UNL     1     -10.582  11.586  65.259  1.00  0.00    -0.339 C  
HETATM    5  C   UNL     1      -9.794  13.740  67.967  1.00  0.00    -0.239 C  
HETATM    6  C   UNL     1     -10.879   8.259  69.221  1.00  0.00    -0.063 C  
HETATM    7  C   UNL     1      -9.869   9.296  69.866  1.00  0.00    -0.219 C  
HETATM    8  C   UNL     1     -10.328  13.384  66.770  1.00  0.00    -0.263 C  
HETATM    9  C   UNL     1     -10.208   9.240  71.350  1.00  0.00    -0.371 C  
HETATM   10  C   UNL     1      -9.575   8.352  72.160  1.00  0.00    -0.367 C  
HETATM   11  C   UNL     1     -11.745  12.482  67.583  1.00  0.00    -0.423 C  
HETATM   12  O   UNL     1      -7.828   6.727  72.406  1.00  0.00    -0.094 OA 
HETATM   13  C   UNL     1     -10.309  14.379  65.569  1.00  0.00    -0.382 C  
HETATM   14  C   UNL     1      -8.458   7.461  71.659  1.00  0.00    -0.115 C  
HETATM   15  C   UNL     1      -8.196   7.484  70.177  1.00  0.00    -0.132 C  
HETATM   16  C   UNL     1      -8.419   8.756  69.784  1.00  0.00    -0.129 C  
HETATM   17  C   UNL     1     -11.332  11.450  68.878  1.00  0.00    -0.270 C  
HETATM   18  O   UNL     1     -11.492  12.177  70.104  1.00  0.00    -0.514 OA 
HETATM   19  F   UNL     1      -6.114   9.214  70.104  1.00  0.00    -0.032 F  
HETATM   20  C   UNL     1      -9.926  10.565  68.909  1.00  0.00    -0.204 C  
HETATM   21  C   UNL     1      -7.346   9.793  70.052  1.00  0.00    -0.144 C  
HETATM   22  F   UNL     1      -9.836   9.813  67.716  1.00  0.00    -0.162 F  
HETATM   23  C   UNL     1      -7.322  10.820  68.939  1.00  0.00    -0.104 C  
HETATM   24  C   UNL     1      -8.655  11.576  68.828  1.00  0.00    -0.055 C  
HETATM   25  H   UNL     1     -11.262  11.603  70.824  1.00  0.00     0.000 HD 
ENDROOT
BRANCH   5  26
HETATM   26  C   UNL     1     -10.988  14.742  68.503  1.00  0.00    -0.258 C  
HETATM   27  O   UNL     1     -11.820  15.328  67.821  1.00  0.00    -0.287 OA 
BRANCH  26  28
HETATM   28  S   UNL     1     -10.933  15.085  70.248  1.00  0.00    -0.167 SA 
HETATM   29  F   UNL     1     -12.896  16.092  71.638  1.00  0.00    -0.499 F  
HETATM   30  C   UNL     1     -12.715  15.402  70.478  1.00  0.00    -0.405 C  
ENDBRANCH  26  28
ENDBRANCH   5  26
BRANCH   5  31
HETATM   31  O   UNL     1      -8.668  14.798  67.888  1.00  0.00    -0.158 OA 
BRANCH  31  32
HETATM   32  C   UNL     1      -8.002  15.453  68.889  1.00  0.00    -0.177 C  
HETATM   33  O   UNL     1      -7.421  14.909  69.810  1.00  0.00    -0.172 OA 
BRANCH  32  34
HETATM   34  C   UNL     1      -8.012  16.883  68.683  1.00  0.00    -0.256 A  
HETATM   35  C   UNL     1      -8.938  17.654  67.998  1.00  0.00    -0.264 A  
HETATM   36  O   UNL     1      -7.036  17.698  69.194  1.00  0.00    -0.251 OA 
HETATM   37  C   UNL     1      -8.506  18.996  68.086  1.00  0.00    -0.351 A  
HETATM   38  C   UNL     1      -7.342  18.971  68.818  1.00  0.00    -0.331 A  
ENDBRANCH  32  34
ENDBRANCH  31  32
ENDBRANCH   5  31
TORSDOF 5
ENDMDL
MODEL       11
REMARK 921   NORMALIZED FREE ENERGY PREDICTED BY IDOCK:   -6.75 KCAL/MOL
REMARK 922        TOTAL FREE ENERGY PREDICTED BY IDOCK:   -8.02 KCAL/MOL
REMARK 923 INTER-LIGAND FREE ENERGY PREDICTED BY IDOCK:   -8.21 KCAL/MOL
REMARK 924 INTRA-LIGAND FREE ENERGY PREDICTED BY IDOCK:    0.20 KCAL/MOL
REMARK 927      BINDING AFFINITY PREDICTED BY RF-SCORE:    0.00 PKD
ROOT
HETATM    1  C   UNL     1      -9.676  13.532  66.141  1.00  0.00    -0.264 C  
HETATM    2  C   UNL     1     -10.399  12.985  65.047  1.00  0.00    -0.336 C  
HETATM    3  C   UNL     1     -11.079  13.809  66.075  1.00  0.00    -0.291 C  
HETATM    4  C   UNL     1     -12.640  13.936  65.355  1.00  0.00    -0.538 C  
HETATM    5  C   UNL     1      -9.787  14.951  67.206  1.00  0.00    -0.229 C  
HETATM    6  C   UNL     1     -12.619  10.345  69.091  1.00  0.00     0.795 C  
HETATM    7  C   UNL     1     -11.073  10.693  69.097  1.00  0.00    -0.309 C  
HETATM    8  C   UNL     1     -10.906  15.107  66.452  1.00  0.00    -0.326 C  
HETATM    9  C   UNL     1     -10.673  10.494  70.554  1.00  0.00     0.045 C  
HETATM   10  C   UNL     1     -10.245   9.278  70.982  1.00  0.00    -0.384 C  
HETATM   11  C   UNL     1     -12.025  14.762  67.904  1.00  0.00    -0.260 C  
HETATM   12  O   UNL     1      -9.586   7.045  70.401  1.00  0.00    -0.169 OA 
HETATM   13  C   UNL     1     -10.972  16.214  65.355  1.00  0.00    -0.235 C  
HETATM   14  C   UNL     1     -10.056   8.112  70.034  1.00  0.00    -0.196 C  
HETATM   15  C   UNL     1     -10.527   8.316  68.619  1.00  0.00    -0.199 C  
HETATM   16  C   UNL     1     -10.274   9.609  68.329  1.00  0.00    -0.216 C  
HETATM   17  C   UNL     1     -11.608  13.416  68.869  1.00  0.00    -0.314 C  
HETATM   18  O   UNL     1     -10.822  13.880  69.975  1.00  0.00    -0.436 OA 
HETATM   19  F   UNL     1      -8.177   8.955  67.437  1.00  0.00    -0.105 F  
HETATM   20  C   UNL     1     -10.955  12.025  68.236  1.00  0.00    -0.234 C  
HETATM   21  C   UNL     1      -8.854  10.006  67.978  1.00  0.00    -0.125 C  
HETATM   22  F   UNL     1     -11.790  11.563  67.194  1.00  0.00    -0.340 F  
HETATM   23  C   UNL     1      -8.861  11.122  66.954  1.00  0.00    -0.157 C  
HETATM   24  C   UNL     1      -9.557  12.384  67.485  1.00  0.00    -0.185 C  
HETATM   25  H   UNL     1     -10.591  13.132  70.511  1.00  0.00     0.000 HD 
ENDROOT
BRANCH   5  26
HETATM   26  C   UNL     1      -9.966  16.240  68.217  1.00  0.00    -0.236 C  
HETATM   27  O   UNL     1      -9.852  16.241  69.436  1.00  0.00    -0.252 OA 
BRANCH  26  28
HETATM   28  S   UNL     1     -10.520  17.730  67.418  1.00  0.00    -0.340 SA 
HETATM   29  F   UNL     1     -10.474  20.108  68.488  1.00  0.00    -0.546 F  
HETATM   30  C   UNL     1      -9.842  18.910  68.633  1.00  0.00    -0.407 C  
ENDBRANCH  26  28
ENDBRANCH   5  26
BRANCH   5  31
HETATM   31  O   UNL     1      -8.475  15.413  66.526  1.00  0.00    -0.274 OA 
BRANCH  31  32
HETATM   32  C   UNL     1      -7.270  15.757  67.078  1.00  0.00    -0.173 C  
HETATM   33  O   UNL     1      -6.745  16.850  66.975  1.00  0.00    -0.166 OA 
BRANCH  32  34
HETATM   34  C   UNL     1      -6.721  14.677  67.864  1.00  0.00    -0.162 A  
HETATM   35  C   UNL     1      -6.787  14.480  69.234  1.00  0.00    -0.134 A  
HETATM   36  O   UNL     1      -6.033  13.639  67.293  1.00  0.00    -0.332 OA 
HETATM   37  C   UNL     1      -6.103  13.278  69.515  1.00  0.00    -0.112 A  
HETATM   38  C   UNL     1      -5.657  12.805  68.302  1.00  0.00    -0.070 A  
ENDBRANCH  32  34
ENDBRANCH  31  32
ENDBRANCH   5  31
TORSDOF 5
ENDMDL
MODEL       12
REMARK 921   NORMALIZED FREE ENERGY PREDICTED BY IDOCK:   -6.60 KCAL/MOL
REMARK 922        TOTAL FREE ENERGY PREDICTED BY IDOCK:   -7.83 KCAL/MOL
REMARK 923 INTER-LIGAND FREE ENERGY PREDICTED BY IDOCK:   -8.70 KCAL/MOL
REMARK 924 INTRA-LIGAND FREE ENERGY PREDICTED BY IDOCK:    0.86 KCAL/MOL
REMARK 927      BINDING AFFINITY PREDICTED BY RF-SCORE:    0.00 PKD
ROOT
HETATM    1  C   UNL     1      -8.485   8.647  66.921  1.00  0.00    -0.113 C  
HETATM    2  C   UNL     1      -7.204   9.170  66.598  1.00  0.00    -0.085 C  
HETATM    3  C   UNL     1      -7.795   9.373  67.943  1.00  0.00    -0.091 C  
HETATM    4  C   UNL     1      -6.454  10.109  68.738  1.00  0.00    -0.052 C  
HETATM    5  C   UNL     1      -9.340   8.077  68.371  1.00  0.00    -0.138 C  
HETATM    6  C   UNL     1      -9.935  13.673  67.312  1.00  0.00    -0.240 C  
HETATM    7  C   UNL     1     -10.613  12.407  66.642  1.00  0.00    -0.256 C  
HETATM    8  C   UNL     1      -8.164   8.488  68.911  1.00  0.00    -0.117 C  
HETATM    9  C   UNL     1     -12.102  12.719  66.730  1.00  0.00    -0.290 C  
HETATM   10  C   UNL     1     -12.717  13.391  65.723  1.00  0.00    -0.383 C  
HETATM   11  C   UNL     1      -8.981   9.910  69.801  1.00  0.00    -0.242 C  
HETATM   12  O   UNL     1     -12.567  14.296  63.506  1.00  0.00    -0.814 OA 
HETATM   13  C   UNL     1      -7.114   7.445  69.404  1.00  0.00    -0.070 C  
HETATM   14  C   UNL     1     -11.992  13.771  64.448  1.00  0.00    -0.445 C  
HETATM   15  C   UNL     1     -10.509  13.518  64.421  1.00  0.00    -0.366 C  
HETATM   16  C   UNL     1     -10.317  12.380  65.121  1.00  0.00    -0.313 C  
HETATM   17  C   UNL     1     -10.077  10.841  68.881  1.00  0.00    -0.205 C  
HETATM   18  O   UNL     1     -11.400  10.336  69.109  1.00  0.00    -0.305 OA 
HETATM   19  F   UNL     1     -10.469  11.157  63.095  1.00  0.00    -0.372 F  
HETATM   20  C   UNL     1      -9.848  11.160  67.266  1.00  0.00    -0.175 C  
HETATM   21  C   UNL     1     -10.617  11.057  64.445  1.00  0.00    -0.325 C  
HETATM   22  F   UNL     1      -8.561  11.716  67.090  1.00  0.00    -0.141 F  
HETATM   23  C   UNL     1      -9.659   9.991  64.933  1.00  0.00    -0.375 C  
HETATM   24  C   UNL     1      -9.782   9.757  66.447  1.00  0.00    -0.275 C  
HETATM   25  H   UNL     1     -12.009  10.854  68.597  1.00  0.00     0.000 HD 
ENDROOT
BRANCH   5  26
HETATM   26  C   UNL     1     -10.122   7.625  69.750  1.00  0.00    -0.196 C  
HETATM   27  O   UNL     1     -11.163   8.093  70.194  1.00  0.00    -0.232 OA 
BRANCH  26  28
HETATM   28  S   UNL     1      -9.248   6.426  70.732  1.00  0.00    -0.158 SA 
HETATM   29  F   UNL     1     -10.310   4.286  71.777  1.00  0.00    -0.250 F  
HETATM   30  C   UNL     1     -10.550   5.148  70.749  1.00  0.00    -0.135 C  
ENDBRANCH  26  28
ENDBRANCH   5  26
BRANCH   5  31
HETATM   31  O   UNL     1      -9.297   6.682  67.702  1.00  0.00    -0.121 OA 
BRANCH  31  32
HETATM   32  C   UNL     1     -10.297   5.954  67.115  1.00  0.00    -0.233 C  
HETATM   33  O   UNL     1     -11.410   6.377  66.864  1.00  0.00    -0.304 OA 
BRANCH  32  34
HETATM   34  C   UNL     1      -9.847   4.629  66.761  1.00  0.00    -0.218 A  
HETATM   35  C   UNL     1      -9.498   3.578  67.596  1.00  0.00    -0.233 A  
HETATM   36  O   UNL     1      -9.718   4.228  65.456  1.00  0.00    -0.173 OA 
HETATM   37  C   UNL     1      -9.133   2.494  66.769  1.00  0.00    -0.133 A  
HETATM   38  C   UNL     1      -9.277   2.939  65.475  1.00  0.00    -0.123 A  
ENDBRANCH  32  34
ENDBRANCH  31  32
ENDBRANCH   5  31
TORSDOF 5
ENDMDL
MODEL       13
REMARK 921   NORMALIZED FREE ENERGY PREDICTED BY IDOCK:   -6.45 KCAL/MOL
REMARK 922        TOTAL FREE ENERGY PREDICTED BY IDOCK:   -7.63 KCAL/MOL
REMARK 923 INTER-LIGAND FREE ENERGY PREDICTED BY IDOCK:   -8.44 KCAL/MOL
REMARK 924 INTRA-LIGAND FREE ENERGY PREDICTED BY IDOCK:    0.81 KCAL/MOL
REMARK 927      BINDING AFFINITY PREDICTED BY RF-SCORE:    0.00 PKD
ROOT
HETATM    1  C   UNL     1      -8.582  11.993  67.464  1.00  0.00    -0.167 C  
HETATM    2  C   UNL     1      -8.150  11.138  66.416  1.00  0.00    -0.159 C  
HETATM    3  C   UNL     1      -9.590  11.280  66.741  1.00  0.00    -0.214 C  
HETATM    4  C   UNL     1     -10.267  10.368  65.444  1.00  0.00    -0.329 C  
HETATM    5  C   UNL     1     -10.024  12.956  67.860  1.00  0.00    -0.233 C  
HETATM    6  C   UNL     1     -10.161   7.573  69.807  1.00  0.00    -0.194 C  
HETATM    7  C   UNL     1      -9.390   8.853  70.334  1.00  0.00    -0.223 C  
HETATM    8  C   UNL     1     -10.422  12.359  66.707  1.00  0.00    -0.242 C  
HETATM    9  C   UNL     1      -9.790   8.924  71.803  1.00  0.00    -0.386 C  
HETATM   10  C   UNL     1      -9.049   8.279  72.741  1.00  0.00    -0.332 C  
HETATM   11  C   UNL     1     -11.692  11.319  67.594  1.00  0.00    -0.215 C  
HETATM   12  O   UNL     1      -7.051   7.052  73.251  1.00  0.00    -0.074 OA 
HETATM   13  C   UNL     1     -10.521  13.179  65.384  1.00  0.00    -0.307 C  
HETATM   14  C   UNL     1      -7.764   7.556  72.395  1.00  0.00    -0.094 C  
HETATM   15  C   UNL     1      -7.435   7.439  70.931  1.00  0.00    -0.074 C  
HETATM   16  C   UNL     1      -7.864   8.587  70.365  1.00  0.00    -0.089 C  
HETATM   17  C   UNL     1     -11.166  10.553  69.027  1.00  0.00    -0.259 C  
HETATM   18  O   UNL     1     -11.518  11.388  70.139  1.00  0.00    -0.425 OA 
HETATM   19  F   UNL     1      -5.700   9.503  70.684  1.00  0.00    -0.038 F  
HETATM   20  C   UNL     1      -9.626   9.958  69.214  1.00  0.00    -0.205 C  
HETATM   21  C   UNL     1      -7.012   9.831  70.521  1.00  0.00    -0.126 C  
HETATM   22  F   UNL     1      -9.340   9.090  68.136  1.00  0.00    -0.139 F  
HETATM   23  C   UNL     1      -7.117  10.695  69.282  1.00  0.00    -0.107 C  
HETATM   24  C   UNL     1      -8.557  11.170  69.033  1.00  0.00    -0.033 C  
HETATM   25  H   UNL     1     -11.226  10.963  70.936  1.00  0.00     0.000 HD 
ENDROOT
BRANCH   5  26
HETATM   26  C   UNL     1     -11.405  13.777  68.223  1.00  0.00    -0.285 C  
HETATM   27  O   UNL     1     -12.165  14.326  67.435  1.00  0.00    -0.378 OA 
BRANCH  26  28
HETATM   28  S   UNL     1     -11.705  13.979  69.966  1.00  0.00    -0.259 SA 
HETATM   29  F   UNL     1     -12.328  16.229  71.127  1.00  0.00    -0.431 F  
HETATM   30  C   UNL     1     -12.395  15.666  69.888  1.00  0.00    -0.234 C  
ENDBRANCH  26  28
ENDBRANCH   5  26
BRANCH   5  31
HETATM   31  O   UNL     1      -9.106  14.187  67.670  1.00  0.00    -0.180 OA 
BRANCH  31  32
HETATM   32  C   UNL     1      -8.964  15.309  68.443  1.00  0.00    -0.184 C  
HETATM   33  O   UNL     1      -8.457  15.332  69.548  1.00  0.00    -0.247 OA 
BRANCH  32  34
HETATM   34  C   UNL     1      -9.433  16.488  67.753  1.00  0.00    -0.222 A  
HETATM   35  C   UNL     1      -9.552  16.705  66.389  1.00  0.00    -0.308 A  
HETATM   36  O   UNL     1      -9.857  17.604  68.425  1.00  0.00    -0.298 OA 
HETATM   37  C   UNL     1     -10.061  18.011  66.219  1.00  0.00    -0.363 A  
HETATM   38  C   UNL     1     -10.226  18.520  67.487  1.00  0.00    -0.385 A  
ENDBRANCH  32  34
ENDBRANCH  31  32
ENDBRANCH   5  31
TORSDOF 5
ENDMDL
MODEL       14
REMARK 921   NORMALIZED FREE ENERGY PREDICTED BY IDOCK:   -6.35 KCAL/MOL
REMARK 922        TOTAL FREE ENERGY PREDICTED BY IDOCK:   -7.50 KCAL/MOL
REMARK 923 INTER-LIGAND FREE ENERGY PREDICTED BY IDOCK:   -8.27 KCAL/MOL
REMARK 924 INTRA-LIGAND FREE ENERGY PREDICTED BY IDOCK:    0.76 KCAL/MOL
REMARK 927      BINDING AFFINITY PREDICTED BY RF-SCORE:    0.00 PKD
ROOT
HETATM    1  C   UNL     1      -9.540  13.132  65.708  1.00  0.00    -0.075 C  
HETATM    2  C   UNL     1      -9.975  12.398  64.571  1.00  0.00    -0.202 C  
HETATM    3  C   UNL     1     -10.942  12.863  65.595  1.00  0.00    -0.297 C  
HETATM    4  C   UNL     1     -12.416  12.422  64.819  1.00  0.00    -0.480 C  
HETATM    5  C   UNL     1     -10.206  14.360  66.807  1.00  0.00    -0.270 C  
HETATM    6  C   UNL     1     -11.135   8.953  68.449  1.00  0.00     0.207 C  
HETATM    7  C   UNL     1      -9.836   9.857  68.525  1.00  0.00    -0.168 C  
HETATM    8  C   UNL     1     -11.281  14.114  66.015  1.00  0.00    -0.319 C  
HETATM    9  C   UNL     1      -9.428   9.763  69.990  1.00  0.00    -0.278 C  
HETATM   10  C   UNL     1      -8.583   8.782  70.400  1.00  0.00    -0.176 C  
HETATM   11  C   UNL     1     -12.224  13.313  67.412  1.00  0.00    -0.236 C  
HETATM   12  O   UNL     1      -7.114   6.987  69.782  1.00  0.00    -0.063 OA 
HETATM   13  C   UNL     1     -11.733  15.159  64.949  1.00  0.00    -0.290 C  
HETATM   14  C   UNL     1      -7.943   7.813  69.427  1.00  0.00    -0.124 C  
HETATM   15  C   UNL     1      -8.420   7.882  68.001  1.00  0.00    -0.123 C  
HETATM   16  C   UNL     1      -8.668   9.186  67.759  1.00  0.00    -0.121 C  
HETATM   17  C   UNL     1     -11.354  12.185  68.354  1.00  0.00    -0.286 C  
HETATM   18  O   UNL     1     -10.830  12.865  69.502  1.00  0.00    -0.442 OA 
HETATM   19  F   UNL     1      -6.456   9.408  66.930  1.00  0.00    -0.063 F  
HETATM   20  C   UNL     1     -10.208  11.170  67.708  1.00  0.00    -0.180 C  
HETATM   21  C   UNL     1      -7.494  10.103  67.474  1.00  0.00    -0.090 C  
HETATM   22  F   UNL     1     -10.779  10.471  66.621  1.00  0.00    -0.291 F  
HETATM   23  C   UNL     1      -7.896  11.175  66.483  1.00  0.00    -0.151 C  
HETATM   24  C   UNL     1      -9.031  12.059  67.023  1.00  0.00    -0.198 C  
HETATM   25  H   UNL     1     -10.347  12.238  70.026  1.00  0.00     0.000 HD 
ENDROOT
BRANCH   5  26
HETATM   26  C   UNL     1     -10.884  15.444  67.847  1.00  0.00    -0.300 C  
HETATM   27  O   UNL     1     -11.768  16.253  67.594  1.00  0.00     0.093 OA 
BRANCH  26  28
HETATM   28  S   UNL     1     -10.121  15.499  69.454  1.00  0.00    -0.281 SA 
HETATM   29  F   UNL     1     -11.286  16.323  71.636  1.00  0.00    -0.415 F  
HETATM   30  C   UNL     1     -11.636  15.824  70.418  1.00  0.00    -0.360 C  
ENDBRANCH  26  28
ENDBRANCH   5  26
BRANCH   5  31
HETATM   31  O   UNL     1      -9.149  15.309  66.193  1.00  0.00    -0.307 OA 
BRANCH  31  32
HETATM   32  C   UNL     1      -8.026  15.858  66.752  1.00  0.00    -0.252 C  
HETATM   33  O   UNL     1      -7.177  15.235  67.361  1.00  0.00    -0.185 OA 
BRANCH  32  34
HETATM   34  C   UNL     1      -7.933  17.272  66.470  1.00  0.00    -0.283 A  
HETATM   35  C   UNL     1      -6.866  17.983  65.942  1.00  0.00    -0.332 A  
HETATM   36  O   UNL     1      -8.977  18.129  66.699  1.00  0.00    -0.268 OA 
HETATM   37  C   UNL     1      -7.271  19.332  65.853  1.00  0.00    -0.305 A  
HETATM   38  C   UNL     1      -8.560  19.373  66.330  1.00  0.00    -0.354 A  
ENDBRANCH  32  34
ENDBRANCH  31  32
ENDBRANCH   5  31
TORSDOF 5
ENDMDL
MODEL       15
REMARK 921   NORMALIZED FREE ENERGY PREDICTED BY IDOCK:   -6.33 KCAL/MOL
REMARK 922        TOTAL FREE ENERGY PREDICTED BY IDOCK:   -7.48 KCAL/MOL
REMARK 923 INTER-LIGAND FREE ENERGY PREDICTED BY IDOCK:   -8.27 KCAL/MOL
REMARK 924 INTRA-LIGAND FREE ENERGY PREDICTED BY IDOCK:    0.80 KCAL/MOL
REMARK 927      BINDING AFFINITY PREDICTED BY RF-SCORE:    0.00 PKD
ROOT
HETATM    1  C   UNL     1      -8.684  11.481  69.002  1.00  0.00     0.134 C  
HETATM    2  C   UNL     1      -7.264  11.422  69.004  1.00  0.00    -0.118 C  
HETATM    3  C   UNL     1      -8.031  11.324  67.738  1.00  0.00    -0.117 C  
HETATM    4  C   UNL     1      -6.728  11.352  66.610  1.00  0.00    -0.112 C  
HETATM    5  C   UNL     1      -9.972  12.000  67.893  1.00  0.00    -0.197 C  
HETATM    6  C   UNL     1      -8.433   6.513  67.336  1.00  0.00    -0.119 C  
HETATM    7  C   UNL     1      -9.331   7.239  68.421  1.00  0.00    -0.143 C  
HETATM    8  C   UNL     1      -8.873  12.200  67.121  1.00  0.00    -0.191 C  
HETATM    9  C   UNL     1     -10.614   6.417  68.423  1.00  0.00    -0.311 C  
HETATM   10  C   UNL     1     -10.737   5.351  69.256  1.00  0.00    -0.198 C  
HETATM   11  C   UNL     1      -9.344  10.819  65.958  1.00  0.00    -0.215 C  
HETATM   12  O   UNL     1      -9.819   4.089  71.078  1.00  0.00    -0.181 OA 
HETATM   13  C   UNL     1      -8.361  13.645  66.833  1.00  0.00    -0.017 C  
HETATM   14  C   UNL     1      -9.670   4.993  70.268  1.00  0.00    -0.215 C  
HETATM   15  C   UNL     1      -8.386   5.774  70.193  1.00  0.00    -0.117 C  
HETATM   16  C   UNL     1      -8.738   7.027  69.837  1.00  0.00    -0.142 C  
HETATM   17  C   UNL     1      -9.842   9.359  66.690  1.00  0.00    -0.245 C  
HETATM   18  O   UNL     1     -11.274   9.364  66.777  1.00  0.00     0.072 OA 
HETATM   19  F   UNL     1      -8.845   7.604  72.135  1.00  0.00    -0.126 F  
HETATM   20  C   UNL     1      -9.177   8.790  68.102  1.00  0.00    -0.140 C  
HETATM   21  C   UNL     1      -9.307   7.947  70.901  1.00  0.00    -0.153 C  
HETATM   22  F   UNL     1      -7.772   8.738  67.955  1.00  0.00    -0.096 F  
HETATM   23  C   UNL     1      -8.885   9.377  70.635  1.00  0.00    -0.275 C  
HETATM   24  C   UNL     1      -9.404   9.886  69.281  1.00  0.00    -0.215 C  
HETATM   25  H   UNL     1     -11.550   8.552  67.184  1.00  0.00     0.000 HD 
ENDROOT
BRANCH   5  26
HETATM   26  C   UNL     1     -11.138  12.425  66.809  1.00  0.00    -0.285 C  
HETATM   27  O   UNL     1     -12.227  11.888  66.649  1.00  0.00    -0.493 OA 
BRANCH  26  28
HETATM   28  S   UNL     1     -10.660  13.717  65.682  1.00  0.00    -0.309 SA 
HETATM   29  F   UNL     1     -12.254  14.889  63.983  1.00  0.00    -0.486 F  
HETATM   30  C   UNL     1     -12.339  14.198  65.155  1.00  0.00    -0.451 C  
ENDBRANCH  26  28
ENDBRANCH   5  26
BRANCH   5  31
HETATM   31  O   UNL     1     -10.250  13.115  68.929  1.00  0.00    -0.143 OA 
BRANCH  31  32
HETATM   32  C   UNL     1     -11.427  13.720  69.279  1.00  0.00    -0.293 C  
HETATM   33  O   UNL     1     -11.868  14.733  68.767  1.00  0.00    -0.308 OA 
BRANCH  32  34
HETATM   34  C   UNL     1     -12.127  12.968  70.294  1.00  0.00    -0.314 A  
HETATM   35  C   UNL     1     -12.214  11.593  70.450  1.00  0.00    -0.434 A  
HETATM   36  O   UNL     1     -12.825  13.580  71.302  1.00  0.00    -0.346 OA 
HETATM   37  C   UNL     1     -13.006  11.354  71.594  1.00  0.00    -0.523 A  
HETATM   38  C   UNL     1     -13.359  12.594  72.075  1.00  0.00    -0.454 A  
ENDBRANCH  32  34
ENDBRANCH  31  32
ENDBRANCH   5  31
TORSDOF 5
ENDMDL
MODEL       16
REMARK 921   NORMALIZED FREE ENERGY PREDICTED BY IDOCK:   -6.31 KCAL/MOL
REMARK 922        TOTAL FREE ENERGY PREDICTED BY IDOCK:   -7.45 KCAL/MOL
REMARK 923 INTER-LIGAND FREE ENERGY PREDICTED BY IDOCK:   -7.84 KCAL/MOL
REMARK 924 INTRA-LIGAND FREE ENERGY PREDICTED BY IDOCK:    0.38 KCAL/MOL
REMARK 927      BINDING AFFINITY PREDICTED BY RF-SCORE:    0.00 PKD
ROOT
HETATM    1  C   UNL     1      -9.717  14.471  69.225  1.00  0.00     0.007 C  
HETATM    2  C   UNL     1     -10.289  14.957  70.431  1.00  0.00     0.168 C  
HETATM    3  C   UNL     1     -11.096  14.853  69.191  1.00  0.00    -0.279 C  
HETATM    4  C   UNL     1     -12.648  15.252  69.824  1.00  0.00    -0.151 C  
HETATM    5  C   UNL     1     -10.266  13.616  67.766  1.00  0.00    -0.242 C  
HETATM    6  C   UNL     1     -10.539  19.325  67.413  1.00  0.00    -0.594 C  
HETATM    7  C   UNL     1      -9.310  18.331  67.306  1.00  0.00    -0.256 C  
HETATM    8  C   UNL     1     -11.442  13.780  68.425  1.00  0.00    -0.351 C  
HETATM    9  C   UNL     1      -8.652  18.726  65.989  1.00  0.00    -0.037 C  
HETATM   10  C   UNL     1      -7.687  19.680  65.970  1.00  0.00    -0.335 C  
HETATM   11  C   UNL     1     -12.077  14.985  67.149  1.00  0.00     0.105 C  
HETATM   12  O   UNL     1      -6.229  21.111  67.229  1.00  0.00    -0.277 OA 
HETATM   13  C   UNL     1     -12.136  12.567  69.116  1.00  0.00    -0.187 C  
HETATM   14  C   UNL     1      -7.159  20.318  67.238  1.00  0.00    -0.280 C  
HETATM   15  C   UNL     1      -7.876  19.964  68.514  1.00  0.00    -0.236 C  
HETATM   16  C   UNL     1      -8.247  18.674  68.382  1.00  0.00    -0.361 C  
HETATM   17  C   UNL     1     -10.987  16.204  66.660  1.00  0.00    -0.055 C  
HETATM   18  O   UNL     1     -10.321  15.763  65.469  1.00  0.00    -0.355 OA 
HETATM   19  F   UNL     1      -6.229  18.029  69.447  1.00  0.00    -0.213 F  
HETATM   20  C   UNL     1      -9.902  16.910  67.703  1.00  0.00    -0.259 C  
HETATM   21  C   UNL     1      -7.202  17.596  68.598  1.00  0.00    -0.255 C  
HETATM   22  F   UNL     1     -10.602  17.389  68.833  1.00  0.00    -0.318 F  
HETATM   23  C   UNL     1      -7.838  16.369  69.218  1.00  0.00    -0.153 C  
HETATM   24  C   UNL     1      -8.921  15.764  68.311  1.00  0.00    -0.182 C  
HETATM   25  H   UNL     1      -9.715  16.442  65.198  1.00  0.00     0.000 HD 
ENDROOT
BRANCH   5  26
HETATM   26  C   UNL     1     -10.828  12.887  66.398  1.00  0.00    -0.274 C  
HETATM   27  O   UNL     1     -11.792  12.137  66.306  1.00  0.00    -0.553 OA 
BRANCH  26  28
HETATM   28  S   UNL     1      -9.810  13.136  64.960  1.00  0.00     0.049 SA 
HETATM   29  F   UNL     1     -10.005  11.788  62.736  1.00  0.00    -0.372 F  
HETATM   30  C   UNL     1     -10.783  12.110  63.808  1.00  0.00    -0.437 C  
ENDBRANCH  26  28
ENDBRANCH   5  26
BRANCH   5  31
HETATM   31  O   UNL     1      -9.395  12.441  68.272  1.00  0.00    -0.207 OA 
BRANCH  31  32
HETATM   32  C   UNL     1      -8.255  11.897  67.744  1.00  0.00    -0.148 C  
HETATM   33  O   UNL     1      -8.225  10.952  66.979  1.00  0.00    -0.126 OA 
BRANCH  32  34
HETATM   34  C   UNL     1      -7.080  12.631  68.155  1.00  0.00    -0.102 A  
HETATM   35  C   UNL     1      -6.477  12.675  69.403  1.00  0.00    -0.099 A  
HETATM   36  O   UNL     1      -6.369  13.413  67.283  1.00  0.00    -0.291 OA 
HETATM   37  C   UNL     1      -5.357  13.528  69.292  1.00  0.00    -0.074 A  
HETATM   38  C   UNL     1      -5.336  13.957  67.985  1.00  0.00    -0.106 A  
ENDBRANCH  32  34
ENDBRANCH  31  32
ENDBRANCH   5  31
TORSDOF 5
ENDMDL
MODEL       17
REMARK 921   NORMALIZED FREE ENERGY PREDICTED BY IDOCK:   -6.20 KCAL/MOL
REMARK 922        TOTAL FREE ENERGY PREDICTED BY IDOCK:   -7.31 KCAL/MOL
REMARK 923 INTER-LIGAND FREE ENERGY PREDICTED BY IDOCK:   -8.07 KCAL/MOL
REMARK 924 INTRA-LIGAND FREE ENERGY PREDICTED BY IDOCK:    0.76 KCAL/MOL
REMARK 927      BINDING AFFINITY PREDICTED BY RF-SCORE:    0.00 PKD
ROOT
HETATM    1  C   UNL     1      -9.042  10.575  69.322  1.00  0.00    -0.161 C  
HETATM    2  C   UNL     1      -7.674  10.604  69.702  1.00  0.00    -0.080 C  
HETATM    3  C   UNL     1      -8.094  10.986  68.332  1.00  0.00    -0.134 C  
HETATM    4  C   UNL     1      -6.586  11.549  67.715  1.00  0.00    -0.068 C  
HETATM    5  C   UNL     1     -10.102  11.425  68.176  1.00  0.00    -0.189 C  
HETATM    6  C   UNL     1      -7.582   6.744  66.049  1.00  0.00    -0.086 C  
HETATM    7  C   UNL     1      -8.817   6.910  67.027  1.00  0.00    -0.119 C  
HETATM    8  C   UNL     1      -8.902  11.987  67.881  1.00  0.00    -0.174 C  
HETATM    9  C   UNL     1      -9.909   6.085  66.357  1.00  0.00    -0.155 C  
HETATM   10  C   UNL     1     -10.046   4.767  66.655  1.00  0.00    -0.276 C  
HETATM   11  C   UNL     1      -8.850  11.176  66.201  1.00  0.00    -0.195 C  
HETATM   12  O   UNL     1      -9.384   2.927  68.046  1.00  0.00    -0.194 OA 
HETATM   13  C   UNL     1      -8.585  13.451  68.316  1.00  0.00    -0.169 C  
HETATM   14  C   UNL     1      -9.201   4.089  67.714  1.00  0.00    -0.159 C  
HETATM   15  C   UNL     1      -8.084   4.908  68.305  1.00  0.00    -0.085 C  
HETATM   16  C   UNL     1      -8.547   6.174  68.364  1.00  0.00    -0.112 C  
HETATM   17  C   UNL     1      -9.255   9.518  66.155  1.00  0.00    -0.177 C  
HETATM   18  O   UNL     1     -10.647   9.403  65.831  1.00  0.00    -0.033 OA 
HETATM   19  F   UNL     1      -9.286   5.755  70.579  1.00  0.00    -0.141 F  
HETATM   20  C   UNL     1      -8.854   8.462  67.374  1.00  0.00    -0.134 C  
HETATM   21  C   UNL     1      -9.495   6.544  69.488  1.00  0.00    -0.146 C  
HETATM   22  F   UNL     1      -7.466   8.557  67.621  1.00  0.00    -0.087 F  
HETATM   23  C   UNL     1      -9.268   7.980  69.912  1.00  0.00    -0.152 C  
HETATM   24  C   UNL     1      -9.532   8.966  68.764  1.00  0.00    -0.144 C  
HETATM   25  H   UNL     1     -10.872   8.481  65.806  1.00  0.00     0.000 HD 
ENDROOT
BRANCH   5  26
HETATM   26  C   UNL     1     -11.035  12.187  67.051  1.00  0.00    -0.271 C  
HETATM   27  O   UNL     1     -11.794  11.662  66.246  1.00  0.00    -0.437 OA 
BRANCH  26  28
HETATM   28  S   UNL     1     -10.770  13.943  66.942  1.00  0.00    -0.285 SA 
HETATM   29  F   UNL     1     -10.324  15.256  64.734  1.00  0.00    -0.395 F  
HETATM   30  C   UNL     1     -10.897  14.084  65.128  1.00  0.00    -0.369 C  
ENDBRANCH  26  28
ENDBRANCH   5  26
BRANCH   5  31
HETATM   31  O   UNL     1     -10.798  12.001  69.433  1.00  0.00    -0.140 OA 
BRANCH  31  32
HETATM   32  C   UNL     1     -12.012  11.696  69.987  1.00  0.00    -0.351 C  
HETATM   33  O   UNL     1     -12.596  10.638  69.842  1.00  0.00    -0.277 OA 
BRANCH  32  34
HETATM   34  C   UNL     1     -12.491  12.765  70.831  1.00  0.00    -0.283 A  
HETATM   35  C   UNL     1     -12.168  14.112  70.793  1.00  0.00    -0.435 A  
HETATM   36  O   UNL     1     -13.402  12.548  71.833  1.00  0.00    -0.467 OA 
HETATM   37  C   UNL     1     -12.903  14.745  71.819  1.00  0.00    -0.396 A  
HETATM   38  C   UNL     1     -13.635  13.752  72.427  1.00  0.00    -0.588 A  
ENDBRANCH  32  34
ENDBRANCH  31  32
ENDBRANCH   5  31
TORSDOF 5
ENDMDL
MODEL       18
REMARK 921   NORMALIZED FREE ENERGY PREDICTED BY IDOCK:   -6.17 KCAL/MOL
REMARK 922        TOTAL FREE ENERGY PREDICTED BY IDOCK:   -7.28 KCAL/MOL
REMARK 923 INTER-LIGAND FREE ENERGY PREDICTED BY IDOCK:   -8.36 KCAL/MOL
REMARK 924 INTRA-LIGAND FREE ENERGY PREDICTED BY IDOCK:    1.09 KCAL/MOL
REMARK 927      BINDING AFFINITY PREDICTED BY RF-SCORE:    0.00 PKD
ROOT
HETATM    1  C   UNL     1     -10.559  10.923  67.948  1.00  0.00    -0.246 C  
HETATM    2  C   UNL     1     -10.592  10.892  66.528  1.00  0.00    -0.295 C  
HETATM    3  C   UNL     1      -9.614  10.074  67.287  1.00  0.00    -0.188 C  
HETATM    4  C   UNL     1      -8.932   9.166  65.992  1.00  0.00    -0.221 C  
HETATM    5  C   UNL     1     -10.111   9.825  69.273  1.00  0.00    -0.198 C  
HETATM    6  C   UNL     1      -5.817  13.082  67.339  1.00  0.00    -0.029 C  
HETATM    7  C   UNL     1      -7.041  13.424  68.285  1.00  0.00    -0.109 C  
HETATM    8  C   UNL     1      -9.786   9.069  68.192  1.00  0.00    -0.191 C  
HETATM    9  C   UNL     1      -6.377  14.052  69.505  1.00  0.00    -0.121 C  
HETATM   10  C   UNL     1      -6.165  15.392  69.550  1.00  0.00    -0.141 C  
HETATM   11  C   UNL     1      -7.961   9.187  68.563  1.00  0.00    -0.102 C  
HETATM   12  O   UNL     1      -6.540  17.536  68.540  1.00  0.00    -0.183 OA 
HETATM   13  C   UNL     1     -10.667   7.848  67.787  1.00  0.00    -0.189 C  
HETATM   14  C   UNL     1      -6.652  16.321  68.458  1.00  0.00    -0.130 C  
HETATM   15  C   UNL     1      -7.236  15.668  67.234  1.00  0.00    -0.252 C  
HETATM   16  C   UNL     1      -7.886  14.572  67.677  1.00  0.00    -0.194 C  
HETATM   17  C   UNL     1      -7.373  10.741  68.952  1.00  0.00    -0.104 C  
HETATM   18  O   UNL     1      -7.362  10.875  70.380  1.00  0.00    -0.413 OA 
HETATM   19  F   UNL     1      -9.872  15.861  67.822  1.00  0.00    -0.217 F  
HETATM   20  C   UNL     1      -7.959  12.126  68.245  1.00  0.00    -0.163 C  
HETATM   21  C   UNL     1      -9.253  14.750  68.310  1.00  0.00    -0.187 C  
HETATM   22  F   UNL     1      -7.894  11.983  66.841  1.00  0.00    -0.151 F  
HETATM   23  C   UNL     1     -10.134  13.559  67.994  1.00  0.00    -0.244 C  
HETATM   24  C   UNL     1      -9.552  12.251  68.550  1.00  0.00    -0.128 C  
HETATM   25  H   UNL     1      -7.035  11.739  70.597  1.00  0.00     0.000 HD 
ENDROOT
BRANCH   5  26
HETATM   26  C   UNL     1      -9.619   8.803  70.468  1.00  0.00    -0.191 C  
HETATM   27  O   UNL     1      -9.068   9.109  71.518  1.00  0.00    -0.309 OA 
BRANCH  26  28
HETATM   28  S   UNL     1      -9.802   7.075  70.082  1.00  0.00    -0.174 SA 
HETATM   29  F   UNL     1      -9.861   5.147  71.836  1.00  0.00    -0.185 F  
HETATM   30  C   UNL     1     -10.098   6.488  71.784  1.00  0.00    -0.184 C  
ENDBRANCH  26  28
ENDBRANCH   5  26
BRANCH   5  31
HETATM   31  O   UNL     1     -11.617   9.835  69.629  1.00  0.00    -0.126 OA 
BRANCH  31  32
HETATM   32  C   UNL     1     -12.234   9.938  70.847  1.00  0.00    -0.328 C  
HETATM   33  O   UNL     1     -12.416   9.011  71.615  1.00  0.00    -0.314 OA 
BRANCH  32  34
HETATM   34  C   UNL     1     -12.588  11.306  71.147  1.00  0.00    -0.397 A  
HETATM   35  C   UNL     1     -12.234  12.462  70.468  1.00  0.00    -0.382 A  
HETATM   36  O   UNL     1     -13.386  11.634  72.211  1.00  0.00    -0.443 OA 
HETATM   37  C   UNL     1     -12.833  13.543  71.150  1.00  0.00    -0.387 A  
HETATM   38  C   UNL     1     -13.519  12.990  72.207  1.00  0.00    -0.547 A  
ENDBRANCH  32  34
ENDBRANCH  31  32
ENDBRANCH   5  31
TORSDOF 5
ENDMDL
MODEL       19
REMARK 921   NORMALIZED FREE ENERGY PREDICTED BY IDOCK:   -6.15 KCAL/MOL
REMARK 922        TOTAL FREE ENERGY PREDICTED BY IDOCK:   -7.25 KCAL/MOL
REMARK 923 INTER-LIGAND FREE ENERGY PREDICTED BY IDOCK:   -8.12 KCAL/MOL
REMARK 924 INTRA-LIGAND FREE ENERGY PREDICTED BY IDOCK:    0.87 KCAL/MOL
REMARK 927      BINDING AFFINITY PREDICTED BY RF-SCORE:    0.00 PKD
ROOT
HETATM    1  C   UNL     1      -9.611  12.803  65.094  1.00  0.00     0.124 C  
HETATM    2  C   UNL     1     -10.069  12.187  63.899  1.00  0.00    -0.387 C  
HETATM    3  C   UNL     1     -10.984  12.404  65.045  1.00  0.00    -0.336 C  
HETATM    4  C   UNL     1     -12.471  11.916  64.322  1.00  0.00    -0.289 C  
HETATM    5  C   UNL     1     -10.294  13.795  66.401  1.00  0.00    -0.290 C  
HETATM    6  C   UNL     1     -10.556   8.149  67.321  1.00  0.00    -0.344 C  
HETATM    7  C   UNL     1      -9.348   9.169  67.432  1.00  0.00    -0.161 C  
HETATM    8  C   UNL     1     -11.405  13.544  65.662  1.00  0.00    -0.312 C  
HETATM    9  C   UNL     1      -8.809   8.923  68.836  1.00  0.00    -0.137 C  
HETATM   10  C   UNL     1      -7.842   7.992  69.040  1.00  0.00    -0.109 C  
HETATM   11  C   UNL     1     -12.143  12.467  66.995  1.00  0.00    -0.147 C  
HETATM   12  O   UNL     1      -6.266   6.464  68.070  1.00  0.00    -0.029 OA 
HETATM   13  C   UNL     1     -12.044  14.668  64.789  1.00  0.00    -0.428 C  
HETATM   14  C   UNL     1      -7.198   7.236  67.896  1.00  0.00    -0.091 C  
HETATM   15  C   UNL     1      -7.800   7.444  66.533  1.00  0.00    -0.098 C  
HETATM   16  C   UNL     1      -8.191   8.735  66.496  1.00  0.00    -0.111 C  
HETATM   17  C   UNL     1     -11.092  11.323  67.702  1.00  0.00    -0.277 C  
HETATM   18  O   UNL     1     -10.539  11.895  68.895  1.00  0.00    -0.256 OA 
HETATM   19  F   UNL     1      -6.091   9.300  65.551  1.00  0.00    -0.058 F  
HETATM   20  C   UNL     1      -9.913  10.532  66.838  1.00  0.00    -0.200 C  
HETATM   21  C   UNL     1      -7.139   9.802  66.261  1.00  0.00    -0.095 C  
HETATM   22  F   UNL     1     -10.506   9.927  65.707  1.00  0.00    -0.311 F  
HETATM   23  C   UNL     1      -7.726  10.948  65.464  1.00  0.00     0.057 C  
HETATM   24  C   UNL     1      -8.890  11.625  66.203  1.00  0.00    -0.139 C  
HETATM   25  H   UNL     1      -9.955  11.258  69.288  1.00  0.00     0.000 HD 
ENDROOT
BRANCH   5  26
HETATM   26  C   UNL     1     -10.982  14.651  67.630  1.00  0.00    -0.293 C  
HETATM   27  O   UNL     1     -12.014  15.308  67.583  1.00  0.00    -0.185 OA 
BRANCH  26  28
HETATM   28  S   UNL     1     -10.010  14.710  69.120  1.00  0.00    -0.085 SA 
HETATM   29  F   UNL     1     -10.794  15.754  71.378  1.00  0.00    -0.324 F  
HETATM   30  C   UNL     1     -11.347  15.232  70.247  1.00  0.00    -0.292 C  
ENDBRANCH  26  28
ENDBRANCH   5  26
BRANCH   5  31
HETATM   31  O   UNL     1      -9.390  14.925  65.854  1.00  0.00    -0.286 OA 
BRANCH  31  32
HETATM   32  C   UNL     1      -8.496  15.732  66.505  1.00  0.00    -0.300 C  
HETATM   33  O   UNL     1      -7.466  15.349  67.028  1.00  0.00    -0.205 OA 
BRANCH  32  34
HETATM   34  C   UNL     1      -8.890  17.120  66.437  1.00  0.00    -0.255 A  
HETATM   35  C   UNL     1      -8.125  18.252  66.674  1.00  0.00    -0.281 A  
HETATM   36  O   UNL     1     -10.159  17.500  66.088  1.00  0.00    -0.369 OA 
HETATM   37  C   UNL     1      -8.964  19.370  66.472  1.00  0.00    -0.391 A  
HETATM   38  C   UNL     1     -10.193  18.861  66.122  1.00  0.00    -0.433 A  
ENDBRANCH  32  34
ENDBRANCH  31  32
ENDBRANCH   5  31
TORSDOF 5
ENDMDL
MODEL       20
REMARK 921   NORMALIZED FREE ENERGY PREDICTED BY IDOCK:   -6.10 KCAL/MOL
REMARK 922        TOTAL FREE ENERGY PREDICTED BY IDOCK:   -7.18 KCAL/MOL
REMARK 923 INTER-LIGAND FREE ENERGY PREDICTED BY IDOCK:   -7.88 KCAL/MOL
REMARK 924 INTRA-LIGAND FREE ENERGY PREDICTED BY IDOCK:    0.70 KCAL/MOL
REMARK 927      BINDING AFFINITY PREDICTED BY RF-SCORE:    0.00 PKD
ROOT
HETATM    1  C   UNL     1     -11.206  13.613  66.840  1.00  0.00    -0.326 C  
HETATM    2  C   UNL     1     -12.241  12.724  67.236  1.00  0.00    -0.042 C  
HETATM    3  C   UNL     1     -11.087  12.996  68.126  1.00  0.00    -0.285 C  
HETATM    4  C   UNL     1     -11.607  12.153  69.536  1.00  0.00    -0.382 C  
HETATM    5  C   UNL     1     -10.043  14.702  67.627  1.00  0.00    -0.228 C  
HETATM    6  C   UNL     1      -8.150   9.349  66.882  1.00  0.00    -0.109 C  
HETATM    7  C   UNL     1      -8.303  10.553  65.862  1.00  0.00    -0.161 C  
HETATM    8  C   UNL     1     -10.647  14.147  68.709  1.00  0.00    -0.258 C  
HETATM    9  C   UNL     1      -6.921  10.656  65.230  1.00  0.00     0.022 C  
HETATM   10  C   UNL     1      -6.630   9.944  64.111  1.00  0.00    -0.126 C  
HETATM   11  C   UNL     1      -9.099  13.225  69.195  1.00  0.00     0.626 C  
HETATM   12  O   UNL     1      -7.433   8.539  62.340  1.00  0.00    -0.101 OA 
HETATM   13  C   UNL     1     -11.651  14.976  69.567  1.00  0.00    -0.337 C  
HETATM   14  C   UNL     1      -7.670   9.107  63.396  1.00  0.00    -0.120 C  
HETATM   15  C   UNL     1      -9.002   8.965  64.082  1.00  0.00     0.126 C  
HETATM   16  C   UNL     1      -9.231  10.148  64.689  1.00  0.00    -0.300 C  
HETATM   17  C   UNL     1      -8.283  12.411  67.935  1.00  0.00    -0.163 C  
HETATM   18  O   UNL     1      -7.249  13.272  67.439  1.00  0.00    -0.225 OA 
HETATM   19  F   UNL     1     -10.408  10.862  62.757  1.00  0.00    -0.290 F  
HETATM   20  C   UNL     1      -9.080  11.677  66.676  1.00  0.00    -0.194 C  
HETATM   21  C   UNL     1      -9.721  11.309  63.845  1.00  0.00    -0.277 C  
HETATM   22  F   UNL     1     -10.045  10.790  67.204  1.00  0.00    -0.205 F  
HETATM   23  C   UNL     1     -10.659  12.182  64.652  1.00  0.00    -0.340 C  
HETATM   24  C   UNL     1      -9.965  12.786  65.882  1.00  0.00    -0.273 C  
HETATM   25  H   UNL     1      -6.795  12.819  66.738  1.00  0.00     0.000 HD 
ENDROOT
BRANCH   5  26
HETATM   26  C   UNL     1      -8.933  15.646  68.398  1.00  0.00    -0.185 C  
HETATM   27  O   UNL     1      -9.051  16.173  69.497  1.00  0.00    -0.197 OA 
BRANCH  26  28
HETATM   28  S   UNL     1      -7.487  16.021  67.432  1.00  0.00    -0.198 SA 
HETATM   29  F   UNL     1      -5.346  17.204  68.337  1.00  0.00    -0.120 F  
HETATM   30  C   UNL     1      -6.393  16.477  68.819  1.00  0.00    -0.145 C  
ENDBRANCH  26  28
ENDBRANCH   5  26
BRANCH   5  31
HETATM   31  O   UNL     1     -10.839  15.845  66.953  1.00  0.00    -0.314 OA 
BRANCH  31  32
HETATM   32  C   UNL     1     -10.525  16.619  65.869  1.00  0.00    -0.313 C  
HETATM   33  O   UNL     1     -10.450  16.214  64.723  1.00  0.00    -0.592 OA 
BRANCH  32  34
HETATM   34  C   UNL     1     -10.357  18.005  66.239  1.00  0.00    -0.382 A  
HETATM   35  C   UNL     1     -11.003  18.721  67.235  1.00  0.00    -0.266 A  
HETATM   36  O   UNL     1      -9.460  18.824  65.605  1.00  0.00    -0.317 OA 
HETATM   37  C   UNL     1     -10.486  20.035  67.203  1.00  0.00    -0.513 A  
HETATM   38  C   UNL     1      -9.554  20.050  66.191  1.00  0.00    -0.373 A  
ENDBRANCH  32  34
ENDBRANCH  31  32
ENDBRANCH   5  31
TORSDOF 5
ENDMDL
MODEL       21
REMARK 921   NORMALIZED FREE ENERGY PREDICTED BY IDOCK:   -6.08 KCAL/MOL
REMARK 922        TOTAL FREE ENERGY PREDICTED BY IDOCK:   -7.16 KCAL/MOL
REMARK 923 INTER-LIGAND FREE ENERGY PREDICTED BY IDOCK:   -7.89 KCAL/MOL
REMARK 924 INTRA-LIGAND FREE ENERGY PREDICTED BY IDOCK:    0.73 KCAL/MOL
REMARK 927      BINDING AFFINITY PREDICTED BY RF-SCORE:    0.00 PKD
ROOT
HETATM    1  C   UNL     1     -10.353   7.979  68.949  1.00  0.00    -0.222 C  
HETATM    2  C   UNL     1     -10.402   7.292  67.707  1.00  0.00    -0.267 C  
HETATM    3  C   UNL     1      -9.125   7.441  68.447  1.00  0.00    -0.132 C  
HETATM    4  C   UNL     1      -8.109   6.451  67.469  1.00  0.00    -0.117 C  
HETATM    5  C   UNL     1      -9.374   7.936  70.432  1.00  0.00    -0.159 C  
HETATM    6  C   UNL     1      -7.390  11.467  66.384  1.00  0.00    -0.006 C  
HETATM    7  C   UNL     1      -8.592  11.621  67.405  1.00  0.00    -0.149 C  
HETATM    8  C   UNL     1      -8.738   7.003  69.678  1.00  0.00    -0.141 C  
HETATM    9  C   UNL     1      -8.309  12.957  68.082  1.00  0.00    -0.168 C  
HETATM   10  C   UNL     1      -8.808  14.105  67.557  1.00  0.00    -0.202 C  
HETATM   11  C   UNL     1      -7.218   8.072  69.502  1.00  0.00    -0.070 C  
HETATM   12  O   UNL     1     -10.249  15.131  65.935  1.00  0.00    -0.283 OA 
HETATM   13  C   UNL     1      -8.884   5.486  70.006  1.00  0.00    -0.139 C  
HETATM   14  C   UNL     1      -9.728  14.107  66.354  1.00  0.00    -0.298 C  
HETATM   15  C   UNL     1      -9.930  12.785  65.663  1.00  0.00    -0.249 C  
HETATM   16  C   UNL     1      -9.920  11.854  66.640  1.00  0.00    -0.220 C  
HETATM   17  C   UNL     1      -7.494   9.710  69.106  1.00  0.00    -0.079 C  
HETATM   18  O   UNL     1      -7.515  10.470  70.322  1.00  0.00    -0.430 OA 
HETATM   19  F   UNL     1     -12.280  12.035  66.779  1.00  0.00    -0.311 F  
HETATM   20  C   UNL     1      -8.722  10.195  68.097  1.00  0.00    -0.122 C  
HETATM   21  C   UNL     1     -11.169  11.675  67.480  1.00  0.00    -0.293 C  
HETATM   22  F   UNL     1      -8.629   9.472  66.886  1.00  0.00    -0.123 F  
HETATM   23  C   UNL     1     -11.329  10.222  67.876  1.00  0.00    -0.181 C  
HETATM   24  C   UNL     1     -10.147   9.725  68.723  1.00  0.00    -0.187 C  
HETATM   25  H   UNL     1      -7.669  11.380  70.101  1.00  0.00     0.000 HD 
ENDROOT
BRANCH   5  26
HETATM   26  C   UNL     1      -8.399   7.912  71.761  1.00  0.00    -0.118 C  
HETATM   27  O   UNL     1      -8.097   8.864  72.470  1.00  0.00    -0.381 OA 
BRANCH  26  28
HETATM   28  S   UNL     1      -7.617   6.345  72.072  1.00  0.00    -0.095 SA 
HETATM   29  F   UNL     1      -6.693   5.565  74.382  1.00  0.00    -0.071 F  
HETATM   30  C   UNL     1      -7.608   6.448  73.893  1.00  0.00    -0.084 C  
ENDBRANCH  26  28
ENDBRANCH   5  26
BRANCH   5  31
HETATM   31  O   UNL     1     -10.665   7.440  71.126  1.00  0.00    -0.229 OA 
BRANCH  31  32
HETATM   32  C   UNL     1     -11.278   7.882  72.268  1.00  0.00    -0.331 C  
HETATM   33  O   UNL     1     -11.125   7.394  73.373  1.00  0.00    -0.340 OA 
BRANCH  32  34
HETATM   34  C   UNL     1     -12.085   9.052  72.016  1.00  0.00    -0.370 A  
HETATM   35  C   UNL     1     -13.436   9.245  72.260  1.00  0.00    -0.548 A  
HETATM   36  O   UNL     1     -11.558  10.197  71.476  1.00  0.00    -0.319 OA 
HETATM   37  C   UNL     1     -13.751  10.557  71.845  1.00  0.00    -0.085 A  
HETATM   38  C   UNL     1     -12.577  11.095  71.370  1.00  0.00    -0.374 A  
ENDBRANCH  32  34
ENDBRANCH  31  32
ENDBRANCH   5  31
TORSDOF 5
ENDMDL
MODEL       22
REMARK 921   NORMALIZED FREE ENERGY PREDICTED BY IDOCK:   -6.02 KCAL/MOL
REMARK 922        TOTAL FREE ENERGY PREDICTED BY IDOCK:   -7.07 KCAL/MOL
REMARK 923 INTER-LIGAND FREE ENERGY PREDICTED BY IDOCK:   -7.46 KCAL/MOL
REMARK 924 INTRA-LIGAND FREE ENERGY PREDICTED BY IDOCK:    0.38 KCAL/MOL
REMARK 927      BINDING AFFINITY PREDICTED BY RF-SCORE:    0.00 PKD
ROOT
HETATM    1  C   UNL     1      -8.572  12.089  66.844  1.00  0.00    -0.189 C  
HETATM    2  C   UNL     1      -8.529  11.182  65.751  1.00  0.00    -0.076 C  
HETATM    3  C   UNL     1      -9.822  11.683  66.277  1.00  0.00    -0.245 C  
HETATM    4  C   UNL     1     -10.889  11.017  65.098  1.00  0.00    -0.183 C  
HETATM    5  C   UNL     1      -9.642  13.381  67.433  1.00  0.00    -0.223 C  
HETATM    6  C   UNL     1     -10.905   8.162  69.423  1.00  0.00    -0.096 C  
HETATM    7  C   UNL     1      -9.761   9.182  69.825  1.00  0.00    -0.191 C  
HETATM    8  C   UNL     1     -10.340  12.941  66.354  1.00  0.00    -0.277 C  
HETATM    9  C   UNL     1      -9.919   9.310  71.335  1.00  0.00    -0.323 C  
HETATM   10  C   UNL     1      -9.248   8.469  72.163  1.00  0.00    -0.336 C  
HETATM   11  C   UNL     1     -11.700  12.241  67.423  1.00  0.00    -0.405 C  
HETATM   12  O   UNL     1      -7.589   6.751  72.391  1.00  0.00    -0.091 OA 
HETATM   13  C   UNL     1     -10.405  13.798  65.053  1.00  0.00    -0.402 C  
HETATM   14  C   UNL     1      -8.258   7.447  71.642  1.00  0.00    -0.103 C  
HETATM   15  C   UNL     1      -8.179   7.293  70.147  1.00  0.00    -0.134 C  
HETATM   16  C   UNL     1      -8.369   8.528  69.639  1.00  0.00    -0.121 C  
HETATM   17  C   UNL     1     -11.197  11.323  68.771  1.00  0.00    -0.250 C  
HETATM   18  O   UNL     1     -11.159  12.187  69.915  1.00  0.00    -0.469 OA 
HETATM   19  F   UNL     1      -6.018   8.842  69.638  1.00  0.00    -0.031 F  
HETATM   20  C   UNL     1      -9.855  10.343  68.741  1.00  0.00    -0.185 C  
HETATM   21  C   UNL     1      -7.208   9.504  69.661  1.00  0.00    -0.076 C  
HETATM   22  F   UNL     1      -9.959   9.463  67.640  1.00  0.00    -0.180 F  
HETATM   23  C   UNL     1      -7.257  10.402  68.443  1.00  0.00    -0.080 C  
HETATM   24  C   UNL     1      -8.543  11.241  68.399  1.00  0.00    -0.155 C  
HETATM   25  H   UNL     1     -10.879  11.677  70.666  1.00  0.00     0.000 HD 
ENDROOT
BRANCH   5  26
HETATM   26  C   UNL     1     -10.696  14.521  67.984  1.00  0.00    -0.242 C  
HETATM   27  O   UNL     1     -11.522  15.141  67.325  1.00  0.00    -0.345 OA 
BRANCH  26  28
HETATM   28  S   UNL     1     -10.477  14.962  69.694  1.00  0.00    -0.114 SA 
HETATM   29  F   UNL     1     -12.226  16.237  71.148  1.00  0.00    -0.433 F  
HETATM   30  C   UNL     1     -12.199  15.464  70.027  1.00  0.00    -0.361 C  
ENDBRANCH  26  28
ENDBRANCH   5  26
BRANCH   5  31
HETATM   31  O   UNL     1      -8.470  14.337  67.105  1.00  0.00    -0.203 OA 
BRANCH  31  32
HETATM   32  C   UNL     1      -7.824  15.244  67.900  1.00  0.00    -0.139 C  
HETATM   33  O   UNL     1      -8.045  16.441  67.911  1.00  0.00    -0.154 OA 
BRANCH  32  34
HETATM   34  C   UNL     1      -6.883  14.597  68.784  1.00  0.00    -0.095 A  
HETATM   35  C   UNL     1      -5.862  13.713  68.468  1.00  0.00    -0.092 A  
HETATM   36  O   UNL     1      -6.888  14.814  70.137  1.00  0.00    -0.178 OA 
HETATM   37  C   UNL     1      -5.223  13.368  69.679  1.00  0.00    -0.086 A  
HETATM   38  C   UNL     1      -5.886  14.058  70.666  1.00  0.00    -0.192 A  
ENDBRANCH  32  34
ENDBRANCH  31  32
ENDBRANCH   5  31
TORSDOF 5
ENDMDL
MODEL       23
REMARK 921   NORMALIZED FREE ENERGY PREDICTED BY IDOCK:   -6.01 KCAL/MOL
REMARK 922        TOTAL FREE ENERGY PREDICTED BY IDOCK:   -7.07 KCAL/MOL
REMARK 923 INTER-LIGAND FREE ENERGY PREDICTED BY IDOCK:   -7.90 KCAL/MOL
REMARK 924 INTRA-LIGAND FREE ENERGY PREDICTED BY IDOCK:    0.83 KCAL/MOL
REMARK 927      BINDING AFFINITY PREDICTED BY RF-SCORE:    0.00 PKD
ROOT
HETATM    1  C   UNL     1     -10.479   9.403  68.678  1.00  0.00    -0.236 C  
HETATM    2  C   UNL     1     -10.906   9.223  67.335  1.00  0.00    -0.165 C  
HETATM    3  C   UNL     1      -9.467   9.171  67.693  1.00  0.00    -0.164 C  
HETATM    4  C   UNL     1      -8.813   8.680  66.176  1.00  0.00    -0.204 C  
HETATM    5  C   UNL     1      -9.126   8.878  69.705  1.00  0.00    -0.151 C  
HETATM    6  C   UNL     1      -8.201  13.777  66.888  1.00  0.00     0.045 C  
HETATM    7  C   UNL     1      -9.060  13.464  68.183  1.00  0.00    -0.207 C  
HETATM    8  C   UNL     1      -8.770   8.334  68.512  1.00  0.00    -0.133 C  
HETATM    9  C   UNL     1      -8.539  14.469  69.202  1.00  0.00     0.031 C  
HETATM   10  C   UNL     1      -9.112  15.696  69.304  1.00  0.00    -0.270 C  
HETATM   11  C   UNL     1      -7.314   9.488  68.334  1.00  0.00    -0.076 C  
HETATM   12  O   UNL     1     -10.903  17.153  68.650  1.00  0.00    -0.329 OA 
HETATM   13  C   UNL     1      -8.887   6.797  68.277  1.00  0.00    -0.125 C  
HETATM   14  C   UNL     1     -10.333  16.083  68.495  1.00  0.00    -0.241 C  
HETATM   15  C   UNL     1     -10.780  15.101  67.445  1.00  0.00    -0.286 C  
HETATM   16  C   UNL     1     -10.537  13.877  67.959  1.00  0.00    -0.252 C  
HETATM   17  C   UNL     1      -7.616  11.134  68.671  1.00  0.00    -0.127 C  
HETATM   18  O   UNL     1      -7.261  11.387  70.037  1.00  0.00    -0.385 OA 
HETATM   19  F   UNL     1     -12.753  13.840  68.804  1.00  0.00    -0.154 F  
HETATM   20  C   UNL     1      -9.055  11.878  68.299  1.00  0.00    -0.183 C  
HETATM   21  C   UNL     1     -11.508  13.319  68.983  1.00  0.00    -0.302 C  
HETATM   22  F   UNL     1      -9.338  11.662  66.932  1.00  0.00    -0.174 F  
HETATM   23  C   UNL     1     -11.615  11.816  68.835  1.00  0.00    -0.370 C  
HETATM   24  C   UNL     1     -10.267  11.118  69.072  1.00  0.00    -0.194 C  
HETATM   25  H   UNL     1      -7.429  12.303  70.225  1.00  0.00     0.000 HD 
ENDROOT
BRANCH   5  26
HETATM   26  C   UNL     1      -7.819   8.427  70.602  1.00  0.00    -0.092 C  
HETATM   27  O   UNL     1      -7.215   9.111  71.418  1.00  0.00    -0.242 OA 
BRANCH  26  28
HETATM   28  S   UNL     1      -7.173   6.818  70.204  1.00  0.00    -0.078 SA 
HETATM   29  F   UNL     1      -7.027   4.810  71.862  1.00  0.00    -0.050 F  
HETATM   30  C   UNL     1      -7.742   5.960  71.710  1.00  0.00    -0.101 C  
ENDBRANCH  26  28
ENDBRANCH   5  26
BRANCH   5  31
HETATM   31  O   UNL     1     -10.192   8.077  70.491  1.00  0.00    -0.196 OA 
BRANCH  31  32
HETATM   32  C   UNL     1     -10.750   8.320  71.718  1.00  0.00    -0.266 C  
HETATM   33  O   UNL     1     -10.124   8.591  72.726  1.00  0.00    -0.255 OA 
BRANCH  32  34
HETATM   34  C   UNL     1     -12.192   8.285  71.658  1.00  0.00    -0.313 A  
HETATM   35  C   UNL     1     -13.091   9.335  71.767  1.00  0.00    -0.472 A  
HETATM   36  O   UNL     1     -12.884   7.119  71.457  1.00  0.00    -0.369 OA 
HETATM   37  C   UNL     1     -14.386   8.788  71.637  1.00  0.00    -0.387 A  
HETATM   38  C   UNL     1     -14.209   7.436  71.456  1.00  0.00    -0.427 A  
ENDBRANCH  32  34
ENDBRANCH  31  32
ENDBRANCH   5  31
TORSDOF 5
ENDMDL
MODEL       24
REMARK 921   NORMALIZED FREE ENERGY PREDICTED BY IDOCK:   -5.95 KCAL/MOL
REMARK 922        TOTAL FREE ENERGY PREDICTED BY IDOCK:   -6.99 KCAL/MOL
REMARK 923 INTER-LIGAND FREE ENERGY PREDICTED BY IDOCK:   -8.02 KCAL/MOL
REMARK 924 INTRA-LIGAND FREE ENERGY PREDICTED BY IDOCK:    1.03 KCAL/MOL
REMARK 927      BINDING AFFINITY PREDICTED BY RF-SCORE:    0.00 PKD
ROOT
HETATM    1  C   UNL     1      -7.872  10.166  67.597  1.00  0.00    -0.098 C  
HETATM    2  C   UNL     1      -7.047   9.084  67.188  1.00  0.00    -0.079 C  
HETATM    3  C   UNL     1      -8.411   9.257  66.631  1.00  0.00    -0.130 C  
HETATM    4  C   UNL     1      -8.391   8.021  65.431  1.00  0.00    -0.161 C  
HETATM    5  C   UNL     1      -9.180  11.151  66.905  1.00  0.00    -0.169 C  
HETATM    6  C   UNL     1     -10.948   6.449  69.656  1.00  0.00    -0.420 C  
HETATM    7  C   UNL     1     -10.438   7.847  70.201  1.00  0.00    -0.231 C  
HETATM    8  C   UNL     1      -8.967  10.263  65.899  1.00  0.00    -0.181 C  
HETATM    9  C   UNL     1     -11.548   8.281  71.151  1.00  0.00    -0.310 C  
HETATM   10  C   UNL     1     -11.501   7.925  72.460  1.00  0.00    -0.455 C  
HETATM   11  C   UNL     1     -10.624   9.447  66.166  1.00  0.00     0.152 C  
HETATM   12  O   UNL     1     -10.239   6.936  74.245  1.00  0.00    -0.349 OA 
HETATM   13  C   UNL     1      -8.251  10.712  64.589  1.00  0.00    -0.017 C  
HETATM   14  C   UNL     1     -10.323   7.179  73.050  1.00  0.00    -0.271 C  
HETATM   15  C   UNL     1      -9.279   6.700  72.077  1.00  0.00    -0.142 C  
HETATM   16  C   UNL     1      -9.206   7.648  71.120  1.00  0.00    -0.153 C  
HETATM   17  C   UNL     1     -11.035   9.094  67.785  1.00  0.00     0.037 C  
HETATM   18  O   UNL     1     -11.828  10.175  68.294  1.00  0.00    -0.697 OA 
HETATM   19  F   UNL     1      -7.457   8.685  72.341  1.00  0.00    -0.139 F  
HETATM   20  C   UNL     1      -9.912   8.617  68.913  1.00  0.00    -0.189 C  
HETATM   21  C   UNL     1      -8.432   8.917  71.419  1.00  0.00    -0.153 C  
HETATM   22  F   UNL     1      -9.196   7.511  68.403  1.00  0.00    -0.139 F  
HETATM   23  C   UNL     1      -7.761   9.429  70.162  1.00  0.00    -0.140 C  
HETATM   24  C   UNL     1      -8.781   9.776  69.067  1.00  0.00    -0.148 C  
HETATM   25  H   UNL     1     -12.056   9.979  69.194  1.00  0.00     0.000 HD 
ENDROOT
BRANCH   5  26
HETATM   26  C   UNL     1     -10.438  11.992  66.254  1.00  0.00    -0.238 C  
HETATM   27  O   UNL     1     -11.396  12.467  66.852  1.00  0.00    -0.288 OA 
BRANCH  26  28
HETATM   28  S   UNL     1     -10.430  12.071  64.476  1.00  0.00    -0.320 SA 
HETATM   29  F   UNL     1     -12.534  11.825  62.956  1.00  0.00    -0.605 F  
HETATM   30  C   UNL     1     -12.236  12.170  64.240  1.00  0.00    -0.377 C  
ENDBRANCH  26  28
ENDBRANCH   5  26
BRANCH   5  31
HETATM   31  O   UNL     1      -8.169  12.321  66.965  1.00  0.00    -0.177 OA 
BRANCH  31  32
HETATM   32  C   UNL     1      -8.067  13.352  67.860  1.00  0.00    -0.162 C  
HETATM   33  O   UNL     1      -7.871  13.221  69.054  1.00  0.00     0.035 OA 
BRANCH  32  34
HETATM   34  C   UNL     1      -8.150  14.634  67.199  1.00  0.00    -0.185 A  
HETATM   35  C   UNL     1      -9.179  15.145  66.423  1.00  0.00    -0.334 A  
HETATM   36  O   UNL     1      -7.148  15.564  67.287  1.00  0.00    -0.195 OA 
HETATM   37  C   UNL     1      -8.786  16.437  66.011  1.00  0.00    -0.296 A  
HETATM   38  C   UNL     1      -7.541  16.645  66.557  1.00  0.00    -0.292 A  
ENDBRANCH  32  34
ENDBRANCH  31  32
ENDBRANCH   5  31
TORSDOF 5
ENDMDL
MODEL       25
REMARK 921   NORMALIZED FREE ENERGY PREDICTED BY IDOCK:   -5.94 KCAL/MOL
REMARK 922        TOTAL FREE ENERGY PREDICTED BY IDOCK:   -6.97 KCAL/MOL
REMARK 923 INTER-LIGAND FREE ENERGY PREDICTED BY IDOCK:   -8.07 KCAL/MOL
REMARK 924 INTRA-LIGAND FREE ENERGY PREDICTED BY IDOCK:    1.10 KCAL/MOL
REMARK 927      BINDING AFFINITY PREDICTED BY RF-SCORE:    0.00 PKD
ROOT
HETATM    1  C   UNL     1      -8.744   9.014  67.166  1.00  0.00    -0.123 C  
HETATM    2  C   UNL     1      -7.601   9.132  66.332  1.00  0.00    -0.093 C  
HETATM    3  C   UNL     1      -7.635   9.762  67.674  1.00  0.00    -0.091 C  
HETATM    4  C   UNL     1      -6.005  10.313  67.773  1.00  0.00    -0.045 C  
HETATM    5  C   UNL     1      -9.099   8.998  68.908  1.00  0.00    -0.140 C  
HETATM    6  C   UNL     1      -9.193  14.199  66.513  1.00  0.00    -0.247 C  
HETATM    7  C   UNL     1     -10.246  13.016  66.478  1.00  0.00    -0.270 C  
HETATM    8  C   UNL     1      -7.760   9.226  68.921  1.00  0.00    -0.079 C  
HETATM    9  C   UNL     1     -11.542  13.684  66.923  1.00  0.00    -0.397 C  
HETATM   10  C   UNL     1     -12.369  14.244  66.003  1.00  0.00    -0.416 C  
HETATM   11  C   UNL     1      -7.984  10.962  69.568  1.00  0.00     0.052 C  
HETATM   12  O   UNL     1     -12.888  14.576  63.684  1.00  0.00    -0.632 OA 
HETATM   13  C   UNL     1      -6.771   8.098  69.348  1.00  0.00    -0.042 C  
HETATM   14  C   UNL     1     -12.100  14.150  64.515  1.00  0.00    -0.468 C  
HETATM   15  C   UNL     1     -10.780  13.551  64.110  1.00  0.00    -0.220 C  
HETATM   16  C   UNL     1     -10.521  12.584  65.015  1.00  0.00    -0.323 C  
HETATM   17  C   UNL     1      -9.184  11.900  68.798  1.00  0.00     0.034 C  
HETATM   18  O   UNL     1     -10.398  11.788  69.554  1.00  0.00    -0.414 OA 
HETATM   19  F   UNL     1     -11.568  11.017  63.576  1.00  0.00    -0.272 F  
HETATM   20  C   UNL     1      -9.504  11.792  67.171  1.00  0.00    -0.175 C  
HETATM   21  C   UNL     1     -11.237  11.255  64.876  1.00  0.00    -0.037 C  
HETATM   22  F   UNL     1      -8.297  11.971  66.457  1.00  0.00    -0.179 F  
HETATM   23  C   UNL     1     -10.337  10.126  65.333  1.00  0.00    -0.177 C  
HETATM   24  C   UNL     1      -9.945  10.268  66.812  1.00  0.00    -0.261 C  
HETATM   25  H   UNL     1     -11.065  12.310  69.127  1.00  0.00     0.000 HD 
ENDROOT
BRANCH   5  26
HETATM   26  C   UNL     1      -9.394   9.061  70.528  1.00  0.00    -0.219 C  
HETATM   27  O   UNL     1     -10.379   9.535  71.080  1.00  0.00    -0.308 OA 
BRANCH  26  28
HETATM   28  S   UNL     1      -8.047   8.496  71.544  1.00  0.00    -0.151 SA 
HETATM   29  F   UNL     1      -8.112   8.297  74.143  1.00  0.00    -0.250 F  
HETATM   30  C   UNL     1      -8.986   8.321  73.098  1.00  0.00    -0.231 C  
ENDBRANCH  26  28
ENDBRANCH   5  26
BRANCH   5  31
HETATM   31  O   UNL     1      -9.506   7.521  68.690  1.00  0.00    -0.146 OA 
BRANCH  31  32
HETATM   32  C   UNL     1     -10.748   6.948  68.633  1.00  0.00    -0.216 C  
HETATM   33  O   UNL     1     -11.373   6.744  67.609  1.00  0.00    -0.208 OA 
BRANCH  32  34
HETATM   34  C   UNL     1     -11.205   6.545  69.942  1.00  0.00    -0.395 A  
HETATM   35  C   UNL     1     -10.596   5.691  70.849  1.00  0.00    -0.328 A  
HETATM   36  O   UNL     1     -12.377   7.011  70.478  1.00  0.00    -0.267 OA 
HETATM   37  C   UNL     1     -11.435   5.625  71.983  1.00  0.00    -0.199 A  
HETATM   38  C   UNL     1     -12.508   6.440  71.708  1.00  0.00    -0.143 A  
ENDBRANCH  32  34
ENDBRANCH  31  32
ENDBRANCH   5  31
TORSDOF 5
ENDMDL
MODEL       26
REMARK 921   NORMALIZED FREE ENERGY PREDICTED BY IDOCK:   -5.93 KCAL/MOL
REMARK 922        TOTAL FREE ENERGY PREDICTED BY IDOCK:   -6.96 KCAL/MOL
REMARK 923 INTER-LIGAND FREE ENERGY PREDICTED BY IDOCK:   -7.39 KCAL/MOL
REMARK 924 INTRA-LIGAND FREE ENERGY PREDICTED BY IDOCK:    0.44 KCAL/MOL
REMARK 927      BINDING AFFINITY PREDICTED BY RF-SCORE:    0.00 PKD
ROOT
HETATM    1  C   UNL     1     -10.661   7.162  68.301  1.00  0.00    -0.230 C  
HETATM    2  C   UNL     1     -10.840   6.769  66.949  1.00  0.00    -0.402 C  
HETATM    3  C   UNL     1      -9.549   6.547  67.643  1.00  0.00    -0.131 C  
HETATM    4  C   UNL     1      -8.728   5.629  66.437  1.00  0.00    -0.126 C  
HETATM    5  C   UNL     1      -9.688   6.648  69.698  1.00  0.00    -0.154 C  
HETATM    6  C   UNL     1      -7.173  10.572  66.371  1.00  0.00    -0.129 C  
HETATM    7  C   UNL     1      -8.320  10.706  67.457  1.00  0.00    -0.115 C  
HETATM    8  C   UNL     1      -9.229   5.802  68.739  1.00  0.00    -0.128 C  
HETATM    9  C   UNL     1      -7.805  11.804  68.379  1.00  0.00    -0.141 C  
HETATM   10  C   UNL     1      -8.106  13.103  68.124  1.00  0.00    -0.155 C  
HETATM   11  C   UNL     1      -7.551   6.618  68.716  1.00  0.00    -0.104 C  
HETATM   12  O   UNL     1      -9.368  14.669  66.816  1.00  0.00    -0.232 OA 
HETATM   13  C   UNL     1      -9.629   4.295  68.756  1.00  0.00    -0.219 C  
HETATM   14  C   UNL     1      -9.026  13.509  66.992  1.00  0.00    -0.231 C  
HETATM   15  C   UNL     1      -9.458  12.413  66.054  1.00  0.00    -0.168 C  
HETATM   16  C   UNL     1      -9.597  11.309  66.818  1.00  0.00    -0.214 C  
HETATM   17  C   UNL     1      -7.547   8.325  68.677  1.00  0.00    -0.099 C  
HETATM   18  O   UNL     1      -7.424   8.806  70.022  1.00  0.00    -0.050 OA 
HETATM   19  F   UNL     1     -11.890  11.844  67.101  1.00  0.00    -0.387 F  
HETATM   20  C   UNL     1      -8.684   9.207  67.847  1.00  0.00    -0.128 C  
HETATM   21  C   UNL     1     -10.849  11.167  67.661  1.00  0.00    -0.247 C  
HETATM   22  F   UNL     1      -8.730   8.749  66.511  1.00  0.00    -0.109 F  
HETATM   23  C   UNL     1     -11.251   9.710  67.758  1.00  0.00     0.065 C  
HETATM   24  C   UNL     1     -10.162   8.858  68.429  1.00  0.00    -0.231 C  
HETATM   25  H   UNL     1      -7.422   9.755  70.001  1.00  0.00     0.000 HD 
ENDROOT
BRANCH   5  26
HETATM   26  C   UNL     1      -8.716   6.185  70.946  1.00  0.00    -0.136 C  
HETATM   27  O   UNL     1      -8.182   6.914  71.773  1.00  0.00    -0.105 OA 
BRANCH  26  28
HETATM   28  S   UNL     1      -8.320   4.451  70.967  1.00  0.00    -0.090 SA 
HETATM   29  F   UNL     1      -7.554   3.115  73.071  1.00  0.00    -0.049 F  
HETATM   30  C   UNL     1      -8.245   4.252  72.779  1.00  0.00    -0.094 C  
ENDBRANCH  26  28
ENDBRANCH   5  26
BRANCH   5  31
HETATM   31  O   UNL     1     -11.037   6.237  70.334  1.00  0.00    -0.296 OA 
BRANCH  31  32
HETATM   32  C   UNL     1     -11.532   6.482  71.587  1.00  0.00    -0.297 C  
HETATM   33  O   UNL     1     -11.413   5.734  72.540  1.00  0.00    -0.293 OA 
BRANCH  32  34
HETATM   34  C   UNL     1     -12.160   7.780  71.663  1.00  0.00    -0.304 A  
HETATM   35  C   UNL     1     -11.564   9.028  71.765  1.00  0.00    -0.444 A  
HETATM   36  O   UNL     1     -13.521   7.932  71.625  1.00  0.00    -0.341 OA 
HETATM   37  C   UNL     1     -12.604   9.982  71.800  1.00  0.00    -0.504 A  
HETATM   38  C   UNL     1     -13.776   9.267  71.718  1.00  0.00    -0.377 A  
ENDBRANCH  32  34
ENDBRANCH  31  32
ENDBRANCH   5  31
TORSDOF 5
ENDMDL
MODEL       27
REMARK 921   NORMALIZED FREE ENERGY PREDICTED BY IDOCK:   -5.84 KCAL/MOL
REMARK 922        TOTAL FREE ENERGY PREDICTED BY IDOCK:   -6.84 KCAL/MOL
REMARK 923 INTER-LIGAND FREE ENERGY PREDICTED BY IDOCK:   -7.88 KCAL/MOL
REMARK 924 INTRA-LIGAND FREE ENERGY PREDICTED BY IDOCK:    1.04 KCAL/MOL
REMARK 927      BINDING AFFINITY PREDICTED BY RF-SCORE:    0.00 PKD
ROOT
HETATM    1  C   UNL     1      -8.422  12.127  66.971  1.00  0.00    -0.183 C  
HETATM    2  C   UNL     1      -8.225  11.225  65.892  1.00  0.00     0.012 C  
HETATM    3  C   UNL     1      -9.585  11.681  66.267  1.00  0.00    -0.241 C  
HETATM    4  C   UNL     1     -10.488  10.982  64.976  1.00  0.00    -0.344 C  
HETATM    5  C   UNL     1      -9.595  13.380  67.433  1.00  0.00    -0.223 C  
HETATM    6  C   UNL     1     -10.898   8.117  69.275  1.00  0.00    -0.064 C  
HETATM    7  C   UNL     1      -9.842   9.175  69.802  1.00  0.00    -0.192 C  
HETATM    8  C   UNL     1     -10.151  12.920  66.283  1.00  0.00    -0.281 C  
HETATM    9  C   UNL     1     -10.174   9.294  71.285  1.00  0.00    -0.383 C  
HETATM   10  C   UNL     1      -9.573   8.473  72.184  1.00  0.00    -0.382 C  
HETATM   11  C   UNL     1     -11.598  12.172  67.191  1.00  0.00    -0.405 C  
HETATM   12  O   UNL     1      -7.892   6.812  72.602  1.00  0.00    -0.099 OA 
HETATM   13  C   UNL     1     -10.098  13.778  64.981  1.00  0.00    -0.310 C  
HETATM   14  C   UNL     1      -8.496   7.487  71.781  1.00  0.00    -0.107 C  
HETATM   15  C   UNL     1      -8.243   7.339  70.304  1.00  0.00    -0.133 C  
HETATM   16  C   UNL     1      -8.416   8.569  69.776  1.00  0.00    -0.129 C  
HETATM   17  C   UNL     1     -11.221  11.268  68.590  1.00  0.00    -0.250 C  
HETATM   18  O   UNL     1     -11.342  12.130  69.730  1.00  0.00    -0.455 OA 
HETATM   19  F   UNL     1      -6.092   8.962  70.041  1.00  0.00    -0.035 F  
HETATM   20  C   UNL     1      -9.852  10.334  68.713  1.00  0.00    -0.180 C  
HETATM   21  C   UNL     1      -7.299   9.583  69.929  1.00  0.00    -0.103 C  
HETATM   22  F   UNL     1      -9.801   9.454  67.609  1.00  0.00    -0.171 F  
HETATM   23  C   UNL     1      -7.240  10.482  68.712  1.00  0.00    -0.084 C  
HETATM   24  C   UNL     1      -8.541  11.277  68.521  1.00  0.00    -0.156 C  
HETATM   25  H   UNL     1     -11.132  11.628  70.507  1.00  0.00     0.000 HD 
ENDROOT
BRANCH   5  26
HETATM   26  C   UNL     1     -10.743  14.483  67.860  1.00  0.00    -0.245 C  
HETATM   27  O   UNL     1     -11.566  14.380  68.761  1.00  0.00    -0.279 OA 
BRANCH  26  28
HETATM   28  S   UNL     1     -10.848  15.892  66.777  1.00  0.00    -0.161 SA 
HETATM   29  F   UNL     1     -11.152  18.361  67.559  1.00  0.00    -0.420 F  
HETATM   30  C   UNL     1     -10.690  17.181  68.059  1.00  0.00    -0.372 C  
ENDBRANCH  26  28
ENDBRANCH   5  26
BRANCH   5  31
HETATM   31  O   UNL     1      -8.427  14.376  67.238  1.00  0.00    -0.190 OA 
BRANCH  31  32
HETATM   32  C   UNL     1      -7.682  15.055  68.166  1.00  0.00    -0.113 C  
HETATM   33  O   UNL     1      -7.584  14.747  69.339  1.00  0.00    -0.163 OA 
BRANCH  32  34
HETATM   34  C   UNL     1      -6.963  16.153  67.564  1.00  0.00    -0.168 A  
HETATM   35  C   UNL     1      -7.324  17.490  67.489  1.00  0.00    -0.191 A  
HETATM   36  O   UNL     1      -5.741  15.982  66.967  1.00  0.00    -0.340 OA 
HETATM   37  C   UNL     1      -6.285  18.163  66.810  1.00  0.00    -0.206 A  
HETATM   38  C   UNL     1      -5.347  17.203  66.508  1.00  0.00    -0.137 A  
ENDBRANCH  32  34
ENDBRANCH  31  32
ENDBRANCH   5  31
TORSDOF 5
ENDMDL
MODEL       28
REMARK 921   NORMALIZED FREE ENERGY PREDICTED BY IDOCK:   -5.81 KCAL/MOL
REMARK 922        TOTAL FREE ENERGY PREDICTED BY IDOCK:   -6.81 KCAL/MOL
REMARK 923 INTER-LIGAND FREE ENERGY PREDICTED BY IDOCK:   -7.75 KCAL/MOL
REMARK 924 INTRA-LIGAND FREE ENERGY PREDICTED BY IDOCK:    0.94 KCAL/MOL
REMARK 927      BINDING AFFINITY PREDICTED BY RF-SCORE:    0.00 PKD
ROOT
HETATM    1  C   UNL     1      -8.963  11.479  67.766  1.00  0.00    -0.160 C  
HETATM    2  C   UNL     1      -8.366  12.312  68.750  1.00  0.00     0.097 C  
HETATM    3  C   UNL     1      -7.741  11.025  68.357  1.00  0.00    -0.119 C  
HETATM    4  C   UNL     1      -6.263  11.144  69.235  1.00  0.00    -0.066 C  
HETATM    5  C   UNL     1      -8.431  10.287  66.560  1.00  0.00    -0.125 C  
HETATM    6  C   UNL     1      -9.635   8.082  71.706  1.00  0.00    -0.231 C  
HETATM    7  C   UNL     1     -10.582   8.568  70.533  1.00  0.00    -0.238 C  
HETATM    8  C   UNL     1      -7.252  10.586  67.163  1.00  0.00    -0.092 C  
HETATM    9  C   UNL     1     -11.495   7.371  70.299  1.00  0.00    -0.206 C  
HETATM   10  C   UNL     1     -12.660   7.260  70.988  1.00  0.00    -0.304 C  
HETATM   11  C   UNL     1      -7.122   8.886  67.923  1.00  0.00    -0.079 C  
HETATM   12  O   UNL     1     -14.235   8.283  72.482  1.00  0.00    -0.255 OA 
HETATM   13  C   UNL     1      -6.188  11.458  66.430  1.00  0.00    -0.066 C  
HETATM   14  C   UNL     1     -13.145   8.342  71.930  1.00  0.00    -0.344 C  
HETATM   15  C   UNL     1     -12.190   9.474  72.197  1.00  0.00    -0.282 C  
HETATM   16  C   UNL     1     -11.533   9.683  71.038  1.00  0.00    -0.444 C  
HETATM   17  C   UNL     1      -8.538   8.285  68.663  1.00  0.00    -0.133 C  
HETATM   18  O   UNL     1      -9.235   7.472  67.709  1.00  0.00    -0.135 OA 
HETATM   19  F   UNL     1     -13.157  11.312  70.460  1.00  0.00    -0.252 F  
HETATM   20  C   UNL     1      -9.606   9.259  69.484  1.00  0.00    -0.173 C  
HETATM   21  C   UNL     1     -12.237  10.454  69.938  1.00  0.00    -0.146 C  
HETATM   22  F   UNL     1      -8.894   9.995  70.458  1.00  0.00    -0.196 F  
HETATM   23  C   UNL     1     -11.236  11.278  69.155  1.00  0.00    -0.337 C  
HETATM   24  C   UNL     1     -10.176  10.399  68.474  1.00  0.00    -0.191 C  
HETATM   25  H   UNL     1     -10.022   7.138  68.120  1.00  0.00     0.000 HD 
ENDROOT
BRANCH   5  26
HETATM   26  C   UNL     1      -7.905   9.135  65.505  1.00  0.00    -0.095 C  
HETATM   27  O   UNL     1      -8.316   7.986  65.402  1.00  0.00    -0.143 OA 
BRANCH  26  28
HETATM   28  S   UNL     1      -6.496   9.619  64.531  1.00  0.00    -0.107 SA 
HETATM   29  F   UNL     1      -5.370   8.148  62.695  1.00  0.00    -0.058 F  
HETATM   30  C   UNL     1      -6.577   8.259  63.317  1.00  0.00    -0.085 C  
ENDBRANCH  26  28
ENDBRANCH   5  26
BRANCH   5  31
HETATM   31  O   UNL     1      -8.903  11.318  65.508  1.00  0.00    -0.178 OA 
BRANCH  31  32
HETATM   32  C   UNL     1     -10.006  11.309  64.696  1.00  0.00    -0.281 C  
HETATM   33  O   UNL     1     -10.257  10.448  63.873  1.00  0.00    -0.243 OA 
BRANCH  32  34
HETATM   34  C   UNL     1     -10.883  12.420  64.984  1.00  0.00    -0.295 A  
HETATM   35  C   UNL     1     -10.603  13.778  64.948  1.00  0.00    -0.427 A  
HETATM   36  O   UNL     1     -12.194  12.239  65.337  1.00  0.00    -0.546 OA 
HETATM   37  C   UNL     1     -11.790  14.455  65.304  1.00  0.00    -0.373 A  
HETATM   38  C   UNL     1     -12.729  13.476  65.536  1.00  0.00    -0.440 A  
ENDBRANCH  32  34
ENDBRANCH  31  32
ENDBRANCH   5  31
TORSDOF 5
ENDMDL
MODEL       29
REMARK 921   NORMALIZED FREE ENERGY PREDICTED BY IDOCK:   -5.78 KCAL/MOL
REMARK 922        TOTAL FREE ENERGY PREDICTED BY IDOCK:   -6.77 KCAL/MOL
REMARK 923 INTER-LIGAND FREE ENERGY PREDICTED BY IDOCK:   -7.62 KCAL/MOL
REMARK 924 INTRA-LIGAND FREE ENERGY PREDICTED BY IDOCK:    0.85 KCAL/MOL
REMARK 927      BINDING AFFINITY PREDICTED BY RF-SCORE:    0.00 PKD
ROOT
HETATM    1  C   UNL     1      -8.644  10.993  68.865  1.00  0.00    -0.122 C  
HETATM    2  C   UNL     1      -7.285  10.941  69.272  1.00  0.00    -0.128 C  
HETATM    3  C   UNL     1      -7.648  11.167  67.852  1.00  0.00    -0.099 C  
HETATM    4  C   UNL     1      -6.085  11.488  67.202  1.00  0.00    -0.115 C  
HETATM    5  C   UNL     1      -9.600  11.775  67.586  1.00  0.00    -0.183 C  
HETATM    6  C   UNL     1      -7.540   6.618  66.190  1.00  0.00    -0.086 C  
HETATM    7  C   UNL     1      -8.764   7.039  67.104  1.00  0.00    -0.121 C  
HETATM    8  C   UNL     1      -8.346  12.169  67.246  1.00  0.00    -0.179 C  
HETATM    9  C   UNL     1      -9.926   6.240  66.527  1.00  0.00    -0.172 C  
HETATM   10  C   UNL     1     -10.197   4.997  67.000  1.00  0.00    -0.253 C  
HETATM   11  C   UNL     1      -8.357  11.130  65.696  1.00  0.00     0.002 C  
HETATM   12  O   UNL     1      -9.740   3.313  68.647  1.00  0.00    -0.108 OA 
HETATM   13  C   UNL     1      -7.888  13.641  67.483  1.00  0.00    -0.185 C  
HETATM   14  C   UNL     1      -9.438   4.394  68.164  1.00  0.00    -0.152 C  
HETATM   15  C   UNL     1      -8.251   5.173  68.664  1.00  0.00    -0.085 C  
HETATM   16  C   UNL     1      -8.585   6.474  68.536  1.00  0.00    -0.123 C  
HETATM   17  C   UNL     1      -8.926   9.530  65.870  1.00  0.00    -0.173 C  
HETATM   18  O   UNL     1     -10.319   9.508  65.529  1.00  0.00    -0.238 OA 
HETATM   19  F   UNL     1      -9.387   6.444  70.768  1.00  0.00    -0.154 F  
HETATM   20  C   UNL     1      -8.648   8.621  67.232  1.00  0.00    -0.125 C  
HETATM   21  C   UNL     1      -9.503   7.089  69.574  1.00  0.00    -0.147 C  
HETATM   22  F   UNL     1      -7.260   8.612  67.499  1.00  0.00    -0.076 F  
HETATM   23  C   UNL     1      -9.137   8.541  69.801  1.00  0.00    -0.153 C  
HETATM   24  C   UNL     1      -9.287   9.378  68.522  1.00  0.00    -0.139 C  
HETATM   25  H   UNL     1     -10.635   8.618  65.625  1.00  0.00     0.000 HD 
ENDROOT
BRANCH   5  26
HETATM   26  C   UNL     1     -10.439  12.460  66.343  1.00  0.00    -0.243 C  
HETATM   27  O   UNL     1     -11.341  11.948  65.693  1.00  0.00    -0.324 OA 
BRANCH  26  28
HETATM   28  S   UNL     1      -9.837  14.058  65.842  1.00  0.00    -0.243 SA 
HETATM   29  F   UNL     1     -11.039  15.651  64.162  1.00  0.00    -0.278 F  
HETATM   30  C   UNL     1     -11.354  14.622  64.998  1.00  0.00    -0.390 C  
ENDBRANCH  26  28
ENDBRANCH   5  26
BRANCH   5  31
HETATM   31  O   UNL     1     -10.249  12.587  68.733  1.00  0.00    -0.188 OA 
BRANCH  31  32
HETATM   32  C   UNL     1     -11.563  12.894  68.962  1.00  0.00    -0.322 C  
HETATM   33  O   UNL     1     -12.210  13.702  68.323  1.00  0.00    -0.329 OA 
BRANCH  32  34
HETATM   34  C   UNL     1     -12.117  12.085  70.023  1.00  0.00    -0.280 A  
HETATM   35  C   UNL     1     -12.226  10.705  70.095  1.00  0.00    -0.398 A  
HETATM   36  O   UNL     1     -12.624  12.638  71.170  1.00  0.00    -0.366 OA 
HETATM   37  C   UNL     1     -12.832  10.401  71.333  1.00  0.00    -0.556 A  
HETATM   38  C   UNL     1     -13.060  11.609  71.950  1.00  0.00    -0.385 A  
ENDBRANCH  32  34
ENDBRANCH  31  32
ENDBRANCH   5  31
TORSDOF 5
ENDMDL
MODEL       30
REMARK 921   NORMALIZED FREE ENERGY PREDICTED BY IDOCK:   -5.76 KCAL/MOL
REMARK 922        TOTAL FREE ENERGY PREDICTED BY IDOCK:   -6.74 KCAL/MOL
REMARK 923 INTER-LIGAND FREE ENERGY PREDICTED BY IDOCK:   -7.49 KCAL/MOL
REMARK 924 INTRA-LIGAND FREE ENERGY PREDICTED BY IDOCK:    0.75 KCAL/MOL
REMARK 927      BINDING AFFINITY PREDICTED BY RF-SCORE:    0.00 PKD
ROOT
HETATM    1  C   UNL     1      -7.351  10.440  68.159  1.00  0.00    -0.088 C  
HETATM    2  C   UNL     1      -6.090  10.056  68.689  1.00  0.00    -0.044 C  
HETATM    3  C   UNL     1      -6.597   9.471  67.423  1.00  0.00    -0.070 C  
HETATM    4  C   UNL     1      -5.206   8.571  66.946  1.00  0.00    -0.036 C  
HETATM    5  C   UNL     1      -8.118  10.563  66.560  1.00  0.00    -0.134 C  
HETATM    6  C   UNL     1      -8.754   5.476  69.111  1.00  0.00    -0.103 C  
HETATM    7  C   UNL     1      -9.477   6.864  69.358  1.00  0.00    -0.148 C  
HETATM    8  C   UNL     1      -6.909  10.042  66.226  1.00  0.00    -0.099 C  
HETATM    9  C   UNL     1     -10.957   6.509  69.274  1.00  0.00    -0.389 C  
HETATM   10  C   UNL     1     -11.630   6.132  70.392  1.00  0.00    -0.262 C  
HETATM   11  C   UNL     1      -7.664   8.411  65.725  1.00  0.00    -0.094 C  
HETATM   12  O   UNL     1     -11.614   5.887  72.779  1.00  0.00    -0.266 OA 
HETATM   13  C   UNL     1      -5.834  10.927  65.522  1.00  0.00    -0.051 C  
HETATM   14  C   UNL     1     -10.984   6.140  71.762  1.00  0.00    -0.264 C  
HETATM   15  C   UNL     1      -9.506   6.422  71.803  1.00  0.00    -0.159 C  
HETATM   16  C   UNL     1      -9.276   7.321  70.824  1.00  0.00    -0.156 C  
HETATM   17  C   UNL     1      -8.810   7.752  66.804  1.00  0.00    -0.139 C  
HETATM   18  O   UNL     1     -10.118   8.145  66.367  1.00  0.00    -0.418 OA 
HETATM   19  F   UNL     1      -9.558   9.059  72.413  1.00  0.00    -0.343 F  
HETATM   20  C   UNL     1      -8.680   7.902  68.454  1.00  0.00    -0.131 C  
HETATM   21  C   UNL     1      -9.623   8.775  71.083  1.00  0.00    -0.242 C  
HETATM   22  F   UNL     1      -7.404   7.446  68.854  1.00  0.00    -0.080 F  
HETATM   23  C   UNL     1      -8.640   9.681  70.372  1.00  0.00    -0.200 C  
HETATM   24  C   UNL     1      -8.671   9.480  68.849  1.00  0.00    -0.133 C  
HETATM   25  H   UNL     1     -10.756   7.778  66.968  1.00  0.00     0.000 HD 
ENDROOT
BRANCH   5  26
HETATM   26  C   UNL     1      -8.814  10.594  65.067  1.00  0.00    -0.197 C  
HETATM   27  O   UNL     1      -8.251  10.460  63.988  1.00  0.00    -0.162 OA 
BRANCH  26  28
HETATM   28  S   UNL     1     -10.545  11.009  65.070  1.00  0.00    -0.198 SA 
HETATM   29  F   UNL     1     -11.644  12.858  63.596  1.00  0.00    -0.428 F  
HETATM   30  C   UNL     1     -10.531  12.073  63.588  1.00  0.00    -0.454 C  
ENDBRANCH  26  28
ENDBRANCH   5  26
BRANCH   5  31
HETATM   31  O   UNL     1      -8.121  12.090  66.812  1.00  0.00    -0.156 OA 
BRANCH  31  32
HETATM   32  C   UNL     1      -9.071  12.885  67.394  1.00  0.00    -0.197 C  
HETATM   33  O   UNL     1      -9.756  12.566  68.348  1.00  0.00    -0.221 OA 
BRANCH  32  34
HETATM   34  C   UNL     1      -9.117  14.190  66.777  1.00  0.00    -0.247 A  
HETATM   35  C   UNL     1      -8.231  15.247  66.916  1.00  0.00    -0.263 A  
HETATM   36  O   UNL     1     -10.114  14.550  65.908  1.00  0.00    -0.295 OA 
HETATM   37  C   UNL     1      -8.710  16.300  66.106  1.00  0.00    -0.353 A  
HETATM   38  C   UNL     1      -9.860  15.830  65.516  1.00  0.00    -0.264 A  
ENDBRANCH  32  34
ENDBRANCH  31  32
ENDBRANCH   5  31
TORSDOF 5
ENDMDL
MODEL       31
REMARK 921   NORMALIZED FREE ENERGY PREDICTED BY IDOCK:   -5.73 KCAL/MOL
REMARK 922        TOTAL FREE ENERGY PREDICTED BY IDOCK:   -6.70 KCAL/MOL
REMARK 923 INTER-LIGAND FREE ENERGY PREDICTED BY IDOCK:   -7.31 KCAL/MOL
REMARK 924 INTRA-LIGAND FREE ENERGY PREDICTED BY IDOCK:    0.61 KCAL/MOL
REMARK 927      BINDING AFFINITY PREDICTED BY RF-SCORE:    0.00 PKD
ROOT
HETATM    1  C   UNL     1     -10.700   7.183  69.002  1.00  0.00    -0.204 C  
HETATM    2  C   UNL     1     -11.515   6.289  69.747  1.00  0.00    -0.449 C  
HETATM    3  C   UNL     1     -10.163   6.669  70.225  1.00  0.00    -0.215 C  
HETATM    4  C   UNL     1     -10.184   5.916  71.775  1.00  0.00    -0.248 C  
HETATM    5  C   UNL     1      -9.418   8.370  69.329  1.00  0.00    -0.155 C  
HETATM    6  C   UNL     1      -7.535   3.048  68.367  1.00  0.00    -0.049 C  
HETATM    7  C   UNL     1      -8.058   4.165  67.372  1.00  0.00    -0.099 C  
HETATM    8  C   UNL     1      -9.634   7.875  70.575  1.00  0.00    -0.170 C  
HETATM    9  C   UNL     1      -6.938   4.271  66.343  1.00  0.00    -0.059 C  
HETATM   10  C   UNL     1      -6.958   3.489  65.233  1.00  0.00    -0.060 C  
HETATM   11  C   UNL     1      -7.962   7.049  70.621  1.00  0.00    -0.109 C  
HETATM   12  O   UNL     1      -8.177   1.926  63.880  1.00  0.00    -0.075 OA 
HETATM   13  C   UNL     1     -10.378   8.729  71.647  1.00  0.00    -0.391 C  
HETATM   14  C   UNL     1      -8.116   2.563  64.922  1.00  0.00    -0.082 C  
HETATM   15  C   UNL     1      -9.169   2.424  65.989  1.00  0.00    -0.023 C  
HETATM   16  C   UNL     1      -9.272   3.641  66.564  1.00  0.00    -0.183 C  
HETATM   17  C   UNL     1      -7.519   6.174  69.224  1.00  0.00    -0.089 C  
HETATM   18  O   UNL     1      -6.734   7.032  68.384  1.00  0.00    -0.059 OA 
HETATM   19  F   UNL     1     -11.015   4.165  65.044  1.00  0.00    -0.289 F  
HETATM   20  C   UNL     1      -8.616   5.318  68.315  1.00  0.00    -0.099 C  
HETATM   21  C   UNL     1     -10.058   4.717  65.842  1.00  0.00    -0.258 C  
HETATM   22  F   UNL     1      -9.324   4.439  69.164  1.00  0.00    -0.150 F  
HETATM   23  C   UNL     1     -10.758   5.613  66.842  1.00  0.00    -0.350 C  
HETATM   24  C   UNL     1      -9.761   6.333  67.763  1.00  0.00    -0.122 C  
HETATM   25  H   UNL     1      -6.488   6.545  67.607  1.00  0.00     0.000 HD 
ENDROOT
BRANCH   5  26
HETATM   26  C   UNL     1      -8.183   9.408  69.667  1.00  0.00    -0.136 C  
HETATM   27  O   UNL     1      -7.892   9.875  70.761  1.00  0.00    -0.275 OA 
BRANCH  26  28
HETATM   28  S   UNL     1      -7.298   9.989  68.237  1.00  0.00    -0.078 SA 
HETATM   29  F   UNL     1      -7.384  12.425  67.311  1.00  0.00    -0.122 F  
HETATM   30  C   UNL     1      -7.600  11.771  68.486  1.00  0.00    -0.131 C  
ENDBRANCH  26  28
ENDBRANCH   5  26
BRANCH   5  31
HETATM   31  O   UNL     1     -10.445   9.429  68.863  1.00  0.00    -0.208 OA 
BRANCH  31  32
HETATM   32  C   UNL     1     -10.666   9.955  67.619  1.00  0.00    -0.281 C  
HETATM   33  O   UNL     1     -10.493   9.361  66.571  1.00  0.00    -0.215 OA 
BRANCH  32  34
HETATM   34  C   UNL     1     -11.201  11.295  67.699  1.00  0.00    -0.292 A  
HETATM   35  C   UNL     1     -11.310  12.121  68.807  1.00  0.00    -0.339 A  
HETATM   36  O   UNL     1     -11.684  11.952  66.598  1.00  0.00    -0.546 OA 
HETATM   37  C   UNL     1     -11.893  13.329  68.367  1.00  0.00    -0.395 A  
HETATM   38  C   UNL     1     -12.107  13.177  67.017  1.00  0.00    -0.307 A  
ENDBRANCH  32  34
ENDBRANCH  31  32
ENDBRANCH   5  31
TORSDOF 5
ENDMDL
MODEL       32
REMARK 921   NORMALIZED FREE ENERGY PREDICTED BY IDOCK:   -5.65 KCAL/MOL
REMARK 922        TOTAL FREE ENERGY PREDICTED BY IDOCK:   -6.60 KCAL/MOL
REMARK 923 INTER-LIGAND FREE ENERGY PREDICTED BY IDOCK:   -7.28 KCAL/MOL
REMARK 924 INTRA-LIGAND FREE ENERGY PREDICTED BY IDOCK:    0.68 KCAL/MOL
REMARK 927      BINDING AFFINITY PREDICTED BY RF-SCORE:    0.00 PKD
ROOT
HETATM    1  C   UNL     1      -8.466  10.256  69.373  1.00  0.00    -0.170 C  
HETATM    2  C   UNL     1      -7.229  10.554  70.004  1.00  0.00    -0.105 C  
HETATM    3  C   UNL     1      -7.273   9.789  68.734  1.00  0.00    -0.072 C  
HETATM    4  C   UNL     1      -5.586   9.701  68.394  1.00  0.00    -0.039 C  
HETATM    5  C   UNL     1      -9.059   9.972  67.721  1.00  0.00    -0.131 C  
HETATM    6  C   UNL     1      -7.289   5.257  70.446  1.00  0.00    -0.063 C  
HETATM    7  C   UNL     1      -8.624   6.101  70.581  1.00  0.00    -0.135 C  
HETATM    8  C   UNL     1      -7.729  10.123  67.494  1.00  0.00    -0.091 C  
HETATM    9  C   UNL     1      -9.719   5.054  70.412  1.00  0.00    -0.280 C  
HETATM   10  C   UNL     1     -10.206   4.397  71.496  1.00  0.00    -0.167 C  
HETATM   11  C   UNL     1      -7.530   8.331  67.015  1.00  0.00    -0.088 C  
HETATM   12  O   UNL     1     -10.264   4.204  73.887  1.00  0.00    -0.136 OA 
HETATM   13  C   UNL     1      -7.183  11.423  66.827  1.00  0.00    -0.131 C  
HETATM   14  C   UNL     1      -9.763   4.732  72.906  1.00  0.00    -0.139 C  
HETATM   15  C   UNL     1      -8.629   5.714  73.036  1.00  0.00    -0.121 C  
HETATM   16  C   UNL     1      -8.797   6.604  72.036  1.00  0.00    -0.135 C  
HETATM   17  C   UNL     1      -8.281   7.192  68.042  1.00  0.00    -0.120 C  
HETATM   18  O   UNL     1      -9.571   6.878  67.500  1.00  0.00    -0.126 OA 
HETATM   19  F   UNL     1     -10.034   7.977  73.523  1.00  0.00    -0.375 F  
HETATM   20  C   UNL     1      -8.378   7.394  69.689  1.00  0.00    -0.132 C  
HETATM   21  C   UNL     1      -9.840   7.692  72.205  1.00  0.00    -0.178 C  
HETATM   22  F   UNL     1      -7.081   7.637  70.195  1.00  0.00    -0.054 F  
HETATM   23  C   UNL     1      -9.383   8.965  71.524  1.00  0.00    -0.335 C  
HETATM   24  C   UNL     1      -9.186   8.768  70.013  1.00  0.00    -0.173 C  
HETATM   25  H   UNL     1      -9.988   6.245  68.070  1.00  0.00     0.000 HD 
ENDROOT
BRANCH   5  26
HETATM   26  C   UNL     1      -9.555   9.646  66.183  1.00  0.00    -0.233 C  
HETATM   27  O   UNL     1     -10.370   8.800  65.836  1.00  0.00     0.095 OA 
BRANCH  26  28
HETATM   28  S   UNL     1      -8.682  10.546  64.921  1.00  0.00    -0.168 SA 
HETATM   29  F   UNL     1      -9.597  11.040  62.530  1.00  0.00    -0.287 F  
HETATM   30  C   UNL     1     -10.082  10.745  63.769  1.00  0.00    -0.327 C  
ENDBRANCH  26  28
ENDBRANCH   5  26
BRANCH   5  31
HETATM   31  O   UNL     1      -9.841  11.295  67.903  1.00  0.00    -0.170 OA 
BRANCH  31  32
HETATM   32  C   UNL     1     -11.142  11.599  67.605  1.00  0.00    -0.255 C  
HETATM   33  O   UNL     1     -12.114  11.085  68.127  1.00  0.00    -0.610 OA 
BRANCH  32  34
HETATM   34  C   UNL     1     -11.227  12.664  66.633  1.00  0.00    -0.300 A  
HETATM   35  C   UNL     1     -12.279  12.989  65.790  1.00  0.00    -0.511 A  
HETATM   36  O   UNL     1     -10.199  13.548  66.432  1.00  0.00    -0.278 OA 
HETATM   37  C   UNL     1     -11.875  14.112  65.036  1.00  0.00    -0.390 A  
HETATM   38  C   UNL     1     -10.600  14.412  65.458  1.00  0.00    -0.347 A  
ENDBRANCH  32  34
ENDBRANCH  31  32
ENDBRANCH   5  31
TORSDOF 5
ENDMDL
MODEL       33
REMARK 921   NORMALIZED FREE ENERGY PREDICTED BY IDOCK:   -5.63 KCAL/MOL
REMARK 922        TOTAL FREE ENERGY PREDICTED BY IDOCK:   -6.57 KCAL/MOL
REMARK 923 INTER-LIGAND FREE ENERGY PREDICTED BY IDOCK:   -7.51 KCAL/MOL
REMARK 924 INTRA-LIGAND FREE ENERGY PREDICTED BY IDOCK:    0.94 KCAL/MOL
REMARK 927      BINDING AFFINITY PREDICTED BY RF-SCORE:    0.00 PKD
ROOT
HETATM    1  C   UNL     1     -11.384  14.140  67.436  1.00  0.00    -0.346 C  
HETATM    2  C   UNL     1     -11.966  14.760  66.298  1.00  0.00    -0.168 C  
HETATM    3  C   UNL     1     -10.826  13.821  66.157  1.00  0.00    -0.279 C  
HETATM    4  C   UNL     1     -10.759  13.706  64.439  1.00  0.00    -0.369 C  
HETATM    5  C   UNL     1     -10.531  12.626  67.811  1.00  0.00    -0.221 C  
HETATM    6  C   UNL     1      -7.118  16.939  66.214  1.00  0.00    -0.170 C  
HETATM    7  C   UNL     1      -7.855  16.645  67.586  1.00  0.00    -0.189 C  
HETATM    8  C   UNL     1     -10.699  12.501  66.469  1.00  0.00    -0.266 C  
HETATM    9  C   UNL     1      -6.732  16.724  68.612  1.00  0.00    -0.174 C  
HETATM   10  C   UNL     1      -6.432  17.910  69.202  1.00  0.00    -0.243 C  
HETATM   11  C   UNL     1      -8.869  12.672  66.146  1.00  0.00     0.194 C  
HETATM   12  O   UNL     1      -7.029  20.208  69.546  1.00  0.00    -0.230 OA 
HETATM   13  C   UNL     1     -11.746  11.498  65.895  1.00  0.00     0.184 C  
HETATM   14  C   UNL     1      -7.242  19.163  68.948  1.00  0.00    -0.341 C  
HETATM   15  C   UNL     1      -8.296  19.074  67.877  1.00  0.00    -0.320 C  
HETATM   16  C   UNL     1      -8.794  17.822  67.954  1.00  0.00    -0.251 C  
HETATM   17  C   UNL     1      -8.077  13.938  66.975  1.00  0.00     0.008 C  
HETATM   18  O   UNL     1      -7.505  13.401  68.176  1.00  0.00    -0.107 OA 
HETATM   19  F   UNL     1     -10.480  18.628  69.414  1.00  0.00    -0.244 F  
HETATM   20  C   UNL     1      -8.800  15.402  67.280  1.00  0.00    -0.195 C  
HETATM   21  C   UNL     1      -9.794  17.509  69.050  1.00  0.00    -0.225 C  
HETATM   22  F   UNL     1      -9.293  15.929  66.065  1.00  0.00    -0.289 F  
HETATM   23  C   UNL     1     -10.804  16.492  68.561  1.00  0.00    -0.349 C  
HETATM   24  C   UNL     1     -10.138  15.163  68.172  1.00  0.00    -0.222 C  
HETATM   25  H   UNL     1      -7.064  14.105  68.636  1.00  0.00     0.000 HD 
ENDROOT
BRANCH   5  26
HETATM   26  C   UNL     1      -9.681  11.245  68.102  1.00  0.00    -0.185 C  
HETATM   27  O   UNL     1      -9.761  10.187  67.489  1.00  0.00    -0.157 OA 
BRANCH  26  28
HETATM   28  S   UNL     1      -8.656  11.303  69.556  1.00  0.00     0.822 SA 
HETATM   29  F   UNL     1      -8.393   9.364  71.280  1.00  0.00    -0.201 F  
HETATM   30  C   UNL     1      -8.750   9.530  69.976  1.00  0.00    -0.221 C  
ENDBRANCH  26  28
ENDBRANCH   5  26
BRANCH   5  31
HETATM   31  O   UNL     1     -11.777  12.275  68.659  1.00  0.00    -0.293 OA 
BRANCH  31  32
HETATM   32  C   UNL     1     -12.025  12.481  69.989  1.00  0.00    -0.299 C  
HETATM   33  O   UNL     1     -11.994  13.565  70.543  1.00  0.00    -0.326 OA 
BRANCH  32  34
HETATM   34  C   UNL     1     -12.402  11.255  70.653  1.00  0.00    -0.383 A  
HETATM   35  C   UNL     1     -13.202  11.085  71.772  1.00  0.00    -0.505 A  
HETATM   36  O   UNL     1     -11.988  10.028  70.204  1.00  0.00    -0.220 OA 
HETATM   37  C   UNL     1     -13.272   9.697  72.024  1.00  0.00    -0.546 A  
HETATM   38  C   UNL     1     -12.514   9.096  71.047  1.00  0.00    -0.181 A  
ENDBRANCH  32  34
ENDBRANCH  31  32
ENDBRANCH   5  31
TORSDOF 5
ENDMDL
MODEL       34
REMARK 921   NORMALIZED FREE ENERGY PREDICTED BY IDOCK:   -5.59 KCAL/MOL
REMARK 922        TOTAL FREE ENERGY PREDICTED BY IDOCK:   -6.52 KCAL/MOL
REMARK 923 INTER-LIGAND FREE ENERGY PREDICTED BY IDOCK:   -7.23 KCAL/MOL
REMARK 924 INTRA-LIGAND FREE ENERGY PREDICTED BY IDOCK:    0.71 KCAL/MOL
REMARK 927      BINDING AFFINITY PREDICTED BY RF-SCORE:    0.00 PKD
ROOT
HETATM    1  C   UNL     1      -8.480  10.027  69.787  1.00  0.00    -0.189 C  
HETATM    2  C   UNL     1      -7.171  10.224  70.302  1.00  0.00    -0.077 C  
HETATM    3  C   UNL     1      -7.385   9.560  68.993  1.00  0.00    -0.072 C  
HETATM    4  C   UNL     1      -5.749   9.425  68.468  1.00  0.00    -0.040 C  
HETATM    5  C   UNL     1      -9.256   9.894  68.193  1.00  0.00    -0.128 C  
HETATM    6  C   UNL     1      -7.450   4.916  70.373  1.00  0.00    -0.058 C  
HETATM    7  C   UNL     1      -8.720   5.803  70.710  1.00  0.00    -0.131 C  
HETATM    8  C   UNL     1      -7.950  10.005  67.835  1.00  0.00    -0.105 C  
HETATM    9  C   UNL     1      -9.878   4.820  70.587  1.00  0.00    -0.292 C  
HETATM   10  C   UNL     1     -10.281   4.104  71.668  1.00  0.00    -0.133 C  
HETATM   11  C   UNL     1      -7.893   8.247  67.213  1.00  0.00    -0.105 C  
HETATM   12  O   UNL     1     -10.099   3.734  74.032  1.00  0.00    -0.122 OA 
HETATM   13  C   UNL     1      -7.412  11.327  67.207  1.00  0.00    -0.126 C  
HETATM   14  C   UNL     1      -9.677   4.313  73.042  1.00  0.00    -0.128 C  
HETATM   15  C   UNL     1      -8.488   5.233  73.118  1.00  0.00    -0.114 C  
HETATM   16  C   UNL     1      -8.715   6.203  72.207  1.00  0.00    -0.137 C  
HETATM   17  C   UNL     1      -8.589   7.067  68.232  1.00  0.00    -0.129 C  
HETATM   18  O   UNL     1      -9.942   6.850  67.811  1.00  0.00    -0.138 OA 
HETATM   19  F   UNL     1      -9.719   7.511  73.911  1.00  0.00    -0.297 F  
HETATM   20  C   UNL     1      -8.503   7.149  69.890  1.00  0.00    -0.140 C  
HETATM   21  C   UNL     1      -9.679   7.318  72.564  1.00  0.00    -0.154 C  
HETATM   22  F   UNL     1      -7.150   7.297  70.269  1.00  0.00    -0.059 F  
HETATM   23  C   UNL     1      -9.232   8.618  71.928  1.00  0.00    -0.345 C  
HETATM   24  C   UNL     1      -9.203   8.527  70.395  1.00  0.00    -0.173 C  
HETATM   25  H   UNL     1     -10.329   6.193  68.378  1.00  0.00     0.000 HD 
ENDROOT
BRANCH   5  26
HETATM   26  C   UNL     1      -9.925   9.705  66.699  1.00  0.00    -0.236 C  
HETATM   27  O   UNL     1     -10.804   8.915  66.380  1.00  0.00     0.117 OA 
BRANCH  26  28
HETATM   28  S   UNL     1      -9.158  10.677  65.421  1.00  0.00    -0.197 SA 
HETATM   29  F   UNL     1     -10.347  11.507  63.253  1.00  0.00    -0.336 F  
HETATM   30  C   UNL     1     -10.680  11.109  64.513  1.00  0.00    -0.297 C  
ENDBRANCH  26  28
ENDBRANCH   5  26
BRANCH   5  31
HETATM   31  O   UNL     1      -9.947  11.231  68.552  1.00  0.00    -0.190 OA 
BRANCH  31  32
HETATM   32  C   UNL     1     -11.275  11.566  68.548  1.00  0.00    -0.258 C  
HETATM   33  O   UNL     1     -11.883  11.989  67.582  1.00  0.00    -0.512 OA 
BRANCH  32  34
HETATM   34  C   UNL     1     -11.893  11.291  69.824  1.00  0.00    -0.364 A  
HETATM   35  C   UNL     1     -12.454  12.180  70.727  1.00  0.00    -0.362 A  
HETATM   36  O   UNL     1     -12.014  10.016  70.313  1.00  0.00    -0.249 OA 
HETATM   37  C   UNL     1     -12.929  11.420  71.818  1.00  0.00    -0.519 A  
HETATM   38  C   UNL     1     -12.634  10.110  71.522  1.00  0.00    -0.434 A  
ENDBRANCH  32  34
ENDBRANCH  31  32
ENDBRANCH   5  31
TORSDOF 5
ENDMDL
MODEL       35
REMARK 921   NORMALIZED FREE ENERGY PREDICTED BY IDOCK:   -5.56 KCAL/MOL
REMARK 922        TOTAL FREE ENERGY PREDICTED BY IDOCK:   -6.48 KCAL/MOL
REMARK 923 INTER-LIGAND FREE ENERGY PREDICTED BY IDOCK:   -7.42 KCAL/MOL
REMARK 924 INTRA-LIGAND FREE ENERGY PREDICTED BY IDOCK:    0.94 KCAL/MOL
REMARK 927      BINDING AFFINITY PREDICTED BY RF-SCORE:    0.00 PKD
ROOT
HETATM    1  C   UNL     1      -8.258  11.921  67.229  1.00  0.00    -0.170 C  
HETATM    2  C   UNL     1      -7.724  10.993  66.295  1.00  0.00    -0.132 C  
HETATM    3  C   UNL     1      -9.178  11.282  66.339  1.00  0.00    -0.206 C  
HETATM    4  C   UNL     1      -9.689  10.394  64.953  1.00  0.00    -0.372 C  
HETATM    5  C   UNL     1      -9.645  13.029  67.329  1.00  0.00    -0.225 C  
HETATM    6  C   UNL     1     -10.676   7.753  69.301  1.00  0.00    -0.156 C  
HETATM    7  C   UNL     1      -9.894   8.972  69.944  1.00  0.00    -0.194 C  
HETATM    8  C   UNL     1      -9.878  12.433  66.131  1.00  0.00    -0.263 C  
HETATM    9  C   UNL     1     -10.552   9.130  71.309  1.00  0.00    -0.399 C  
HETATM   10  C   UNL     1     -10.067   8.452  72.381  1.00  0.00    -0.386 C  
HETATM   11  C   UNL     1     -11.388  11.549  66.780  1.00  0.00    -0.309 C  
HETATM   12  O   UNL     1      -8.331   7.059  73.278  1.00  0.00    -0.116 OA 
HETATM   13  C   UNL     1      -9.646  13.213  64.801  1.00  0.00     0.296 C  
HETATM   14  C   UNL     1      -8.819   7.598  72.295  1.00  0.00    -0.131 C  
HETATM   15  C   UNL     1      -8.235   7.401  70.922  1.00  0.00    -0.114 C  
HETATM   16  C   UNL     1      -8.435   8.564  70.267  1.00  0.00    -0.128 C  
HETATM   17  C   UNL     1     -11.218  10.787  68.298  1.00  0.00    -0.297 C  
HETATM   18  O   UNL     1     -11.686  11.689  69.310  1.00  0.00    -0.275 OA 
HETATM   19  F   UNL     1      -6.288   9.282  70.974  1.00  0.00    -0.049 F  
HETATM   20  C   UNL     1      -9.807  10.055  68.782  1.00  0.00    -0.167 C  
HETATM   21  C   UNL     1      -7.507   9.727  70.561  1.00  0.00    -0.101 C  
HETATM   22  F   UNL     1      -9.412   9.128  67.791  1.00  0.00    -0.143 F  
HETATM   23  C   UNL     1      -7.293  10.554  69.311  1.00  0.00    -0.113 C  
HETATM   24  C   UNL     1      -8.607  11.153  68.787  1.00  0.00    -0.133 C  
HETATM   25  H   UNL     1     -11.591  11.265  70.154  1.00  0.00     0.000 HD 
ENDROOT
BRANCH   5  26
HETATM   26  C   UNL     1     -10.981  13.989  67.412  1.00  0.00    -0.293 C  
HETATM   27  O   UNL     1     -11.863  13.954  68.261  1.00  0.00    -0.343 OA 
BRANCH  26  28
HETATM   28  S   UNL     1     -11.191  15.081  66.022  1.00  0.00    -0.267 SA 
HETATM   29  F   UNL     1     -12.999  14.807  64.163  1.00  0.00    -0.201 F  
HETATM   30  C   UNL     1     -12.798  14.429  65.456  1.00  0.00    -0.225 C  
ENDBRANCH  26  28
ENDBRANCH   5  26
BRANCH   5  31
HETATM   31  O   UNL     1      -8.590  14.161  67.297  1.00  0.00    -0.196 OA 
BRANCH  31  32
HETATM   32  C   UNL     1      -8.266  15.092  68.247  1.00  0.00    -0.146 C  
HETATM   33  O   UNL     1      -8.096  14.851  69.428  1.00  0.00    -0.171 OA 
BRANCH  32  34
HETATM   34  C   UNL     1      -8.081  16.400  67.664  1.00  0.00    -0.156 A  
HETATM   35  C   UNL     1      -7.721  16.728  66.366  1.00  0.00    -0.345 A  
HETATM   36  O   UNL     1      -8.270  17.551  68.384  1.00  0.00    -0.260 OA 
HETATM   37  C   UNL     1      -7.679  18.137  66.291  1.00  0.00    -0.290 A  
HETATM   38  C   UNL     1      -8.015  18.593  67.544  1.00  0.00    -0.244 A  
ENDBRANCH  32  34
ENDBRANCH  31  32
ENDBRANCH   5  31
TORSDOF 5
ENDMDL
MODEL       36
REMARK 921   NORMALIZED FREE ENERGY PREDICTED BY IDOCK:   -5.51 KCAL/MOL
REMARK 922        TOTAL FREE ENERGY PREDICTED BY IDOCK:   -6.41 KCAL/MOL
REMARK 923 INTER-LIGAND FREE ENERGY PREDICTED BY IDOCK:   -7.24 KCAL/MOL
REMARK 924 INTRA-LIGAND FREE ENERGY PREDICTED BY IDOCK:    0.82 KCAL/MOL
REMARK 927      BINDING AFFINITY PREDICTED BY RF-SCORE:    0.00 PKD
ROOT
HETATM    1  C   UNL     1      -8.551  10.328  69.176  1.00  0.00    -0.167 C  
HETATM    2  C   UNL     1      -7.321  10.197  69.875  1.00  0.00    -0.169 C  
HETATM    3  C   UNL     1      -7.347  10.538  68.431  1.00  0.00    -0.086 C  
HETATM    4  C   UNL     1      -5.671  10.848  68.179  1.00  0.00    -0.046 C  
HETATM    5  C   UNL     1      -9.175  11.234  67.780  1.00  0.00    -0.156 C  
HETATM    6  C   UNL     1      -6.948   6.119  66.487  1.00  0.00    -0.067 C  
HETATM    7  C   UNL     1      -8.340   6.518  67.130  1.00  0.00    -0.113 C  
HETATM    8  C   UNL     1      -7.869  11.606  67.764  1.00  0.00    -0.129 C  
HETATM    9  C   UNL     1      -9.354   5.805  66.244  1.00  0.00    -0.171 C  
HETATM   10  C   UNL     1      -9.750   4.541  66.545  1.00  0.00    -0.220 C  
HETATM   11  C   UNL     1      -7.545  10.682  66.176  1.00  0.00    -0.138 C  
HETATM   12  O   UNL     1      -9.712   2.728  68.116  1.00  0.00    -0.136 OA 
HETATM   13  C   UNL     1      -7.450  13.039  68.213  1.00  0.00    -0.128 C  
HETATM   14  C   UNL     1      -9.287   3.829  67.799  1.00  0.00    -0.189 C  
HETATM   15  C   UNL     1      -8.232   4.527  68.614  1.00  0.00    -0.082 C  
HETATM   16  C   UNL     1      -8.503   5.845  68.517  1.00  0.00    -0.111 C  
HETATM   17  C   UNL     1      -8.169   9.095  66.090  1.00  0.00    -0.111 C  
HETATM   18  O   UNL     1      -9.448   9.148  65.443  1.00  0.00    -0.375 OA 
HETATM   19  F   UNL     1      -9.794   5.683  70.500  1.00  0.00    -0.195 F  
HETATM   20  C   UNL     1      -8.227   8.080  67.405  1.00  0.00    -0.123 C  
HETATM   21  C   UNL     1      -9.622   6.417  69.365  1.00  0.00    -0.142 C  
HETATM   22  F   UNL     1      -6.937   8.003  67.977  1.00  0.00    -0.065 F  
HETATM   23  C   UNL     1      -9.291   7.834  69.782  1.00  0.00    -0.153 C  
HETATM   24  C   UNL     1      -9.129   8.766  68.572  1.00  0.00    -0.138 C  
HETATM   25  H   UNL     1      -9.794   8.265  65.395  1.00  0.00     0.000 HD 
ENDROOT
BRANCH   5  26
HETATM   26  C   UNL     1      -9.695  12.036  66.437  1.00  0.00    -0.225 C  
HETATM   27  O   UNL     1      -9.271  13.100  66.004  1.00  0.00    -0.079 OA 
BRANCH  26  28
HETATM   28  S   UNL     1     -11.115  11.309  65.649  1.00  0.00     0.011 SA 
HETATM   29  F   UNL     1     -13.252  12.613  64.918  1.00  0.00    -0.487 F  
HETATM   30  C   UNL     1     -11.938  12.867  65.174  1.00  0.00    -0.414 C  
ENDBRANCH  26  28
ENDBRANCH   5  26
BRANCH   5  31
HETATM   31  O   UNL     1     -10.053  11.984  68.810  1.00  0.00    -0.190 OA 
BRANCH  31  32
HETATM   32  C   UNL     1     -11.412  12.134  68.867  1.00  0.00    -0.297 C  
HETATM   33  O   UNL     1     -12.219  11.234  68.723  1.00  0.00    -0.532 OA 
BRANCH  32  34
HETATM   34  C   UNL     1     -11.780  13.493  69.190  1.00  0.00    -0.327 A  
HETATM   35  C   UNL     1     -12.496  13.962  70.281  1.00  0.00    -0.380 A  
HETATM   36  O   UNL     1     -11.421  14.552  68.398  1.00  0.00    -0.272 OA 
HETATM   37  C   UNL     1     -12.586  15.365  70.146  1.00  0.00    -0.329 A  
HETATM   38  C   UNL     1     -11.922  15.676  68.983  1.00  0.00    -0.304 A  
ENDBRANCH  32  34
ENDBRANCH  31  32
ENDBRANCH   5  31
TORSDOF 5
ENDMDL
MODEL       37
REMARK 921   NORMALIZED FREE ENERGY PREDICTED BY IDOCK:   -5.49 KCAL/MOL
REMARK 922        TOTAL FREE ENERGY PREDICTED BY IDOCK:   -6.39 KCAL/MOL
REMARK 923 INTER-LIGAND FREE ENERGY PREDICTED BY IDOCK:   -6.53 KCAL/MOL
REMARK 924 INTRA-LIGAND FREE ENERGY PREDICTED BY IDOCK:    0.14 KCAL/MOL
REMARK 927      BINDING AFFINITY PREDICTED BY RF-SCORE:    0.00 PKD
ROOT
HETATM    1  C   UNL     1      -7.335   9.029  69.074  1.00  0.00    -0.073 C  
HETATM    2  C   UNL     1      -7.076   9.597  70.350  1.00  0.00    -0.138 C  
HETATM    3  C   UNL     1      -8.188   8.635  70.154  1.00  0.00    -0.123 C  
HETATM    4  C   UNL     1      -8.682   8.429  71.793  1.00  0.00    -0.241 C  
HETATM    5  C   UNL     1      -8.024   7.524  68.426  1.00  0.00    -0.123 C  
HETATM    6  C   UNL     1     -11.848  11.694  69.308  1.00  0.00    -0.396 C  
HETATM    7  C   UNL     1     -10.782  11.483  68.155  1.00  0.00    -0.242 C  
HETATM    8  C   UNL     1      -8.195   7.331  69.759  1.00  0.00    -0.130 C  
HETATM    9  C   UNL     1     -11.613  11.599  66.883  1.00  0.00    -0.246 C  
HETATM   10  C   UNL     1     -11.788  12.809  66.291  1.00  0.00    -0.485 C  
HETATM   11  C   UNL     1     -10.051   7.457  69.617  1.00  0.00    -0.186 C  
HETATM   12  O   UNL     1     -11.188  15.131  66.217  1.00  0.00    -0.337 OA 
HETATM   13  C   UNL     1      -7.299   6.315  70.532  1.00  0.00    -0.085 C  
HETATM   14  C   UNL     1     -11.103  14.060  66.801  1.00  0.00    -0.306 C  
HETATM   15  C   UNL     1     -10.350  13.931  68.098  1.00  0.00    -0.247 C  
HETATM   16  C   UNL     1      -9.814  12.692  68.091  1.00  0.00    -0.226 C  
HETATM   17  C   UNL     1     -10.645   8.751  68.675  1.00  0.00    -0.139 C  
HETATM   18  O   UNL     1     -10.881   8.270  67.345  1.00  0.00    -0.487 OA 
HETATM   19  F   UNL     1      -7.839  13.600  67.143  1.00  0.00    -0.168 F  
HETATM   20  C   UNL     1      -9.910  10.241  68.631  1.00  0.00    -0.173 C  
HETATM   21  C   UNL     1      -8.562  12.453  67.270  1.00  0.00    -0.185 C  
HETATM   22  F   UNL     1      -9.754  10.711  69.954  1.00  0.00    -0.173 F  
HETATM   23  C   UNL     1      -7.679  11.427  67.950  1.00  0.00    -0.114 C  
HETATM   24  C   UNL     1      -8.384  10.070  68.096  1.00  0.00    -0.113 C  
HETATM   25  H   UNL     1     -11.211   8.990  66.821  1.00  0.00     0.000 HD 
ENDROOT
BRANCH   5  26
HETATM   26  C   UNL     1      -8.733   6.146  67.865  1.00  0.00    -0.113 C  
HETATM   27  O   UNL     1      -8.760   5.053  68.418  1.00  0.00    -0.101 OA 
BRANCH  26  28
HETATM   28  S   UNL     1      -9.394   6.276  66.218  1.00  0.00    -0.085 SA 
HETATM   29  F   UNL     1     -10.847   4.459  65.040  1.00  0.00    -0.292 F  
HETATM   30  C   UNL     1     -10.518   4.841  66.306  1.00  0.00    -0.269 C  
ENDBRANCH  26  28
ENDBRANCH   5  26
BRANCH   5  31
HETATM   31  O   UNL     1      -6.595   7.236  67.905  1.00  0.00    -0.046 OA 
BRANCH  31  32
HETATM   32  C   UNL     1      -6.140   7.067  66.625  1.00  0.00    -0.038 C  
HETATM   33  O   UNL     1      -5.838   5.997  66.129  1.00  0.00    -0.025 OA 
BRANCH  32  34
HETATM   34  C   UNL     1      -6.126   8.316  65.900  1.00  0.00    -0.045 A  
HETATM   35  C   UNL     1      -5.198   9.344  65.961  1.00  0.00    -0.036 A  
HETATM   36  O   UNL     1      -7.099   8.641  64.991  1.00  0.00    -0.078 OA 
HETATM   37  C   UNL     1      -5.626  10.343  65.059  1.00  0.00    -0.141 A  
HETATM   38  C   UNL     1      -6.789   9.872  64.496  1.00  0.00    -0.124 A  
ENDBRANCH  32  34
ENDBRANCH  31  32
ENDBRANCH   5  31
TORSDOF 5
ENDMDL
MODEL       38
REMARK 921   NORMALIZED FREE ENERGY PREDICTED BY IDOCK:   -5.40 KCAL/MOL
REMARK 922        TOTAL FREE ENERGY PREDICTED BY IDOCK:   -6.28 KCAL/MOL
REMARK 923 INTER-LIGAND FREE ENERGY PREDICTED BY IDOCK:   -6.40 KCAL/MOL
REMARK 924 INTRA-LIGAND FREE ENERGY PREDICTED BY IDOCK:    0.12 KCAL/MOL
REMARK 927      BINDING AFFINITY PREDICTED BY RF-SCORE:    0.00 PKD
ROOT
HETATM    1  C   UNL     1      -7.794   8.462  69.679  1.00  0.00    -0.100 C  
HETATM    2  C   UNL     1      -7.605   9.112  70.928  1.00  0.00    -0.146 C  
HETATM    3  C   UNL     1      -8.847   8.352  70.643  1.00  0.00    -0.161 C  
HETATM    4  C   UNL     1      -9.590   8.424  72.196  1.00  0.00    -0.367 C  
HETATM    5  C   UNL     1      -8.669   7.044  69.059  1.00  0.00    -0.128 C  
HETATM    6  C   UNL     1     -11.685  11.911  68.986  1.00  0.00    -0.391 C  
HETATM    7  C   UNL     1     -10.534  11.383  68.034  1.00  0.00    -0.215 C  
HETATM    8  C   UNL     1      -9.055   7.035  70.361  1.00  0.00    -0.156 C  
HETATM    9  C   UNL     1     -11.144  11.505  66.643  1.00  0.00    -0.355 C  
HETATM   10  C   UNL     1     -10.996  12.653  65.933  1.00  0.00    -0.310 C  
HETATM   11  C   UNL     1     -10.813   7.480  69.922  1.00  0.00    -0.250 C  
HETATM   12  O   UNL     1      -9.948  14.805  65.759  1.00  0.00    -0.309 OA 
HETATM   13  C   UNL     1      -8.490   5.966  71.346  1.00  0.00    -0.128 C  
HETATM   14  C   UNL     1     -10.155  13.808  66.436  1.00  0.00    -0.295 C  
HETATM   15  C   UNL     1      -9.627  13.690  67.840  1.00  0.00    -0.223 C  
HETATM   16  C   UNL     1      -9.348  12.382  68.020  1.00  0.00    -0.204 C  
HETATM   17  C   UNL     1     -11.008   8.747  68.795  1.00  0.00     0.128 C  
HETATM   18  O   UNL     1     -11.149   8.171  67.489  1.00  0.00    -0.483 OA 
HETATM   19  F   UNL     1      -7.122  12.803  67.319  1.00  0.00    -0.138 F  
HETATM   20  C   UNL     1      -9.996  10.064  68.741  1.00  0.00    -0.172 C  
HETATM   21  C   UNL     1      -8.067  11.828  67.426  1.00  0.00    -0.161 C  
HETATM   22  F   UNL     1      -9.933  10.643  70.029  1.00  0.00    -0.194 F  
HETATM   23  C   UNL     1      -7.504  10.742  68.319  1.00  0.00    -0.092 C  
HETATM   24  C   UNL     1      -8.474   9.560  68.466  1.00  0.00    -0.119 C  
HETATM   25  H   UNL     1     -11.257   8.876  66.863  1.00  0.00     0.000 HD 
ENDROOT
BRANCH   5  26
HETATM   26  C   UNL     1      -9.552   5.764  68.512  1.00  0.00    -0.126 C  
HETATM   27  O   UNL     1     -10.312   5.750  67.552  1.00  0.00    -0.176 OA 
BRANCH  26  28
HETATM   28  S   UNL     1      -9.465   4.316  69.543  1.00  0.00    -0.200 SA 
HETATM   29  F   UNL     1      -9.701   1.861  68.696  1.00  0.00    -0.230 F  
HETATM   30  C   UNL     1      -9.362   3.084  68.201  1.00  0.00    -0.198 C  
ENDBRANCH  26  28
ENDBRANCH   5  26
BRANCH   5  31
HETATM   31  O   UNL     1      -7.267   6.445  68.793  1.00  0.00    -0.079 OA 
BRANCH  31  32
HETATM   32  C   UNL     1      -6.706   6.000  67.626  1.00  0.00    -0.058 C  
HETATM   33  O   UNL     1      -6.336   4.858  67.424  1.00  0.00    -0.038 OA 
BRANCH  32  34
HETATM   34  C   UNL     1      -6.666   7.042  66.627  1.00  0.00    -0.053 A  
HETATM   35  C   UNL     1      -5.669   7.974  66.385  1.00  0.00    -0.040 A  
HETATM   36  O   UNL     1      -7.685   7.229  65.730  1.00  0.00    -0.090 OA 
HETATM   37  C   UNL     1      -6.099   8.770  65.301  1.00  0.00    -0.055 A  
HETATM   38  C   UNL     1      -7.333   8.282  64.940  1.00  0.00    -0.087 A  
ENDBRANCH  32  34
ENDBRANCH  31  32
ENDBRANCH   5  31
TORSDOF 5
ENDMDL
MODEL       39
REMARK 921   NORMALIZED FREE ENERGY PREDICTED BY IDOCK:   -5.40 KCAL/MOL
REMARK 922        TOTAL FREE ENERGY PREDICTED BY IDOCK:   -6.28 KCAL/MOL
REMARK 923 INTER-LIGAND FREE ENERGY PREDICTED BY IDOCK:   -7.08 KCAL/MOL
REMARK 924 INTRA-LIGAND FREE ENERGY PREDICTED BY IDOCK:    0.80 KCAL/MOL
REMARK 927      BINDING AFFINITY PREDICTED BY RF-SCORE:    0.00 PKD
ROOT
HETATM    1  C   UNL     1      -9.533  14.360  69.156  1.00  0.00     0.041 C  
HETATM    2  C   UNL     1     -10.005  14.835  70.409  1.00  0.00     0.628 C  
HETATM    3  C   UNL     1     -10.904  14.764  69.231  1.00  0.00    -0.275 C  
HETATM    4  C   UNL     1     -12.398  15.176  69.985  1.00  0.00    -0.356 C  
HETATM    5  C   UNL     1     -10.203  13.538  67.729  1.00  0.00    -0.242 C  
HETATM    6  C   UNL     1     -10.407  19.256  67.485  1.00  0.00    -0.542 C  
HETATM    7  C   UNL     1      -9.206  18.245  67.272  1.00  0.00    -0.256 C  
HETATM    8  C   UNL     1     -11.323  13.709  68.477  1.00  0.00    -0.325 C  
HETATM    9  C   UNL     1      -8.642  18.651  65.915  1.00  0.00     0.154 C  
HETATM   10  C   UNL     1      -7.665  19.591  65.838  1.00  0.00    -0.288 C  
HETATM   11  C   UNL     1     -12.032  14.944  67.271  1.00  0.00    -0.149 C  
HETATM   12  O   UNL     1      -6.094  20.978  67.007  1.00  0.00    -0.236 OA 
HETATM   13  C   UNL     1     -11.985  12.496  69.199  1.00  0.00    -0.287 C  
HETATM   14  C   UNL     1      -7.034  20.199  67.073  1.00  0.00    -0.235 C  
HETATM   15  C   UNL     1      -7.659  19.836  68.393  1.00  0.00    -0.336 C  
HETATM   16  C   UNL     1      -8.061  18.553  68.270  1.00  0.00    -0.324 C  
HETATM   17  C   UNL     1     -10.961  16.155  66.721  1.00  0.00    -0.080 C  
HETATM   18  O   UNL     1     -10.393  15.724  65.476  1.00  0.00    -0.355 OA 
HETATM   19  F   UNL     1      -5.980  17.860  69.172  1.00  0.00    -0.187 F  
HETATM   20  C   UNL     1      -9.790  16.826  67.690  1.00  0.00    -0.261 C  
HETATM   21  C   UNL     1      -7.021  17.457  68.391  1.00  0.00    -0.201 C  
HETATM   22  F   UNL     1     -10.397  17.298  68.876  1.00  0.00    -0.288 F  
HETATM   23  C   UNL     1      -7.628  16.229  69.038  1.00  0.00    -0.219 C  
HETATM   24  C   UNL     1      -8.785  15.656  68.206  1.00  0.00    -0.174 C  
HETATM   25  H   UNL     1      -9.798  16.397  65.171  1.00  0.00     0.000 HD 
ENDROOT
BRANCH   5  26
HETATM   26  C   UNL     1     -10.877  12.841  66.397  1.00  0.00    -0.271 C  
HETATM   27  O   UNL     1     -11.893  12.157  66.357  1.00  0.00    -0.563 OA 
BRANCH  26  28
HETATM   28  S   UNL     1      -9.914  13.011  64.910  1.00  0.00    -0.058 SA 
HETATM   29  F   UNL     1      -8.803  11.041  63.612  1.00  0.00    -0.181 F  
HETATM   30  C   UNL     1      -9.831  11.239  64.484  1.00  0.00    -0.270 C  
ENDBRANCH  26  28
ENDBRANCH   5  26
BRANCH   5  31
HETATM   31  O   UNL     1      -9.316  12.342  68.151  1.00  0.00    -0.200 OA 
BRANCH  31  32
HETATM   32  C   UNL     1      -8.033  12.026  67.793  1.00  0.00    -0.147 C  
HETATM   33  O   UNL     1      -7.202  12.826  67.405  1.00  0.00    -0.146 OA 
BRANCH  32  34
HETATM   34  C   UNL     1      -7.758  10.623  67.998  1.00  0.00    -0.100 A  
HETATM   35  C   UNL     1      -6.775  10.037  68.780  1.00  0.00    -0.049 A  
HETATM   36  O   UNL     1      -8.507   9.641  67.405  1.00  0.00    -0.124 OA 
HETATM   37  C   UNL     1      -6.923   8.638  68.654  1.00  0.00    -0.064 A  
HETATM   38  C   UNL     1      -7.986   8.446  67.803  1.00  0.00    -0.111 A  
ENDBRANCH  32  34
ENDBRANCH  31  32
ENDBRANCH   5  31
TORSDOF 5
ENDMDL
MODEL       40
REMARK 921   NORMALIZED FREE ENERGY PREDICTED BY IDOCK:   -5.36 KCAL/MOL
REMARK 922        TOTAL FREE ENERGY PREDICTED BY IDOCK:   -6.22 KCAL/MOL
REMARK 923 INTER-LIGAND FREE ENERGY PREDICTED BY IDOCK:   -6.50 KCAL/MOL
REMARK 924 INTRA-LIGAND FREE ENERGY PREDICTED BY IDOCK:    0.28 KCAL/MOL
REMARK 927      BINDING AFFINITY PREDICTED BY RF-SCORE:    0.00 PKD
ROOT
HETATM    1  C   UNL     1      -8.339   9.143  69.610  1.00  0.00    -0.130 C  
HETATM    2  C   UNL     1      -6.932   9.134  69.806  1.00  0.00    -0.056 C  
HETATM    3  C   UNL     1      -7.524   9.647  68.547  1.00  0.00    -0.079 C  
HETATM    4  C   UNL     1      -6.103  10.265  67.792  1.00  0.00    -0.056 C  
HETATM    5  C   UNL     1      -9.529  10.100  68.701  1.00  0.00    -0.164 C  
HETATM    6  C   UNL     1      -7.374   5.643  65.823  1.00  0.00    -0.073 C  
HETATM    7  C   UNL     1      -8.468   5.715  66.968  1.00  0.00    -0.110 C  
HETATM    8  C   UNL     1      -8.370  10.687  68.304  1.00  0.00    -0.122 C  
HETATM    9  C   UNL     1      -9.650   4.959  66.372  1.00  0.00    -0.177 C  
HETATM   10  C   UNL     1      -9.764   3.619  66.559  1.00  0.00    -0.100 C  
HETATM   11  C   UNL     1      -8.551  10.041  66.562  1.00  0.00    -0.131 C  
HETATM   12  O   UNL     1      -8.949   1.653  67.668  1.00  0.00    -0.109 OA 
HETATM   13  C   UNL     1      -7.979  12.101  68.830  1.00  0.00     0.096 C  
HETATM   14  C   UNL     1      -8.797   2.842  67.428  1.00  0.00    -0.137 C  
HETATM   15  C   UNL     1      -7.600   3.599  67.940  1.00  0.00    -0.066 C  
HETATM   16  C   UNL     1      -8.034   4.854  68.181  1.00  0.00    -0.086 C  
HETATM   17  C   UNL     1      -8.981   8.395  66.413  1.00  0.00    -0.171 C  
HETATM   18  O   UNL     1     -10.405   8.313  66.266  1.00  0.00    -0.439 OA 
HETATM   19  F   UNL     1      -8.480   4.224  70.423  1.00  0.00    -0.069 F  
HETATM   20  C   UNL     1      -8.438   7.226  67.462  1.00  0.00    -0.119 C  
HETATM   21  C   UNL     1      -8.821   5.115  69.450  1.00  0.00    -0.099 C  
HETATM   22  F   UNL     1      -7.028   7.296  67.531  1.00  0.00    -0.065 F  
HETATM   23  C   UNL     1      -8.520   6.503  69.975  1.00  0.00    -0.135 C  
HETATM   24  C   UNL     1      -8.919   7.595  68.971  1.00  0.00    -0.137 C  
HETATM   25  H   UNL     1     -10.644   7.398  66.183  1.00  0.00     0.000 HD 
ENDROOT
BRANCH   5  26
HETATM   26  C   UNL     1     -10.592  10.967  67.787  1.00  0.00    -0.211 C  
HETATM   27  O   UNL     1     -11.585  10.542  67.210  1.00  0.00    -0.327 OA 
BRANCH  26  28
HETATM   28  S   UNL     1     -10.125  12.665  67.528  1.00  0.00    -0.214 SA 
HETATM   29  F   UNL     1     -11.746  14.702  67.677  1.00  0.00    -0.328 F  
HETATM   30  C   UNL     1     -11.666  13.425  68.144  1.00  0.00    -0.362 C  
ENDBRANCH  26  28
ENDBRANCH   5  26
BRANCH   5  31
HETATM   31  O   UNL     1     -10.045  10.553  70.087  1.00  0.00    -0.063 OA 
BRANCH  31  32
HETATM   32  C   UNL     1     -11.246  10.318  70.702  1.00  0.00    -0.325 C  
HETATM   33  O   UNL     1     -12.198  11.075  70.682  1.00  0.00    -0.326 OA 
BRANCH  32  34
HETATM   34  C   UNL     1     -11.273   9.016  71.327  1.00  0.00    -0.315 A  
HETATM   35  C   UNL     1     -10.538   8.557  72.409  1.00  0.00    -0.368 A  
HETATM   36  O   UNL     1     -12.104   8.017  70.891  1.00  0.00    -0.263 OA 
HETATM   37  C   UNL     1     -10.929   7.220  72.640  1.00  0.00    -0.341 A  
HETATM   38  C   UNL     1     -11.880   6.935  71.688  1.00  0.00    -0.324 A  
ENDBRANCH  32  34
ENDBRANCH  31  32
ENDBRANCH   5  31
TORSDOF 5
ENDMDL
MODEL       41
REMARK 921   NORMALIZED FREE ENERGY PREDICTED BY IDOCK:   -5.33 KCAL/MOL
REMARK 922        TOTAL FREE ENERGY PREDICTED BY IDOCK:   -6.19 KCAL/MOL
REMARK 923 INTER-LIGAND FREE ENERGY PREDICTED BY IDOCK:   -6.69 KCAL/MOL
REMARK 924 INTRA-LIGAND FREE ENERGY PREDICTED BY IDOCK:    0.50 KCAL/MOL
REMARK 927      BINDING AFFINITY PREDICTED BY RF-SCORE:    0.00 PKD
ROOT
HETATM    1  C   UNL     1     -10.004   6.435  69.231  1.00  0.00    -0.178 C  
HETATM    2  C   UNL     1     -11.279   6.109  68.697  1.00  0.00    -0.275 C  
HETATM    3  C   UNL     1     -10.064   6.072  67.848  1.00  0.00    -0.183 C  
HETATM    4  C   UNL     1     -10.737   5.398  66.412  1.00  0.00    -0.284 C  
HETATM    5  C   UNL     1      -8.306   6.007  68.924  1.00  0.00    -0.107 C  
HETATM    6  C   UNL     1     -10.184  10.531  65.958  1.00  0.00    -0.310 C  
HETATM    7  C   UNL     1      -9.752  10.385  67.476  1.00  0.00    -0.195 C  
HETATM    8  C   UNL     1      -8.928   5.323  67.929  1.00  0.00    -0.112 C  
HETATM    9  C   UNL     1      -8.719  11.492  67.655  1.00  0.00    -0.142 C  
HETATM   10  C   UNL     1      -9.112  12.732  68.045  1.00  0.00    -0.207 C  
HETATM   11  C   UNL     1      -8.194   6.422  66.611  1.00  0.00    -0.111 C  
HETATM   12  O   UNL     1     -10.887  14.136  68.841  1.00  0.00    -0.248 OA 
HETATM   13  C   UNL     1      -9.065   3.771  68.001  1.00  0.00    -0.187 C  
HETATM   14  C   UNL     1     -10.549  13.045  68.406  1.00  0.00    -0.251 C  
HETATM   15  C   UNL     1     -11.556  11.957  68.149  1.00  0.00    -0.400 C  
HETATM   16  C   UNL     1     -10.919  10.796  68.409  1.00  0.00    -0.299 C  
HETATM   17  C   UNL     1      -8.263   8.101  66.911  1.00  0.00    -0.111 C  
HETATM   18  O   UNL     1      -7.022   8.504  67.508  1.00  0.00    -0.076 OA 
HETATM   19  F   UNL     1     -11.734  10.897  70.634  1.00  0.00    -0.367 F  
HETATM   20  C   UNL     1      -9.541   8.823  67.689  1.00  0.00    -0.144 C  
HETATM   21  C   UNL     1     -10.744  10.378  69.856  1.00  0.00    -0.279 C  
HETATM   22  F   UNL     1     -10.739   8.456  67.034  1.00  0.00    -0.367 F  
HETATM   23  C   UNL     1     -10.812   8.870  69.976  1.00  0.00    -0.239 C  
HETATM   24  C   UNL     1      -9.698   8.180  69.174  1.00  0.00    -0.163 C  
HETATM   25  H   UNL     1      -7.061   9.437  67.675  1.00  0.00     0.000 HD 
ENDROOT
BRANCH   5  26
HETATM   26  C   UNL     1      -6.742   5.639  68.561  1.00  0.00    -0.057 C  
HETATM   27  O   UNL     1      -5.823   6.428  68.377  1.00  0.00    -0.015 OA 
BRANCH  26  28
HETATM   28  S   UNL     1      -6.438   3.908  68.279  1.00  0.00    -0.038 SA 
HETATM   29  F   UNL     1      -5.144   2.927  66.239  1.00  0.00    -0.006 F  
HETATM   30  C   UNL     1      -5.233   4.102  66.923  1.00  0.00    -0.012 C  
ENDBRANCH  26  28
ENDBRANCH   5  26
BRANCH   5  31
HETATM   31  O   UNL     1      -8.354   5.322  70.311  1.00  0.00    -0.102 OA 
BRANCH  31  32
HETATM   32  C   UNL     1      -7.695   5.632  71.470  1.00  0.00    -0.107 C  
HETATM   33  O   UNL     1      -6.557   5.293  71.736  1.00  0.00    -0.040 OA 
BRANCH  32  34
HETATM   34  C   UNL     1      -8.497   6.478  72.323  1.00  0.00    -0.112 A  
HETATM   35  C   UNL     1      -8.394   7.844  72.535  1.00  0.00    -0.191 A  
HETATM   36  O   UNL     1      -9.539   5.985  73.064  1.00  0.00    -0.153 OA 
HETATM   37  C   UNL     1      -9.408   8.200  73.450  1.00  0.00    -0.267 A  
HETATM   38  C   UNL     1     -10.076   7.034  73.747  1.00  0.00    -0.352 A  
ENDBRANCH  32  34
ENDBRANCH  31  32
ENDBRANCH   5  31
TORSDOF 5
ENDMDL
MODEL       42
REMARK 921   NORMALIZED FREE ENERGY PREDICTED BY IDOCK:   -5.29 KCAL/MOL
REMARK 922        TOTAL FREE ENERGY PREDICTED BY IDOCK:   -6.13 KCAL/MOL
REMARK 923 INTER-LIGAND FREE ENERGY PREDICTED BY IDOCK:   -6.83 KCAL/MOL
REMARK 924 INTRA-LIGAND FREE ENERGY PREDICTED BY IDOCK:    0.70 KCAL/MOL
REMARK 927      BINDING AFFINITY PREDICTED BY RF-SCORE:    0.00 PKD
ROOT
HETATM    1  C   UNL     1      -8.566  10.694  69.423  1.00  0.00    -0.046 C  
HETATM    2  C   UNL     1      -7.180  10.817  69.708  1.00  0.00    -0.106 C  
HETATM    3  C   UNL     1      -7.653  10.492  68.340  1.00  0.00    -0.097 C  
HETATM    4  C   UNL     1      -6.154  10.569  67.493  1.00  0.00    -0.052 C  
HETATM    5  C   UNL     1      -9.643  10.929  68.028  1.00  0.00    -0.162 C  
HETATM    6  C   UNL     1      -7.463   5.653  68.480  1.00  0.00    -0.080 C  
HETATM    7  C   UNL     1      -8.637   6.368  69.269  1.00  0.00    -0.125 C  
HETATM    8  C   UNL     1      -8.434  11.186  67.465  1.00  0.00    -0.126 C  
HETATM    9  C   UNL     1      -9.800   5.394  69.125  1.00  0.00    -0.242 C  
HETATM   10  C   UNL     1      -9.984   4.413  70.046  1.00  0.00    -0.245 C  
HETATM   11  C   UNL     1      -8.508   9.644  66.417  1.00  0.00    -0.128 C  
HETATM   12  O   UNL     1      -9.339   3.472  72.157  1.00  0.00    -0.107 OA 
HETATM   13  C   UNL     1      -8.025  12.647  67.102  1.00  0.00    -0.123 C  
HETATM   14  C   UNL     1      -9.119   4.299  71.284  1.00  0.00    -0.127 C  
HETATM   15  C   UNL     1      -7.935   5.225  71.362  1.00  0.00    -0.114 C  
HETATM   16  C   UNL     1      -8.333   6.380  70.788  1.00  0.00    -0.126 C  
HETATM   17  C   UNL     1      -8.994   8.216  67.217  1.00  0.00    -0.137 C  
HETATM   18  O   UNL     1     -10.405   8.049  67.023  1.00  0.00    -0.291 OA 
HETATM   19  F   UNL     1      -8.975   7.172  72.930  1.00  0.00    -0.137 F  
HETATM   20  C   UNL     1      -8.581   7.884  68.792  1.00  0.00    -0.128 C  
HETATM   21  C   UNL     1      -9.203   7.325  71.596  1.00  0.00    -0.146 C  
HETATM   22  F   UNL     1      -7.179   7.996  68.929  1.00  0.00    -0.067 F  
HETATM   23  C   UNL     1      -8.885   8.762  71.238  1.00  0.00    -0.288 C  
HETATM   24  C   UNL     1      -9.161   9.059  69.757  1.00  0.00    -0.163 C  
HETATM   25  H   UNL     1     -10.675   7.255  67.468  1.00  0.00     0.000 HD 
ENDROOT
BRANCH   5  26
HETATM   26  C   UNL     1     -10.596  11.089  66.693  1.00  0.00    -0.262 C  
HETATM   27  O   UNL     1     -11.372  10.259  66.237  1.00  0.00     0.289 OA 
BRANCH  26  28
HETATM   28  S   UNL     1     -10.328  12.589  65.773  1.00  0.00    -0.270 SA 
HETATM   29  F   UNL     1     -12.202  14.005  64.639  1.00  0.00    -0.386 F  
HETATM   30  C   UNL     1     -12.075  13.101  65.650  1.00  0.00    -0.449 C  
ENDBRANCH  26  28
ENDBRANCH   5  26
BRANCH   5  31
HETATM   31  O   UNL     1     -10.244  12.101  68.841  1.00  0.00    -0.157 OA 
BRANCH  31  32
HETATM   32  C   UNL     1     -11.503  12.265  69.352  1.00  0.00    -0.277 C  
HETATM   33  O   UNL     1     -12.266  11.357  69.627  1.00  0.00    -0.296 OA 
BRANCH  32  34
HETATM   34  C   UNL     1     -11.798  13.658  69.594  1.00  0.00    -0.335 A  
HETATM   35  C   UNL     1     -11.239  14.779  69.000  1.00  0.00    -0.286 A  
HETATM   36  O   UNL     1     -12.748  14.054  70.498  1.00  0.00    -0.327 OA 
HETATM   37  C   UNL     1     -11.866  15.908  69.571  1.00  0.00    -0.310 A  
HETATM   38  C   UNL     1     -12.772  15.416  70.481  1.00  0.00    -0.405 A  
ENDBRANCH  32  34
ENDBRANCH  31  32
ENDBRANCH   5  31
TORSDOF 5
ENDMDL
MODEL       43
REMARK 921   NORMALIZED FREE ENERGY PREDICTED BY IDOCK:   -5.23 KCAL/MOL
REMARK 922        TOTAL FREE ENERGY PREDICTED BY IDOCK:   -6.06 KCAL/MOL
REMARK 923 INTER-LIGAND FREE ENERGY PREDICTED BY IDOCK:   -7.50 KCAL/MOL
REMARK 924 INTRA-LIGAND FREE ENERGY PREDICTED BY IDOCK:    1.44 KCAL/MOL
REMARK 927      BINDING AFFINITY PREDICTED BY RF-SCORE:    0.00 PKD
ROOT
HETATM    1  C   UNL     1      -7.491   9.868  67.680  1.00  0.00    -0.090 C  
HETATM    2  C   UNL     1      -6.618   8.773  67.442  1.00  0.00    -0.058 C  
HETATM    3  C   UNL     1      -7.917   8.881  66.734  1.00  0.00    -0.107 C  
HETATM    4  C   UNL     1      -7.758   7.560  65.639  1.00  0.00    -0.100 C  
HETATM    5  C   UNL     1      -8.728  10.776  66.783  1.00  0.00    -0.143 C  
HETATM    6  C   UNL     1     -10.734   6.261  69.678  1.00  0.00    -0.367 C  
HETATM    7  C   UNL     1     -10.297   7.704  70.168  1.00  0.00    -0.217 C  
HETATM    8  C   UNL     1      -8.401   9.821  65.874  1.00  0.00    -0.128 C  
HETATM    9  C   UNL     1     -11.506   8.187  70.959  1.00  0.00    -0.301 C  
HETATM   10  C   UNL     1     -11.595   7.930  72.290  1.00  0.00    -0.406 C  
HETATM   11  C   UNL     1     -10.069   8.998  66.026  1.00  0.00    -0.154 C  
HETATM   12  O   UNL     1     -10.520   7.097  74.267  1.00  0.00    -0.236 OA 
HETATM   13  C   UNL     1      -7.554  10.184  64.616  1.00  0.00    -0.135 C  
HETATM   14  C   UNL     1     -10.479   7.249  73.055  1.00  0.00    -0.310 C  
HETATM   15  C   UNL     1      -9.333   6.718  72.236  1.00  0.00    -0.145 C  
HETATM   16  C   UNL     1      -9.168   7.594  71.223  1.00  0.00    -0.155 C  
HETATM   17  C   UNL     1     -10.646   8.759  67.614  1.00  0.00    -0.213 C  
HETATM   18  O   UNL     1     -11.498   9.861  67.955  1.00  0.00    -0.569 OA 
HETATM   19  F   UNL     1      -7.568   8.748  72.539  1.00  0.00    -0.134 F  
HETATM   20  C   UNL     1      -9.645   8.386  68.887  1.00  0.00    -0.153 C  
HETATM   21  C   UNL     1      -8.442   8.895  71.505  1.00  0.00    -0.114 C  
HETATM   22  F   UNL     1      -8.868   7.257  68.540  1.00  0.00    -0.128 F  
HETATM   23  C   UNL     1      -7.646   9.324  70.290  1.00  0.00    -0.125 C  
HETATM   24  C   UNL     1      -8.547   9.572  69.071  1.00  0.00    -0.133 C  
HETATM   25  H   UNL     1     -11.819   9.728  68.838  1.00  0.00     0.000 HD 
ENDROOT
BRANCH   5  26
HETATM   26  C   UNL     1      -9.917  11.546  65.942  1.00  0.00    -0.230 C  
HETATM   27  O   UNL     1      -9.966  11.726  64.731  1.00  0.00    -0.246 OA 
BRANCH  26  28
HETATM   28  S   UNL     1     -11.169  12.299  66.958  1.00  0.00    -0.331 SA 
HETATM   29  F   UNL     1     -12.737  14.243  66.209  1.00  0.00    -0.487 F  
HETATM   30  C   UNL     1     -11.996  13.252  65.640  1.00  0.00    -0.412 C  
ENDBRANCH  26  28
ENDBRANCH   5  26
BRANCH   5  31
HETATM   31  O   UNL     1      -7.740  11.965  66.861  1.00  0.00    -0.154 OA 
BRANCH  31  32
HETATM   32  C   UNL     1      -7.914  13.225  67.366  1.00  0.00    -0.170 C  
HETATM   33  O   UNL     1      -8.672  14.060  66.908  1.00  0.00    -0.220 OA 
BRANCH  32  34
HETATM   34  C   UNL     1      -7.134  13.426  68.565  1.00  0.00    -0.108 A  
HETATM   35  C   UNL     1      -7.133  14.511  69.428  1.00  0.00    -0.140 A  
HETATM   36  O   UNL     1      -6.249  12.485  69.023  1.00  0.00    -0.074 OA 
HETATM   37  C   UNL     1      -6.202  14.227  70.451  1.00  0.00    -0.162 A  
HETATM   38  C   UNL     1      -5.686  12.986  70.158  1.00  0.00    -0.145 A  
ENDBRANCH  32  34
ENDBRANCH  31  32
ENDBRANCH   5  31
TORSDOF 5
ENDMDL
MODEL       44
REMARK 921   NORMALIZED FREE ENERGY PREDICTED BY IDOCK:   -5.20 KCAL/MOL
REMARK 922        TOTAL FREE ENERGY PREDICTED BY IDOCK:   -6.02 KCAL/MOL
REMARK 923 INTER-LIGAND FREE ENERGY PREDICTED BY IDOCK:   -8.14 KCAL/MOL
REMARK 924 INTRA-LIGAND FREE ENERGY PREDICTED BY IDOCK:    2.12 KCAL/MOL
REMARK 927      BINDING AFFINITY PREDICTED BY RF-SCORE:    0.00 PKD
ROOT
HETATM    1  C   UNL     1     -10.802  10.881  68.192  1.00  0.00    -0.283 C  
HETATM    2  C   UNL     1     -11.901  10.928  67.295  1.00  0.00     0.573 C  
HETATM    3  C   UNL     1     -10.662  11.698  67.026  1.00  0.00    -0.292 C  
HETATM    4  C   UNL     1     -11.026  12.285  65.447  1.00  0.00    -0.341 C  
HETATM    5  C   UNL     1      -9.034  11.046  68.108  1.00  0.00    -0.152 C  
HETATM    6  C   UNL     1     -11.834  15.958  69.012  1.00  0.00    -0.328 C  
HETATM    7  C   UNL     1     -11.489  14.759  69.990  1.00  0.00    -0.321 C  
HETATM    8  C   UNL     1      -9.377  11.296  66.818  1.00  0.00    -0.191 C  
HETATM    9  C   UNL     1     -10.805  15.449  71.164  1.00  0.00    -0.162 C  
HETATM   10  C   UNL     1     -11.542  15.893  72.215  1.00  0.00    -0.501 C  
HETATM   11  C   UNL     1      -8.870  13.087  66.952  1.00  0.00    -0.184 C  
HETATM   12  O   UNL     1     -13.680  15.965  73.301  1.00  0.00    -0.541 OA 
HETATM   13  C   UNL     1      -9.099  10.239  65.707  1.00  0.00    -0.202 C  
HETATM   14  C   UNL     1     -13.032  15.645  72.315  1.00  0.00    -0.447 C  
HETATM   15  C   UNL     1     -13.691  15.029  71.110  1.00  0.00    -0.484 C  
HETATM   16  C   UNL     1     -12.787  14.169  70.596  1.00  0.00    -0.356 C  
HETATM   17  C   UNL     1      -9.407  13.917  68.344  1.00  0.00    -0.201 C  
HETATM   18  O   UNL     1      -8.365  13.866  69.328  1.00  0.00    -0.329 OA 
HETATM   19  F   UNL     1     -13.758  12.438  71.895  1.00  0.00    -0.450 F  
HETATM   20  C   UNL     1     -10.885  13.630  69.047  1.00  0.00    -0.204 C  
HETATM   21  C   UNL     1     -12.612  12.820  71.266  1.00  0.00    -0.250 C  
HETATM   22  F   UNL     1     -11.890  13.753  68.061  1.00  0.00    -0.331 F  
HETATM   23  C   UNL     1     -12.282  11.763  70.233  1.00  0.00    -0.381 C  
HETATM   24  C   UNL     1     -10.969  12.069  69.496  1.00  0.00    -0.056 C  
HETATM   25  H   UNL     1      -8.664  14.327  70.102  1.00  0.00     0.000 HD 
ENDROOT
BRANCH   5  26
HETATM   26  C   UNL     1      -7.405  11.277  67.999  1.00  0.00    -0.092 C  
HETATM   27  O   UNL     1      -6.791  12.311  68.229  1.00  0.00    -0.064 OA 
BRANCH  26  28
HETATM   28  S   UNL     1      -6.508   9.889  67.339  1.00  0.00    -0.069 SA 
HETATM   29  F   UNL     1      -5.273   9.861  65.042  1.00  0.00    -0.041 F  
HETATM   30  C   UNL     1      -5.698  10.771  65.962  1.00  0.00    -0.140 C  
ENDBRANCH  26  28
ENDBRANCH   5  26
BRANCH   5  31
HETATM   31  O   UNL     1      -8.995   9.547  68.492  1.00  0.00    -0.127 OA 
BRANCH  31  32
HETATM   32  C   UNL     1      -9.680   8.867  69.463  1.00  0.00    -0.173 C  
HETATM   33  O   UNL     1     -10.785   8.376  69.321  1.00  0.00    -0.209 OA 
BRANCH  32  34
HETATM   34  C   UNL     1      -8.898   8.741  70.670  1.00  0.00    -0.182 A  
HETATM   35  C   UNL     1      -9.335   8.671  71.984  1.00  0.00    -0.362 A  
HETATM   36  O   UNL     1      -7.530   8.655  70.646  1.00  0.00    -0.059 OA 
HETATM   37  C   UNL     1      -8.187   8.547  72.797  1.00  0.00    -0.119 A  
HETATM   38  C   UNL     1      -7.113   8.548  71.938  1.00  0.00    -0.089 A  
ENDBRANCH  32  34
ENDBRANCH  31  32
ENDBRANCH   5  31
TORSDOF 5
ENDMDL
MODEL       45
REMARK 921   NORMALIZED FREE ENERGY PREDICTED BY IDOCK:   -5.15 KCAL/MOL
REMARK 922        TOTAL FREE ENERGY PREDICTED BY IDOCK:   -5.95 KCAL/MOL
REMARK 923 INTER-LIGAND FREE ENERGY PREDICTED BY IDOCK:   -6.09 KCAL/MOL
REMARK 924 INTRA-LIGAND FREE ENERGY PREDICTED BY IDOCK:    0.14 KCAL/MOL
REMARK 927      BINDING AFFINITY PREDICTED BY RF-SCORE:    0.00 PKD
ROOT
HETATM    1  C   UNL     1      -9.322   7.812  67.662  1.00  0.00    -0.160 C  
HETATM    2  C   UNL     1     -10.665   7.857  67.203  1.00  0.00    -0.306 C  
HETATM    3  C   UNL     1     -10.014   9.059  67.777  1.00  0.00    -0.235 C  
HETATM    4  C   UNL     1     -11.243  10.227  67.465  1.00  0.00    -0.192 C  
HETATM    5  C   UNL     1      -7.957   8.939  67.832  1.00  0.00    -0.102 C  
HETATM    6  C   UNL     1     -11.394   8.668  72.405  1.00  0.00    -0.353 C  
HETATM    7  C   UNL     1     -10.271   7.679  71.885  1.00  0.00    -0.234 C  
HETATM    8  C   UNL     1      -8.926   9.775  67.378  1.00  0.00    -0.144 C  
HETATM    9  C   UNL     1      -9.373   7.494  73.103  1.00  0.00    -0.258 C  
HETATM   10  C   UNL     1      -9.626   6.497  73.989  1.00  0.00    -0.239 C  
HETATM   11  C   UNL     1      -9.013  10.682  69.007  1.00  0.00    -0.165 C  
HETATM   12  O   UNL     1     -10.900   4.534  74.518  1.00  0.00    -0.324 OA 
HETATM   13  C   UNL     1      -8.885  10.311  65.914  1.00  0.00    -0.176 C  
HETATM   14  C   UNL     1     -10.729   5.483  73.767  1.00  0.00    -0.260 C  
HETATM   15  C   UNL     1     -11.643   5.733  72.597  1.00  0.00    -0.304 C  
HETATM   16  C   UNL     1     -10.868   6.271  71.633  1.00  0.00    -0.298 C  
HETATM   17  C   UNL     1      -9.063   9.707  70.407  1.00  0.00    -0.191 C  
HETATM   18  O   UNL     1      -7.726   9.565  70.905  1.00  0.00    -0.287 OA 
HETATM   19  F   UNL     1     -10.509   4.093  70.766  1.00  0.00    -0.155 F  
HETATM   20  C   UNL     1      -9.858   8.248  70.458  1.00  0.00    -0.183 C  
HETATM   21  C   UNL     1      -9.981   5.348  70.820  1.00  0.00    -0.204 C  
HETATM   22  F   UNL     1     -11.189   8.440  70.022  1.00  0.00    -0.256 F  
HETATM   23  C   UNL     1      -9.861   5.856  69.399  1.00  0.00    -0.207 C  
HETATM   24  C   UNL     1      -9.223   7.252  69.340  1.00  0.00    -0.148 C  
HETATM   25  H   UNL     1      -7.753   9.022  71.684  1.00  0.00     0.000 HD 
ENDROOT
BRANCH   5  26
HETATM   26  C   UNL     1      -6.740  10.030  68.041  1.00  0.00    -0.064 C  
HETATM   27  O   UNL     1      -6.039  10.172  69.035  1.00  0.00    -0.040 OA 
BRANCH  26  28
HETATM   28  S   UNL     1      -6.560  11.195  66.707  1.00  0.00    -0.140 SA 
HETATM   29  F   UNL     1      -6.689  13.787  66.955  1.00  0.00    -0.070 F  
HETATM   30  C   UNL     1      -6.422  12.699  67.730  1.00  0.00    -0.128 C  
ENDBRANCH  26  28
ENDBRANCH   5  26
BRANCH   5  31
HETATM   31  O   UNL     1      -7.271   8.084  66.740  1.00  0.00    -0.079 OA 
BRANCH  31  32
HETATM   32  C   UNL     1      -6.076   7.416  66.763  1.00  0.00    -0.043 C  
HETATM   33  O   UNL     1      -5.154   7.612  65.994  1.00  0.00    -0.024 OA 
BRANCH  32  34
HETATM   34  C   UNL     1      -6.013   6.486  67.867  1.00  0.00    -0.020 A  
HETATM   35  C   UNL     1      -5.370   6.629  69.087  1.00  0.00    -0.013 A  
HETATM   36  O   UNL     1      -6.644   5.270  67.831  1.00  0.00    -0.046 OA 
HETATM   37  C   UNL     1      -5.609   5.449  69.823  1.00  0.00    -0.012 A  
HETATM   38  C   UNL     1      -6.385   4.650  69.015  1.00  0.00    -0.032 A  
ENDBRANCH  32  34
ENDBRANCH  31  32
ENDBRANCH   5  31
TORSDOF 5
ENDMDL
MODEL       46
REMARK 921   NORMALIZED FREE ENERGY PREDICTED BY IDOCK:   -5.13 KCAL/MOL
REMARK 922        TOTAL FREE ENERGY PREDICTED BY IDOCK:   -5.93 KCAL/MOL
REMARK 923 INTER-LIGAND FREE ENERGY PREDICTED BY IDOCK:   -7.24 KCAL/MOL
REMARK 924 INTRA-LIGAND FREE ENERGY PREDICTED BY IDOCK:    1.31 KCAL/MOL
REMARK 927      BINDING AFFINITY PREDICTED BY RF-SCORE:    0.00 PKD
ROOT
HETATM    1  C   UNL     1     -11.651  11.377  67.643  1.00  0.00    -0.315 C  
HETATM    2  C   UNL     1     -12.219  11.229  68.936  1.00  0.00    -0.160 C  
HETATM    3  C   UNL     1     -11.242  12.308  68.650  1.00  0.00    -0.305 C  
HETATM    4  C   UNL     1     -11.320  13.169  70.141  1.00  0.00     0.127 C  
HETATM    5  C   UNL     1     -11.003  12.694  66.639  1.00  0.00    -0.258 C  
HETATM    6  C   UNL     1      -7.125  10.130  69.983  1.00  0.00    -0.156 C  
HETATM    7  C   UNL     1      -7.794   9.672  68.621  1.00  0.00    -0.081 C  
HETATM    8  C   UNL     1     -11.287  13.362  67.787  1.00  0.00    -0.325 C  
HETATM    9  C   UNL     1      -6.598   9.339  67.737  1.00  0.00    -0.063 C  
HETATM   10  C   UNL     1      -6.085   8.082  67.732  1.00  0.00    -0.047 C  
HETATM   11  C   UNL     1      -9.481  13.650  68.156  1.00  0.00    -0.217 C  
HETATM   12  O   UNL     1      -6.313   5.800  68.437  1.00  0.00    -0.037 OA 
HETATM   13  C   UNL     1     -12.508  14.329  67.858  1.00  0.00     0.201 C  
HETATM   14  C   UNL     1      -6.721   6.950  68.512  1.00  0.00    -0.064 C  
HETATM   15  C   UNL     1      -7.852   7.323  69.432  1.00  0.00    -0.122 C  
HETATM   16  C   UNL     1      -8.520   8.316  68.809  1.00  0.00    -0.125 C  
HETATM   17  C   UNL     1      -8.453  12.299  67.973  1.00  0.00    -0.171 C  
HETATM   18  O   UNL     1      -7.878  12.344  66.660  1.00  0.00    -0.387 OA 
HETATM   19  F   UNL     1      -9.958   6.691  67.851  1.00  0.00    -0.124 F  
HETATM   20  C   UNL     1      -8.929  10.751  68.345  1.00  0.00    -0.153 C  
HETATM   21  C   UNL     1      -9.472   7.953  67.685  1.00  0.00    -0.144 C  
HETATM   22  F   UNL     1      -9.429  10.733  69.666  1.00  0.00    -0.166 F  
HETATM   23  C   UNL     1     -10.653   8.900  67.673  1.00  0.00    -0.292 C  
HETATM   24  C   UNL     1     -10.219  10.355  67.436  1.00  0.00    -0.259 C  
HETATM   25  H   UNL     1      -7.307  11.593  66.559  1.00  0.00     0.000 HD 
ENDROOT
BRANCH   5  26
HETATM   26  C   UNL     1     -10.345  13.929  65.769  1.00  0.00    -0.316 C  
HETATM   27  O   UNL     1      -9.211  13.986  65.311  1.00  0.00     0.411 OA 
BRANCH  26  28
HETATM   28  S   UNL     1     -11.386  15.366  65.629  1.00  0.00    -0.054 SA 
HETATM   29  F   UNL     1     -10.707  17.781  66.341  1.00  0.00    -0.320 F  
HETATM   30  C   UNL     1     -10.102  16.616  65.977  1.00  0.00    -0.340 C  
ENDBRANCH  26  28
ENDBRANCH   5  26
BRANCH   5  31
HETATM   31  O   UNL     1     -12.221  12.432  65.721  1.00  0.00    -0.620 OA 
BRANCH  31  32
HETATM   32  C   UNL     1     -12.269  12.071  64.401  1.00  0.00    -0.266 C  
HETATM   33  O   UNL     1     -13.236  12.212  63.676  1.00  0.00    -0.770 OA 
BRANCH  32  34
HETATM   34  C   UNL     1     -10.998  11.558  63.948  1.00  0.00    -0.401 A  
HETATM   35  C   UNL     1     -10.341  10.400  64.335  1.00  0.00    -0.111 A  
HETATM   36  O   UNL     1     -10.249  12.204  62.999  1.00  0.00    -0.297 OA 
HETATM   37  C   UNL     1      -9.137  10.341  63.600  1.00  0.00    -0.284 A  
HETATM   38  C   UNL     1      -9.123  11.463  62.804  1.00  0.00    -0.224 A  
ENDBRANCH  32  34
ENDBRANCH  31  32
ENDBRANCH   5  31
TORSDOF 5
ENDMDL
MODEL       47
REMARK 921   NORMALIZED FREE ENERGY PREDICTED BY IDOCK:   -5.13 KCAL/MOL
REMARK 922        TOTAL FREE ENERGY PREDICTED BY IDOCK:   -5.93 KCAL/MOL
REMARK 923 INTER-LIGAND FREE ENERGY PREDICTED BY IDOCK:   -6.75 KCAL/MOL
REMARK 924 INTRA-LIGAND FREE ENERGY PREDICTED BY IDOCK:    0.82 KCAL/MOL
REMARK 927      BINDING AFFINITY PREDICTED BY RF-SCORE:    0.00 PKD
ROOT
HETATM    1  C   UNL     1     -10.405   8.880  67.642  1.00  0.00    -0.313 C  
HETATM    2  C   UNL     1     -10.977   8.486  68.880  1.00  0.00     0.106 C  
HETATM    3  C   UNL     1      -9.616   9.072  68.820  1.00  0.00    -0.155 C  
HETATM    4  C   UNL     1      -9.293   9.220  70.507  1.00  0.00    -0.316 C  
HETATM    5  C   UNL     1      -9.228  10.081  67.065  1.00  0.00    -0.146 C  
HETATM    6  C   UNL     1      -6.945   5.040  68.538  1.00  0.00    -0.057 C  
HETATM    7  C   UNL     1      -7.749   5.484  67.246  1.00  0.00    -0.100 C  
HETATM    8  C   UNL     1      -9.176  10.293  68.405  1.00  0.00    -0.136 C  
HETATM    9  C   UNL     1      -6.837   5.059  66.101  1.00  0.00    -0.061 C  
HETATM   10  C   UNL     1      -6.954   3.819  65.562  1.00  0.00    -0.061 C  
HETATM   11  C   UNL     1      -7.437   9.626  68.520  1.00  0.00    -0.079 C  
HETATM   12  O   UNL     1      -8.197   1.770  65.450  1.00  0.00    -0.074 OA 
HETATM   13  C   UNL     1      -9.822  11.567  69.030  1.00  0.00    -0.013 C  
HETATM   14  C   UNL     1      -8.035   2.851  65.996  1.00  0.00    -0.082 C  
HETATM   15  C   UNL     1      -8.872   3.267  67.176  1.00  0.00    -0.154 C  
HETATM   16  C   UNL     1      -9.014   4.605  67.073  1.00  0.00    -0.115 C  
HETATM   17  C   UNL     1      -7.138   8.163  67.692  1.00  0.00    -0.087 C  
HETATM   18  O   UNL     1      -6.607   8.478  66.398  1.00  0.00    -0.057 OA 
HETATM   19  F   UNL     1     -11.035   4.256  65.882  1.00  0.00    -0.171 F  
HETATM   20  C   UNL     1      -8.268   6.951  67.575  1.00  0.00    -0.116 C  
HETATM   21  C   UNL     1     -10.027   5.150  66.085  1.00  0.00    -0.194 C  
HETATM   22  F   UNL     1      -8.720   6.623  68.874  1.00  0.00    -0.126 F  
HETATM   23  C   UNL     1     -10.646   6.424  66.619  1.00  0.00    -0.253 C  
HETATM   24  C   UNL     1      -9.597   7.526  66.834  1.00  0.00    -0.242 C  
HETATM   25  H   UNL     1      -6.440   7.665  65.938  1.00  0.00     0.000 HD 
ENDROOT
BRANCH   5  26
HETATM   26  C   UNL     1      -8.080  11.160  66.581  1.00  0.00    -0.159 C  
HETATM   27  O   UNL     1      -7.126  10.940  65.845  1.00  0.00    -0.116 OA 
BRANCH  26  28
HETATM   28  S   UNL     1      -8.203  12.760  67.349  1.00  0.00    -0.186 SA 
HETATM   29  F   UNL     1      -6.317  13.903  68.741  1.00  0.00    -0.077 F  
HETATM   30  C   UNL     1      -6.439  12.949  67.776  1.00  0.00    -0.143 C  
ENDBRANCH  26  28
ENDBRANCH   5  26
BRANCH   5  31
HETATM   31  O   UNL     1     -10.432  10.740  66.349  1.00  0.00    -0.245 OA 
BRANCH  31  32
HETATM   32  C   UNL     1     -10.554  11.190  65.062  1.00  0.00    -0.273 C  
HETATM   33  O   UNL     1     -10.175  10.587  64.075  1.00  0.00    -0.319 OA 
BRANCH  32  34
HETATM   34  C   UNL     1     -11.257  12.450  65.007  1.00  0.00    -0.312 A  
HETATM   35  C   UNL     1     -10.815  13.670  64.517  1.00  0.00    -0.416 A  
HETATM   36  O   UNL     1     -12.544  12.585  65.457  1.00  0.00    -0.642 OA 
HETATM   37  C   UNL     1     -11.872  14.591  64.683  1.00  0.00    -0.462 A  
HETATM   38  C   UNL     1     -12.901  13.886  65.263  1.00  0.00    -0.398 A  
ENDBRANCH  32  34
ENDBRANCH  31  32
ENDBRANCH   5  31
TORSDOF 5
ENDMDL
MODEL       48
REMARK 921   NORMALIZED FREE ENERGY PREDICTED BY IDOCK:   -5.13 KCAL/MOL
REMARK 922        TOTAL FREE ENERGY PREDICTED BY IDOCK:   -5.92 KCAL/MOL
REMARK 923 INTER-LIGAND FREE ENERGY PREDICTED BY IDOCK:   -6.76 KCAL/MOL
REMARK 924 INTRA-LIGAND FREE ENERGY PREDICTED BY IDOCK:    0.84 KCAL/MOL
REMARK 927      BINDING AFFINITY PREDICTED BY RF-SCORE:    0.00 PKD
ROOT
HETATM    1  C   UNL     1     -10.381  11.106  67.760  1.00  0.00    -0.215 C  
HETATM    2  C   UNL     1     -10.351  11.355  66.361  1.00  0.00    -0.284 C  
HETATM    3  C   UNL     1      -9.422  10.380  66.984  1.00  0.00    -0.189 C  
HETATM    4  C   UNL     1      -8.697   9.727  65.564  1.00  0.00    -0.171 C  
HETATM    5  C   UNL     1     -10.012   9.759  68.860  1.00  0.00    -0.176 C  
HETATM    6  C   UNL     1      -5.582  13.225  67.781  1.00  0.00    -0.109 C  
HETATM    7  C   UNL     1      -6.842  13.405  68.725  1.00  0.00    -0.101 C  
HETATM    8  C   UNL     1      -9.651   9.222  67.665  1.00  0.00    -0.172 C  
HETATM    9  C   UNL     1      -6.223  13.765  70.071  1.00  0.00    -0.120 C  
HETATM   10  C   UNL     1      -5.991  15.065  70.387  1.00  0.00    -0.134 C  
HETATM   11  C   UNL     1      -7.843   9.220  68.127  1.00  0.00    -0.095 C  
HETATM   12  O   UNL     1      -6.286  17.374  69.804  1.00  0.00    -0.250 OA 
HETATM   13  C   UNL     1     -10.533   8.126  66.993  1.00  0.00    -0.396 C  
HETATM   14  C   UNL     1      -6.414  16.202  69.480  1.00  0.00    -0.199 C  
HETATM   15  C   UNL     1      -6.953  15.816  68.129  1.00  0.00    -0.125 C  
HETATM   16  C   UNL     1      -7.640  14.671  68.321  1.00  0.00    -0.118 C  
HETATM   17  C   UNL     1      -7.247  10.653  68.838  1.00  0.00    -0.090 C  
HETATM   18  O   UNL     1      -7.298  10.504  70.263  1.00  0.00    -0.405 OA 
HETATM   19  F   UNL     1      -9.609  15.955  68.636  1.00  0.00    -0.188 F  
HETATM   20  C   UNL     1      -7.778  12.164  68.394  1.00  0.00    -0.134 C  
HETATM   21  C   UNL     1      -9.031  14.755  68.920  1.00  0.00    -0.167 C  
HETATM   22  F   UNL     1      -7.653  12.296  66.992  1.00  0.00    -0.147 F  
HETATM   23  C   UNL     1      -9.916  13.671  68.340  1.00  0.00    -0.235 C  
HETATM   24  C   UNL     1      -9.381  12.265  68.652  1.00  0.00    -0.016 C  
HETATM   25  H   UNL     1      -6.967  11.301  70.658  1.00  0.00     0.000 HD 
ENDROOT
BRANCH   5  26
HETATM   26  C   UNL     1      -9.590   8.511  69.850  1.00  0.00    -0.171 C  
HETATM   27  O   UNL     1      -9.502   7.328  69.547  1.00  0.00    -0.156 OA 
BRANCH  26  28
HETATM   28  S   UNL     1      -9.387   8.964  71.559  1.00  0.00    -0.227 SA 
HETATM   29  F   UNL     1      -8.791   7.310  73.485  1.00  0.00    -0.149 F  
HETATM   30  C   UNL     1      -8.664   7.389  72.131  1.00  0.00    -0.116 C  
ENDBRANCH  26  28
ENDBRANCH   5  26
BRANCH   5  31
HETATM   31  O   UNL     1     -11.532   9.737  69.150  1.00  0.00    -0.066 OA 
BRANCH  31  32
HETATM   32  C   UNL     1     -12.228  10.190  70.237  1.00  0.00    -0.173 C  
HETATM   33  O   UNL     1     -12.295  11.355  70.585  1.00  0.00    -0.353 OA 
BRANCH  32  34
HETATM   34  C   UNL     1     -12.941   9.119  70.892  1.00  0.00     0.037 A  
HETATM   35  C   UNL     1     -14.026   9.196  71.753  1.00  0.00    -0.372 A  
HETATM   36  O   UNL     1     -12.605   7.803  70.709  1.00  0.00    -0.087 OA 
HETATM   37  C   UNL     1     -14.361   7.874  72.118  1.00  0.00    -0.417 A  
HETATM   38  C   UNL     1     -13.465   7.062  71.462  1.00  0.00    -0.277 A  
ENDBRANCH  32  34
ENDBRANCH  31  32
ENDBRANCH   5  31
TORSDOF 5
ENDMDL
MODEL       49
REMARK 921   NORMALIZED FREE ENERGY PREDICTED BY IDOCK:   -5.11 KCAL/MOL
REMARK 922        TOTAL FREE ENERGY PREDICTED BY IDOCK:   -5.90 KCAL/MOL
REMARK 923 INTER-LIGAND FREE ENERGY PREDICTED BY IDOCK:   -7.52 KCAL/MOL
REMARK 924 INTRA-LIGAND FREE ENERGY PREDICTED BY IDOCK:    1.62 KCAL/MOL
REMARK 927      BINDING AFFINITY PREDICTED BY RF-SCORE:    0.00 PKD
ROOT
HETATM    1  C   UNL     1      -9.105   7.833  68.117  1.00  0.00    -0.129 C  
HETATM    2  C   UNL     1      -7.754   8.038  67.730  1.00  0.00    -0.110 C  
HETATM    3  C   UNL     1      -8.233   8.445  69.073  1.00  0.00    -0.118 C  
HETATM    4  C   UNL     1      -6.734   8.907  69.785  1.00  0.00    -0.045 C  
HETATM    5  C   UNL     1     -10.009   7.553  69.622  1.00  0.00    -0.184 C  
HETATM    6  C   UNL     1      -9.393  13.070  68.218  1.00  0.00    -0.199 C  
HETATM    7  C   UNL     1     -10.360  11.951  67.649  1.00  0.00    -0.217 C  
HETATM    8  C   UNL     1      -8.751   7.721  70.105  1.00  0.00    -0.140 C  
HETATM    9  C   UNL     1     -11.738  12.591  67.754  1.00  0.00    -0.419 C  
HETATM   10  C   UNL     1     -12.228  13.324  66.721  1.00  0.00    -0.340 C  
HETATM   11  C   UNL     1      -9.199   9.338  70.922  1.00  0.00    -0.300 C  
HETATM   12  O   UNL     1     -11.967  14.044  64.447  1.00  0.00    -0.420 OA 
HETATM   13  C   UNL     1      -7.939   6.501  70.638  1.00  0.00    -0.111 C  
HETATM   14  C   UNL     1     -11.487  13.459  65.407  1.00  0.00    -0.302 C  
HETATM   15  C   UNL     1     -10.099  12.880  65.359  1.00  0.00    -0.265 C  
HETATM   16  C   UNL     1     -10.135  11.771  66.126  1.00  0.00    -0.255 C  
HETATM   17  C   UNL     1     -10.096  10.436  69.971  1.00  0.00    -0.025 C  
HETATM   18  O   UNL     1     -11.488  10.253  70.263  1.00  0.00    -0.271 OA 
HETATM   19  F   UNL     1     -10.633  10.498  64.188  1.00  0.00    -0.419 F  
HETATM   20  C   UNL     1      -9.866  10.603  68.333  1.00  0.00    -0.161 C  
HETATM   21  C   UNL     1     -10.747  10.511  65.545  1.00  0.00     0.023 C  
HETATM   22  F   UNL     1      -8.495  10.846  68.090  1.00  0.00    -0.115 F  
HETATM   23  C   UNL     1     -10.029   9.288  66.077  1.00  0.00    -0.325 C  
HETATM   24  C   UNL     1     -10.143   9.175  67.605  1.00  0.00    -0.273 C  
HETATM   25  H   UNL     1     -11.987  10.863  69.734  1.00  0.00     0.000 HD 
ENDROOT
BRANCH   5  26
HETATM   26  C   UNL     1     -10.817   7.367  71.046  1.00  0.00    -0.239 C  
HETATM   27  O   UNL     1     -10.330   7.317  72.169  1.00  0.00    -0.189 OA 
BRANCH  26  28
HETATM   28  S   UNL     1     -12.563   7.070  70.869  1.00  0.00    -0.103 SA 
HETATM   29  F   UNL     1     -14.410   8.012  72.451  1.00  0.00    -0.396 F  
HETATM   30  C   UNL     1     -13.132   8.309  72.082  1.00  0.00    -0.287 C  
ENDBRANCH  26  28
ENDBRANCH   5  26
BRANCH   5  31
HETATM   31  O   UNL     1     -10.301   6.147  69.044  1.00  0.00    -0.173 OA 
BRANCH  31  32
HETATM   32  C   UNL     1      -9.968   4.909  69.525  1.00  0.00    -0.225 C  
HETATM   33  O   UNL     1     -10.269   4.487  70.627  1.00  0.00    -0.198 OA 
BRANCH  32  34
HETATM   34  C   UNL     1      -9.269   4.127  68.533  1.00  0.00    -0.145 A  
HETATM   35  C   UNL     1      -9.453   4.103  67.159  1.00  0.00    -0.215 A  
HETATM   36  O   UNL     1      -8.257   3.266  68.867  1.00  0.00    -0.060 OA 
HETATM   37  C   UNL     1      -8.522   3.182  66.632  1.00  0.00    -0.108 A  
HETATM   38  C   UNL     1      -7.820   2.695  67.710  1.00  0.00    -0.060 A  
ENDBRANCH  32  34
ENDBRANCH  31  32
ENDBRANCH   5  31
TORSDOF 5
ENDMDL
MODEL       50
REMARK 921   NORMALIZED FREE ENERGY PREDICTED BY IDOCK:   -5.10 KCAL/MOL
REMARK 922        TOTAL FREE ENERGY PREDICTED BY IDOCK:   -5.89 KCAL/MOL
REMARK 923 INTER-LIGAND FREE ENERGY PREDICTED BY IDOCK:   -6.44 KCAL/MOL
REMARK 924 INTRA-LIGAND FREE ENERGY PREDICTED BY IDOCK:    0.54 KCAL/MOL
REMARK 927      BINDING AFFINITY PREDICTED BY RF-SCORE:    0.00 PKD
ROOT
HETATM    1  C   UNL     1     -10.335   6.682  68.070  1.00  0.00    -0.226 C  
HETATM    2  C   UNL     1     -10.953   6.336  66.839  1.00  0.00    -0.404 C  
HETATM    3  C   UNL     1      -9.497   6.142  67.043  1.00  0.00    -0.141 C  
HETATM    4  C   UNL     1      -9.111   5.311  65.583  1.00  0.00    -0.158 C  
HETATM    5  C   UNL     1      -8.932   6.154  69.025  1.00  0.00    -0.125 C  
HETATM    6  C   UNL     1      -7.804  10.315  65.256  1.00  0.00    -0.145 C  
HETATM    7  C   UNL     1      -8.517  10.354  66.671  1.00  0.00    -0.126 C  
HETATM    8  C   UNL     1      -8.803   5.369  67.925  1.00  0.00    -0.105 C  
HETATM    9  C   UNL     1      -7.748  11.435  67.422  1.00  0.00    -0.135 C  
HETATM   10  C   UNL     1      -8.153  12.730  67.352  1.00  0.00    -0.185 C  
HETATM   11  C   UNL     1      -7.256   6.257  67.378  1.00  0.00    -0.075 C  
HETATM   12  O   UNL     1      -9.826  14.292  66.633  1.00  0.00    -0.262 OA 
HETATM   13  C   UNL     1      -9.133   3.846  67.997  1.00  0.00    -0.183 C  
HETATM   14  C   UNL     1      -9.413  13.141  66.621  1.00  0.00    -0.260 C  
HETATM   15  C   UNL     1     -10.109  12.067  65.829  1.00  0.00    -0.267 C  
HETATM   16  C   UNL     1      -9.950  10.928  66.535  1.00  0.00    -0.255 C  
HETATM   17  C   UNL     1      -7.311   7.962  67.430  1.00  0.00    -0.092 C  
HETATM   18  O   UNL     1      -6.751   8.393  68.678  1.00  0.00    -0.057 OA 
HETATM   19  F   UNL     1     -12.024  11.352  67.605  1.00  0.00    -0.319 F  
HETATM   20  C   UNL     1      -8.686   8.827  67.082  1.00  0.00    -0.120 C  
HETATM   21  C   UNL     1     -10.837  10.697  67.743  1.00  0.00    -0.286 C  
HETATM   22  F   UNL     1      -9.171   8.422  65.818  1.00  0.00    -0.221 F  
HETATM   23  C   UNL     1     -11.142   9.222  67.893  1.00  0.00     0.068 C  
HETATM   24  C   UNL     1      -9.868   8.391  68.110  1.00  0.00    -0.196 C  
HETATM   25  H   UNL     1      -6.782   9.341  68.707  1.00  0.00     0.000 HD 
ENDROOT
BRANCH   5  26
HETATM   26  C   UNL     1      -7.582   5.683  69.845  1.00  0.00    -0.075 C  
HETATM   27  O   UNL     1      -6.924   4.667  69.660  1.00  0.00    -0.047 OA 
BRANCH  26  28
HETATM   28  S   UNL     1      -7.158   6.725  71.225  1.00  0.00    -0.077 SA 
HETATM   29  F   UNL     1      -6.980   5.928  73.702  1.00  0.00    -0.076 F  
HETATM   30  C   UNL     1      -6.910   5.395  72.450  1.00  0.00    -0.075 C  
ENDBRANCH  26  28
ENDBRANCH   5  26
BRANCH   5  31
HETATM   31  O   UNL     1      -9.973   5.660  70.058  1.00  0.00    -0.175 OA 
BRANCH  31  32
HETATM   32  C   UNL     1     -10.456   6.271  71.184  1.00  0.00    -0.223 C  
HETATM   33  O   UNL     1     -10.893   7.406  71.227  1.00  0.00    -0.236 OA 
BRANCH  32  34
HETATM   34  C   UNL     1     -10.451   5.373  72.316  1.00  0.00    -0.219 A  
HETATM   35  C   UNL     1     -10.148   4.021  72.349  1.00  0.00    -0.242 A  
HETATM   36  O   UNL     1     -10.755   5.799  73.583  1.00  0.00    -0.262 OA 
HETATM   37  C   UNL     1     -10.282   3.599  73.690  1.00  0.00    -0.211 A  
HETATM   38  C   UNL     1     -10.657   4.715  74.402  1.00  0.00    -0.243 A  
ENDBRANCH  32  34
ENDBRANCH  31  32
ENDBRANCH   5  31
TORSDOF 5
ENDMDL
MODEL       51
REMARK 921   NORMALIZED FREE ENERGY PREDICTED BY IDOCK:   -5.10 KCAL/MOL
REMARK 922        TOTAL FREE ENERGY PREDICTED BY IDOCK:   -5.89 KCAL/MOL
REMARK 923 INTER-LIGAND FREE ENERGY PREDICTED BY IDOCK:   -6.60 KCAL/MOL
REMARK 924 INTRA-LIGAND FREE ENERGY PREDICTED BY IDOCK:    0.71 KCAL/MOL
REMARK 927      BINDING AFFINITY PREDICTED BY RF-SCORE:    0.00 PKD
ROOT
HETATM    1  C   UNL     1     -10.250   8.518  68.097  1.00  0.00    -0.254 C  
HETATM    2  C   UNL     1     -11.033   8.007  69.167  1.00  0.00     0.058 C  
HETATM    3  C   UNL     1      -9.920   8.954  69.420  1.00  0.00    -0.192 C  
HETATM    4  C   UNL     1     -10.154   9.229  71.105  1.00  0.00    -0.374 C  
HETATM    5  C   UNL     1      -9.319   9.990  67.742  1.00  0.00    -0.140 C  
HETATM    6  C   UNL     1      -6.313   5.844  70.304  1.00  0.00    -0.032 C  
HETATM    7  C   UNL     1      -6.792   6.009  68.802  1.00  0.00    -0.066 C  
HETATM    8  C   UNL     1      -9.718  10.240  69.015  1.00  0.00    -0.213 C  
HETATM    9  C   UNL     1      -5.507   5.834  68.002  1.00  0.00    -0.008 C  
HETATM   10  C   UNL     1      -5.128   4.599  67.585  1.00  0.00    -0.007 C  
HETATM   11  C   UNL     1      -7.976  10.098  69.670  1.00  0.00    -0.181 C  
HETATM   12  O   UNL     1      -5.694   2.278  67.353  1.00  0.00    -0.018 OA 
HETATM   13  C   UNL     1     -10.832  11.293  69.302  1.00  0.00    -0.259 C  
HETATM   14  C   UNL     1      -5.992   3.374  67.806  1.00  0.00    -0.027 C  
HETATM   15  C   UNL     1      -7.216   3.563  68.661  1.00  0.00    -0.050 C  
HETATM   16  C   UNL     1      -7.671   4.803  68.383  1.00  0.00    -0.081 C  
HETATM   17  C   UNL     1      -7.072   8.761  69.114  1.00  0.00    -0.063 C  
HETATM   18  O   UNL     1      -6.290   9.183  67.989  1.00  0.00    -0.054 OA 
HETATM   19  F   UNL     1      -9.088   3.865  66.729  1.00  0.00    -0.115 F  
HETATM   20  C   UNL     1      -7.755   7.275  68.821  1.00  0.00    -0.119 C  
HETATM   21  C   UNL     1      -8.458   5.013  67.104  1.00  0.00    -0.106 C  
HETATM   22  F   UNL     1      -8.462   6.864  69.973  1.00  0.00    -0.131 F  
HETATM   23  C   UNL     1      -9.521   6.071  67.312  1.00  0.00    -0.119 C  
HETATM   24  C   UNL     1      -8.912   7.430  67.689  1.00  0.00    -0.126 C  
HETATM   25  H   UNL     1      -5.787   8.440  67.680  1.00  0.00     0.000 HD 
ENDROOT
BRANCH   5  26
HETATM   26  C   UNL     1      -8.408  11.338  67.480  1.00  0.00    -0.131 C  
HETATM   27  O   UNL     1      -7.340  11.402  66.883  1.00  0.00    -0.135 OA 
BRANCH  26  28
HETATM   28  S   UNL     1      -9.013  12.804  68.288  1.00  0.00    -0.138 SA 
HETATM   29  F   UNL     1      -9.275  15.138  67.156  1.00  0.00    -0.188 F  
HETATM   30  C   UNL     1      -9.216  13.827  66.791  1.00  0.00    -0.244 C  
ENDBRANCH  26  28
ENDBRANCH   5  26
BRANCH   5  31
HETATM   31  O   UNL     1     -10.391  10.262  66.659  1.00  0.00    -0.227 OA 
BRANCH  31  32
HETATM   32  C   UNL     1     -10.249  10.498  65.318  1.00  0.00    -0.282 C  
HETATM   33  O   UNL     1      -9.553   9.843  64.566  1.00  0.00    -0.299 OA 
BRANCH  32  34
HETATM   34  C   UNL     1     -11.089  11.590  64.883  1.00  0.00    -0.215 A  
HETATM   35  C   UNL     1     -11.147  12.197  63.638  1.00  0.00    -0.528 A  
HETATM   36  O   UNL     1     -12.002  12.182  65.715  1.00  0.00    -0.536 OA 
HETATM   37  C   UNL     1     -12.129  13.208  63.714  1.00  0.00    -0.563 A  
HETATM   38  C   UNL     1     -12.618  13.164  65.000  1.00  0.00    -0.438 A  
ENDBRANCH  32  34
ENDBRANCH  31  32
ENDBRANCH   5  31
TORSDOF 5
ENDMDL
MODEL       52
REMARK 921   NORMALIZED FREE ENERGY PREDICTED BY IDOCK:   -5.05 KCAL/MOL
REMARK 922        TOTAL FREE ENERGY PREDICTED BY IDOCK:   -5.83 KCAL/MOL
REMARK 923 INTER-LIGAND FREE ENERGY PREDICTED BY IDOCK:   -7.92 KCAL/MOL
REMARK 924 INTRA-LIGAND FREE ENERGY PREDICTED BY IDOCK:    2.09 KCAL/MOL
REMARK 927      BINDING AFFINITY PREDICTED BY RF-SCORE:    0.00 PKD
ROOT
HETATM    1  C   UNL     1      -9.989   9.631  67.915  1.00  0.00    -0.201 C  
HETATM    2  C   UNL     1      -9.242   9.382  69.097  1.00  0.00    -0.155 C  
HETATM    3  C   UNL     1      -8.644  10.120  67.958  1.00  0.00    -0.118 C  
HETATM    4  C   UNL     1      -7.149  10.592  68.675  1.00  0.00    -0.077 C  
HETATM    5  C   UNL     1     -10.038  10.860  66.631  1.00  0.00    -0.219 C  
HETATM    6  C   UNL     1      -6.500   6.479  65.589  1.00  0.00    -0.042 C  
HETATM    7  C   UNL     1      -8.079   6.590  65.497  1.00  0.00    -0.127 C  
HETATM    8  C   UNL     1      -8.986  11.300  67.368  1.00  0.00    -0.144 C  
HETATM    9  C   UNL     1      -8.384   6.100  64.087  1.00  0.00     0.044 C  
HETATM   10  C   UNL     1      -8.616   4.781  63.860  1.00  0.00    -0.137 C  
HETATM   11  C   UNL     1      -7.769  10.893  66.013  1.00  0.00    -0.107 C  
HETATM   12  O   UNL     1      -8.973   2.599  64.792  1.00  0.00    -0.113 OA 
HETATM   13  C   UNL     1      -9.124  12.568  68.266  1.00  0.00    -0.183 C  
HETATM   14  C   UNL     1      -8.676   3.769  64.985  1.00  0.00    -0.115 C  
HETATM   15  C   UNL     1      -8.298   4.267  66.355  1.00  0.00    -0.105 C  
HETATM   16  C   UNL     1      -8.745   5.539  66.420  1.00  0.00    -0.123 C  
HETATM   17  C   UNL     1      -7.948   9.363  65.279  1.00  0.00    -0.110 C  
HETATM   18  O   UNL     1      -8.745   9.520  64.097  1.00  0.00    -0.195 OA 
HETATM   19  F   UNL     1     -10.763   4.735  67.372  1.00  0.00    -0.139 F  
HETATM   20  C   UNL     1      -8.422   8.012  66.122  1.00  0.00    -0.135 C  
HETATM   21  C   UNL     1     -10.222   5.772  66.676  1.00  0.00    -0.212 C  
HETATM   22  F   UNL     1      -7.574   7.853  67.241  1.00  0.00    -0.092 F  
HETATM   23  C   UNL     1     -10.417   7.028  67.500  1.00  0.00    -0.320 C  
HETATM   24  C   UNL     1      -9.886   8.276  66.778  1.00  0.00    -0.333 C  
HETATM   25  H   UNL     1      -8.845   8.669  63.689  1.00  0.00     0.000 HD 
ENDROOT
BRANCH   5  26
HETATM   26  C   UNL     1     -10.003  11.980  65.423  1.00  0.00    -0.253 C  
HETATM   27  O   UNL     1      -9.635  13.145  65.509  1.00  0.00    -0.108 OA 
BRANCH  26  28
HETATM   28  S   UNL     1     -10.716  11.431  63.888  1.00  0.00    -0.400 SA 
HETATM   29  F   UNL     1     -13.185  11.838  63.154  1.00  0.00    -0.592 F  
HETATM   30  C   UNL     1     -12.267  12.386  63.998  1.00  0.00    -0.490 C  
ENDBRANCH  26  28
ENDBRANCH   5  26
BRANCH   5  31
HETATM   31  O   UNL     1     -11.429  11.227  67.201  1.00  0.00    -0.460 OA 
BRANCH  31  32
HETATM   32  C   UNL     1     -11.870  12.392  67.769  1.00  0.00    -0.298 C  
HETATM   33  O   UNL     1     -12.091  13.423  67.161  1.00  0.00    -0.368 OA 
BRANCH  32  34
HETATM   34  C   UNL     1     -12.110  12.231  69.184  1.00  0.00    -0.161 A  
HETATM   35  C   UNL     1     -12.275  11.061  69.909  1.00  0.00    -0.408 A  
HETATM   36  O   UNL     1     -12.195  13.303  70.034  1.00  0.00    -0.317 OA 
HETATM   37  C   UNL     1     -12.477  11.432  71.256  1.00  0.00    -0.423 A  
HETATM   38  C   UNL     1     -12.426  12.806  71.282  1.00  0.00    -0.185 A  
ENDBRANCH  32  34
ENDBRANCH  31  32
ENDBRANCH   5  31
TORSDOF 5
ENDMDL
MODEL       53
REMARK 921   NORMALIZED FREE ENERGY PREDICTED BY IDOCK:   -4.97 KCAL/MOL
REMARK 922        TOTAL FREE ENERGY PREDICTED BY IDOCK:   -5.73 KCAL/MOL
REMARK 923 INTER-LIGAND FREE ENERGY PREDICTED BY IDOCK:   -7.05 KCAL/MOL
REMARK 924 INTRA-LIGAND FREE ENERGY PREDICTED BY IDOCK:    1.32 KCAL/MOL
REMARK 927      BINDING AFFINITY PREDICTED BY RF-SCORE:    0.00 PKD
ROOT
HETATM    1  C   UNL     1      -9.775   8.966  68.966  1.00  0.00    -0.171 C  
HETATM    2  C   UNL     1      -9.615   9.928  70.000  1.00  0.00    -0.260 C  
HETATM    3  C   UNL     1      -8.439   9.272  69.379  1.00  0.00    -0.137 C  
HETATM    4  C   UNL     1      -7.177  10.172  70.133  1.00  0.00    -0.162 C  
HETATM    5  C   UNL     1      -8.850   8.384  67.565  1.00  0.00    -0.135 C  
HETATM    6  C   UNL     1      -7.791   5.573  72.440  1.00  0.00    -0.103 C  
HETATM    7  C   UNL     1      -9.011   5.490  71.433  1.00  0.00    -0.150 C  
HETATM    8  C   UNL     1      -7.974   9.274  68.098  1.00  0.00    -0.099 C  
HETATM    9  C   UNL     1      -9.106   4.003  71.115  1.00  0.00    -0.180 C  
HETATM   10  C   UNL     1      -9.880   3.192  71.881  1.00  0.00    -0.238 C  
HETATM   11  C   UNL     1      -6.788   7.923  68.600  1.00  0.00    -0.063 C  
HETATM   12  O   UNL     1     -11.509   3.013  73.634  1.00  0.00    -0.217 OA 
HETATM   13  C   UNL     1      -7.720  10.647  67.403  1.00  0.00    -0.106 C  
HETATM   14  C   UNL     1     -10.744   3.729  73.003  1.00  0.00    -0.145 C  
HETATM   15  C   UNL     1     -10.575   5.186  73.341  1.00  0.00    -0.302 C  
HETATM   16  C   UNL     1     -10.337   5.810  72.168  1.00  0.00    -0.249 C  
HETATM   17  C   UNL     1      -7.480   6.566  69.370  1.00  0.00    -0.094 C  
HETATM   18  O   UNL     1      -7.727   5.561  68.377  1.00  0.00    -0.083 OA 
HETATM   19  F   UNL     1     -12.664   6.224  71.967  1.00  0.00    -0.387 F  
HETATM   20  C   UNL     1      -8.772   6.684  70.408  1.00  0.00    -0.151 C  
HETATM   21  C   UNL     1     -11.511   6.096  71.252  1.00  0.00    -0.247 C  
HETATM   22  F   UNL     1      -8.467   7.634  71.409  1.00  0.00    -0.109 F  
HETATM   23  C   UNL     1     -11.289   7.395  70.507  1.00  0.00    -0.295 C  
HETATM   24  C   UNL     1     -10.035   7.340  69.621  1.00  0.00    -0.176 C  
HETATM   25  H   UNL     1      -8.111   4.806  68.805  1.00  0.00     0.000 HD 
ENDROOT
BRANCH   5  26
HETATM   26  C   UNL     1      -7.930   7.822  66.318  1.00  0.00    -0.100 C  
HETATM   27  O   UNL     1      -6.912   8.331  65.865  1.00  0.00    -0.063 OA 
BRANCH  26  28
HETATM   28  S   UNL     1      -8.605   6.401  65.486  1.00  0.00    -0.062 SA 
HETATM   29  F   UNL     1      -8.466   5.962  62.920  1.00  0.00    -0.119 F  
HETATM   30  C   UNL     1      -7.800   6.673  63.872  1.00  0.00    -0.109 C  
ENDBRANCH  26  28
ENDBRANCH   5  26
BRANCH   5  31
HETATM   31  O   UNL     1      -9.977   9.012  66.711  1.00  0.00    -0.216 OA 
BRANCH  31  32
HETATM   32  C   UNL     1      -9.908   9.932  65.699  1.00  0.00    -0.298 C  
HETATM   33  O   UNL     1      -9.426   9.723  64.601  1.00  0.00    -0.280 OA 
BRANCH  32  34
HETATM   34  C   UNL     1     -10.545  11.174  66.069  1.00  0.00    -0.239 A  
HETATM   35  C   UNL     1     -11.393  11.430  67.136  1.00  0.00    -0.327 A  
HETATM   36  O   UNL     1     -10.355  12.329  65.357  1.00  0.00    -0.256 OA 
HETATM   37  C   UNL     1     -11.743  12.796  67.069  1.00  0.00    -0.440 A  
HETATM   38  C   UNL     1     -11.092  13.300  65.967  1.00  0.00    -0.283 A  
ENDBRANCH  32  34
ENDBRANCH  31  32
ENDBRANCH   5  31
TORSDOF 5
ENDMDL
MODEL       54
REMARK 921   NORMALIZED FREE ENERGY PREDICTED BY IDOCK:   -4.97 KCAL/MOL
REMARK 922        TOTAL FREE ENERGY PREDICTED BY IDOCK:   -5.72 KCAL/MOL
REMARK 923 INTER-LIGAND FREE ENERGY PREDICTED BY IDOCK:   -6.17 KCAL/MOL
REMARK 924 INTRA-LIGAND FREE ENERGY PREDICTED BY IDOCK:    0.45 KCAL/MOL
REMARK 927      BINDING AFFINITY PREDICTED BY RF-SCORE:    0.00 PKD
ROOT
HETATM    1  C   UNL     1      -8.076   7.989  70.537  1.00  0.00    -0.105 C  
HETATM    2  C   UNL     1      -8.065   8.694  71.770  1.00  0.00    -0.170 C  
HETATM    3  C   UNL     1      -9.244   7.892  71.359  1.00  0.00    -0.165 C  
HETATM    4  C   UNL     1     -10.186   8.008  72.797  1.00  0.00    -0.389 C  
HETATM    5  C   UNL     1      -8.835   6.526  69.870  1.00  0.00    -0.143 C  
HETATM    6  C   UNL     1     -11.908  11.311  69.194  1.00  0.00    -0.423 C  
HETATM    7  C   UNL     1     -10.631  10.774  68.424  1.00  0.00    -0.228 C  
HETATM    8  C   UNL     1      -9.389   6.560  71.110  1.00  0.00    -0.167 C  
HETATM    9  C   UNL     1     -11.056  10.824  66.961  1.00  0.00    -0.245 C  
HETATM   10  C   UNL     1     -10.838  11.946  66.228  1.00  0.00    -0.323 C  
HETATM   11  C   UNL     1     -11.082   6.944  70.427  1.00  0.00    -0.341 C  
HETATM   12  O   UNL     1      -9.818  14.114  66.099  1.00  0.00    -0.292 OA 
HETATM   13  C   UNL     1      -8.937   5.546  72.205  1.00  0.00    -0.143 C  
HETATM   14  C   UNL     1     -10.092  13.140  66.786  1.00  0.00    -0.253 C  
HETATM   15  C   UNL     1      -9.751  13.092  68.251  1.00  0.00    -0.223 C  
HETATM   16  C   UNL     1      -9.474  11.800  68.522  1.00  0.00    -0.165 C  
HETATM   17  C   UNL     1     -11.151   8.160  69.230  1.00  0.00     0.155 C  
HETATM   18  O   UNL     1     -11.109   7.529  67.943  1.00  0.00    -0.480 OA 
HETATM   19  F   UNL     1      -7.183  12.247  68.099  1.00  0.00    -0.076 F  
HETATM   20  C   UNL     1     -10.166   9.498  69.252  1.00  0.00    -0.203 C  
HETATM   21  C   UNL     1      -8.115  11.254  68.125  1.00  0.00    -0.134 C  
HETATM   22  F   UNL     1     -10.283  10.129  70.511  1.00  0.00    -0.325 F  
HETATM   23  C   UNL     1      -7.654  10.219  69.129  1.00  0.00    -0.111 C  
HETATM   24  C   UNL     1      -8.612   9.020  69.199  1.00  0.00    -0.133 C  
HETATM   25  H   UNL     1     -11.147   8.205  67.278  1.00  0.00     0.000 HD 
ENDROOT
BRANCH   5  26
HETATM   26  C   UNL     1      -9.614   5.204  69.268  1.00  0.00    -0.160 C  
HETATM   27  O   UNL     1     -10.075   4.267  69.907  1.00  0.00    -0.194 OA 
BRANCH  26  28
HETATM   28  S   UNL     1      -9.638   5.109  67.492  1.00  0.00    -0.148 SA 
HETATM   29  F   UNL     1      -8.940   3.021  66.095  1.00  0.00    -0.124 F  
HETATM   30  C   UNL     1      -9.376   3.309  67.353  1.00  0.00    -0.201 C  
ENDBRANCH  26  28
ENDBRANCH   5  26
BRANCH   5  31
HETATM   31  O   UNL     1      -7.399   5.952  69.814  1.00  0.00    -0.071 OA 
BRANCH  31  32
HETATM   32  C   UNL     1      -6.593   5.695  68.738  1.00  0.00    -0.048 C  
HETATM   33  O   UNL     1      -6.192   6.534  67.954  1.00  0.00    -0.026 OA 
BRANCH  32  34
HETATM   34  C   UNL     1      -6.215   4.302  68.682  1.00  0.00    -0.032 A  
HETATM   35  C   UNL     1      -6.217   3.361  69.700  1.00  0.00    -0.028 A  
HETATM   36  O   UNL     1      -5.794   3.709  67.521  1.00  0.00    -0.022 OA 
HETATM   37  C   UNL     1      -5.769   2.144  69.141  1.00  0.00    -0.022 A  
HETATM   38  C   UNL     1      -5.519   2.407  67.814  1.00  0.00    -0.017 A  
ENDBRANCH  32  34
ENDBRANCH  31  32
ENDBRANCH   5  31
TORSDOF 5
ENDMDL
MODEL       55
REMARK 921   NORMALIZED FREE ENERGY PREDICTED BY IDOCK:   -4.96 KCAL/MOL
REMARK 922        TOTAL FREE ENERGY PREDICTED BY IDOCK:   -5.71 KCAL/MOL
REMARK 923 INTER-LIGAND FREE ENERGY PREDICTED BY IDOCK:   -7.15 KCAL/MOL
REMARK 924 INTRA-LIGAND FREE ENERGY PREDICTED BY IDOCK:    1.44 KCAL/MOL
REMARK 927      BINDING AFFINITY PREDICTED BY RF-SCORE:    0.00 PKD
ROOT
HETATM    1  C   UNL     1      -9.802   9.556  68.222  1.00  0.00    -0.174 C  
HETATM    2  C   UNL     1      -9.788  10.664  69.110  1.00  0.00    -0.217 C  
HETATM    3  C   UNL     1      -8.527  10.002  68.696  1.00  0.00    -0.118 C  
HETATM    4  C   UNL     1      -7.388  11.080  69.410  1.00  0.00    -0.092 C  
HETATM    5  C   UNL     1      -8.723   8.837  67.006  1.00  0.00    -0.123 C  
HETATM    6  C   UNL     1      -7.979   6.833  72.319  1.00  0.00    -0.095 C  
HETATM    7  C   UNL     1      -9.096   6.528  71.236  1.00  0.00    -0.148 C  
HETATM    8  C   UNL     1      -7.946   9.849  67.473  1.00  0.00    -0.106 C  
HETATM    9  C   UNL     1      -9.085   5.007  71.138  1.00  0.00    -0.177 C  
HETATM   10  C   UNL     1      -9.885   4.268  71.948  1.00  0.00    -0.248 C  
HETATM   11  C   UNL     1      -6.746   8.663  68.269  1.00  0.00    -0.065 C  
HETATM   12  O   UNL     1     -11.658   4.240  73.565  1.00  0.00    -0.248 OA 
HETATM   13  C   UNL     1      -7.699  11.120  66.604  1.00  0.00    -0.155 C  
HETATM   14  C   UNL     1     -10.875   4.905  72.900  1.00  0.00    -0.248 C  
HETATM   15  C   UNL     1     -10.812   6.403  73.030  1.00  0.00    -0.287 C  
HETATM   16  C   UNL     1     -10.499   6.865  71.801  1.00  0.00    -0.224 C  
HETATM   17  C   UNL     1      -7.436   7.390  69.172  1.00  0.00    -0.099 C  
HETATM   18  O   UNL     1      -7.538   6.239  68.323  1.00  0.00    -0.095 OA 
HETATM   19  F   UNL     1     -12.814   7.096  71.345  1.00  0.00    -0.367 F  
HETATM   20  C   UNL     1      -8.824   7.574  70.069  1.00  0.00    -0.144 C  
HETATM   21  C   UNL     1     -11.596   6.940  70.757  1.00  0.00    -0.349 C  
HETATM   22  F   UNL     1      -8.661   8.676  70.938  1.00  0.00    -0.121 F  
HETATM   23  C   UNL     1     -11.371   8.130  69.847  1.00  0.00     0.062 C  
HETATM   24  C   UNL     1     -10.039   8.028  69.088  1.00  0.00    -0.202 C  
HETATM   25  H   UNL     1      -7.922   5.531  68.825  1.00  0.00     0.000 HD 
ENDROOT
BRANCH   5  26
HETATM   26  C   UNL     1      -7.664   8.161  65.940  1.00  0.00    -0.091 C  
HETATM   27  O   UNL     1      -6.603   8.636  65.552  1.00  0.00    -0.062 OA 
BRANCH  26  28
HETATM   28  S   UNL     1      -8.234   6.648  65.195  1.00  0.00    -0.085 SA 
HETATM   29  F   UNL     1      -6.825   5.141  63.600  1.00  0.00    -0.041 F  
HETATM   30  C   UNL     1      -6.618   6.075  64.571  1.00  0.00    -0.038 C  
ENDBRANCH  26  28
ENDBRANCH   5  26
BRANCH   5  31
HETATM   31  O   UNL     1      -9.796   9.263  65.976  1.00  0.00    -0.277 OA 
BRANCH  31  32
HETATM   32  C   UNL     1      -9.680  10.026  64.846  1.00  0.00    -0.307 C  
HETATM   33  O   UNL     1      -8.874   9.832  63.955  1.00  0.00    -0.202 OA 
BRANCH  32  34
HETATM   34  C   UNL     1     -10.685  11.062  64.803  1.00  0.00    -0.234 A  
HETATM   35  C   UNL     1     -11.152  11.862  65.834  1.00  0.00    -0.365 A  
HETATM   36  O   UNL     1     -11.329  11.403  63.642  1.00  0.00    -0.386 OA 
HETATM   37  C   UNL     1     -12.128  12.722  65.284  1.00  0.00    -0.505 A  
HETATM   38  C   UNL     1     -12.204  12.401  63.948  1.00  0.00    -0.513 A  
ENDBRANCH  32  34
ENDBRANCH  31  32
ENDBRANCH   5  31
TORSDOF 5
ENDMDL
MODEL       56
REMARK 921   NORMALIZED FREE ENERGY PREDICTED BY IDOCK:   -4.94 KCAL/MOL
REMARK 922        TOTAL FREE ENERGY PREDICTED BY IDOCK:   -5.69 KCAL/MOL
REMARK 923 INTER-LIGAND FREE ENERGY PREDICTED BY IDOCK:   -6.44 KCAL/MOL
REMARK 924 INTRA-LIGAND FREE ENERGY PREDICTED BY IDOCK:    0.76 KCAL/MOL
REMARK 927      BINDING AFFINITY PREDICTED BY RF-SCORE:    0.00 PKD
ROOT
HETATM    1  C   UNL     1     -10.538   7.136  70.286  1.00  0.00    -0.245 C  
HETATM    2  C   UNL     1     -11.690   6.669  69.598  1.00  0.00    -0.216 C  
HETATM    3  C   UNL     1     -10.338   6.533  69.003  1.00  0.00    -0.226 C  
HETATM    4  C   UNL     1     -10.730   5.592  67.614  1.00  0.00    -0.198 C  
HETATM    5  C   UNL     1      -8.810   6.730  70.372  1.00  0.00    -0.152 C  
HETATM    6  C   UNL     1     -10.143  10.584  66.353  1.00  0.00    -0.285 C  
HETATM    7  C   UNL     1      -9.997  10.724  67.925  1.00  0.00    -0.196 C  
HETATM    8  C   UNL     1      -9.231   5.857  69.421  1.00  0.00    -0.144 C  
HETATM    9  C   UNL     1      -9.024  11.886  68.085  1.00  0.00    -0.185 C  
HETATM   10  C   UNL     1      -9.492  13.158  68.168  1.00  0.00    -0.222 C  
HETATM   11  C   UNL     1      -8.275   6.738  68.082  1.00  0.00    -0.114 C  
HETATM   12  O   UNL     1     -11.394  14.607  68.366  1.00  0.00    -0.266 OA 
HETATM   13  C   UNL     1      -9.367   4.338  69.745  1.00  0.00    -0.231 C  
HETATM   14  C   UNL     1     -10.973  13.471  68.202  1.00  0.00    -0.254 C  
HETATM   15  C   UNL     1     -11.908  12.314  67.967  1.00  0.00    -0.368 C  
HETATM   16  C   UNL     1     -11.320  11.244  68.543  1.00  0.00    -0.341 C  
HETATM   17  C   UNL     1      -8.411   8.439  68.057  1.00  0.00    -0.132 C  
HETATM   18  O   UNL     1      -7.306   8.990  68.786  1.00  0.00    -0.074 OA 
HETATM   19  F   UNL     1     -12.533  11.700  70.529  1.00  0.00    -0.378 F  
HETATM   20  C   UNL     1      -9.818   9.233  68.449  1.00  0.00    -0.155 C  
HETATM   21  C   UNL     1     -11.412  11.093  70.049  1.00  0.00    -0.292 C  
HETATM   22  F   UNL     1     -10.870   8.709  67.666  1.00  0.00    -0.301 F  
HETATM   23  C   UNL     1     -11.489   9.628  70.423  1.00  0.00    -0.325 C  
HETATM   24  C   UNL     1     -10.240   8.854  69.973  1.00  0.00    -0.214 C  
HETATM   25  H   UNL     1      -7.382   9.936  68.773  1.00  0.00     0.000 HD 
ENDROOT
BRANCH   5  26
HETATM   26  C   UNL     1      -7.202   6.368  70.369  1.00  0.00    -0.083 C  
HETATM   27  O   UNL     1      -6.269   7.154  70.488  1.00  0.00    -0.031 OA 
BRANCH  26  28
HETATM   28  S   UNL     1      -6.831   4.665  70.012  1.00  0.00    -0.045 SA 
HETATM   29  F   UNL     1      -5.141   3.848  68.202  1.00  0.00    -0.006 F  
HETATM   30  C   UNL     1      -5.378   4.962  68.949  1.00  0.00    -0.004 C  
ENDBRANCH  26  28
ENDBRANCH   5  26
BRANCH   5  31
HETATM   31  O   UNL     1      -9.107   6.297  71.828  1.00  0.00    -0.144 OA 
BRANCH  31  32
HETATM   32  C   UNL     1      -8.439   6.587  72.988  1.00  0.00    -0.118 C  
HETATM   33  O   UNL     1      -8.413   7.680  73.521  1.00  0.00    -0.146 OA 
BRANCH  32  34
HETATM   34  C   UNL     1      -7.817   5.409  73.548  1.00  0.00    -0.103 A  
HETATM   35  C   UNL     1      -8.312   4.116  73.615  1.00  0.00    -0.093 A  
HETATM   36  O   UNL     1      -6.566   5.443  74.105  1.00  0.00    -0.071 OA 
HETATM   37  C   UNL     1      -7.326   3.327  74.248  1.00  0.00    -0.052 A  
HETATM   38  C   UNL     1      -6.285   4.180  74.532  1.00  0.00    -0.038 A  
ENDBRANCH  32  34
ENDBRANCH  31  32
ENDBRANCH   5  31
TORSDOF 5
ENDMDL
MODEL       57
REMARK 921   NORMALIZED FREE ENERGY PREDICTED BY IDOCK:   -4.92 KCAL/MOL
REMARK 922        TOTAL FREE ENERGY PREDICTED BY IDOCK:   -5.65 KCAL/MOL
REMARK 923 INTER-LIGAND FREE ENERGY PREDICTED BY IDOCK:   -6.51 KCAL/MOL
REMARK 924 INTRA-LIGAND FREE ENERGY PREDICTED BY IDOCK:    0.85 KCAL/MOL
REMARK 927      BINDING AFFINITY PREDICTED BY RF-SCORE:    0.00 PKD
ROOT
HETATM    1  C   UNL     1      -8.479  11.903  66.680  1.00  0.00    -0.143 C  
HETATM    2  C   UNL     1      -8.188  11.282  65.436  1.00  0.00     0.262 C  
HETATM    3  C   UNL     1      -9.581  11.631  65.808  1.00  0.00    -0.255 C  
HETATM    4  C   UNL     1     -10.376  11.254  64.326  1.00  0.00    -0.399 C  
HETATM    5  C   UNL     1      -9.707  13.008  67.337  1.00  0.00    -0.213 C  
HETATM    6  C   UNL     1     -11.027   7.454  67.789  1.00  0.00    -0.099 C  
HETATM    7  C   UNL     1     -10.032   8.361  68.626  1.00  0.00    -0.197 C  
HETATM    8  C   UNL     1     -10.171  12.831  66.073  1.00  0.00    -0.290 C  
HETATM    9  C   UNL     1     -10.470   8.126  70.067  1.00  0.00    -0.231 C  
HETATM   10  C   UNL     1      -9.916   7.118  70.790  1.00  0.00    -0.194 C  
HETATM   11  C   UNL     1     -11.663  11.883  66.672  1.00  0.00    -0.264 C  
HETATM   12  O   UNL     1      -8.236   5.411  70.926  1.00  0.00    -0.112 OA 
HETATM   13  C   UNL     1     -10.044  13.971  65.018  1.00  0.00    -0.323 C  
HETATM   14  C   UNL     1      -8.795   6.259  70.245  1.00  0.00    -0.153 C  
HETATM   15  C   UNL     1      -8.435   6.464  68.798  1.00  0.00    -0.121 C  
HETATM   16  C   UNL     1      -8.596   7.783  68.563  1.00  0.00    -0.128 C  
HETATM   17  C   UNL     1     -11.366  10.677  67.843  1.00  0.00    -0.268 C  
HETATM   18  O   UNL     1     -11.585  11.245  69.141  1.00  0.00    -0.259 OA 
HETATM   19  F   UNL     1      -6.305   8.111  69.081  1.00  0.00    -0.036 F  
HETATM   20  C   UNL     1      -9.990   9.745  67.843  1.00  0.00    -0.163 C  
HETATM   21  C   UNL     1      -7.514   8.737  69.030  1.00  0.00    -0.081 C  
HETATM   22  F   UNL     1      -9.843   9.151  66.569  1.00  0.00    -0.237 F  
HETATM   23  C   UNL     1      -7.388   9.898  68.066  1.00  0.00    -0.084 C  
HETATM   24  C   UNL     1      -8.688  10.711  67.974  1.00  0.00    -0.126 C  
HETATM   25  H   UNL     1     -11.419  10.574  69.792  1.00  0.00     0.000 HD 
ENDROOT
BRANCH   5  26
HETATM   26  C   UNL     1     -10.905  13.975  67.926  1.00  0.00    -0.244 C  
HETATM   27  O   UNL     1     -11.818  14.487  67.291  1.00  0.00    -0.394 OA 
BRANCH  26  28
HETATM   28  S   UNL     1     -10.726  14.405  69.644  1.00  0.00     0.028 SA 
HETATM   29  F   UNL     1     -12.611  15.411  71.139  1.00  0.00    -0.326 F  
HETATM   30  C   UNL     1     -12.496  14.671  70.000  1.00  0.00    -0.284 C  
ENDBRANCH  26  28
ENDBRANCH   5  26
BRANCH   5  31
HETATM   31  O   UNL     1      -8.549  14.026  67.468  1.00  0.00    -0.169 OA 
BRANCH  31  32
HETATM   32  C   UNL     1      -7.665  14.230  68.494  1.00  0.00    -0.137 C  
HETATM   33  O   UNL     1      -7.256  13.362  69.242  1.00  0.00    -0.022 OA 
BRANCH  32  34
HETATM   34  C   UNL     1      -7.218  15.602  68.540  1.00  0.00    -0.120 A  
HETATM   35  C   UNL     1      -5.951  16.093  68.819  1.00  0.00    -0.110 A  
HETATM   36  O   UNL     1      -8.060  16.651  68.280  1.00  0.00    -0.183 OA 
HETATM   37  C   UNL     1      -6.024  17.500  68.735  1.00  0.00    -0.175 A  
HETATM   38  C   UNL     1      -7.328  17.793  68.410  1.00  0.00    -0.257 A  
ENDBRANCH  32  34
ENDBRANCH  31  32
ENDBRANCH   5  31
TORSDOF 5
ENDMDL
MODEL       58
REMARK 921   NORMALIZED FREE ENERGY PREDICTED BY IDOCK:   -4.87 KCAL/MOL
REMARK 922        TOTAL FREE ENERGY PREDICTED BY IDOCK:   -5.60 KCAL/MOL
REMARK 923 INTER-LIGAND FREE ENERGY PREDICTED BY IDOCK:   -6.30 KCAL/MOL
REMARK 924 INTRA-LIGAND FREE ENERGY PREDICTED BY IDOCK:    0.70 KCAL/MOL
REMARK 927      BINDING AFFINITY PREDICTED BY RF-SCORE:    0.00 PKD
ROOT
HETATM    1  C   UNL     1      -9.717   6.709  70.509  1.00  0.00    -0.187 C  
HETATM    2  C   UNL     1     -10.064   5.449  71.065  1.00  0.00    -0.281 C  
HETATM    3  C   UNL     1      -8.669   5.950  71.120  1.00  0.00    -0.132 C  
HETATM    4  C   UNL     1      -7.965   4.728  72.111  1.00  0.00    -0.106 C  
HETATM    5  C   UNL     1      -8.505   7.979  70.795  1.00  0.00    -0.124 C  
HETATM    6  C   UNL     1      -6.857   3.913  67.115  1.00  0.00    -0.051 C  
HETATM    7  C   UNL     1      -7.835   5.147  66.936  1.00  0.00    -0.100 C  
HETATM    8  C   UNL     1      -8.126   7.051  71.711  1.00  0.00    -0.099 C  
HETATM    9  C   UNL     1      -7.281   5.859  65.708  1.00  0.00    -0.075 C  
HETATM   10  C   UNL     1      -7.724   5.524  64.469  1.00  0.00    -0.090 C  
HETATM   11  C   UNL     1      -6.545   6.679  70.793  1.00  0.00    -0.053 C  
HETATM   12  O   UNL     1      -9.295   4.279  63.150  1.00  0.00    -0.139 OA 
HETATM   13  C   UNL     1      -8.392   7.285  73.230  1.00  0.00    -0.146 C  
HETATM   14  C   UNL     1      -8.835   4.516  64.257  1.00  0.00    -0.152 C  
HETATM   15  C   UNL     1      -9.310   3.776  65.479  1.00  0.00    -0.160 C  
HETATM   16  C   UNL     1      -9.239   4.660  66.496  1.00  0.00    -0.132 C  
HETATM   17  C   UNL     1      -6.690   6.466  69.105  1.00  0.00    -0.053 C  
HETATM   18  O   UNL     1      -6.408   7.718  68.467  1.00  0.00    -0.042 OA 
HETATM   19  F   UNL     1     -11.500   5.247  66.087  1.00  0.00    -0.102 F  
HETATM   20  C   UNL     1      -8.009   5.741  68.401  1.00  0.00    -0.104 C  
HETATM   21  C   UNL     1     -10.334   5.701  66.625  1.00  0.00    -0.256 C  
HETATM   22  F   UNL     1      -8.217   4.483  69.011  1.00  0.00    -0.077 F  
HETATM   23  C   UNL     1     -10.593   6.009  68.085  1.00  0.00    -0.328 C  
HETATM   24  C   UNL     1      -9.349   6.582  68.780  1.00  0.00    -0.130 C  
HETATM   25  H   UNL     1      -6.488   7.600  67.529  1.00  0.00     0.000 HD 
ENDROOT
BRANCH   5  26
HETATM   26  C   UNL     1      -7.322   9.098  71.046  1.00  0.00    -0.098 C  
HETATM   27  O   UNL     1      -6.642   9.238  72.055  1.00  0.00    -0.290 OA 
BRANCH  26  28
HETATM   28  S   UNL     1      -7.150  10.294  69.739  1.00  0.00    -0.153 SA 
HETATM   29  F   UNL     1      -5.611  12.397  69.827  1.00  0.00    -0.072 F  
HETATM   30  C   UNL     1      -5.703  11.173  70.419  1.00  0.00    -0.137 C  
ENDBRANCH  26  28
ENDBRANCH   5  26
BRANCH   5  31
HETATM   31  O   UNL     1      -9.704   8.860  71.220  1.00  0.00    -0.235 OA 
BRANCH  31  32
HETATM   32  C   UNL     1     -10.666   9.468  70.458  1.00  0.00    -0.298 C  
HETATM   33  O   UNL     1     -10.498   9.882  69.326  1.00  0.00    -0.197 OA 
BRANCH  32  34
HETATM   34  C   UNL     1     -11.939   9.498  71.139  1.00  0.00    -0.348 A  
HETATM   35  C   UNL     1     -12.643   8.448  71.709  1.00  0.00    -0.378 A  
HETATM   36  O   UNL     1     -12.638  10.662  71.323  1.00  0.00    -0.359 OA 
HETATM   37  C   UNL     1     -13.826   8.991  72.256  1.00  0.00    -0.547 A  
HETATM   38  C   UNL     1     -13.781  10.340  71.992  1.00  0.00    -0.068 A  
ENDBRANCH  32  34
ENDBRANCH  31  32
ENDBRANCH   5  31
TORSDOF 5
ENDMDL
MODEL       59
REMARK 921   NORMALIZED FREE ENERGY PREDICTED BY IDOCK:   -4.67 KCAL/MOL
REMARK 922        TOTAL FREE ENERGY PREDICTED BY IDOCK:   -5.34 KCAL/MOL
REMARK 923 INTER-LIGAND FREE ENERGY PREDICTED BY IDOCK:   -6.20 KCAL/MOL
REMARK 924 INTRA-LIGAND FREE ENERGY PREDICTED BY IDOCK:    0.87 KCAL/MOL
REMARK 927      BINDING AFFINITY PREDICTED BY RF-SCORE:    0.00 PKD
ROOT
HETATM    1  C   UNL     1      -7.494   9.026  69.238  1.00  0.00    -0.075 C  
HETATM    2  C   UNL     1      -7.293   9.607  70.519  1.00  0.00    -0.141 C  
HETATM    3  C   UNL     1      -8.427   8.684  70.268  1.00  0.00    -0.133 C  
HETATM    4  C   UNL     1      -9.030   8.527  71.875  1.00  0.00    -0.301 C  
HETATM    5  C   UNL     1      -8.199   7.537  68.571  1.00  0.00    -0.125 C  
HETATM    6  C   UNL     1     -11.905  11.865  69.145  1.00  0.00    -0.371 C  
HETATM    7  C   UNL     1     -10.778  11.593  68.065  1.00  0.00    -0.246 C  
HETATM    8  C   UNL     1      -8.460   7.375  69.894  1.00  0.00    -0.139 C  
HETATM    9  C   UNL     1     -11.523  11.717  66.741  1.00  0.00    -0.352 C  
HETATM   10  C   UNL     1     -11.613  12.922  66.122  1.00  0.00    -0.423 C  
HETATM   11  C   UNL     1     -10.298   7.569  69.633  1.00  0.00    -0.225 C  
HETATM   12  O   UNL     1     -10.919  15.218  66.049  1.00  0.00    -0.332 OA 
HETATM   13  C   UNL     1      -7.655   6.340  70.737  1.00  0.00    -0.096 C  
HETATM   14  C   UNL     1     -10.912  14.155  66.653  1.00  0.00    -0.303 C  
HETATM   15  C   UNL     1     -10.248  14.021  67.997  1.00  0.00    -0.238 C  
HETATM   16  C   UNL     1      -9.762  12.763  68.043  1.00  0.00    -0.220 C  
HETATM   17  C   UNL     1     -10.781   8.868  68.635  1.00  0.00    -0.078 C  
HETATM   18  O   UNL     1     -10.952   8.372  67.301  1.00  0.00    -0.460 OA 
HETATM   19  F   UNL     1      -7.697  13.577  67.208  1.00  0.00    -0.155 F  
HETATM   20  C   UNL     1      -9.987  10.327  68.614  1.00  0.00    -0.173 C  
HETATM   21  C   UNL     1      -8.471  12.461  67.307  1.00  0.00    -0.183 C  
HETATM   22  F   UNL     1      -9.895  10.815  69.937  1.00  0.00    -0.147 F  
HETATM   23  C   UNL     1      -7.673  11.415  68.057  1.00  0.00    -0.114 C  
HETATM   24  C   UNL     1      -8.438  10.088  68.179  1.00  0.00    -0.114 C  
HETATM   25  H   UNL     1     -11.220   9.094  66.746  1.00  0.00     0.000 HD 
ENDROOT
BRANCH   5  26
HETATM   26  C   UNL     1      -8.926   6.177  67.988  1.00  0.00    -0.113 C  
HETATM   27  O   UNL     1      -9.094   5.119  68.582  1.00  0.00    -0.106 OA 
BRANCH  26  28
HETATM   28  S   UNL     1      -9.370   6.260  66.267  1.00  0.00    -0.085 SA 
HETATM   29  F   UNL     1     -10.803   4.485  65.004  1.00  0.00    -0.265 F  
HETATM   30  C   UNL     1     -10.602   4.915  66.281  1.00  0.00    -0.255 C  
ENDBRANCH  26  28
ENDBRANCH   5  26
BRANCH   5  31
HETATM   31  O   UNL     1      -6.753   7.186  68.146  1.00  0.00    -0.056 OA 
BRANCH  31  32
HETATM   32  C   UNL     1      -6.289   6.599  66.999  1.00  0.00    -0.041 C  
HETATM   33  O   UNL     1      -6.137   7.172  65.937  1.00  0.00    -0.035 OA 
BRANCH  32  34
HETATM   34  C   UNL     1      -5.930   5.217  67.221  1.00  0.00    -0.026 A  
HETATM   35  C   UNL     1      -5.438   4.622  68.372  1.00  0.00    -0.015 A  
HETATM   36  O   UNL     1      -6.062   4.266  66.243  1.00  0.00    -0.029 OA 
HETATM   37  C   UNL     1      -5.251   3.253  68.085  1.00  0.00    -0.012 A  
HETATM   38  C   UNL     1      -5.640   3.085  66.776  1.00  0.00    -0.021 A  
ENDBRANCH  32  34
ENDBRANCH  31  32
ENDBRANCH   5  31
TORSDOF 5
ENDMDL
MODEL       60
REMARK 921   NORMALIZED FREE ENERGY PREDICTED BY IDOCK:   -4.60 KCAL/MOL
REMARK 922        TOTAL FREE ENERGY PREDICTED BY IDOCK:   -5.25 KCAL/MOL
REMARK 923 INTER-LIGAND FREE ENERGY PREDICTED BY IDOCK:   -5.37 KCAL/MOL
REMARK 924 INTRA-LIGAND FREE ENERGY PREDICTED BY IDOCK:    0.13 KCAL/MOL
REMARK 927      BINDING AFFINITY PREDICTED BY RF-SCORE:    0.00 PKD
ROOT
HETATM    1  C   UNL     1      -7.206   7.096  69.430  1.00  0.00    -0.084 C  
HETATM    2  C   UNL     1      -6.171   7.928  69.935  1.00  0.00    -0.026 C  
HETATM    3  C   UNL     1      -7.448   7.766  70.672  1.00  0.00    -0.070 C  
HETATM    4  C   UNL     1      -7.058   8.624  72.115  1.00  0.00    -0.063 C  
HETATM    5  C   UNL     1      -8.536   6.116  70.086  1.00  0.00    -0.133 C  
HETATM    6  C   UNL     1      -9.933  11.551  68.950  1.00  0.00    -0.117 C  
HETATM    7  C   UNL     1      -9.733  10.304  67.993  1.00  0.00    -0.167 C  
HETATM    8  C   UNL     1      -8.040   6.669  71.223  1.00  0.00    -0.112 C  
HETATM    9  C   UNL     1     -11.026  10.270  67.186  1.00  0.00    -0.233 C  
HETATM   10  C   UNL     1     -11.117  10.957  66.019  1.00  0.00     0.019 C  
HETATM   11  C   UNL     1      -9.570   7.708  71.474  1.00  0.00    -0.179 C  
HETATM   12  O   UNL     1      -9.993  12.241  64.332  1.00  0.00    -0.270 OA 
HETATM   13  C   UNL     1      -7.218   5.807  72.228  1.00  0.00    -0.089 C  
HETATM   14  C   UNL     1      -9.937  11.697  65.425  1.00  0.00    -0.250 C  
HETATM   15  C   UNL     1      -8.699  11.776  66.278  1.00  0.00    -0.106 C  
HETATM   16  C   UNL     1      -8.634  10.603  66.942  1.00  0.00    -0.126 C  
HETATM   17  C   UNL     1     -10.155   8.528  70.095  1.00  0.00    -0.190 C  
HETATM   18  O   UNL     1     -11.174   7.720  69.489  1.00  0.00    -0.445 OA 
HETATM   19  F   UNL     1      -7.269   9.743  65.204  1.00  0.00    -0.100 F  
HETATM   20  C   UNL     1      -9.150   9.161  68.933  1.00  0.00    -0.139 C  
HETATM   21  C   UNL     1      -8.122   9.382  66.203  1.00  0.00    -0.111 C  
HETATM   22  F   UNL     1      -8.203  10.001  69.560  1.00  0.00    -0.110 F  
HETATM   23  C   UNL     1      -7.361   8.479  67.151  1.00  0.00    -0.084 C  
HETATM   24  C   UNL     1      -8.250   7.967  68.294  1.00  0.00    -0.123 C  
HETATM   25  H   UNL     1     -11.499   8.176  68.723  1.00  0.00     0.000 HD 
ENDROOT
BRANCH   5  26
HETATM   26  C   UNL     1      -9.800   5.277  70.729  1.00  0.00    -0.196 C  
HETATM   27  O   UNL     1     -10.948   5.231  70.302  1.00  0.00    -0.166 OA 
BRANCH  26  28
HETATM   28  S   UNL     1      -9.444   4.484  72.282  1.00  0.00    -0.139 SA 
HETATM   29  F   UNL     1     -10.939   4.626  74.413  1.00  0.00    -0.315 F  
HETATM   30  C   UNL     1     -11.068   4.767  73.064  1.00  0.00    -0.274 C  
ENDBRANCH  26  28
ENDBRANCH   5  26
BRANCH   5  31
HETATM   31  O   UNL     1      -7.741   4.899  69.555  1.00  0.00    -0.065 OA 
BRANCH  31  32
HETATM   32  C   UNL     1      -8.138   3.873  68.741  1.00  0.00    -0.070 C  
HETATM   33  O   UNL     1      -8.121   2.695  69.046  1.00  0.00    -0.052 OA 
BRANCH  32  34
HETATM   34  C   UNL     1      -8.651   4.365  67.483  1.00  0.00    -0.103 A  
HETATM   35  C   UNL     1      -7.949   4.781  66.363  1.00  0.00    -0.103 A  
HETATM   36  O   UNL     1      -9.995   4.469  67.237  1.00  0.00    -0.188 OA 
HETATM   37  C   UNL     1      -8.903   5.164  65.395  1.00  0.00    -0.153 A  
HETATM   38  C   UNL     1     -10.133   4.962  65.975  1.00  0.00    -0.239 A  
ENDBRANCH  32  34
ENDBRANCH  31  32
ENDBRANCH   5  31
TORSDOF 5
ENDMDL
MODEL       61
REMARK 921   NORMALIZED FREE ENERGY PREDICTED BY IDOCK:   -4.52 KCAL/MOL
REMARK 922        TOTAL FREE ENERGY PREDICTED BY IDOCK:   -5.14 KCAL/MOL
REMARK 923 INTER-LIGAND FREE ENERGY PREDICTED BY IDOCK:   -5.51 KCAL/MOL
REMARK 924 INTRA-LIGAND FREE ENERGY PREDICTED BY IDOCK:    0.36 KCAL/MOL
REMARK 927      BINDING AFFINITY PREDICTED BY RF-SCORE:    0.00 PKD
ROOT
HETATM    1  C   UNL     1      -7.353   7.341  68.500  1.00  0.00    -0.100 C  
HETATM    2  C   UNL     1      -6.743   7.742  69.718  1.00  0.00    -0.039 C  
HETATM    3  C   UNL     1      -8.028   7.001  69.715  1.00  0.00    -0.124 C  
HETATM    4  C   UNL     1      -8.211   6.737  71.408  1.00  0.00    -0.111 C  
HETATM    5  C   UNL     1      -8.421   6.036  67.936  1.00  0.00    -0.115 C  
HETATM    6  C   UNL     1     -11.162  10.694  69.830  1.00  0.00    -0.378 C  
HETATM    7  C   UNL     1     -10.407  10.411  68.466  1.00  0.00    -0.197 C  
HETATM    8  C   UNL     1      -8.353   5.757  69.263  1.00  0.00    -0.108 C  
HETATM    9  C   UNL     1     -11.442  10.776  67.409  1.00  0.00    -0.113 C  
HETATM   10  C   UNL     1     -11.508  12.046  66.932  1.00  0.00    -0.402 C  
HETATM   11  C   UNL     1     -10.145   6.205  69.528  1.00  0.00    -0.232 C  
HETATM   12  O   UNL     1     -10.522  14.232  66.852  1.00  0.00    -0.269 OA 
HETATM   13  C   UNL     1      -7.520   4.541  69.773  1.00  0.00    -0.051 C  
HETATM   14  C   UNL     1     -10.518  13.114  67.347  1.00  0.00    -0.242 C  
HETATM   15  C   UNL     1      -9.556  12.746  68.445  1.00  0.00    -0.175 C  
HETATM   16  C   UNL     1      -9.268  11.441  68.260  1.00  0.00    -0.183 C  
HETATM   17  C   UNL     1     -10.670   7.659  68.803  1.00  0.00    -0.077 C  
HETATM   18  O   UNL     1     -11.252   7.344  67.531  1.00  0.00    -0.535 OA 
HETATM   19  F   UNL     1      -7.391  12.085  66.960  1.00  0.00    -0.130 F  
HETATM   20  C   UNL     1      -9.699   9.003  68.680  1.00  0.00    -0.160 C  
HETATM   21  C   UNL     1      -8.272  11.068  67.179  1.00  0.00    -0.133 C  
HETATM   22  F   UNL     1      -9.196   9.320  69.962  1.00  0.00    -0.156 F  
HETATM   23  C   UNL     1      -7.473   9.853  67.601  1.00  0.00    -0.090 C  
HETATM   24  C   UNL     1      -8.369   8.626  67.823  1.00  0.00    -0.118 C  
HETATM   25  H   UNL     1     -11.544   8.153  67.129  1.00  0.00     0.000 HD 
ENDROOT
BRANCH   5  26
HETATM   26  C   UNL     1      -9.469   4.853  67.470  1.00  0.00    -0.140 C  
HETATM   27  O   UNL     1      -9.509   3.700  67.883  1.00  0.00    -0.183 OA 
BRANCH  26  28
HETATM   28  S   UNL     1     -10.541   5.306  66.124  1.00  0.00    -0.104 SA 
HETATM   29  F   UNL     1     -10.794   3.975  63.897  1.00  0.00    -0.259 F  
HETATM   30  C   UNL     1     -10.401   3.750  65.182  1.00  0.00     0.014 C  
ENDBRANCH  26  28
ENDBRANCH   5  26
BRANCH   5  31
HETATM   31  O   UNL     1      -7.204   5.560  67.108  1.00  0.00    -0.072 OA 
BRANCH  31  32
HETATM   32  C   UNL     1      -7.057   5.426  65.753  1.00  0.00    -0.067 C  
HETATM   33  O   UNL     1      -7.090   4.369  65.151  1.00  0.00    -0.060 OA 
BRANCH  32  34
HETATM   34  C   UNL     1      -6.924   6.711  65.107  1.00  0.00    -0.051 A  
HETATM   35  C   UNL     1      -5.866   7.605  65.162  1.00  0.00    -0.038 A  
HETATM   36  O   UNL     1      -7.902   7.220  64.292  1.00  0.00    -0.124 OA 
HETATM   37  C   UNL     1      -6.215   8.710  64.355  1.00  0.00    -0.067 A  
HETATM   38  C   UNL     1      -7.464   8.432  63.852  1.00  0.00    -0.116 A  
ENDBRANCH  32  34
ENDBRANCH  31  32
ENDBRANCH   5  31
TORSDOF 5
ENDMDL
MODEL       62
REMARK 921   NORMALIZED FREE ENERGY PREDICTED BY IDOCK:   -4.52 KCAL/MOL
REMARK 922        TOTAL FREE ENERGY PREDICTED BY IDOCK:   -5.13 KCAL/MOL
REMARK 923 INTER-LIGAND FREE ENERGY PREDICTED BY IDOCK:   -6.97 KCAL/MOL
REMARK 924 INTRA-LIGAND FREE ENERGY PREDICTED BY IDOCK:    1.84 KCAL/MOL
REMARK 927      BINDING AFFINITY PREDICTED BY RF-SCORE:    0.00 PKD
ROOT
HETATM    1  C   UNL     1      -8.974  13.930  67.777  1.00  0.00    -0.188 C  
HETATM    2  C   UNL     1      -8.449  14.008  66.460  1.00  0.00     0.273 C  
HETATM    3  C   UNL     1      -9.909  13.897  66.694  1.00  0.00    -0.288 C  
HETATM    4  C   UNL     1     -10.475  14.104  65.080  1.00  0.00    -0.447 C  
HETATM    5  C   UNL     1     -10.476  14.376  68.618  1.00  0.00    -0.247 C  
HETATM    6  C   UNL     1     -10.476   9.094  66.405  1.00  0.00    -0.141 C  
HETATM    7  C   UNL     1      -9.792   9.678  67.710  1.00  0.00    -0.192 C  
HETATM    8  C   UNL     1     -10.785  14.717  67.340  1.00  0.00    -0.281 C  
HETATM    9  C   UNL     1     -10.272   8.738  68.809  1.00  0.00    -0.224 C  
HETATM   10  C   UNL     1      -9.554   7.627  69.115  1.00  0.00    -0.155 C  
HETATM   11  C   UNL     1     -12.053  13.355  67.203  1.00  0.00    -0.367 C  
HETATM   12  O   UNL     1      -7.533   6.372  68.799  1.00  0.00    -0.084 OA 
HETATM   13  C   UNL     1     -10.850  16.216  66.916  1.00  0.00    -0.175 C  
HETATM   14  C   UNL     1      -8.222   7.324  68.461  1.00  0.00    -0.125 C  
HETATM   15  C   UNL     1      -7.810   8.228  67.330  1.00  0.00    -0.105 C  
HETATM   16  C   UNL     1      -8.259   9.457  67.659  1.00  0.00    -0.114 C  
HETATM   17  C   UNL     1     -11.570  11.820  67.775  1.00  0.00    -0.304 C  
HETATM   18  O   UNL     1     -12.017  11.684  69.131  1.00  0.00    -0.323 OA 
HETATM   19  F   UNL     1      -6.158   9.910  68.661  1.00  0.00    -0.042 F  
HETATM   20  C   UNL     1     -10.017  11.250  67.617  1.00  0.00    -0.178 C  
HETATM   21  C   UNL     1      -7.473  10.265  68.672  1.00  0.00    -0.086 C  
HETATM   22  F   UNL     1      -9.636  11.340  66.259  1.00  0.00    -0.201 F  
HETATM   23  C   UNL     1      -7.551  11.740  68.338  1.00  0.00    -0.123 C  
HETATM   24  C   UNL     1      -8.995  12.262  68.376  1.00  0.00    -0.141 C  
HETATM   25  H   UNL     1     -11.749  10.831  69.449  1.00  0.00     0.000 HD 
ENDROOT
BRANCH   5  26
HETATM   26  C   UNL     1     -11.910  14.739  69.344  1.00  0.00    -0.323 C  
HETATM   27  O   UNL     1     -12.754  15.535  68.951  1.00  0.00     0.263 OA 
BRANCH  26  28
HETATM   28  S   UNL     1     -12.146  13.973  70.933  1.00  0.00    -0.285 SA 
HETATM   29  F   UNL     1     -12.615  15.252  73.156  1.00  0.00    -0.396 F  
HETATM   30  C   UNL     1     -12.749  15.452  71.815  1.00  0.00    -0.396 C  
ENDBRANCH  26  28
ENDBRANCH   5  26
BRANCH   5  31
HETATM   31  O   UNL     1      -9.605  15.408  69.373  1.00  0.00    -0.246 OA 
BRANCH  31  32
HETATM   32  C   UNL     1      -9.573  16.773  69.278  1.00  0.00    -0.112 C  
HETATM   33  O   UNL     1     -10.482  17.515  69.602  1.00  0.00    -0.129 OA 
BRANCH  32  34
HETATM   34  C   UNL     1      -8.291  17.240  68.804  1.00  0.00    -0.228 A  
HETATM   35  C   UNL     1      -8.001  18.368  68.051  1.00  0.00    -0.289 A  
HETATM   36  O   UNL     1      -7.126  16.573  69.081  1.00  0.00    -0.208 OA 
HETATM   37  C   UNL     1      -6.604  18.386  67.852  1.00  0.00    -0.208 A  
HETATM   38  C   UNL     1      -6.116  17.271  68.493  1.00  0.00    -0.155 A  
ENDBRANCH  32  34
ENDBRANCH  31  32
ENDBRANCH   5  31
TORSDOF 5
ENDMDL
MODEL       63
REMARK 921   NORMALIZED FREE ENERGY PREDICTED BY IDOCK:   -4.49 KCAL/MOL
REMARK 922        TOTAL FREE ENERGY PREDICTED BY IDOCK:   -5.10 KCAL/MOL
REMARK 923 INTER-LIGAND FREE ENERGY PREDICTED BY IDOCK:   -7.33 KCAL/MOL
REMARK 924 INTRA-LIGAND FREE ENERGY PREDICTED BY IDOCK:    2.23 KCAL/MOL
REMARK 927      BINDING AFFINITY PREDICTED BY RF-SCORE:    0.00 PKD
ROOT
HETATM    1  C   UNL     1      -7.756   9.999  69.123  1.00  0.00    -0.104 C  
HETATM    2  C   UNL     1      -6.422   9.534  68.972  1.00  0.00    -0.046 C  
HETATM    3  C   UNL     1      -7.475   9.163  67.995  1.00  0.00    -0.084 C  
HETATM    4  C   UNL     1      -6.506   8.353  66.822  1.00  0.00    -0.056 C  
HETATM    5  C   UNL     1      -9.137  10.380  68.071  1.00  0.00    -0.136 C  
HETATM    6  C   UNL     1      -8.952   4.946  69.866  1.00  0.00    -0.138 C  
HETATM    7  C   UNL     1      -9.390   6.275  70.609  1.00  0.00    -0.171 C  
HETATM    8  C   UNL     1      -8.240   9.921  67.160  1.00  0.00    -0.121 C  
HETATM    9  C   UNL     1     -10.776   5.938  71.144  1.00  0.00    -0.328 C  
HETATM   10  C   UNL     1     -10.914   5.385  72.377  1.00  0.00    -0.298 C  
HETATM   11  C   UNL     1      -9.255   8.393  66.817  1.00  0.00    -0.214 C  
HETATM   12  O   UNL     1      -9.865   4.755  74.441  1.00  0.00    -0.144 OA 
HETATM   13  C   UNL     1      -7.525  10.909  66.188  1.00  0.00    -0.107 C  
HETATM   14  C   UNL     1      -9.732   5.170  73.299  1.00  0.00    -0.145 C  
HETATM   15  C   UNL     1      -8.370   5.442  72.717  1.00  0.00    -0.113 C  
HETATM   16  C   UNL     1      -8.530   6.488  71.881  1.00  0.00    -0.119 C  
HETATM   17  C   UNL     1      -9.853   7.567  68.186  1.00  0.00    -0.159 C  
HETATM   18  O   UNL     1     -11.188   8.025  68.442  1.00  0.00    -0.306 OA 
HETATM   19  F   UNL     1      -7.957   7.945  73.663  1.00  0.00    -0.150 F  
HETATM   20  C   UNL     1      -8.999   7.447  69.607  1.00  0.00    -0.141 C  
HETATM   21  C   UNL     1      -8.622   7.880  72.476  1.00  0.00    -0.152 C  
HETATM   22  F   UNL     1      -7.714   6.932  69.324  1.00  0.00    -0.095 F  
HETATM   23  C   UNL     1      -7.989   8.891  71.541  1.00  0.00    -0.119 C  
HETATM   24  C   UNL     1      -8.702   8.939  70.181  1.00  0.00    -0.168 C  
HETATM   25  H   UNL     1     -11.520   7.566  69.203  1.00  0.00     0.000 HD 
ENDROOT
BRANCH   5  26
HETATM   26  C   UNL     1     -10.416  10.654  67.068  1.00  0.00    -0.243 C  
HETATM   27  O   UNL     1     -11.597  10.736  67.384  1.00  0.00    -0.485 OA 
BRANCH  26  28
HETATM   28  S   UNL     1     -10.001  10.687  65.338  1.00  0.00    -0.296 SA 
HETATM   29  F   UNL     1     -11.562  11.561  63.440  1.00  0.00    -0.494 F  
HETATM   30  C   UNL     1     -11.401  11.719  64.784  1.00  0.00    -0.249 C  
ENDBRANCH  26  28
ENDBRANCH   5  26
BRANCH   5  31
HETATM   31  O   UNL     1      -8.919  11.846  68.517  1.00  0.00    -0.176 OA 
BRANCH  31  32
HETATM   32  C   UNL     1      -9.229  13.017  67.880  1.00  0.00    -0.208 C  
HETATM   33  O   UNL     1      -8.662  13.442  66.890  1.00  0.00    -0.210 OA 
BRANCH  32  34
HETATM   34  C   UNL     1     -10.368  13.664  68.488  1.00  0.00    -0.243 A  
HETATM   35  C   UNL     1     -11.201  13.192  69.491  1.00  0.00    -0.151 A  
HETATM   36  O   UNL     1     -10.774  14.920  68.119  1.00  0.00    -0.243 OA 
HETATM   37  C   UNL     1     -12.161  14.197  69.740  1.00  0.00    -0.397 A  
HETATM   38  C   UNL     1     -11.864  15.226  68.877  1.00  0.00    -0.320 A  
ENDBRANCH  32  34
ENDBRANCH  31  32
ENDBRANCH   5  31
TORSDOF 5
ENDMDL
MODEL       64
REMARK 921   NORMALIZED FREE ENERGY PREDICTED BY IDOCK:   -4.45 KCAL/MOL
REMARK 922        TOTAL FREE ENERGY PREDICTED BY IDOCK:   -5.05 KCAL/MOL
REMARK 923 INTER-LIGAND FREE ENERGY PREDICTED BY IDOCK:   -5.23 KCAL/MOL
REMARK 924 INTRA-LIGAND FREE ENERGY PREDICTED BY IDOCK:    0.18 KCAL/MOL
REMARK 927      BINDING AFFINITY PREDICTED BY RF-SCORE:    0.00 PKD
ROOT
HETATM    1  C   UNL     1      -9.632   7.235  67.095  1.00  0.00    -0.203 C  
HETATM    2  C   UNL     1     -11.018   7.544  67.138  1.00  0.00    -0.164 C  
HETATM    3  C   UNL     1      -9.994   8.598  67.339  1.00  0.00    -0.270 C  
HETATM    4  C   UNL     1     -11.015   9.985  67.381  1.00  0.00    -0.258 C  
HETATM    5  C   UNL     1      -8.117   8.064  66.675  1.00  0.00    -0.103 C  
HETATM    6  C   UNL     1      -9.646   8.559  72.171  1.00  0.00    -0.382 C  
HETATM    7  C   UNL     1      -8.990   7.356  71.376  1.00  0.00    -0.141 C  
HETATM    8  C   UNL     1      -9.013   9.073  66.521  1.00  0.00    -0.177 C  
HETATM    9  C   UNL     1      -7.762   7.012  72.210  1.00  0.00    -0.091 C  
HETATM   10  C   UNL     1      -7.854   6.099  73.211  1.00  0.00    -0.100 C  
HETATM   11  C   UNL     1      -8.335  10.002  67.991  1.00  0.00    -0.117 C  
HETATM   12  O   UNL     1      -9.185   4.441  74.323  1.00  0.00    -0.105 OA 
HETATM   13  C   UNL     1      -9.409   9.569  65.097  1.00  0.00    -0.316 C  
HETATM   14  C   UNL     1      -9.128   5.325  73.481  1.00  0.00    -0.128 C  
HETATM   15  C   UNL     1     -10.342   5.739  72.693  1.00  0.00    -0.229 C  
HETATM   16  C   UNL     1      -9.885   6.095  71.474  1.00  0.00    -0.190 C  
HETATM   17  C   UNL     1      -8.051   9.076  69.397  1.00  0.00    -0.108 C  
HETATM   18  O   UNL     1      -6.675   8.674  69.402  1.00  0.00    -0.047 OA 
HETATM   19  F   UNL     1     -10.271   3.877  70.728  1.00  0.00    -0.234 F  
HETATM   20  C   UNL     1      -9.027   7.810  69.852  1.00  0.00    -0.146 C  
HETATM   21  C   UNL     1      -9.540   5.000  70.484  1.00  0.00    -0.185 C  
HETATM   22  F   UNL     1     -10.365   8.261  69.899  1.00  0.00    -0.198 F  
HETATM   23  C   UNL     1      -9.853   5.453  69.073  1.00  0.00    -0.231 C  
HETATM   24  C   UNL     1      -9.035   6.690  68.672  1.00  0.00    -0.124 C  
HETATM   25  H   UNL     1      -6.517   8.159  70.184  1.00  0.00     0.000 HD 
ENDROOT
BRANCH   5  26
HETATM   26  C   UNL     1      -6.729   8.890  66.345  1.00  0.00    -0.074 C  
HETATM   27  O   UNL     1      -5.633   8.727  66.866  1.00  0.00    -0.039 OA 
BRANCH  26  28
HETATM   28  S   UNL     1      -6.931  10.243  65.207  1.00  0.00    -0.106 SA 
HETATM   29  F   UNL     1      -5.172  10.976  63.427  1.00  0.00    -0.176 F  
HETATM   30  C   UNL     1      -5.500   9.863  64.140  1.00  0.00    -0.086 C  
ENDBRANCH  26  28
ENDBRANCH   5  26
BRANCH   5  31
HETATM   31  O   UNL     1      -8.043   7.073  65.489  1.00  0.00    -0.119 OA 
BRANCH  31  32
HETATM   32  C   UNL     1      -7.075   6.164  65.157  1.00  0.00    -0.064 C  
HETATM   33  O   UNL     1      -6.282   6.294  64.243  1.00  0.00    -0.029 OA 
BRANCH  32  34
HETATM   34  C   UNL     1      -7.060   5.049  66.076  1.00  0.00    -0.072 A  
HETATM   35  C   UNL     1      -7.770   3.860  66.008  1.00  0.00    -0.089 A  
HETATM   36  O   UNL     1      -6.270   5.040  67.195  1.00  0.00    -0.033 OA 
HETATM   37  C   UNL     1      -7.406   3.095  67.137  1.00  0.00    -0.062 A  
HETATM   38  C   UNL     1      -6.495   3.857  67.833  1.00  0.00    -0.038 A  
ENDBRANCH  32  34
ENDBRANCH  31  32
ENDBRANCH   5  31
TORSDOF 5
ENDMDL
MODEL       65
REMARK 921   NORMALIZED FREE ENERGY PREDICTED BY IDOCK:   -4.44 KCAL/MOL
REMARK 922        TOTAL FREE ENERGY PREDICTED BY IDOCK:   -5.04 KCAL/MOL
REMARK 923 INTER-LIGAND FREE ENERGY PREDICTED BY IDOCK:   -5.83 KCAL/MOL
REMARK 924 INTRA-LIGAND FREE ENERGY PREDICTED BY IDOCK:    0.78 KCAL/MOL
REMARK 927      BINDING AFFINITY PREDICTED BY RF-SCORE:    0.00 PKD
ROOT
HETATM    1  C   UNL     1      -8.495   8.602  68.736  1.00  0.00    -0.129 C  
HETATM    2  C   UNL     1      -7.720   7.854  69.662  1.00  0.00    -0.103 C  
HETATM    3  C   UNL     1      -7.073   8.760  68.682  1.00  0.00    -0.072 C  
HETATM    4  C   UNL     1      -5.444   8.665  69.235  1.00  0.00    -0.035 C  
HETATM    5  C   UNL     1      -8.363  10.144  67.861  1.00  0.00    -0.117 C  
HETATM    6  C   UNL     1      -6.162   5.645  65.086  1.00  0.00    -0.030 C  
HETATM    7  C   UNL     1      -7.662   6.108  65.296  1.00  0.00    -0.095 C  
HETATM    8  C   UNL     1      -7.165  10.107  68.500  1.00  0.00    -0.080 C  
HETATM    9  C   UNL     1      -8.221   6.145  63.879  1.00  0.00    -0.008 C  
HETATM   10  C   UNL     1      -8.798   5.038  63.346  1.00  0.00    -0.030 C  
HETATM   11  C   UNL     1      -6.231   9.884  66.900  1.00  0.00    -0.064 C  
HETATM   12  O   UNL     1      -9.596   2.802  63.698  1.00  0.00    -0.103 OA 
HETATM   13  C   UNL     1      -6.890  11.041  69.719  1.00  0.00    -0.116 C  
HETATM   14  C   UNL     1      -8.998   3.768  64.148  1.00  0.00    -0.123 C  
HETATM   15  C   UNL     1      -8.371   3.735  65.516  1.00  0.00    -0.105 C  
HETATM   16  C   UNL     1      -8.476   4.991  65.999  1.00  0.00    -0.116 C  
HETATM   17  C   UNL     1      -6.862   8.723  65.819  1.00  0.00    -0.072 C  
HETATM   18  O   UNL     1      -7.709   9.396  64.878  1.00  0.00    -0.105 OA 
HETATM   19  F   UNL     1     -10.525   4.380  67.025  1.00  0.00    -0.194 F  
HETATM   20  C   UNL     1      -7.573   7.311  66.332  1.00  0.00    -0.092 C  
HETATM   21  C   UNL     1      -9.812   5.442  66.555  1.00  0.00    -0.176 C  
HETATM   22  F   UNL     1      -6.684   6.645  67.206  1.00  0.00    -0.053 F  
HETATM   23  C   UNL     1      -9.603   6.399  67.709  1.00  0.00    -0.123 C  
HETATM   24  C   UNL     1      -8.851   7.666  67.274  1.00  0.00    -0.122 C  
HETATM   25  H   UNL     1      -8.059   8.750  64.277  1.00  0.00     0.000 HD 
ENDROOT
BRANCH   5  26
HETATM   26  C   UNL     1      -8.169  11.544  67.015  1.00  0.00    -0.167 C  
HETATM   27  O   UNL     1      -7.367  12.441  67.246  1.00  0.00    -0.143 OA 
BRANCH  26  28
HETATM   28  S   UNL     1      -9.368  11.796  65.724  1.00  0.00    -0.135 SA 
HETATM   29  F   UNL     1     -11.361  13.474  65.839  1.00  0.00    -0.301 F  
HETATM   30  C   UNL     1     -10.139  13.299  66.415  1.00  0.00    -0.290 C  
ENDBRANCH  26  28
ENDBRANCH   5  26
BRANCH   5  31
HETATM   31  O   UNL     1      -9.553  10.605  68.736  1.00  0.00    -0.171 OA 
BRANCH  31  32
HETATM   32  C   UNL     1     -10.898  10.428  68.559  1.00  0.00    -0.237 C  
HETATM   33  O   UNL     1     -11.455  10.364  67.479  1.00  0.00    -0.386 OA 
BRANCH  32  34
HETATM   34  C   UNL     1     -11.579  10.254  69.821  1.00  0.00    -0.227 A  
HETATM   35  C   UNL     1     -11.323   9.334  70.826  1.00  0.00    -0.349 A  
HETATM   36  O   UNL     1     -12.627  11.053  70.198  1.00  0.00    -0.283 OA 
HETATM   37  C   UNL     1     -12.258   9.573  71.856  1.00  0.00    -0.432 A  
HETATM   38  C   UNL     1     -13.034  10.625  71.426  1.00  0.00    -0.443 A  
ENDBRANCH  32  34
ENDBRANCH  31  32
ENDBRANCH   5  31
TORSDOF 5
ENDMDL
MODEL       66
REMARK 921   NORMALIZED FREE ENERGY PREDICTED BY IDOCK:   -4.44 KCAL/MOL
REMARK 922        TOTAL FREE ENERGY PREDICTED BY IDOCK:   -5.03 KCAL/MOL
REMARK 923 INTER-LIGAND FREE ENERGY PREDICTED BY IDOCK:   -7.09 KCAL/MOL
REMARK 924 INTRA-LIGAND FREE ENERGY PREDICTED BY IDOCK:    2.06 KCAL/MOL
REMARK 927      BINDING AFFINITY PREDICTED BY RF-SCORE:    0.00 PKD
ROOT
HETATM    1  C   UNL     1     -10.103   7.514  69.332  1.00  0.00    -0.190 C  
HETATM    2  C   UNL     1     -11.280   6.935  68.785  1.00  0.00    -0.095 C  
HETATM    3  C   UNL     1      -9.968   6.783  68.109  1.00  0.00    -0.161 C  
HETATM    4  C   UNL     1     -10.415   5.683  66.860  1.00  0.00    -0.349 C  
HETATM    5  C   UNL     1      -8.357   7.181  69.332  1.00  0.00    -0.133 C  
HETATM    6  C   UNL     1     -10.134  10.526  65.037  1.00  0.00    -0.390 C  
HETATM    7  C   UNL     1      -9.885  10.841  66.570  1.00  0.00    -0.246 C  
HETATM    8  C   UNL     1      -8.806   6.196  68.512  1.00  0.00    -0.113 C  
HETATM    9  C   UNL     1      -8.954  12.047  66.534  1.00  0.00    -0.193 C  
HETATM   10  C   UNL     1      -9.469  13.304  66.517  1.00  0.00    -0.251 C  
HETATM   11  C   UNL     1      -7.985   6.959  67.020  1.00  0.00    -0.116 C  
HETATM   12  O   UNL     1     -11.413  14.697  66.701  1.00  0.00    -0.351 OA 
HETATM   13  C   UNL     1      -8.853   4.717  69.004  1.00  0.00    -0.121 C  
HETATM   14  C   UNL     1     -10.956  13.566  66.627  1.00  0.00    -0.288 C  
HETATM   15  C   UNL     1     -11.854  12.358  66.586  1.00  0.00    -0.394 C  
HETATM   16  C   UNL     1     -11.182  11.378  67.226  1.00  0.00    -0.370 C  
HETATM   17  C   UNL     1      -8.196   8.642  66.826  1.00  0.00    -0.108 C  
HETATM   18  O   UNL     1      -7.067   9.308  67.408  1.00  0.00    -0.078 OA 
HETATM   19  F   UNL     1     -12.271  12.004  69.238  1.00  0.00    -0.312 F  
HETATM   20  C   UNL     1      -9.604   9.424  67.235  1.00  0.00    -0.151 C  
HETATM   21  C   UNL     1     -11.162  11.389  68.742  1.00  0.00    -0.247 C  
HETATM   22  F   UNL     1     -10.686   8.780  66.592  1.00  0.00    -0.325 F  
HETATM   23  C   UNL     1     -11.149   9.971  69.275  1.00  0.00    -0.248 C  
HETATM   24  C   UNL     1      -9.903   9.197  68.818  1.00  0.00    -0.175 C  
HETATM   25  H   UNL     1      -7.184  10.243  67.301  1.00  0.00     0.000 HD 
ENDROOT
BRANCH   5  26
HETATM   26  C   UNL     1      -6.739   6.878  69.248  1.00  0.00    -0.050 C  
HETATM   27  O   UNL     1      -6.186   6.003  68.594  1.00  0.00    -0.029 OA 
BRANCH  26  28
HETATM   28  S   UNL     1      -5.748   7.864  70.349  1.00  0.00    -0.025 SA 
HETATM   29  F   UNL     1      -6.108  10.403  70.820  1.00  0.00    -0.092 F  
HETATM   30  C   UNL     1      -6.828   9.334  70.380  1.00  0.00    -0.075 C  
ENDBRANCH  26  28
ENDBRANCH   5  26
BRANCH   5  31
HETATM   31  O   UNL     1      -8.533   6.899  70.843  1.00  0.00    -0.132 OA 
BRANCH  31  32
HETATM   32  C   UNL     1      -8.307   5.753  71.559  1.00  0.00    -0.127 C  
HETATM   33  O   UNL     1      -7.252   5.146  71.585  1.00  0.00    -0.070 OA 
BRANCH  32  34
HETATM   34  C   UNL     1      -9.462   5.384  72.343  1.00  0.00    -0.143 A  
HETATM   35  C   UNL     1     -10.759   5.865  72.257  1.00  0.00    -0.279 A  
HETATM   36  O   UNL     1      -9.399   4.431  73.326  1.00  0.00    -0.119 OA 
HETATM   37  C   UNL     1     -11.519   5.186  73.234  1.00  0.00    -0.302 A  
HETATM   38  C   UNL     1     -10.647   4.328  73.863  1.00  0.00    -0.247 A  
ENDBRANCH  32  34
ENDBRANCH  31  32
ENDBRANCH   5  31
TORSDOF 5
ENDMDL
MODEL       67
REMARK 921   NORMALIZED FREE ENERGY PREDICTED BY IDOCK:   -4.41 KCAL/MOL
REMARK 922        TOTAL FREE ENERGY PREDICTED BY IDOCK:   -4.99 KCAL/MOL
REMARK 923 INTER-LIGAND FREE ENERGY PREDICTED BY IDOCK:   -5.48 KCAL/MOL
REMARK 924 INTRA-LIGAND FREE ENERGY PREDICTED BY IDOCK:    0.48 KCAL/MOL
REMARK 927      BINDING AFFINITY PREDICTED BY RF-SCORE:    0.00 PKD
ROOT
HETATM    1  C   UNL     1      -8.369   8.273  69.127  1.00  0.00    -0.123 C  
HETATM    2  C   UNL     1      -8.357   9.117  67.985  1.00  0.00    -0.120 C  
HETATM    3  C   UNL     1      -9.625   8.545  68.498  1.00  0.00    -0.158 C  
HETATM    4  C   UNL     1     -10.745   9.371  67.482  1.00  0.00    -0.290 C  
HETATM    5  C   UNL     1      -9.496   7.855  70.437  1.00  0.00    -0.163 C  
HETATM    6  C   UNL     1      -9.933   4.542  65.787  1.00  0.00    -0.253 C  
HETATM    7  C   UNL     1      -8.868   4.557  66.960  1.00  0.00    -0.113 C  
HETATM    8  C   UNL     1     -10.265   8.692  69.693  1.00  0.00    -0.208 C  
HETATM    9  C   UNL     1      -8.858   3.112  67.444  1.00  0.00    -0.159 C  
HETATM   10  C   UNL     1      -8.005   2.214  66.886  1.00  0.00    -0.072 C  
HETATM   11  C   UNL     1     -11.403   7.307  69.174  1.00  0.00     0.172 C  
HETATM   12  O   UNL     1      -6.152   1.829  65.411  1.00  0.00    -0.017 OA 
HETATM   13  C   UNL     1     -10.578  10.134  70.195  1.00  0.00    -0.337 C  
HETATM   14  C   UNL     1      -6.978   2.617  65.847  1.00  0.00    -0.052 C  
HETATM   15  C   UNL     1      -7.062   4.030  65.336  1.00  0.00    -0.063 C  
HETATM   16  C   UNL     1      -7.445   4.781  66.390  1.00  0.00    -0.086 C  
HETATM   17  C   UNL     1     -10.645   5.866  68.658  1.00  0.00    -0.256 C  
HETATM   18  O   UNL     1     -10.566   4.973  69.777  1.00  0.00    -0.222 OA 
HETATM   19  F   UNL     1      -5.159   5.190  66.875  1.00  0.00    -0.004 F  
HETATM   20  C   UNL     1      -9.217   5.857  67.807  1.00  0.00    -0.108 C  
HETATM   21  C   UNL     1      -6.403   5.152  67.428  1.00  0.00    -0.040 C  
HETATM   22  F   UNL     1      -9.355   6.696  66.679  1.00  0.00    -0.147 F  
HETATM   23  C   UNL     1      -6.695   6.527  67.992  1.00  0.00    -0.068 C  
HETATM   24  C   UNL     1      -8.062   6.582  68.692  1.00  0.00    -0.118 C  
HETATM   25  H   UNL     1     -10.145   4.172  69.491  1.00  0.00     0.000 HD 
ENDROOT
BRANCH   5  26
HETATM   26  C   UNL     1     -10.595   7.442  71.593  1.00  0.00    -0.205 C  
HETATM   27  O   UNL     1     -10.756   6.337  72.095  1.00  0.00    -0.217 OA 
BRANCH  26  28
HETATM   28  S   UNL     1     -11.736   8.739  72.020  1.00  0.00    -0.368 SA 
HETATM   29  F   UNL     1     -14.303   8.686  71.564  1.00  0.00    -0.439 F  
HETATM   30  C   UNL     1     -13.273   7.806  71.712  1.00  0.00    -0.318 C  
ENDBRANCH  26  28
ENDBRANCH   5  26
BRANCH   5  31
HETATM   31  O   UNL     1      -8.483   8.561  71.370  1.00  0.00    -0.141 OA 
BRANCH  31  32
HETATM   32  C   UNL     1      -7.998   8.182  72.593  1.00  0.00    -0.146 C  
HETATM   33  O   UNL     1      -8.324   8.679  73.655  1.00  0.00    -0.380 OA 
BRANCH  32  34
HETATM   34  C   UNL     1      -7.094   7.062  72.478  1.00  0.00    -0.069 A  
HETATM   35  C   UNL     1      -5.862   7.002  71.844  1.00  0.00    -0.037 A  
HETATM   36  O   UNL     1      -7.370   5.843  73.041  1.00  0.00    -0.092 OA 
HETATM   37  C   UNL     1      -5.369   5.691  72.018  1.00  0.00    -0.017 A  
HETATM   38  C   UNL     1      -6.324   5.021  72.747  1.00  0.00    -0.042 A  
ENDBRANCH  32  34
ENDBRANCH  31  32
ENDBRANCH   5  31
TORSDOF 5
ENDMDL
MODEL       68
REMARK 921   NORMALIZED FREE ENERGY PREDICTED BY IDOCK:   -4.34 KCAL/MOL
REMARK 922        TOTAL FREE ENERGY PREDICTED BY IDOCK:   -4.90 KCAL/MOL
REMARK 923 INTER-LIGAND FREE ENERGY PREDICTED BY IDOCK:   -5.66 KCAL/MOL
REMARK 924 INTRA-LIGAND FREE ENERGY PREDICTED BY IDOCK:    0.76 KCAL/MOL
REMARK 927      BINDING AFFINITY PREDICTED BY RF-SCORE:    0.00 PKD
ROOT
HETATM    1  C   UNL     1      -7.775   8.438  68.917  1.00  0.00    -0.105 C  
HETATM    2  C   UNL     1      -6.931   8.994  69.915  1.00  0.00    -0.052 C  
HETATM    3  C   UNL     1      -7.036   7.525  69.735  1.00  0.00    -0.055 C  
HETATM    4  C   UNL     1      -5.809   7.014  70.833  1.00  0.00    -0.028 C  
HETATM    5  C   UNL     1      -7.827   6.970  67.915  1.00  0.00    -0.114 C  
HETATM    6  C   UNL     1     -10.510   6.500  72.951  1.00  0.00    -0.246 C  
HETATM    7  C   UNL     1     -10.942   7.211  71.603  1.00  0.00    -0.255 C  
HETATM    8  C   UNL     1      -6.732   6.721  68.678  1.00  0.00    -0.064 C  
HETATM    9  C   UNL     1     -12.317   6.621  71.318  1.00  0.00    -0.329 C  
HETATM   10  C   UNL     1     -13.431   7.221  71.812  1.00  0.00    -0.373 C  
HETATM   11  C   UNL     1      -7.586   5.330  69.583  1.00  0.00    -0.069 C  
HETATM   12  O   UNL     1     -14.378   9.116  72.938  1.00  0.00    -0.519 OA 
HETATM   13  C   UNL     1      -5.302   6.810  68.063  1.00  0.00    -0.012 C  
HETATM   14  C   UNL     1     -13.370   8.530  72.571  1.00  0.00    -0.217 C  
HETATM   15  C   UNL     1     -11.996   9.050  72.901  1.00  0.00     0.618 C  
HETATM   16  C   UNL     1     -11.215   8.716  71.852  1.00  0.00    -0.413 C  
HETATM   17  C   UNL     1      -9.173   5.649  70.125  1.00  0.00    -0.142 C  
HETATM   18  O   UNL     1     -10.092   5.164  69.137  1.00  0.00    -0.193 OA 
HETATM   19  F   UNL     1     -11.682  10.831  70.886  1.00  0.00    -0.380 F  
HETATM   20  C   UNL     1      -9.650   7.142  70.677  1.00  0.00    -0.165 C  
HETATM   21  C   UNL     1     -11.299   9.557  70.593  1.00  0.00    -0.301 C  
HETATM   22  F   UNL     1      -8.759   7.557  71.693  1.00  0.00    -0.113 F  
HETATM   23  C   UNL     1      -9.943   9.630  69.923  1.00  0.00    -0.273 C  
HETATM   24  C   UNL     1      -9.437   8.242  69.499  1.00  0.00    -0.162 C  
HETATM   25  H   UNL     1     -10.975   5.342  69.438  1.00  0.00     0.000 HD 
ENDROOT
BRANCH   5  26
HETATM   26  C   UNL     1      -7.878   5.564  67.057  1.00  0.00    -0.101 C  
HETATM   27  O   UNL     1      -6.937   4.823  66.800  1.00  0.00    -0.064 OA 
BRANCH  26  28
HETATM   28  S   UNL     1      -9.461   5.201  66.331  1.00  0.00    -0.164 SA 
HETATM   29  F   UNL     1      -9.847   3.623  64.291  1.00  0.00    -0.138 F  
HETATM   30  C   UNL     1      -8.918   3.822  65.267  1.00  0.00    -0.133 C  
ENDBRANCH  26  28
ENDBRANCH   5  26
BRANCH   5  31
HETATM   31  O   UNL     1      -7.583   7.922  66.719  1.00  0.00    -0.094 OA 
BRANCH  31  32
HETATM   32  C   UNL     1      -8.473   8.486  65.845  1.00  0.00    -0.152 C  
HETATM   33  O   UNL     1      -9.666   8.612  66.051  1.00  0.00    -0.241 OA 
BRANCH  32  34
HETATM   34  C   UNL     1      -7.809   8.984  64.663  1.00  0.00    -0.121 A  
HETATM   35  C   UNL     1      -6.470   9.300  64.488  1.00  0.00    -0.077 A  
HETATM   36  O   UNL     1      -8.481   9.202  63.489  1.00  0.00    -0.188 OA 
HETATM   37  C   UNL     1      -6.319   9.738  63.154  1.00  0.00    -0.114 A  
HETATM   38  C   UNL     1      -7.570   9.666  62.588  1.00  0.00    -0.111 A  
ENDBRANCH  32  34
ENDBRANCH  31  32
ENDBRANCH   5  31
TORSDOF 5
ENDMDL
MODEL       69
REMARK 921   NORMALIZED FREE ENERGY PREDICTED BY IDOCK:   -4.34 KCAL/MOL
REMARK 922        TOTAL FREE ENERGY PREDICTED BY IDOCK:   -4.90 KCAL/MOL
REMARK 923 INTER-LIGAND FREE ENERGY PREDICTED BY IDOCK:   -6.60 KCAL/MOL
REMARK 924 INTRA-LIGAND FREE ENERGY PREDICTED BY IDOCK:    1.69 KCAL/MOL
REMARK 927      BINDING AFFINITY PREDICTED BY RF-SCORE:    0.00 PKD
ROOT
HETATM    1  C   UNL     1      -7.985   9.323  68.499  1.00  0.00    -0.101 C  
HETATM    2  C   UNL     1      -7.144   9.783  69.547  1.00  0.00    -0.075 C  
HETATM    3  C   UNL     1      -7.125   8.363  69.120  1.00  0.00    -0.064 C  
HETATM    4  C   UNL     1      -5.801   7.796  70.067  1.00  0.00    -0.023 C  
HETATM    5  C   UNL     1      -7.957   8.048  67.260  1.00  0.00    -0.121 C  
HETATM    6  C   UNL     1     -10.318   6.472  72.233  1.00  0.00    -0.212 C  
HETATM    7  C   UNL     1     -10.882   7.355  71.045  1.00  0.00    -0.254 C  
HETATM    8  C   UNL     1      -6.805   7.782  67.929  1.00  0.00    -0.068 C  
HETATM    9  C   UNL     1     -12.212   6.689  70.712  1.00  0.00    -0.302 C  
HETATM   10  C   UNL     1     -13.348   7.085  71.342  1.00  0.00    -0.335 C  
HETATM   11  C   UNL     1      -7.481   6.181  68.609  1.00  0.00    -0.087 C  
HETATM   12  O   UNL     1     -14.402   8.660  72.814  1.00  0.00    -0.520 OA 
HETATM   13  C   UNL     1      -5.424   8.114  67.287  1.00  0.00    -0.037 C  
HETATM   14  C   UNL     1     -13.366   8.247  72.314  1.00  0.00    -0.209 C  
HETATM   15  C   UNL     1     -12.030   8.836  72.679  1.00  0.00    -0.170 C  
HETATM   16  C   UNL     1     -11.278   8.762  71.561  1.00  0.00    -0.377 C  
HETATM   17  C   UNL     1      -9.060   6.247  69.255  1.00  0.00    -0.134 C  
HETATM   18  O   UNL     1      -9.982   5.848  68.232  1.00  0.00    -0.130 OA 
HETATM   19  F   UNL     1     -11.984  10.954  70.993  1.00  0.00    -0.392 F  
HETATM   20  C   UNL     1      -9.640   7.571  70.075  1.00  0.00    -0.164 C  
HETATM   21  C   UNL     1     -11.503   9.792  70.470  1.00  0.00    -0.300 C  
HETATM   22  F   UNL     1      -8.739   7.894  71.114  1.00  0.00    -0.125 F  
HETATM   23  C   UNL     1     -10.196  10.109  69.774  1.00  0.00    -0.286 C  
HETATM   24  C   UNL     1      -9.590   8.870  69.098  1.00  0.00    -0.162 C  
HETATM   25  H   UNL     1     -10.860   5.884  68.592  1.00  0.00     0.000 HD 
ENDROOT
BRANCH   5  26
HETATM   26  C   UNL     1      -7.925   6.809  66.174  1.00  0.00    -0.110 C  
HETATM   27  O   UNL     1      -8.416   5.695  66.312  1.00  0.00    -0.118 OA 
BRANCH  26  28
HETATM   28  S   UNL     1      -6.943   7.126  64.724  1.00  0.00    -0.053 SA 
HETATM   29  F   UNL     1      -7.226   5.918  62.431  1.00  0.00    -0.043 F  
HETATM   30  C   UNL     1      -7.968   6.188  63.541  1.00  0.00    -0.100 C  
ENDBRANCH  26  28
ENDBRANCH   5  26
BRANCH   5  31
HETATM   31  O   UNL     1      -7.863   9.208  66.240  1.00  0.00    -0.101 OA 
BRANCH  31  32
HETATM   32  C   UNL     1      -8.839  10.035  65.753  1.00  0.00    -0.150 C  
HETATM   33  O   UNL     1      -9.721   9.694  64.986  1.00  0.00    -0.289 OA 
BRANCH  32  34
HETATM   34  C   UNL     1      -8.738  11.361  66.317  1.00  0.00    -0.173 A  
HETATM   35  C   UNL     1      -7.673  11.938  66.990  1.00  0.00    -0.146 A  
HETATM   36  O   UNL     1      -9.761  12.269  66.228  1.00  0.00    -0.235 OA 
HETATM   37  C   UNL     1      -8.063  13.250  67.336  1.00  0.00    -0.179 A  
HETATM   38  C   UNL     1      -9.343  13.403  66.856  1.00  0.00    -0.252 A  
ENDBRANCH  32  34
ENDBRANCH  31  32
ENDBRANCH   5  31
TORSDOF 5
ENDMDL
MODEL       70
REMARK 921   NORMALIZED FREE ENERGY PREDICTED BY IDOCK:   -4.31 KCAL/MOL
REMARK 922        TOTAL FREE ENERGY PREDICTED BY IDOCK:   -4.87 KCAL/MOL
REMARK 923 INTER-LIGAND FREE ENERGY PREDICTED BY IDOCK:   -5.10 KCAL/MOL
REMARK 924 INTRA-LIGAND FREE ENERGY PREDICTED BY IDOCK:    0.23 KCAL/MOL
REMARK 927      BINDING AFFINITY PREDICTED BY RF-SCORE:    0.00 PKD
ROOT
HETATM    1  C   UNL     1     -10.402   7.510  68.941  1.00  0.00    -0.220 C  
HETATM    2  C   UNL     1     -11.646   7.820  69.553  1.00  0.00     0.497 C  
HETATM    3  C   UNL     1     -10.494   8.749  69.652  1.00  0.00    -0.220 C  
HETATM    4  C   UNL     1     -11.266  10.084  70.421  1.00  0.00    -0.393 C  
HETATM    5  C   UNL     1      -9.026   8.396  68.248  1.00  0.00    -0.139 C  
HETATM    6  C   UNL     1      -8.561   7.293  73.848  1.00  0.00    -0.218 C  
HETATM    7  C   UNL     1      -8.359   6.362  72.582  1.00  0.00    -0.122 C  
HETATM    8  C   UNL     1      -9.792   9.423  68.697  1.00  0.00    -0.174 C  
HETATM    9  C   UNL     1      -6.974   5.764  72.802  1.00  0.00    -0.080 C  
HETATM   10  C   UNL     1      -6.837   4.601  73.489  1.00  0.00    -0.069 C  
HETATM   11  C   UNL     1      -8.555   9.868  70.022  1.00  0.00    -0.196 C  
HETATM   12  O   UNL     1      -7.912   2.717  74.515  1.00  0.00    -0.058 OA 
HETATM   13  C   UNL     1     -10.578  10.321  67.693  1.00  0.00    -0.312 C  
HETATM   14  C   UNL     1      -8.032   3.808  73.976  1.00  0.00    -0.082 C  
HETATM   15  C   UNL     1      -9.379   4.457  73.810  1.00  0.00    -0.118 C  
HETATM   16  C   UNL     1      -9.316   5.146  72.651  1.00  0.00    -0.152 C  
HETATM   17  C   UNL     1      -7.933   8.567  70.935  1.00  0.00    -0.110 C  
HETATM   18  O   UNL     1      -6.693   8.153  70.343  1.00  0.00    -0.037 OA 
HETATM   19  F   UNL     1     -10.196   3.251  71.528  1.00  0.00    -0.232 F  
HETATM   20  C   UNL     1      -8.847   7.242  71.350  1.00  0.00    -0.130 C  
HETATM   21  C   UNL     1      -9.457   4.381  71.349  1.00  0.00    -0.155 C  
HETATM   22  F   UNL     1     -10.027   7.686  71.987  1.00  0.00    -0.181 F  
HETATM   23  C   UNL     1     -10.165   5.233  70.317  1.00  0.00    -0.345 C  
HETATM   24  C   UNL     1      -9.384   6.516  69.998  1.00  0.00    -0.160 C  
HETATM   25  H   UNL     1      -6.347   7.429  70.851  1.00  0.00     0.000 HD 
ENDROOT
BRANCH   5  26
HETATM   26  C   UNL     1      -7.738   9.254  67.681  1.00  0.00    -0.092 C  
HETATM   27  O   UNL     1      -6.552   8.988  67.829  1.00  0.00    -0.060 OA 
BRANCH  26  28
HETATM   28  S   UNL     1      -8.167  10.794  66.899  1.00  0.00    -0.135 SA 
HETATM   29  F   UNL     1      -6.873  13.038  67.200  1.00  0.00    -0.159 F  
HETATM   30  C   UNL     1      -6.641  11.701  67.320  1.00  0.00    -0.122 C  
ENDBRANCH  26  28
ENDBRANCH   5  26
BRANCH   5  31
HETATM   31  O   UNL     1      -9.473   7.794  66.895  1.00  0.00    -0.164 OA 
BRANCH  31  32
HETATM   32  C   UNL     1      -8.819   6.937  66.051  1.00  0.00    -0.136 C  
HETATM   33  O   UNL     1      -8.321   7.254  64.987  1.00  0.00    -0.126 OA 
BRANCH  32  34
HETATM   34  C   UNL     1      -8.728   5.609  66.612  1.00  0.00    -0.118 A  
HETATM   35  C   UNL     1      -9.714   4.641  66.714  1.00  0.00    -0.214 A  
HETATM   36  O   UNL     1      -7.559   5.119  67.134  1.00  0.00    -0.089 OA 
HETATM   37  C   UNL     1      -9.128   3.515  67.332  1.00  0.00    -0.193 A  
HETATM   38  C   UNL     1      -7.817   3.855  67.573  1.00  0.00    -0.086 A  
ENDBRANCH  32  34
ENDBRANCH  31  32
ENDBRANCH   5  31
TORSDOF 5
ENDMDL
MODEL       71
REMARK 921   NORMALIZED FREE ENERGY PREDICTED BY IDOCK:   -4.15 KCAL/MOL
REMARK 922        TOTAL FREE ENERGY PREDICTED BY IDOCK:   -4.66 KCAL/MOL
REMARK 923 INTER-LIGAND FREE ENERGY PREDICTED BY IDOCK:   -6.67 KCAL/MOL
REMARK 924 INTRA-LIGAND FREE ENERGY PREDICTED BY IDOCK:    2.01 KCAL/MOL
REMARK 927      BINDING AFFINITY PREDICTED BY RF-SCORE:    0.00 PKD
ROOT
HETATM    1  C   UNL     1      -8.084  12.137  67.424  1.00  0.00    -0.171 C  
HETATM    2  C   UNL     1      -7.897  11.953  68.820  1.00  0.00    -0.052 C  
HETATM    3  C   UNL     1      -9.220  11.721  68.189  1.00  0.00    -0.186 C  
HETATM    4  C   UNL     1     -10.072  11.073  69.540  1.00  0.00     0.019 C  
HETATM    5  C   UNL     1      -9.129  11.480  66.144  1.00  0.00    -0.209 C  
HETATM    6  C   UNL     1     -11.264  16.066  68.828  1.00  0.00    -0.360 C  
HETATM    7  C   UNL     1     -10.139  15.937  67.719  1.00  0.00    -0.244 C  
HETATM    8  C   UNL     1      -9.622  10.837  67.233  1.00  0.00    -0.182 C  
HETATM    9  C   UNL     1     -10.598  16.908  66.638  1.00  0.00    -0.189 C  
HETATM   10  C   UNL     1     -10.198  18.205  66.676  1.00  0.00    -0.388 C  
HETATM   11  C   UNL     1     -11.236  11.770  67.149  1.00  0.00    -0.375 C  
HETATM   12  O   UNL     1      -8.791  19.861  67.694  1.00  0.00    -0.320 OA 
HETATM   13  C   UNL     1      -9.332   9.320  67.454  1.00  0.00    -0.153 C  
HETATM   14  C   UNL     1      -9.221  18.717  67.714  1.00  0.00    -0.285 C  
HETATM   15  C   UNL     1      -8.844  17.756  68.809  1.00  0.00    -0.205 C  
HETATM   16  C   UNL     1      -8.806  16.537  68.233  1.00  0.00    -0.210 C  
HETATM   17  C   UNL     1     -11.115  13.457  66.911  1.00  0.00    -0.292 C  
HETATM   18  O   UNL     1     -11.238  13.724  65.508  1.00  0.00    -0.296 OA 
HETATM   19  F   UNL     1      -6.489  16.844  67.833  1.00  0.00    -0.127 F  
HETATM   20  C   UNL     1      -9.895  14.372  67.571  1.00  0.00    -0.220 C  
HETATM   21  C   UNL     1      -7.590  16.166  67.406  1.00  0.00    -0.163 C  
HETATM   22  F   UNL     1      -9.847  14.131  68.963  1.00  0.00    -0.213 F  
HETATM   23  C   UNL     1      -7.298  14.687  67.540  1.00  0.00    -0.220 C  
HETATM   24  C   UNL     1      -8.462  13.823  67.031  1.00  0.00    -0.150 C  
HETATM   25  H   UNL     1     -11.171  14.662  65.376  1.00  0.00     0.000 HD 
ENDROOT
BRANCH   5  26
HETATM   26  C   UNL     1     -10.164  10.899  65.001  1.00  0.00    -0.303 C  
HETATM   27  O   UNL     1     -10.636   9.770  64.941  1.00  0.00     0.512 OA 
BRANCH  26  28
HETATM   28  S   UNL     1     -10.488  12.023  63.660  1.00  0.00    -0.478 SA 
HETATM   29  F   UNL     1     -12.786  12.298  62.459  1.00  0.00     0.078 F  
HETATM   30  C   UNL     1     -12.306  11.861  63.656  1.00  0.00    -0.481 C  
ENDBRANCH  26  28
ENDBRANCH   5  26
BRANCH   5  31
HETATM   31  O   UNL     1      -7.830  10.872  65.562  1.00  0.00    -0.094 OA 
BRANCH  31  32
HETATM   32  C   UNL     1      -7.649  10.042  64.489  1.00  0.00    -0.142 C  
HETATM   33  O   UNL     1      -7.670  10.395  63.324  1.00  0.00    -0.149 OA 
BRANCH  32  34
HETATM   34  C   UNL     1      -7.359   8.691  64.909  1.00  0.00    -0.090 A  
HETATM   35  C   UNL     1      -6.319   8.234  65.705  1.00  0.00    -0.049 A  
HETATM   36  O   UNL     1      -8.150   7.631  64.550  1.00  0.00    -0.141 OA 
HETATM   37  C   UNL     1      -6.475   6.837  65.830  1.00  0.00    -0.050 A  
HETATM   38  C   UNL     1      -7.600   6.516  65.105  1.00  0.00    -0.090 A  
ENDBRANCH  32  34
ENDBRANCH  31  32
ENDBRANCH   5  31
TORSDOF 5
ENDMDL
MODEL       72
REMARK 921   NORMALIZED FREE ENERGY PREDICTED BY IDOCK:   -4.03 KCAL/MOL
REMARK 922        TOTAL FREE ENERGY PREDICTED BY IDOCK:   -4.51 KCAL/MOL
REMARK 923 INTER-LIGAND FREE ENERGY PREDICTED BY IDOCK:   -5.29 KCAL/MOL
REMARK 924 INTRA-LIGAND FREE ENERGY PREDICTED BY IDOCK:    0.78 KCAL/MOL
REMARK 927      BINDING AFFINITY PREDICTED BY RF-SCORE:    0.00 PKD
ROOT
HETATM    1  C   UNL     1      -9.242  10.037  66.438  1.00  0.00    -0.191 C  
HETATM    2  C   UNL     1     -10.565   9.930  65.934  1.00  0.00     0.058 C  
HETATM    3  C   UNL     1     -10.254  10.822  67.077  1.00  0.00    -0.261 C  
HETATM    4  C   UNL     1     -11.779  11.604  67.255  1.00  0.00    -0.255 C  
HETATM    5  C   UNL     1      -8.248  11.260  67.260  1.00  0.00    -0.140 C  
HETATM    6  C   UNL     1     -11.207   7.852  70.784  1.00  0.00    -0.274 C  
HETATM    7  C   UNL     1      -9.879   7.597  69.958  1.00  0.00    -0.180 C  
HETATM    8  C   UNL     1      -9.438  11.909  67.179  1.00  0.00    -0.180 C  
HETATM    9  C   UNL     1      -8.901   7.095  71.013  1.00  0.00    -0.145 C  
HETATM   10  C   UNL     1      -8.810   5.766  71.278  1.00  0.00    -0.139 C  
HETATM   11  C   UNL     1      -9.690  11.837  69.026  1.00  0.00     0.114 C  
HETATM   12  O   UNL     1      -9.439   3.532  70.668  1.00  0.00    -0.148 OA 
HETATM   13  C   UNL     1      -9.632  13.081  66.168  1.00  0.00    -0.209 C  
HETATM   14  C   UNL     1      -9.587   4.733  70.490  1.00  0.00    -0.187 C  
HETATM   15  C   UNL     1     -10.598   5.261  69.508  1.00  0.00    -0.244 C  
HETATM   16  C   UNL     1     -10.063   6.392  69.002  1.00  0.00    -0.193 C  
HETATM   17  C   UNL     1      -9.383  10.331  69.768  1.00  0.00    -0.080 C  
HETATM   18  O   UNL     1      -8.035  10.337  70.258  1.00  0.00    -0.387 OA 
HETATM   19  F   UNL     1      -9.146   5.113  67.228  1.00  0.00    -0.114 F  
HETATM   20  C   UNL     1      -9.725   8.881  69.032  1.00  0.00    -0.171 C  
HETATM   21  C   UNL     1      -8.996   6.270  67.932  1.00  0.00    -0.113 C  
HETATM   22  F   UNL     1     -11.077   8.888  68.620  1.00  0.00    -0.134 F  
HETATM   23  C   UNL     1      -9.104   7.419  66.952  1.00  0.00    -0.164 C  
HETATM   24  C   UNL     1      -8.895   8.779  67.637  1.00  0.00    -0.138 C  
HETATM   25  H   UNL     1      -7.864   9.499  70.671  1.00  0.00     0.000 HD 
ENDROOT
BRANCH   5  26
HETATM   26  C   UNL     1      -7.383  12.396  68.084  1.00  0.00    -0.111 C  
HETATM   27  O   UNL     1      -6.564  12.197  68.973  1.00  0.00    -0.087 OA 
BRANCH  26  28
HETATM   28  S   UNL     1      -7.825  14.077  67.703  1.00  0.00    -0.189 SA 
HETATM   29  F   UNL     1      -8.173  15.969  69.463  1.00  0.00    -0.233 F  
HETATM   30  C   UNL     1      -7.521  14.777  69.360  1.00  0.00    -0.147 C  
ENDBRANCH  26  28
ENDBRANCH   5  26
BRANCH   5  31
HETATM   31  O   UNL     1      -7.408  11.277  65.960  1.00  0.00    -0.025 OA 
BRANCH  31  32
HETATM   32  C   UNL     1      -6.138  10.823  65.725  1.00  0.00    -0.116 C  
HETATM   33  O   UNL     1      -5.137  11.239  66.277  1.00  0.00    -0.113 OA 
BRANCH  32  34
HETATM   34  C   UNL     1      -6.135   9.729  64.782  1.00  0.00    -0.093 A  
HETATM   35  C   UNL     1      -6.112   8.366  65.034  1.00  0.00    -0.052 A  
HETATM   36  O   UNL     1      -6.172   9.936  63.428  1.00  0.00    -0.108 OA 
HETATM   37  C   UNL     1      -6.126   7.712  63.783  1.00  0.00    -0.053 A  
HETATM   38  C   UNL     1      -6.157   8.709  62.836  1.00  0.00    -0.087 A  
ENDBRANCH  32  34
ENDBRANCH  31  32
ENDBRANCH   5  31
TORSDOF 5
ENDMDL
MODEL       73
REMARK 921   NORMALIZED FREE ENERGY PREDICTED BY IDOCK:   -3.93 KCAL/MOL
REMARK 922        TOTAL FREE ENERGY PREDICTED BY IDOCK:   -4.37 KCAL/MOL
REMARK 923 INTER-LIGAND FREE ENERGY PREDICTED BY IDOCK:   -4.78 KCAL/MOL
REMARK 924 INTRA-LIGAND FREE ENERGY PREDICTED BY IDOCK:    0.41 KCAL/MOL
REMARK 927      BINDING AFFINITY PREDICTED BY RF-SCORE:    0.00 PKD
ROOT
HETATM    1  C   UNL     1      -9.078   9.329  66.987  1.00  0.00    -0.153 C  
HETATM    2  C   UNL     1     -10.493   9.358  67.096  1.00  0.00    -0.315 C  
HETATM    3  C   UNL     1      -9.631   9.685  68.258  1.00  0.00    -0.153 C  
HETATM    4  C   UNL     1     -10.838  10.202  69.375  1.00  0.00    -0.274 C  
HETATM    5  C   UNL     1      -7.688  10.141  67.742  1.00  0.00    -0.090 C  
HETATM    6  C   UNL     1      -9.352   5.341  70.385  1.00  0.00    -0.208 C  
HETATM    7  C   UNL     1      -8.522   5.565  69.054  1.00  0.00    -0.101 C  
HETATM    8  C   UNL     1      -8.715  10.675  68.453  1.00  0.00    -0.141 C  
HETATM    9  C   UNL     1      -7.270   4.724  69.275  1.00  0.00    -0.052 C  
HETATM   10  C   UNL     1      -7.248   3.423  68.890  1.00  0.00    -0.049 C  
HETATM   11  C   UNL     1      -8.196   9.791  70.012  1.00  0.00    -0.207 C  
HETATM   12  O   UNL     1      -8.349   1.637  67.725  1.00  0.00    -0.063 OA 
HETATM   13  C   UNL     1      -9.155  12.152  68.218  1.00  0.00    -0.191 C  
HETATM   14  C   UNL     1      -8.404   2.782  68.151  1.00  0.00    -0.074 C  
HETATM   15  C   UNL     1      -9.652   3.611  68.012  1.00  0.00    -0.172 C  
HETATM   16  C   UNL     1      -9.233   4.884  67.856  1.00  0.00    -0.142 C  
HETATM   17  C   UNL     1      -7.805   8.137  69.842  1.00  0.00    -0.104 C  
HETATM   18  O   UNL     1      -6.386   8.025  69.669  1.00  0.00    -0.033 OA 
HETATM   19  F   UNL     1      -9.292   4.571  65.506  1.00  0.00    -0.133 F  
HETATM   20  C   UNL     1      -8.600   7.131  68.786  1.00  0.00    -0.125 C  
HETATM   21  C   UNL     1      -8.722   5.315  66.495  1.00  0.00    -0.115 C  
HETATM   22  F   UNL     1      -9.989   7.220  69.030  1.00  0.00    -0.163 F  
HETATM   23  C   UNL     1      -9.075   6.765  66.239  1.00  0.00    -0.165 C  
HETATM   24  C   UNL     1      -8.433   7.703  67.272  1.00  0.00    -0.121 C  
HETATM   25  H   UNL     1      -6.169   7.105  69.575  1.00  0.00     0.000 HD 
ENDROOT
BRANCH   5  26
HETATM   26  C   UNL     1      -6.426  10.864  68.516  1.00  0.00    -0.054 C  
HETATM   27  O   UNL     1      -5.396  10.328  68.907  1.00  0.00    -0.035 OA 
BRANCH  26  28
HETATM   28  S   UNL     1      -6.697  12.574  68.929  1.00  0.00    -0.097 SA 
HETATM   29  F   UNL     1      -6.178  13.656  71.244  1.00  0.00    -0.164 F  
HETATM   30  C   UNL     1      -5.785  12.578  70.509  1.00  0.00    -0.170 C  
ENDBRANCH  26  28
ENDBRANCH   5  26
BRANCH   5  31
HETATM   31  O   UNL     1      -7.459  10.780  66.351  1.00  0.00    -0.131 OA 
BRANCH  31  32
HETATM   32  C   UNL     1      -6.452  10.582  65.445  1.00  0.00    -0.085 C  
HETATM   33  O   UNL     1      -5.401  11.194  65.427  1.00  0.00    -0.216 OA 
BRANCH  32  34
HETATM   34  C   UNL     1      -6.761   9.498  64.541  1.00  0.00    -0.095 A  
HETATM   35  C   UNL     1      -6.058   8.323  64.323  1.00  0.00    -0.065 A  
HETATM   36  O   UNL     1      -7.879   9.507  63.749  1.00  0.00    -0.120 OA 
HETATM   37  C   UNL     1      -6.770   7.588  63.350  1.00  0.00    -0.058 A  
HETATM   38  C   UNL     1      -7.868   8.351  63.028  1.00  0.00    -0.150 A  
ENDBRANCH  32  34
ENDBRANCH  31  32
ENDBRANCH   5  31
TORSDOF 5
ENDMDL
MODEL       74
REMARK 921   NORMALIZED FREE ENERGY PREDICTED BY IDOCK:   -3.91 KCAL/MOL
REMARK 922        TOTAL FREE ENERGY PREDICTED BY IDOCK:   -4.36 KCAL/MOL
REMARK 923 INTER-LIGAND FREE ENERGY PREDICTED BY IDOCK:   -5.08 KCAL/MOL
REMARK 924 INTRA-LIGAND FREE ENERGY PREDICTED BY IDOCK:    0.72 KCAL/MOL
REMARK 927      BINDING AFFINITY PREDICTED BY RF-SCORE:    0.00 PKD
ROOT
HETATM    1  C   UNL     1      -7.660  10.354  67.521  1.00  0.00    -0.094 C  
HETATM    2  C   UNL     1      -6.746  10.739  68.539  1.00  0.00    -0.057 C  
HETATM    3  C   UNL     1      -7.987   9.996  68.867  1.00  0.00    -0.101 C  
HETATM    4  C   UNL     1      -7.713   9.707  70.544  1.00  0.00    -0.152 C  
HETATM    5  C   UNL     1      -8.842   9.057  67.244  1.00  0.00    -0.117 C  
HETATM    6  C   UNL     1     -10.968  13.682  69.866  1.00  0.00     0.211 C  
HETATM    7  C   UNL     1     -10.604  13.420  68.346  1.00  0.00    -0.259 C  
HETATM    8  C   UNL     1      -8.423   8.758  68.501  1.00  0.00    -0.130 C  
HETATM    9  C   UNL     1     -11.882  13.799  67.608  1.00  0.00    -0.413 C  
HETATM   10  C   UNL     1     -12.070  15.076  67.184  1.00  0.00     0.105 C  
HETATM   11  C   UNL     1     -10.079   9.200  69.239  1.00  0.00    -0.196 C  
HETATM   12  O   UNL     1     -11.135  17.264  66.875  1.00  0.00     0.048 OA 
HETATM   13  C   UNL     1      -7.488   7.536  68.753  1.00  0.00    -0.097 C  
HETATM   14  C   UNL     1     -11.002  16.139  67.336  1.00  0.00    -0.210 C  
HETATM   15  C   UNL     1      -9.783  15.757  68.132  1.00  0.00    -0.211 C  
HETATM   16  C   UNL     1      -9.558  14.455  67.858  1.00  0.00    -0.219 C  
HETATM   17  C   UNL     1     -10.774  10.664  68.702  1.00  0.00    -0.207 C  
HETATM   18  O   UNL     1     -11.675  10.366  67.626  1.00  0.00    -0.615 OA 
HETATM   19  F   UNL     1      -8.094  15.120  66.115  1.00  0.00    -0.026 F  
HETATM   20  C   UNL     1      -9.868  12.010  68.343  1.00  0.00    -0.204 C  
HETATM   21  C   UNL     1      -8.887  14.099  66.546  1.00  0.00    -0.041 C  
HETATM   22  F   UNL     1      -9.041  12.310  69.449  1.00  0.00     0.384 F  
HETATM   23  C   UNL     1      -8.008  12.879  66.722  1.00  0.00     0.194 C  
HETATM   24  C   UNL     1      -8.816  11.647  67.158  1.00  0.00    -0.172 C  
HETATM   25  H   UNL     1     -12.062  11.180  67.327  1.00  0.00     0.000 HD 
ENDROOT
BRANCH   5  26
HETATM   26  C   UNL     1      -9.979   7.878  67.056  1.00  0.00    -0.252 C  
HETATM   27  O   UNL     1     -11.107   8.008  66.596  1.00  0.00     0.248 OA 
BRANCH  26  28
HETATM   28  S   UNL     1      -9.522   6.299  67.738  1.00  0.00    -0.118 SA 
HETATM   29  F   UNL     1     -10.680   5.157  69.776  1.00  0.00    -0.362 F  
HETATM   30  C   UNL     1     -10.971   6.089  68.826  1.00  0.00    -0.312 C  
ENDBRANCH  26  28
ENDBRANCH   5  26
BRANCH   5  31
HETATM   31  O   UNL     1      -7.891   8.594  66.114  1.00  0.00    -0.095 OA 
BRANCH  31  32
HETATM   32  C   UNL     1      -8.170   8.182  64.839  1.00  0.00    -0.147 C  
HETATM   33  O   UNL     1      -8.145   7.026  64.460  1.00  0.00    -0.128 OA 
BRANCH  32  34
HETATM   34  C   UNL     1      -8.571   9.289  64.002  1.00  0.00    -0.186 A  
HETATM   35  C   UNL     1      -7.962   9.775  62.855  1.00  0.00    -0.132 A  
HETATM   36  O   UNL     1      -9.694  10.030  64.264  1.00  0.00    -0.296 OA 
HETATM   37  C   UNL     1      -8.738  10.863  62.402  1.00  0.00    -0.355 A  
HETATM   38  C   UNL     1      -9.778  10.983  63.294  1.00  0.00    -0.364 A  
ENDBRANCH  32  34
ENDBRANCH  31  32
ENDBRANCH   5  31
TORSDOF 5
ENDMDL
MODEL       75
REMARK 921   NORMALIZED FREE ENERGY PREDICTED BY IDOCK:   -3.89 KCAL/MOL
REMARK 922        TOTAL FREE ENERGY PREDICTED BY IDOCK:   -4.33 KCAL/MOL
REMARK 923 INTER-LIGAND FREE ENERGY PREDICTED BY IDOCK:   -5.66 KCAL/MOL
REMARK 924 INTRA-LIGAND FREE ENERGY PREDICTED BY IDOCK:    1.34 KCAL/MOL
REMARK 927      BINDING AFFINITY PREDICTED BY RF-SCORE:    0.00 PKD
ROOT
HETATM    1  C   UNL     1      -8.875  13.263  69.197  1.00  0.00     0.637 C  
HETATM    2  C   UNL     1      -7.493  13.485  69.438  1.00  0.00     0.330 C  
HETATM    3  C   UNL     1      -8.144  13.994  68.207  1.00  0.00    -0.148 C  
HETATM    4  C   UNL     1      -6.843  14.916  67.554  1.00  0.00    -0.189 C  
HETATM    5  C   UNL     1     -10.201  14.072  68.332  1.00  0.00    -0.239 C  
HETATM    6  C   UNL     1      -7.235  10.334  65.166  1.00  0.00    -0.125 C  
HETATM    7  C   UNL     1      -8.344  10.112  66.275  1.00  0.00    -0.130 C  
HETATM    8  C   UNL     1      -9.158  14.886  68.024  1.00  0.00    -0.180 C  
HETATM    9  C   UNL     1      -9.361   9.215  65.581  1.00  0.00    -0.300 C  
HETATM   10  C   UNL     1      -9.237   7.864  65.651  1.00  0.00     0.047 C  
HETATM   11  C   UNL     1      -9.190  14.374  66.229  1.00  0.00    -0.202 C  
HETATM   12  O   UNL     1      -8.105   5.983  66.619  1.00  0.00    -0.104 OA 
HETATM   13  C   UNL     1      -9.035  16.295  68.679  1.00  0.00    -0.232 C  
HETATM   14  C   UNL     1      -8.163   7.196  66.483  1.00  0.00    -0.117 C  
HETATM   15  C   UNL     1      -7.130   8.104  67.097  1.00  0.00    -0.079 C  
HETATM   16  C   UNL     1      -7.785   9.237  67.426  1.00  0.00    -0.095 C  
HETATM   17  C   UNL     1      -9.317  12.698  65.930  1.00  0.00    -0.004 C  
HETATM   18  O   UNL     1     -10.701  12.379  65.730  1.00  0.00    -0.255 OA 
HETATM   19  F   UNL     1      -8.151   8.344  69.593  1.00  0.00    -0.104 F  
HETATM   20  C   UNL     1      -8.592  11.555  66.895  1.00  0.00    -0.163 C  
HETATM   21  C   UNL     1      -8.628   9.243  68.687  1.00  0.00    -0.127 C  
HETATM   22  F   UNL     1      -7.219  11.866  67.016  1.00  0.00    -0.126 F  
HETATM   23  C   UNL     1      -8.589  10.611  69.335  1.00  0.00    -0.046 C  
HETATM   24  C   UNL     1      -9.159  11.699  68.413  1.00  0.00    -0.180 C  
HETATM   25  H   UNL     1     -10.771  11.447  65.563  1.00  0.00     0.000 HD 
ENDROOT
BRANCH   5  26
HETATM   26  C   UNL     1     -11.384  14.815  67.459  1.00  0.00    -0.344 C  
HETATM   27  O   UNL     1     -12.228  14.276  66.752  1.00  0.00    -0.441 OA 
BRANCH  26  28
HETATM   28  S   UNL     1     -11.299  16.592  67.466  1.00  0.00     0.326 SA 
HETATM   29  F   UNL     1     -10.536  18.062  65.452  1.00  0.00    -0.363 F  
HETATM   30  C   UNL     1     -11.047  16.819  65.673  1.00  0.00     0.147 C  
ENDBRANCH  26  28
ENDBRANCH   5  26
BRANCH   5  31
HETATM   31  O   UNL     1     -10.814  14.303  69.734  1.00  0.00    -0.143 OA 
BRANCH  31  32
HETATM   32  C   UNL     1     -11.808  13.624  70.385  1.00  0.00    -0.237 C  
HETATM   33  O   UNL     1     -12.095  12.457  70.192  1.00  0.00    -0.335 OA 
BRANCH  32  34
HETATM   34  C   UNL     1     -12.441  14.447  71.389  1.00  0.00    -0.359 A  
HETATM   35  C   UNL     1     -13.593  15.210  71.286  1.00  0.00    -0.559 A  
HETATM   36  O   UNL     1     -11.937  14.562  72.658  1.00  0.00    -0.123 OA 
HETATM   37  C   UNL     1     -13.799  15.824  72.540  1.00  0.00    -0.572 A  
HETATM   38  C   UNL     1     -12.762  15.404  73.341  1.00  0.00    -0.533 A  
ENDBRANCH  32  34
ENDBRANCH  31  32
ENDBRANCH   5  31
TORSDOF 5
ENDMDL
MODEL       76
REMARK 921   NORMALIZED FREE ENERGY PREDICTED BY IDOCK:   -3.88 KCAL/MOL
REMARK 922        TOTAL FREE ENERGY PREDICTED BY IDOCK:   -4.31 KCAL/MOL
REMARK 923 INTER-LIGAND FREE ENERGY PREDICTED BY IDOCK:   -6.44 KCAL/MOL
REMARK 924 INTRA-LIGAND FREE ENERGY PREDICTED BY IDOCK:    2.13 KCAL/MOL
REMARK 927      BINDING AFFINITY PREDICTED BY RF-SCORE:    0.00 PKD
ROOT
HETATM    1  C   UNL     1      -7.645  10.897  68.009  1.00  0.00    -0.092 C  
HETATM    2  C   UNL     1      -7.655  11.109  69.413  1.00  0.00    -0.013 C  
HETATM    3  C   UNL     1      -8.783  10.424  68.736  1.00  0.00    -0.146 C  
HETATM    4  C   UNL     1      -9.697   9.944  70.117  1.00  0.00    -0.255 C  
HETATM    5  C   UNL     1      -8.314   9.719  66.857  1.00  0.00    -0.120 C  
HETATM    6  C   UNL     1     -11.733  14.183  67.940  1.00  0.00    -0.402 C  
HETATM    7  C   UNL     1     -10.440  14.056  67.032  1.00  0.00    -0.275 C  
HETATM    8  C   UNL     1      -8.839   9.264  68.023  1.00  0.00    -0.128 C  
HETATM    9  C   UNL     1     -10.902  14.597  65.685  1.00  0.00    -0.335 C  
HETATM   10  C   UNL     1     -10.781  15.921  65.406  1.00  0.00    -0.415 C  
HETATM   11  C   UNL     1     -10.571   9.740  67.518  1.00  0.00    -0.335 C  
HETATM   12  O   UNL     1      -9.920  18.059  66.071  1.00  0.00    -0.499 OA 
HETATM   13  C   UNL     1      -8.291   7.960  68.681  1.00  0.00    -0.128 C  
HETATM   14  C   UNL     1     -10.109  16.886  66.359  1.00  0.00    -0.322 C  
HETATM   15  C   UNL     1      -9.731  16.340  67.710  1.00  0.00    -0.233 C  
HETATM   16  C   UNL     1      -9.356  15.061  67.497  1.00  0.00    -0.195 C  
HETATM   17  C   UNL     1     -10.754  11.296  66.840  1.00  0.00    -0.273 C  
HETATM   18  O   UNL     1     -10.698  11.175  65.412  1.00  0.00    -0.258 OA 
HETATM   19  F   UNL     1      -7.114  15.801  67.272  1.00  0.00    -0.171 F  
HETATM   20  C   UNL     1      -9.866  12.606  67.346  1.00  0.00    -0.205 C  
HETATM   21  C   UNL     1      -7.972  14.798  66.935  1.00  0.00     0.013 C  
HETATM   22  F   UNL     1      -9.998  12.732  68.748  1.00  0.00    -0.207 F  
HETATM   23  C   UNL     1      -7.415  13.509  67.501  1.00  0.00    -0.177 C  
HETATM   24  C   UNL     1      -8.284  12.297  67.131  1.00  0.00    -0.179 C  
HETATM   25  H   UNL     1     -10.799  12.040  65.035  1.00  0.00     0.000 HD 
ENDROOT
BRANCH   5  26
HETATM   26  C   UNL     1      -9.011   8.648  65.816  1.00  0.00    -0.197 C  
HETATM   27  O   UNL     1      -9.529   8.901  64.736  1.00  0.00     0.137 OA 
BRANCH  26  28
HETATM   28  S   UNL     1      -9.122   6.984  66.438  1.00  0.00    -0.143 SA 
HETATM   29  F   UNL     1     -11.190   5.982  67.671  1.00  0.00    -0.372 F  
HETATM   30  C   UNL     1     -10.910   6.992  66.800  1.00  0.00    -0.158 C  
ENDBRANCH  26  28
ENDBRANCH   5  26
BRANCH   5  31
HETATM   31  O   UNL     1      -6.842   9.312  66.603  1.00  0.00    -0.078 OA 
BRANCH  31  32
HETATM   32  C   UNL     1      -6.171   9.120  65.425  1.00  0.00    -0.063 C  
HETATM   33  O   UNL     1      -5.826  10.009  64.668  1.00  0.00    -0.093 OA 
BRANCH  32  34
HETATM   34  C   UNL     1      -5.856   7.726  65.218  1.00  0.00    -0.038 A  
HETATM   35  C   UNL     1      -5.387   7.104  64.072  1.00  0.00    -0.029 A  
HETATM   36  O   UNL     1      -5.983   6.795  66.216  1.00  0.00    -0.028 OA 
HETATM   37  C   UNL     1      -5.229   5.734  64.378  1.00  0.00    -0.013 A  
HETATM   38  C   UNL     1      -5.610   5.594  65.692  1.00  0.00    -0.013 A  
ENDBRANCH  32  34
ENDBRANCH  31  32
ENDBRANCH   5  31
TORSDOF 5
ENDMDL
MODEL       77
REMARK 921   NORMALIZED FREE ENERGY PREDICTED BY IDOCK:   -3.81 KCAL/MOL
REMARK 922        TOTAL FREE ENERGY PREDICTED BY IDOCK:   -4.22 KCAL/MOL
REMARK 923 INTER-LIGAND FREE ENERGY PREDICTED BY IDOCK:   -5.22 KCAL/MOL
REMARK 924 INTRA-LIGAND FREE ENERGY PREDICTED BY IDOCK:    0.99 KCAL/MOL
REMARK 927      BINDING AFFINITY PREDICTED BY RF-SCORE:    0.00 PKD
ROOT
HETATM    1  C   UNL     1      -9.090   8.332  68.339  1.00  0.00    -0.136 C  
HETATM    2  C   UNL     1      -9.072   7.508  69.496  1.00  0.00    -0.143 C  
HETATM    3  C   UNL     1      -7.814   8.046  68.923  1.00  0.00    -0.113 C  
HETATM    4  C   UNL     1      -6.704   7.535  70.137  1.00  0.00    -0.050 C  
HETATM    5  C   UNL     1      -8.103   9.639  67.646  1.00  0.00    -0.113 C  
HETATM    6  C   UNL     1      -6.534   4.372  66.036  1.00  0.00    -0.040 C  
HETATM    7  C   UNL     1      -7.740   5.288  65.571  1.00  0.00    -0.087 C  
HETATM    8  C   UNL     1      -7.375   9.324  68.748  1.00  0.00    -0.075 C  
HETATM    9  C   UNL     1      -7.598   5.313  64.054  1.00  0.00    -0.071 C  
HETATM   10  C   UNL     1      -8.221   4.373  63.297  1.00  0.00    -0.094 C  
HETATM   11  C   UNL     1      -5.980   8.629  67.722  1.00  0.00    -0.047 C  
HETATM   12  O   UNL     1      -9.774   2.546  63.212  1.00  0.00    -0.095 OA 
HETATM   13  C   UNL     1      -7.355  10.278  69.982  1.00  0.00    -0.157 C  
HETATM   14  C   UNL     1      -9.144   3.335  63.901  1.00  0.00    -0.101 C  
HETATM   15  C   UNL     1      -9.206   3.288  65.404  1.00  0.00    -0.152 C  
HETATM   16  C   UNL     1      -9.090   4.567  65.818  1.00  0.00    -0.136 C  
HETATM   17  C   UNL     1      -6.433   7.585  66.449  1.00  0.00    -0.049 C  
HETATM   18  O   UNL     1      -6.528   8.357  65.245  1.00  0.00    -0.055 OA 
HETATM   19  F   UNL     1     -11.455   4.738  65.818  1.00  0.00    -0.172 F  
HETATM   20  C   UNL     1      -7.712   6.530  66.565  1.00  0.00    -0.099 C  
HETATM   21  C   UNL     1     -10.308   5.467  65.734  1.00  0.00     0.124 C  
HETATM   22  F   UNL     1      -7.549   5.743  67.727  1.00  0.00    -0.080 F  
HETATM   23  C   UNL     1     -10.308   6.455  66.882  1.00  0.00    -0.306 C  
HETATM   24  C   UNL     1      -9.075   7.370  66.851  1.00  0.00    -0.164 C  
HETATM   25  H   UNL     1      -6.780   7.776  64.537  1.00  0.00     0.000 HD 
ENDROOT
BRANCH   5  26
HETATM   26  C   UNL     1      -7.123  10.796  67.002  1.00  0.00    -0.104 C  
HETATM   27  O   UNL     1      -6.769  10.896  65.834  1.00  0.00    -0.115 OA 
BRANCH  26  28
HETATM   28  S   UNL     1      -6.420  11.913  68.197  1.00  0.00    -0.057 SA 
HETATM   29  F   UNL     1      -6.585  14.513  68.094  1.00  0.00    -0.091 F  
HETATM   30  C   UNL     1      -7.257  13.427  67.618  1.00  0.00    -0.161 C  
ENDBRANCH  26  28
ENDBRANCH   5  26
BRANCH   5  31
HETATM   31  O   UNL     1      -9.329  10.544  67.914  1.00  0.00    -0.141 OA 
BRANCH  31  32
HETATM   32  C   UNL     1     -10.527  10.623  67.256  1.00  0.00    -0.246 C  
HETATM   33  O   UNL     1     -11.616  10.437  67.768  1.00  0.00    -0.405 OA 
BRANCH  32  34
HETATM   34  C   UNL     1     -10.350  11.026  65.881  1.00  0.00    -0.257 A  
HETATM   35  C   UNL     1     -10.201  10.231  64.755  1.00  0.00    -0.238 A  
HETATM   36  O   UNL     1     -10.320  12.345  65.507  1.00  0.00    -0.260 OA 
HETATM   37  C   UNL     1     -10.066  11.097  63.649  1.00  0.00    -0.432 A  
HETATM   38  C   UNL     1     -10.139  12.373  64.157  1.00  0.00    -0.295 A  
ENDBRANCH  32  34
ENDBRANCH  31  32
ENDBRANCH   5  31
TORSDOF 5
ENDMDL
MODEL       78
REMARK 921   NORMALIZED FREE ENERGY PREDICTED BY IDOCK:   -3.76 KCAL/MOL
REMARK 922        TOTAL FREE ENERGY PREDICTED BY IDOCK:   -4.16 KCAL/MOL
REMARK 923 INTER-LIGAND FREE ENERGY PREDICTED BY IDOCK:   -6.04 KCAL/MOL
REMARK 924 INTRA-LIGAND FREE ENERGY PREDICTED BY IDOCK:    1.88 KCAL/MOL
REMARK 927      BINDING AFFINITY PREDICTED BY RF-SCORE:    0.00 PKD
ROOT
HETATM    1  C   UNL     1      -9.958  10.722  68.215  1.00  0.00    -0.182 C  
HETATM    2  C   UNL     1      -9.464  10.221  69.449  1.00  0.00    -0.225 C  
HETATM    3  C   UNL     1      -8.610  11.050  68.564  1.00  0.00    -0.158 C  
HETATM    4  C   UNL     1      -7.239  11.245  69.590  1.00  0.00     0.030 C  
HETATM    5  C   UNL     1      -9.671  12.124  67.161  1.00  0.00    -0.199 C  
HETATM    6  C   UNL     1      -6.367   7.587  66.025  1.00  0.00    -0.042 C  
HETATM    7  C   UNL     1      -7.888   7.880  65.688  1.00  0.00    -0.109 C  
HETATM    8  C   UNL     1      -8.740  12.334  68.127  1.00  0.00    -0.186 C  
HETATM    9  C   UNL     1      -7.967   7.640  64.185  1.00  0.00    -0.105 C  
HETATM   10  C   UNL     1      -8.259   6.402  63.709  1.00  0.00     0.041 C  
HETATM   11  C   UNL     1      -7.332  12.001  66.949  1.00  0.00    -0.042 C  
HETATM   12  O   UNL     1      -8.956   4.158  64.196  1.00  0.00    -0.132 OA 
HETATM   13  C   UNL     1      -8.939  13.463  69.185  1.00  0.00     0.591 C  
HETATM   14  C   UNL     1      -8.607   5.248  64.626  1.00  0.00    -0.125 C  
HETATM   15  C   UNL     1      -8.448   5.494  66.103  1.00  0.00    -0.122 C  
HETATM   16  C   UNL     1      -8.795   6.783  66.300  1.00  0.00    -0.158 C  
HETATM   17  C   UNL     1      -7.495  10.624  65.953  1.00  0.00    -0.131 C  
HETATM   18  O   UNL     1      -8.047  11.040  64.696  1.00  0.00    -0.361 OA 
HETATM   19  F   UNL     1     -11.012   6.072  66.752  1.00  0.00    -0.337 F  
HETATM   20  C   UNL     1      -8.224   9.223  66.471  1.00  0.00    -0.107 C  
HETATM   21  C   UNL     1     -10.270   7.136  66.337  1.00  0.00     0.067 C  
HETATM   22  F   UNL     1      -7.612   8.810  67.676  1.00  0.00    -0.091 F  
HETATM   23  C   UNL     1     -10.511   8.270  67.311  1.00  0.00    -0.373 C  
HETATM   24  C   UNL     1      -9.758   9.546  66.905  1.00  0.00    -0.237 C  
HETATM   25  H   UNL     1      -8.138  10.274  64.143  1.00  0.00     0.000 HD 
ENDROOT
BRANCH   5  26
HETATM   26  C   UNL     1      -9.324  13.400  66.177  1.00  0.00    -0.057 C  
HETATM   27  O   UNL     1      -9.289  13.398  64.952  1.00  0.00     0.423 OA 
BRANCH  26  28
HETATM   28  S   UNL     1      -8.817  14.874  67.034  1.00  0.00    -0.245 SA 
HETATM   29  F   UNL     1      -9.006  17.297  66.087  1.00  0.00    -0.270 F  
HETATM   30  C   UNL     1      -9.585  16.078  65.898  1.00  0.00    -0.335 C  
ENDBRANCH  26  28
ENDBRANCH   5  26
BRANCH   5  31
HETATM   31  O   UNL     1     -11.109  12.552  67.540  1.00  0.00    -0.243 OA 
BRANCH  31  32
HETATM   32  C   UNL     1     -11.943  13.462  66.947  1.00  0.00    -0.385 C  
HETATM   33  O   UNL     1     -12.390  14.454  67.492  1.00  0.00    -0.273 OA 
BRANCH  32  34
HETATM   34  C   UNL     1     -12.180  13.137  65.560  1.00  0.00    -0.461 A  
HETATM   35  C   UNL     1     -12.292  13.993  64.475  1.00  0.00    -0.409 A  
HETATM   36  O   UNL     1     -12.316  11.843  65.129  1.00  0.00    -0.333 OA 
HETATM   37  C   UNL     1     -12.515  13.190  63.335  1.00  0.00    -0.328 A  
HETATM   38  C   UNL     1     -12.527  11.890  63.784  1.00  0.00    -0.427 A  
ENDBRANCH  32  34
ENDBRANCH  31  32
ENDBRANCH   5  31
TORSDOF 5
ENDMDL
MODEL       79
REMARK 921   NORMALIZED FREE ENERGY PREDICTED BY IDOCK:   -3.74 KCAL/MOL
REMARK 922        TOTAL FREE ENERGY PREDICTED BY IDOCK:   -4.13 KCAL/MOL
REMARK 923 INTER-LIGAND FREE ENERGY PREDICTED BY IDOCK:   -5.01 KCAL/MOL
REMARK 924 INTRA-LIGAND FREE ENERGY PREDICTED BY IDOCK:    0.88 KCAL/MOL
REMARK 927      BINDING AFFINITY PREDICTED BY RF-SCORE:    0.00 PKD
ROOT
HETATM    1  C   UNL     1      -7.755  11.915  66.641  1.00  0.00     0.018 C  
HETATM    2  C   UNL     1      -6.518  12.216  67.270  1.00  0.00    -0.152 C  
HETATM    3  C   UNL     1      -7.596  11.510  68.004  1.00  0.00    -0.112 C  
HETATM    4  C   UNL     1      -6.754  11.135  69.461  1.00  0.00    -0.132 C  
HETATM    5  C   UNL     1      -9.026  10.679  66.773  1.00  0.00    -0.138 C  
HETATM    6  C   UNL     1      -9.818  15.263  70.112  1.00  0.00     0.030 C  
HETATM    7  C   UNL     1     -10.038  15.055  68.557  1.00  0.00    -0.225 C  
HETATM    8  C   UNL     1      -8.200  10.308  67.786  1.00  0.00    -0.110 C  
HETATM    9  C   UNL     1     -11.473  15.518  68.340  1.00  0.00    -0.370 C  
HETATM   10  C   UNL     1     -11.732  16.819  68.048  1.00  0.00     0.536 C  
HETATM   11  C   UNL     1      -9.454  10.782  69.084  1.00  0.00    -0.151 C  
HETATM   12  O   UNL     1     -10.855  18.980  67.483  1.00  0.00    -0.463 OA 
HETATM   13  C   UNL     1      -7.303   9.039  67.650  1.00  0.00    -0.084 C  
HETATM   14  C   UNL     1     -10.626  17.831  67.833  1.00  0.00    -0.382 C  
HETATM   15  C   UNL     1      -9.225  17.365  68.126  1.00  0.00    -0.270 C  
HETATM   16  C   UNL     1      -9.184  16.068  67.753  1.00  0.00    -0.205 C  
HETATM   17  C   UNL     1     -10.216  12.295  68.874  1.00  0.00    -0.020 C  
HETATM   18  O   UNL     1     -11.458  12.082  68.188  1.00  0.00    -0.274 OA 
HETATM   19  F   UNL     1      -8.410  16.752  65.618  1.00  0.00    -0.233 F  
HETATM   20  C   UNL     1      -9.429  13.618  68.250  1.00  0.00    -0.213 C  
HETATM   21  C   UNL     1      -9.048  15.746  66.278  1.00  0.00    -0.338 C  
HETATM   22  F   UNL     1      -8.245  13.835  68.991  1.00  0.00    -0.091 F  
HETATM   23  C   UNL     1      -8.231  14.485  66.091  1.00  0.00     1.185 C  
HETATM   24  C   UNL     1      -8.893  13.268  66.755  1.00  0.00    -0.140 C  
HETATM   25  H   UNL     1     -11.882  12.924  68.071  1.00  0.00     0.000 HD 
ENDROOT
BRANCH   5  26
HETATM   26  C   UNL     1     -10.215   9.556  66.976  1.00  0.00    -0.255 C  
HETATM   27  O   UNL     1     -11.336   9.745  67.432  1.00  0.00    -0.030 OA 
BRANCH  26  28
HETATM   28  S   UNL     1      -9.721   7.886  66.612  1.00  0.00    -0.225 SA 
HETATM   29  F   UNL     1      -9.974   5.862  68.236  1.00  0.00    -0.125 F  
HETATM   30  C   UNL     1     -10.533   7.088  68.038  1.00  0.00    -0.208 C  
ENDBRANCH  26  28
ENDBRANCH   5  26
BRANCH   5  31
HETATM   31  O   UNL     1      -8.569  10.230  65.364  1.00  0.00    -0.146 OA 
BRANCH  31  32
HETATM   32  C   UNL     1      -9.279  10.127  64.198  1.00  0.00    -0.270 C  
HETATM   33  O   UNL     1      -9.157   9.228  63.387  1.00  0.00    -0.142 OA 
BRANCH  32  34
HETATM   34  C   UNL     1     -10.252  11.188  64.076  1.00  0.00    -0.361 A  
HETATM   35  C   UNL     1     -10.111  12.429  63.476  1.00  0.00    -0.250 A  
HETATM   36  O   UNL     1     -11.525  11.067  64.568  1.00  0.00     0.066 OA 
HETATM   37  C   UNL     1     -11.346  13.099  63.614  1.00  0.00    -0.307 A  
HETATM   38  C   UNL     1     -12.173  12.233  64.290  1.00  0.00    -0.425 A  
ENDBRANCH  32  34
ENDBRANCH  31  32
ENDBRANCH   5  31
TORSDOF 5
ENDMDL
MODEL       80
REMARK 921   NORMALIZED FREE ENERGY PREDICTED BY IDOCK:   -3.68 KCAL/MOL
REMARK 922        TOTAL FREE ENERGY PREDICTED BY IDOCK:   -4.05 KCAL/MOL
REMARK 923 INTER-LIGAND FREE ENERGY PREDICTED BY IDOCK:   -5.19 KCAL/MOL
REMARK 924 INTRA-LIGAND FREE ENERGY PREDICTED BY IDOCK:    1.14 KCAL/MOL
REMARK 927      BINDING AFFINITY PREDICTED BY RF-SCORE:    0.00 PKD
ROOT
HETATM    1  C   UNL     1      -9.544   8.058  69.261  1.00  0.00    -0.157 C  
HETATM    2  C   UNL     1     -10.860   7.904  68.749  1.00  0.00     0.009 C  
HETATM    3  C   UNL     1     -10.477   7.321  70.058  1.00  0.00    -0.234 C  
HETATM    4  C   UNL     1     -12.020   6.763  70.586  1.00  0.00    -0.418 C  
HETATM    5  C   UNL     1      -8.759   8.135  70.854  1.00  0.00    -0.140 C  
HETATM    6  C   UNL     1      -9.198   2.856  68.680  1.00  0.00    -0.233 C  
HETATM    7  C   UNL     1      -8.206   4.044  68.341  1.00  0.00    -0.088 C  
HETATM    8  C   UNL     1     -10.047   7.900  71.214  1.00  0.00    -0.210 C  
HETATM    9  C   UNL     1      -6.830   3.400  68.463  1.00  0.00    -0.046 C  
HETATM   10  C   UNL     1      -6.255   2.814  67.381  1.00  0.00    -0.028 C  
HETATM   11  C   UNL     1      -9.640   6.189  71.837  1.00  0.00    -0.166 C  
HETATM   12  O   UNL     1      -6.337   2.406  65.018  1.00  0.00    -0.022 OA 
HETATM   13  C   UNL     1     -10.912   9.035  71.843  1.00  0.00    -0.423 C  
HETATM   14  C   UNL     1      -6.895   2.855  66.009  1.00  0.00    -0.048 C  
HETATM   15  C   UNL     1      -8.283   3.431  65.933  1.00  0.00    -0.094 C  
HETATM   16  C   UNL     1      -8.318   4.427  66.844  1.00  0.00    -0.101 C  
HETATM   17  C   UNL     1      -8.661   5.232  70.818  1.00  0.00    -0.130 C  
HETATM   18  O   UNL     1      -7.297   5.378  71.237  1.00  0.00    -0.078 OA 
HETATM   19  F   UNL     1      -7.694   5.951  65.137  1.00  0.00    -0.076 F  
HETATM   20  C   UNL     1      -8.767   5.287  69.161  1.00  0.00    -0.100 C  
HETATM   21  C   UNL     1      -7.681   5.755  66.485  1.00  0.00    -0.100 C  
HETATM   22  F   UNL     1     -10.112   5.075  68.783  1.00  0.00    -0.214 F  
HETATM   23  C   UNL     1      -8.452   6.893  67.120  1.00  0.00    -0.121 C  
HETATM   24  C   UNL     1      -8.454   6.800  68.653  1.00  0.00    -0.123 C  
HETATM   25  H   UNL     1      -6.752   4.846  70.671  1.00  0.00     0.000 HD 
ENDROOT
BRANCH   5  26
HETATM   26  C   UNL     1      -8.061   8.130  72.348  1.00  0.00    -0.146 C  
HETATM   27  O   UNL     1      -8.562   8.519  73.396  1.00  0.00    -0.350 OA 
BRANCH  26  28
HETATM   28  S   UNL     1      -6.354   7.629  72.361  1.00  0.00    -0.053 SA 
HETATM   29  F   UNL     1      -5.128   6.544  74.391  1.00  0.00    -0.037 F  
HETATM   30  C   UNL     1      -6.400   6.692  73.926  1.00  0.00    -0.065 C  
ENDBRANCH  26  28
ENDBRANCH   5  26
BRANCH   5  31
HETATM   31  O   UNL     1      -8.443   9.607  70.494  1.00  0.00    -0.190 OA 
BRANCH  31  32
HETATM   32  C   UNL     1      -7.255  10.195  70.149  1.00  0.00    -0.154 C  
HETATM   33  O   UNL     1      -6.318  10.365  70.906  1.00  0.00    -0.307 OA 
BRANCH  32  34
HETATM   34  C   UNL     1      -7.221  10.532  68.745  1.00  0.00    -0.084 A  
HETATM   35  C   UNL     1      -6.491   9.938  67.728  1.00  0.00    -0.063 A  
HETATM   36  O   UNL     1      -7.976  11.549  68.223  1.00  0.00    -0.126 OA 
HETATM   37  C   UNL     1      -6.806  10.625  66.535  1.00  0.00    -0.124 A  
HETATM   38  C   UNL     1      -7.709  11.600  66.888  1.00  0.00    -0.147 A  
ENDBRANCH  32  34
ENDBRANCH  31  32
ENDBRANCH   5  31
TORSDOF 5
ENDMDL
MODEL       81
REMARK 921   NORMALIZED FREE ENERGY PREDICTED BY IDOCK:   -3.63 KCAL/MOL
REMARK 922        TOTAL FREE ENERGY PREDICTED BY IDOCK:   -3.99 KCAL/MOL
REMARK 923 INTER-LIGAND FREE ENERGY PREDICTED BY IDOCK:   -4.89 KCAL/MOL
REMARK 924 INTRA-LIGAND FREE ENERGY PREDICTED BY IDOCK:    0.90 KCAL/MOL
REMARK 927      BINDING AFFINITY PREDICTED BY RF-SCORE:    0.00 PKD
ROOT
HETATM    1  C   UNL     1      -7.229   6.812  68.418  1.00  0.00    -0.085 C  
HETATM    2  C   UNL     1      -6.226   7.651  67.864  1.00  0.00    -0.049 C  
HETATM    3  C   UNL     1      -7.664   7.988  67.727  1.00  0.00    -0.110 C  
HETATM    4  C   UNL     1      -7.526   9.548  67.008  1.00  0.00    -0.091 C  
HETATM    5  C   UNL     1      -8.877   6.988  69.060  1.00  0.00    -0.134 C  
HETATM    6  C   UNL     1      -8.624   5.961  63.433  1.00  0.00     0.196 C  
HETATM    7  C   UNL     1      -8.443   4.998  64.678  1.00  0.00    -0.145 C  
HETATM    8  C   UNL     1      -8.621   8.260  68.658  1.00  0.00    -0.133 C  
HETATM    9  C   UNL     1      -9.419   3.864  64.390  1.00  0.00    -0.163 C  
HETATM   10  C   UNL     1      -9.011   2.778  63.684  1.00  0.00    -0.096 C  
HETATM   11  C   UNL     1      -9.883   8.161  67.286  1.00  0.00    -0.259 C  
HETATM   12  O   UNL     1      -7.188   1.582  62.683  1.00  0.00    -0.029 OA 
HETATM   13  C   UNL     1      -8.341   9.380  69.706  1.00  0.00    -0.161 C  
HETATM   14  C   UNL     1      -7.575   2.599  63.240  1.00  0.00    -0.062 C  
HETATM   15  C   UNL     1      -6.652   3.766  63.472  1.00  0.00    -0.038 C  
HETATM   16  C   UNL     1      -7.048   4.322  64.636  1.00  0.00    -0.058 C  
HETATM   17  C   UNL     1      -9.844   6.746  66.331  1.00  0.00    -0.031 C  
HETATM   18  O   UNL     1     -10.797   5.817  66.863  1.00  0.00    -0.394 OA 
HETATM   19  F   UNL     1      -5.469   2.967  65.773  1.00  0.00    -0.014 F  
HETATM   20  C   UNL     1      -8.430   5.965  65.940  1.00  0.00    -0.141 C  
HETATM   21  C   UNL     1      -6.633   3.657  65.933  1.00  0.00    -0.040 C  
HETATM   22  F   UNL     1      -7.540   6.898  65.360  1.00  0.00    -0.075 F  
HETATM   23  C   UNL     1      -6.402   4.701  67.006  1.00  0.00    -0.040 C  
HETATM   24  C   UNL     1      -7.676   5.506  67.306  1.00  0.00    -0.100 C  
HETATM   25  H   UNL     1     -10.776   5.030  66.332  1.00  0.00     0.000 HD 
ENDROOT
BRANCH   5  26
HETATM   26  C   UNL     1     -10.429   7.183  69.582  1.00  0.00    -0.229 C  
HETATM   27  O   UNL     1     -11.373   6.427  69.385  1.00  0.00    -0.394 OA 
BRANCH  26  28
HETATM   28  S   UNL     1     -10.744   8.737  70.389  1.00  0.00    -0.231 SA 
HETATM   29  F   UNL     1     -12.976   9.382  71.573  1.00  0.00    -0.342 F  
HETATM   30  C   UNL     1     -12.298   8.256  71.217  1.00  0.00    -0.263 C  
ENDBRANCH  26  28
ENDBRANCH   5  26
BRANCH   5  31
HETATM   31  O   UNL     1      -8.258   6.601  70.425  1.00  0.00    -0.121 OA 
BRANCH  31  32
HETATM   32  C   UNL     1      -8.437   5.479  71.188  1.00  0.00    -0.126 C  
HETATM   33  O   UNL     1      -7.878   4.414  71.002  1.00  0.00    -0.065 OA 
BRANCH  32  34
HETATM   34  C   UNL     1      -9.329   5.731  72.296  1.00  0.00    -0.144 A  
HETATM   35  C   UNL     1      -9.102   6.485  73.438  1.00  0.00    -0.140 A  
HETATM   36  O   UNL     1     -10.601   5.223  72.337  1.00  0.00    -0.211 OA 
HETATM   37  C   UNL     1     -10.281   6.429  74.213  1.00  0.00    -0.362 A  
HETATM   38  C   UNL     1     -11.162   5.645  73.504  1.00  0.00    -0.010 A  
ENDBRANCH  32  34
ENDBRANCH  31  32
ENDBRANCH   5  31
TORSDOF 5
ENDMDL
MODEL       82
REMARK 921   NORMALIZED FREE ENERGY PREDICTED BY IDOCK:   -3.63 KCAL/MOL
REMARK 922        TOTAL FREE ENERGY PREDICTED BY IDOCK:   -3.99 KCAL/MOL
REMARK 923 INTER-LIGAND FREE ENERGY PREDICTED BY IDOCK:   -5.08 KCAL/MOL
REMARK 924 INTRA-LIGAND FREE ENERGY PREDICTED BY IDOCK:    1.09 KCAL/MOL
REMARK 927      BINDING AFFINITY PREDICTED BY RF-SCORE:    0.00 PKD
ROOT
HETATM    1  C   UNL     1      -8.808  14.477  67.087  1.00  0.00    -0.245 C  
HETATM    2  C   UNL     1      -7.611  13.720  67.192  1.00  0.00     0.051 C  
HETATM    3  C   UNL     1      -8.366  14.126  68.403  1.00  0.00    -0.161 C  
HETATM    4  C   UNL     1      -7.474  13.265  69.600  1.00  0.00     0.689 C  
HETATM    5  C   UNL     1     -10.311  14.687  68.013  1.00  0.00    -0.235 C  
HETATM    6  C   UNL     1      -6.089  18.258  69.503  1.00  0.00    -0.255 C  
HETATM    7  C   UNL     1      -7.073  18.267  68.260  1.00  0.00    -0.254 C  
HETATM    8  C   UNL     1      -9.630  13.833  68.819  1.00  0.00    -0.044 C  
HETATM    9  C   UNL     1      -7.670  19.669  68.295  1.00  0.00    -0.356 C  
HETATM   10  C   UNL     1      -7.063  20.683  67.627  1.00  0.00    -0.366 C  
HETATM   11  C   UNL     1      -9.418  15.131  70.143  1.00  0.00     0.320 C  
HETATM   12  O   UNL     1      -5.350  21.353  66.086  1.00  0.00    -0.216 OA 
HETATM   13  C   UNL     1     -10.051  12.335  68.919  1.00  0.00     0.002 C  
HETATM   14  C   UNL     1      -5.844  20.458  66.757  1.00  0.00    -0.177 C  
HETATM   15  C   UNL     1      -5.234  19.083  66.801  1.00  0.00    -0.150 C  
HETATM   16  C   UNL     1      -6.267  18.226  66.937  1.00  0.00    -0.196 C  
HETATM   17  C   UNL     1      -8.914  16.672  69.610  1.00  0.00     0.499 C  
HETATM   18  O   UNL     1     -10.078  17.488  69.423  1.00  0.00    -0.203 OA 
HETATM   19  F   UNL     1      -6.346  18.014  64.576  1.00  0.00     0.157 F  
HETATM   20  C   UNL     1      -7.851  16.883  68.350  1.00  0.00    -0.229 C  
HETATM   21  C   UNL     1      -7.091  17.888  65.709  1.00  0.00    -0.180 C  
HETATM   22  F   UNL     1      -6.691  16.115  68.600  1.00  0.00    -0.115 F  
HETATM   23  C   UNL     1      -7.575  16.455  65.783  1.00  0.00     1.148 C  
HETATM   24  C   UNL     1      -8.476  16.216  67.004  1.00  0.00    -0.238 C  
HETATM   25  H   UNL     1      -9.798  18.345  69.126  1.00  0.00     0.000 HD 
ENDROOT
BRANCH   5  26
HETATM   26  C   UNL     1     -11.658  14.907  68.936  1.00  0.00    -0.315 C  
HETATM   27  O   UNL     1     -12.276  15.952  69.101  1.00  0.00    -0.264 OA 
BRANCH  26  28
HETATM   28  S   UNL     1     -12.143  13.480  69.883  1.00  0.00    -0.317 SA 
HETATM   29  F   UNL     1     -12.834  13.515  72.397  1.00  0.00    -0.402 F  
HETATM   30  C   UNL     1     -12.778  14.374  71.341  1.00  0.00    -0.342 C  
ENDBRANCH  26  28
ENDBRANCH   5  26
BRANCH   5  31
HETATM   31  O   UNL     1     -11.008  14.022  66.802  1.00  0.00    -0.292 OA 
BRANCH  31  32
HETATM   32  C   UNL     1     -11.373  14.552  65.594  1.00  0.00    -0.336 C  
HETATM   33  O   UNL     1     -11.504  15.741  65.366  1.00  0.00    -0.094 OA 
BRANCH  32  34
HETATM   34  C   UNL     1     -11.520  13.525  64.589  1.00  0.00    -0.358 A  
HETATM   35  C   UNL     1     -10.547  12.710  64.033  1.00  0.00    -0.457 A  
HETATM   36  O   UNL     1     -12.737  13.211  64.042  1.00  0.00    -0.653 OA 
HETATM   37  C   UNL     1     -11.193  11.868  63.101  1.00  0.00    -0.248 A  
HETATM   38  C   UNL     1     -12.524  12.215  63.138  1.00  0.00    -0.243 A  
ENDBRANCH  32  34
ENDBRANCH  31  32
ENDBRANCH   5  31
TORSDOF 5
ENDMDL
MODEL       83
REMARK 921   NORMALIZED FREE ENERGY PREDICTED BY IDOCK:   -3.63 KCAL/MOL
REMARK 922        TOTAL FREE ENERGY PREDICTED BY IDOCK:   -3.98 KCAL/MOL
REMARK 923 INTER-LIGAND FREE ENERGY PREDICTED BY IDOCK:   -4.55 KCAL/MOL
REMARK 924 INTRA-LIGAND FREE ENERGY PREDICTED BY IDOCK:    0.57 KCAL/MOL
REMARK 927      BINDING AFFINITY PREDICTED BY RF-SCORE:    0.00 PKD
ROOT
HETATM    1  C   UNL     1      -7.855   7.704  68.322  1.00  0.00    -0.121 C  
HETATM    2  C   UNL     1      -8.122   8.660  67.305  1.00  0.00    -0.101 C  
HETATM    3  C   UNL     1      -9.221   8.076  68.111  1.00  0.00    -0.134 C  
HETATM    4  C   UNL     1     -10.535   9.034  67.540  1.00  0.00    -0.338 C  
HETATM    5  C   UNL     1      -8.584   7.190  69.860  1.00  0.00    -0.141 C  
HETATM    6  C   UNL     1     -10.520   4.379  65.262  1.00  0.00    -0.204 C  
HETATM    7  C   UNL     1      -9.166   4.244  66.073  1.00  0.00    -0.145 C  
HETATM    8  C   UNL     1      -9.484   8.120  69.447  1.00  0.00    -0.162 C  
HETATM    9  C   UNL     1      -9.101   2.757  66.402  1.00  0.00    -0.137 C  
HETATM   10  C   UNL     1      -8.495   1.896  65.545  1.00  0.00    -0.102 C  
HETATM   11  C   UNL     1     -10.800   6.829  69.160  1.00  0.00    -0.298 C  
HETATM   12  O   UNL     1      -7.166   1.608  63.568  1.00  0.00    -0.037 OA 
HETATM   13  C   UNL     1      -9.557   9.512  70.145  1.00  0.00    -0.290 C  
HETATM   14  C   UNL     1      -7.787   2.371  64.293  1.00  0.00    -0.076 C  
HETATM   15  C   UNL     1      -7.931   3.831  63.955  1.00  0.00    -0.085 C  
HETATM   16  C   UNL     1      -7.953   4.482  65.137  1.00  0.00    -0.098 C  
HETATM   17  C   UNL     1     -10.305   5.426  68.321  1.00  0.00    -0.146 C  
HETATM   18  O   UNL     1      -9.962   4.422  69.286  1.00  0.00    -0.183 OA 
HETATM   19  F   UNL     1      -5.605   4.771  64.974  1.00  0.00    -0.012 F  
HETATM   20  C   UNL     1      -9.183   5.461  67.096  1.00  0.00    -0.111 C  
HETATM   21  C   UNL     1      -6.640   4.715  65.858  1.00  0.00    -0.045 C  
HETATM   22  F   UNL     1      -9.588   6.414  66.135  1.00  0.00    -0.188 F  
HETATM   23  C   UNL     1      -6.678   6.034  66.602  1.00  0.00    -0.061 C  
HETATM   24  C   UNL     1      -7.783   6.058  67.669  1.00  0.00    -0.097 C  
HETATM   25  H   UNL     1      -9.687   3.642  68.820  1.00  0.00     0.000 HD 
ENDROOT
BRANCH   5  26
HETATM   26  C   UNL     1      -9.330   6.694  71.243  1.00  0.00    -0.158 C  
HETATM   27  O   UNL     1     -10.117   7.337  71.927  1.00  0.00    -0.178 OA 
BRANCH  26  28
HETATM   28  S   UNL     1      -8.794   5.106  71.840  1.00  0.00    -0.134 SA 
HETATM   29  F   UNL     1     -10.027   3.694  73.652  1.00  0.00    -0.128 F  
HETATM   30  C   UNL     1     -10.313   4.678  72.755  1.00  0.00    -0.189 C  
ENDBRANCH  26  28
ENDBRANCH   5  26
BRANCH   5  31
HETATM   31  O   UNL     1      -7.308   7.767  70.519  1.00  0.00    -0.069 OA 
BRANCH  31  32
HETATM   32  C   UNL     1      -6.211   7.126  71.028  1.00  0.00    -0.036 C  
HETATM   33  O   UNL     1      -5.492   6.371  70.400  1.00  0.00    -0.017 OA 
BRANCH  32  34
HETATM   34  C   UNL     1      -5.964   7.509  72.398  1.00  0.00    -0.040 A  
HETATM   35  C   UNL     1      -6.345   8.667  73.058  1.00  0.00    -0.071 A  
HETATM   36  O   UNL     1      -5.284   6.698  73.269  1.00  0.00    -0.036 OA 
HETATM   37  C   UNL     1      -5.871   8.565  74.384  1.00  0.00    -0.125 A  
HETATM   38  C   UNL     1      -5.227   7.352  74.463  1.00  0.00    -0.058 A  
ENDBRANCH  32  34
ENDBRANCH  31  32
ENDBRANCH   5  31
TORSDOF 5
ENDMDL
MODEL       84
REMARK 921   NORMALIZED FREE ENERGY PREDICTED BY IDOCK:   -3.63 KCAL/MOL
REMARK 922        TOTAL FREE ENERGY PREDICTED BY IDOCK:   -3.98 KCAL/MOL
REMARK 923 INTER-LIGAND FREE ENERGY PREDICTED BY IDOCK:   -6.13 KCAL/MOL
REMARK 924 INTRA-LIGAND FREE ENERGY PREDICTED BY IDOCK:    2.15 KCAL/MOL
REMARK 927      BINDING AFFINITY PREDICTED BY RF-SCORE:    0.00 PKD
ROOT
HETATM    1  C   UNL     1      -8.379  13.498  66.629  1.00  0.00     0.244 C  
HETATM    2  C   UNL     1      -7.263  13.407  67.503  1.00  0.00    -0.163 C  
HETATM    3  C   UNL     1      -8.634  13.103  67.981  1.00  0.00    -0.182 C  
HETATM    4  C   UNL     1      -8.265  12.521  69.561  1.00  0.00     1.293 C  
HETATM    5  C   UNL     1      -9.977  12.738  66.460  1.00  0.00    -0.253 C  
HETATM    6  C   UNL     1      -9.919  17.429  69.744  1.00  0.00     0.402 C  
HETATM    7  C   UNL     1      -9.878  17.258  68.170  1.00  0.00    -0.290 C  
HETATM    8  C   UNL     1      -9.533  12.152  67.602  1.00  0.00    -0.187 C  
HETATM    9  C   UNL     1     -11.017  18.148  67.690  1.00  0.00    -0.118 C  
HETATM   10  C   UNL     1     -10.784  19.455  67.401  1.00  0.00    -0.594 C  
HETATM   11  C   UNL     1     -10.804  13.038  68.642  1.00  0.00    -0.287 C  
HETATM   12  O   UNL     1      -9.170  21.205  67.103  1.00  0.00    -0.157 OA 
HETATM   13  C   UNL     1      -9.080  10.660  67.600  1.00  0.00    -0.145 C  
HETATM   14  C   UNL     1      -9.393  20.054  67.448  1.00  0.00    -0.371 C  
HETATM   15  C   UNL     1      -8.303  19.173  67.995  1.00  0.00    -0.340 C  
HETATM   16  C   UNL     1      -8.603  17.921  67.590  1.00  0.00    -0.242 C  
HETATM   17  C   UNL     1     -10.986  14.709  68.341  1.00  0.00    -0.251 C  
HETATM   18  O   UNL     1     -12.067  14.885  67.415  1.00  0.00    -0.466 OA 
HETATM   19  F   UNL     1      -7.241  18.260  65.678  1.00  0.00    -0.295 F  
HETATM   20  C   UNL     1      -9.710  15.693  67.936  1.00  0.00    -0.211 C  
HETATM   21  C   UNL     1      -8.285  17.530  66.160  1.00  0.00    -0.187 C  
HETATM   22  F   UNL     1      -8.693  15.541  68.905  1.00  0.00    -0.152 F  
HETATM   23  C   UNL     1      -7.892  16.069  66.093  1.00  0.00     0.296 C  
HETATM   24  C   UNL     1      -9.026  15.147  66.565  1.00  0.00    -0.326 C  
HETATM   25  H   UNL     1     -12.168  15.814  67.248  1.00  0.00     0.000 HD 
ENDROOT
BRANCH   5  26
HETATM   26  C   UNL     1     -11.478  12.061  66.381  1.00  0.00    -0.353 C  
HETATM   27  O   UNL     1     -11.953  11.230  67.146  1.00  0.00    -0.470 OA 
BRANCH  26  28
HETATM   28  S   UNL     1     -12.414  12.512  64.936  1.00  0.00    -0.345 SA 
HETATM   29  F   UNL     1     -12.557  14.916  63.936  1.00  0.00    -0.459 F  
HETATM   30  C   UNL     1     -11.719  14.186  64.724  1.00  0.00    -0.410 C  
ENDBRANCH  26  28
ENDBRANCH   5  26
BRANCH   5  31
HETATM   31  O   UNL     1      -9.415  12.127  65.155  1.00  0.00    -0.097 OA 
BRANCH  31  32
HETATM   32  C   UNL     1      -9.259  10.816  64.790  1.00  0.00    -0.214 C  
HETATM   33  O   UNL     1     -10.148   9.985  64.786  1.00  0.00    -0.296 OA 
BRANCH  32  34
HETATM   34  C   UNL     1      -7.913  10.550  64.340  1.00  0.00    -0.013 A  
HETATM   35  C   UNL     1      -6.762  10.386  65.095  1.00  0.00    -0.082 A  
HETATM   36  O   UNL     1      -7.606  10.404  63.012  1.00  0.00    -0.145 OA 
HETATM   37  C   UNL     1      -5.705  10.140  64.192  1.00  0.00    -0.131 A  
HETATM   38  C   UNL     1      -6.267  10.166  62.936  1.00  0.00    -0.135 A  
ENDBRANCH  32  34
ENDBRANCH  31  32
ENDBRANCH   5  31
TORSDOF 5
ENDMDL
MODEL       85
REMARK 921   NORMALIZED FREE ENERGY PREDICTED BY IDOCK:   -3.56 KCAL/MOL
REMARK 922        TOTAL FREE ENERGY PREDICTED BY IDOCK:   -3.90 KCAL/MOL
REMARK 923 INTER-LIGAND FREE ENERGY PREDICTED BY IDOCK:   -4.83 KCAL/MOL
REMARK 924 INTRA-LIGAND FREE ENERGY PREDICTED BY IDOCK:    0.94 KCAL/MOL
REMARK 927      BINDING AFFINITY PREDICTED BY RF-SCORE:    0.00 PKD
ROOT
HETATM    1  C   UNL     1     -11.292  10.530  67.798  1.00  0.00    -0.267 C  
HETATM    2  C   UNL     1     -12.324  10.629  68.768  1.00  0.00     0.457 C  
HETATM    3  C   UNL     1     -11.113  11.482  68.852  1.00  0.00    -0.288 C  
HETATM    4  C   UNL     1     -11.572  12.503  70.162  1.00  0.00    -0.150 C  
HETATM    5  C   UNL     1     -10.058  11.593  67.085  1.00  0.00    -0.204 C  
HETATM    6  C   UNL     1      -8.345   8.781  71.770  1.00  0.00    -0.161 C  
HETATM    7  C   UNL     1      -8.527   8.298  70.271  1.00  0.00    -0.125 C  
HETATM    8  C   UNL     1     -10.612  12.424  68.005  1.00  0.00    -0.238 C  
HETATM    9  C   UNL     1      -7.181   7.665  69.940  1.00  0.00    -0.072 C  
HETATM   10  C   UNL     1      -6.972   6.345  70.180  1.00  0.00    -0.063 C  
HETATM   11  C   UNL     1      -9.062  12.432  69.044  1.00  0.00     0.449 C  
HETATM   12  O   UNL     1      -7.911   4.231  70.818  1.00  0.00    -0.058 OA 
HETATM   13  C   UNL     1     -11.544  13.591  67.557  1.00  0.00    -0.385 C  
HETATM   14  C   UNL     1      -8.072   5.435  70.687  1.00  0.00    -0.110 C  
HETATM   15  C   UNL     1      -9.366   6.100  71.074  1.00  0.00    -0.176 C  
HETATM   16  C   UNL     1      -9.531   7.119  70.205  1.00  0.00    -0.161 C  
HETATM   17  C   UNL     1      -8.341  10.911  69.326  1.00  0.00    -0.012 C  
HETATM   18  O   UNL     1      -7.316  10.708  68.344  1.00  0.00    -0.084 OA 
HETATM   19  F   UNL     1     -10.798   5.673  68.816  1.00  0.00    -0.306 F  
HETATM   20  C   UNL     1      -9.227   9.521  69.534  1.00  0.00    -0.189 C  
HETATM   21  C   UNL     1     -10.039   6.804  68.811  1.00  0.00    -0.160 C  
HETATM   22  F   UNL     1     -10.182   9.737  70.553  1.00  0.00    -0.286 F  
HETATM   23  C   UNL     1     -10.907   7.936  68.303  1.00  0.00     0.019 C  
HETATM   24  C   UNL     1     -10.129   9.257  68.206  1.00  0.00    -0.214 C  
HETATM   25  H   UNL     1      -6.915   9.862  68.501  1.00  0.00     0.000 HD 
ENDROOT
BRANCH   5  26
HETATM   26  C   UNL     1      -8.883  12.591  66.501  1.00  0.00    -0.087 C  
HETATM   27  O   UNL     1      -7.685  12.348  66.417  1.00  0.00     0.271 OA 
BRANCH  26  28
HETATM   28  S   UNL     1      -9.443  14.230  66.094  1.00  0.00    -0.164 SA 
HETATM   29  F   UNL     1      -8.612  16.422  67.234  1.00  0.00    -0.174 F  
HETATM   30  C   UNL     1      -8.176  15.147  67.033  1.00  0.00    -0.228 C  
ENDBRANCH  26  28
ENDBRANCH   5  26
BRANCH   5  31
HETATM   31  O   UNL     1     -10.864  11.448  65.771  1.00  0.00    -0.275 OA 
BRANCH  31  32
HETATM   32  C   UNL     1     -10.429  11.279  64.484  1.00  0.00    -0.334 C  
HETATM   33  O   UNL     1     -10.772  11.963  63.538  1.00  0.00    -0.384 OA 
BRANCH  32  34
HETATM   34  C   UNL     1      -9.450  10.221  64.392  1.00  0.00    -0.302 A  
HETATM   35  C   UNL     1      -8.258  10.201  63.684  1.00  0.00    -0.166 A  
HETATM   36  O   UNL     1      -9.597   9.033  65.059  1.00  0.00    -0.014 OA 
HETATM   37  C   UNL     1      -7.656   8.946  63.920  1.00  0.00    -0.121 A  
HETATM   38  C   UNL     1      -8.511   8.268  64.758  1.00  0.00    -0.070 A  
ENDBRANCH  32  34
ENDBRANCH  31  32
ENDBRANCH   5  31
TORSDOF 5
ENDMDL
MODEL       86
REMARK 921   NORMALIZED FREE ENERGY PREDICTED BY IDOCK:   -3.49 KCAL/MOL
REMARK 922        TOTAL FREE ENERGY PREDICTED BY IDOCK:   -3.81 KCAL/MOL
REMARK 923 INTER-LIGAND FREE ENERGY PREDICTED BY IDOCK:   -5.22 KCAL/MOL
REMARK 924 INTRA-LIGAND FREE ENERGY PREDICTED BY IDOCK:    1.41 KCAL/MOL
REMARK 927      BINDING AFFINITY PREDICTED BY RF-SCORE:    0.00 PKD
ROOT
HETATM    1  C   UNL     1     -10.485   9.851  67.351  1.00  0.00    -0.325 C  
HETATM    2  C   UNL     1     -11.372   9.147  68.208  1.00  0.00     0.487 C  
HETATM    3  C   UNL     1     -10.316  10.030  68.761  1.00  0.00    -0.216 C  
HETATM    4  C   UNL     1     -10.745   9.981  70.429  1.00  0.00    -0.369 C  
HETATM    5  C   UNL     1      -9.552  11.364  67.387  1.00  0.00    -0.174 C  
HETATM    6  C   UNL     1      -6.764   6.810  69.455  1.00  0.00    -0.050 C  
HETATM    7  C   UNL     1      -7.074   7.256  67.966  1.00  0.00    -0.081 C  
HETATM    8  C   UNL     1     -10.099  11.369  68.630  1.00  0.00    -0.217 C  
HETATM    9  C   UNL     1      -5.703   7.236  67.300  1.00  0.00    -0.029 C  
HETATM   10  C   UNL     1      -5.252   6.102  66.705  1.00  0.00    -0.005 C  
HETATM   11  C   UNL     1      -8.439  11.107  69.443  1.00  0.00     0.249 C  
HETATM   12  O   UNL     1      -5.737   3.867  65.979  1.00  0.00    -0.017 OA 
HETATM   13  C   UNL     1     -11.261  12.348  68.979  1.00  0.00    -0.320 C  
HETATM   14  C   UNL     1      -6.108   4.857  66.592  1.00  0.00    -0.031 C  
HETATM   15  C   UNL     1      -7.425   4.881  67.321  1.00  0.00    -0.083 C  
HETATM   16  C   UNL     1      -7.873   6.150  67.230  1.00  0.00    -0.102 C  
HETATM   17  C   UNL     1      -7.448   9.900  68.754  1.00  0.00    -0.079 C  
HETATM   18  O   UNL     1      -6.554  10.527  67.825  1.00  0.00    -0.060 OA 
HETATM   19  F   UNL     1      -9.073   5.541  65.277  1.00  0.00    -0.160 F  
HETATM   20  C   UNL     1      -8.060   8.495  68.111  1.00  0.00    -0.119 C  
HETATM   21  C   UNL     1      -8.515   6.597  65.931  1.00  0.00    -0.144 C  
HETATM   22  F   UNL     1      -8.884   7.873  69.076  1.00  0.00    -0.140 F  
HETATM   23  C   UNL     1      -9.618   7.597  66.210  1.00  0.00    -0.155 C  
HETATM   24  C   UNL     1      -9.085   8.861  66.902  1.00  0.00    -0.163 C  
HETATM   25  H   UNL     1      -6.003   9.855  67.442  1.00  0.00     0.000 HD 
ENDROOT
BRANCH   5  26
HETATM   26  C   UNL     1      -8.648  12.738  67.489  1.00  0.00    -0.187 C  
HETATM   27  O   UNL     1      -7.465  12.865  67.201  1.00  0.00    -0.115 OA 
BRANCH  26  28
HETATM   28  S   UNL     1      -9.489  14.119  68.232  1.00  0.00    -0.213 SA 
HETATM   29  F   UNL     1      -9.754  16.474  67.143  1.00  0.00    -0.231 F  
HETATM   30  C   UNL     1      -9.533  15.187  66.754  1.00  0.00    -0.242 C  
ENDBRANCH  26  28
ENDBRANCH   5  26
BRANCH   5  31
HETATM   31  O   UNL     1     -10.501  11.835  66.258  1.00  0.00    -0.229 OA 
BRANCH  31  32
HETATM   32  C   UNL     1     -10.214  12.338  65.018  1.00  0.00    -0.285 C  
HETATM   33  O   UNL     1     -10.357  13.501  64.689  1.00  0.00    -0.408 OA 
BRANCH  32  34
HETATM   34  C   UNL     1      -9.650  11.327  64.155  1.00  0.00    -0.225 A  
HETATM   35  C   UNL     1      -8.500  10.574  64.337  1.00  0.00    -0.130 A  
HETATM   36  O   UNL     1     -10.244  10.963  62.975  1.00  0.00    -0.292 OA 
HETATM   37  C   UNL     1      -8.381   9.721  63.218  1.00  0.00    -0.169 A  
HETATM   38  C   UNL     1      -9.463   9.998  62.415  1.00  0.00    -0.188 A  
ENDBRANCH  32  34
ENDBRANCH  31  32
ENDBRANCH   5  31
TORSDOF 5
ENDMDL
MODEL       87
REMARK 921   NORMALIZED FREE ENERGY PREDICTED BY IDOCK:   -3.48 KCAL/MOL
REMARK 922        TOTAL FREE ENERGY PREDICTED BY IDOCK:   -3.79 KCAL/MOL
REMARK 923 INTER-LIGAND FREE ENERGY PREDICTED BY IDOCK:   -4.66 KCAL/MOL
REMARK 924 INTRA-LIGAND FREE ENERGY PREDICTED BY IDOCK:    0.87 KCAL/MOL
REMARK 927      BINDING AFFINITY PREDICTED BY RF-SCORE:    0.00 PKD
ROOT
HETATM    1  C   UNL     1      -9.550   8.298  68.058  1.00  0.00    -0.171 C  
HETATM    2  C   UNL     1     -10.878   7.897  67.752  1.00  0.00    -0.094 C  
HETATM    3  C   UNL     1     -10.115   7.243  68.843  1.00  0.00    -0.180 C  
HETATM    4  C   UNL     1     -11.356   6.247  69.505  1.00  0.00    -0.475 C  
HETATM    5  C   UNL     1      -8.488   8.336  69.483  1.00  0.00    -0.125 C  
HETATM    6  C   UNL     1      -8.211   3.488  66.447  1.00  0.00    -0.100 C  
HETATM    7  C   UNL     1      -7.592   4.923  66.180  1.00  0.00    -0.091 C  
HETATM    8  C   UNL     1      -9.591   7.737  70.001  1.00  0.00    -0.161 C  
HETATM    9  C   UNL     1      -6.115   4.631  65.946  1.00  0.00    -0.027 C  
HETATM   10  C   UNL     1      -5.664   4.371  64.692  1.00  0.00    -0.014 C  
HETATM   11  C   UNL     1      -8.703   6.109  70.210  1.00  0.00    -0.145 C  
HETATM   12  O   UNL     1      -6.142   4.305  62.341  1.00  0.00    -0.016 OA 
HETATM   13  C   UNL     1     -10.533   8.516  70.970  1.00  0.00    -0.264 C  
HETATM   14  C   UNL     1      -6.566   4.451  63.478  1.00  0.00    -0.034 C  
HETATM   15  C   UNL     1      -8.032   4.667  63.747  1.00  0.00    -0.095 C  
HETATM   16  C   UNL     1      -8.092   5.479  64.823  1.00  0.00    -0.126 C  
HETATM   17  C   UNL     1      -7.772   5.586  68.879  1.00  0.00    -0.091 C  
HETATM   18  O   UNL     1      -6.416   6.004  69.085  1.00  0.00    -0.039 OA 
HETATM   19  F   UNL     1      -8.181   7.343  63.358  1.00  0.00    -0.127 F  
HETATM   20  C   UNL     1      -8.228   5.853  67.303  1.00  0.00    -0.105 C  
HETATM   21  C   UNL     1      -7.847   6.962  64.623  1.00  0.00    -0.116 C  
HETATM   22  F   UNL     1      -9.543   5.369  67.122  1.00  0.00    -0.121 F  
HETATM   23  C   UNL     1      -8.698   7.767  65.583  1.00  0.00    -0.132 C  
HETATM   24  C   UNL     1      -8.363   7.454  67.049  1.00  0.00    -0.121 C  
HETATM   25  H   UNL     1      -5.898   5.713  68.344  1.00  0.00     0.000 HD 
ENDROOT
BRANCH   5  26
HETATM   26  C   UNL     1      -7.512   8.287  70.811  1.00  0.00    -0.065 C  
HETATM   27  O   UNL     1      -6.307   8.071  70.832  1.00  0.00    -0.036 OA 
BRANCH  26  28
HETATM   28  S   UNL     1      -8.373   8.430  72.362  1.00  0.00    -0.121 SA 
HETATM   29  F   UNL     1      -8.032   6.856  74.413  1.00  0.00    -0.114 F  
HETATM   30  C   UNL     1      -7.346   7.253  73.305  1.00  0.00    -0.072 C  
ENDBRANCH  26  28
ENDBRANCH   5  26
BRANCH   5  31
HETATM   31  O   UNL     1      -8.580   9.876  69.362  1.00  0.00    -0.146 OA 
BRANCH  31  32
HETATM   32  C   UNL     1      -7.717  10.768  68.785  1.00  0.00    -0.121 C  
HETATM   33  O   UNL     1      -6.504  10.711  68.861  1.00  0.00    -0.047 OA 
BRANCH  32  34
HETATM   34  C   UNL     1      -8.424  11.760  68.008  1.00  0.00    -0.157 A  
HETATM   35  C   UNL     1      -8.998  11.631  66.753  1.00  0.00    -0.189 A  
HETATM   36  O   UNL     1      -8.633  13.033  68.471  1.00  0.00    -0.144 OA 
HETATM   37  C   UNL     1      -9.573  12.879  66.430  1.00  0.00    -0.252 A  
HETATM   38  C   UNL     1      -9.321  13.701  67.503  1.00  0.00    -0.223 A  
ENDBRANCH  32  34
ENDBRANCH  31  32
ENDBRANCH   5  31
TORSDOF 5
ENDMDL
MODEL       88
REMARK 921   NORMALIZED FREE ENERGY PREDICTED BY IDOCK:   -3.45 KCAL/MOL
REMARK 922        TOTAL FREE ENERGY PREDICTED BY IDOCK:   -3.75 KCAL/MOL
REMARK 923 INTER-LIGAND FREE ENERGY PREDICTED BY IDOCK:   -4.04 KCAL/MOL
REMARK 924 INTRA-LIGAND FREE ENERGY PREDICTED BY IDOCK:    0.28 KCAL/MOL
REMARK 927      BINDING AFFINITY PREDICTED BY RF-SCORE:    0.00 PKD
ROOT
HETATM    1  C   UNL     1      -9.477   7.567  67.385  1.00  0.00    -0.173 C  
HETATM    2  C   UNL     1     -10.869   7.342  67.213  1.00  0.00    -0.326 C  
HETATM    3  C   UNL     1     -10.175   6.917  68.453  1.00  0.00    -0.191 C  
HETATM    4  C   UNL     1     -11.534   6.409  69.382  1.00  0.00    -0.374 C  
HETATM    5  C   UNL     1      -8.350   7.834  68.734  1.00  0.00    -0.128 C  
HETATM    6  C   UNL     1      -9.087   2.336  67.316  1.00  0.00    -0.166 C  
HETATM    7  C   UNL     1      -8.243   3.486  66.627  1.00  0.00    -0.099 C  
HETATM    8  C   UNL     1      -9.512   7.630  69.406  1.00  0.00    -0.152 C  
HETATM    9  C   UNL     1      -6.854   2.873  66.496  1.00  0.00    -0.052 C  
HETATM   10  C   UNL     1      -6.522   2.171  65.381  1.00  0.00    -0.024 C  
HETATM   11  C   UNL     1      -8.912   6.006  70.103  1.00  0.00    -0.150 C  
HETATM   12  O   UNL     1      -7.129   1.493  63.161  1.00  0.00    -0.032 OA 
HETATM   13  C   UNL     1     -10.250   8.822  70.090  1.00  0.00    -0.207 C  
HETATM   14  C   UNL     1      -7.461   2.048  64.199  1.00  0.00    -0.059 C  
HETATM   15  C   UNL     1      -8.849   2.599  64.385  1.00  0.00    -0.106 C  
HETATM   16  C   UNL     1      -8.709   3.693  65.163  1.00  0.00    -0.116 C  
HETATM   17  C   UNL     1      -8.159   4.947  68.996  1.00  0.00    -0.079 C  
HETATM   18  O   UNL     1      -6.742   5.153  69.068  1.00  0.00    -0.049 OA 
HETATM   19  F   UNL     1      -8.549   5.015  63.201  1.00  0.00    -0.116 F  
HETATM   20  C   UNL     1      -8.645   4.809  67.412  1.00  0.00    -0.104 C  
HETATM   21  C   UNL     1      -8.220   4.977  64.523  1.00  0.00    -0.126 C  
HETATM   22  F   UNL     1     -10.032   4.543  67.383  1.00  0.00    -0.199 F  
HETATM   23  C   UNL     1      -8.865   6.173  65.190  1.00  0.00     0.085 C  
HETATM   24  C   UNL     1      -8.512   6.257  66.683  1.00  0.00    -0.114 C  
HETATM   25  H   UNL     1      -6.323   4.564  68.452  1.00  0.00     0.000 HD 
ENDROOT
BRANCH   5  26
HETATM   26  C   UNL     1      -7.329   8.008  70.016  1.00  0.00    -0.062 C  
HETATM   27  O   UNL     1      -6.189   7.571  70.114  1.00  0.00    -0.033 OA 
BRANCH  26  28
HETATM   28  S   UNL     1      -8.056   8.801  71.434  1.00  0.00    -0.115 SA 
HETATM   29  F   UNL     1      -7.930   7.903  73.879  1.00  0.00    -0.160 F  
HETATM   30  C   UNL     1      -7.239   7.785  72.710  1.00  0.00    -0.083 C  
ENDBRANCH  26  28
ENDBRANCH   5  26
BRANCH   5  31
HETATM   31  O   UNL     1      -8.178   9.257  68.150  1.00  0.00    -0.117 OA 
BRANCH  31  32
HETATM   32  C   UNL     1      -7.051   9.903  67.718  1.00  0.00    -0.087 C  
HETATM   33  O   UNL     1      -6.593  10.914  68.218  1.00  0.00    -0.057 OA 
BRANCH  32  34
HETATM   34  C   UNL     1      -6.423   9.196  66.627  1.00  0.00    -0.067 A  
HETATM   35  C   UNL     1      -6.419   9.510  65.277  1.00  0.00    -0.078 A  
HETATM   36  O   UNL     1      -5.692   8.053  66.825  1.00  0.00    -0.035 OA 
HETATM   37  C   UNL     1      -5.663   8.514  64.621  1.00  0.00    -0.059 A  
HETATM   38  C   UNL     1      -5.246   7.647  65.604  1.00  0.00    -0.028 A  
ENDBRANCH  32  34
ENDBRANCH  31  32
ENDBRANCH   5  31
TORSDOF 5
ENDMDL
MODEL       89
REMARK 921   NORMALIZED FREE ENERGY PREDICTED BY IDOCK:   -3.37 KCAL/MOL
REMARK 922        TOTAL FREE ENERGY PREDICTED BY IDOCK:   -3.65 KCAL/MOL
REMARK 923 INTER-LIGAND FREE ENERGY PREDICTED BY IDOCK:   -4.96 KCAL/MOL
REMARK 924 INTRA-LIGAND FREE ENERGY PREDICTED BY IDOCK:    1.31 KCAL/MOL
REMARK 927      BINDING AFFINITY PREDICTED BY RF-SCORE:    0.00 PKD
ROOT
HETATM    1  C   UNL     1      -9.388   8.209  67.738  1.00  0.00    -0.149 C  
HETATM    2  C   UNL     1     -10.109   7.918  66.550  1.00  0.00    -0.246 C  
HETATM    3  C   UNL     1      -8.702   8.382  66.494  1.00  0.00    -0.151 C  
HETATM    4  C   UNL     1      -8.406   8.199  64.806  1.00  0.00    -0.113 C  
HETATM    5  C   UNL     1      -7.695   8.186  68.282  1.00  0.00    -0.114 C  
HETATM    6  C   UNL     1      -9.378  13.152  65.981  1.00  0.00    -0.023 C  
HETATM    7  C   UNL     1      -9.650  12.518  67.408  1.00  0.00    -0.192 C  
HETATM    8  C   UNL     1      -7.551   7.837  66.978  1.00  0.00    -0.100 C  
HETATM    9  C   UNL     1      -9.221  13.620  68.369  1.00  0.00    -0.169 C  
HETATM   10  C   UNL     1     -10.119  14.552  68.780  1.00  0.00    -0.239 C  
HETATM   11  C   UNL     1      -6.698   9.444  66.563  1.00  0.00    -0.072 C  
HETATM   12  O   UNL     1     -12.406  15.276  68.831  1.00  0.00    -0.141 OA 
HETATM   13  C   UNL     1      -7.203   6.368  66.586  1.00  0.00    -0.077 C  
HETATM   14  C   UNL     1     -11.581  14.489  68.390  1.00  0.00    -0.326 C  
HETATM   15  C   UNL     1     -11.960  13.437  67.383  1.00  0.00    -0.391 C  
HETATM   16  C   UNL     1     -11.174  12.372  67.649  1.00  0.00    -0.340 C  
HETATM   17  C   UNL     1      -7.425  10.860  67.180  1.00  0.00    -0.109 C  
HETATM   18  O   UNL     1      -6.785  11.192  68.419  1.00  0.00    -0.057 OA 
HETATM   19  F   UNL     1     -12.884  11.515  69.051  1.00  0.00     0.074 F  
HETATM   20  C   UNL     1      -9.072  11.040  67.312  1.00  0.00    -0.138 C  
HETATM   21  C   UNL     1     -11.543  11.477  68.816  1.00  0.00    -0.316 C  
HETATM   22  F   UNL     1      -9.661  10.768  66.056  1.00  0.00    -0.214 F  
HETATM   23  C   UNL     1     -11.172  10.041  68.509  1.00  0.00    -0.180 C  
HETATM   24  C   UNL     1      -9.663   9.874  68.279  1.00  0.00    -0.159 C  
HETATM   25  H   UNL     1      -7.189  11.980  68.762  1.00  0.00     0.000 HD 
ENDROOT
BRANCH   5  26
HETATM   26  C   UNL     1      -6.108   8.219  68.725  1.00  0.00    -0.044 C  
HETATM   27  O   UNL     1      -5.253   7.380  68.468  1.00  0.00    -0.019 OA 
BRANCH  26  28
HETATM   28  S   UNL     1      -5.674   9.564  69.807  1.00  0.00    -0.033 SA 
HETATM   29  F   UNL     1      -5.159   9.330  72.353  1.00  0.00    -0.051 F  
HETATM   30  C   UNL     1      -5.152   8.553  71.234  1.00  0.00    -0.029 C  
ENDBRANCH  26  28
ENDBRANCH   5  26
BRANCH   5  31
HETATM   31  O   UNL     1      -8.137   7.035  69.218  1.00  0.00    -0.117 OA 
BRANCH  31  32
HETATM   32  C   UNL     1      -8.391   7.041  70.563  1.00  0.00    -0.132 C  
HETATM   33  O   UNL     1      -8.860   7.980  71.179  1.00  0.00    -0.132 OA 
BRANCH  32  34
HETATM   34  C   UNL     1      -8.098   5.759  71.161  1.00  0.00    -0.117 A  
HETATM   35  C   UNL     1      -8.741   4.546  70.972  1.00  0.00    -0.142 A  
HETATM   36  O   UNL     1      -7.061   5.587  72.040  1.00  0.00    -0.080 OA 
HETATM   37  C   UNL     1      -8.076   3.594  71.776  1.00  0.00    -0.063 A  
HETATM   38  C   UNL     1      -7.064   4.276  72.411  1.00  0.00    -0.061 A  
ENDBRANCH  32  34
ENDBRANCH  31  32
ENDBRANCH   5  31
TORSDOF 5
ENDMDL
MODEL       90
REMARK 921   NORMALIZED FREE ENERGY PREDICTED BY IDOCK:   -3.31 KCAL/MOL
REMARK 922        TOTAL FREE ENERGY PREDICTED BY IDOCK:   -3.57 KCAL/MOL
REMARK 923 INTER-LIGAND FREE ENERGY PREDICTED BY IDOCK:   -4.71 KCAL/MOL
REMARK 924 INTRA-LIGAND FREE ENERGY PREDICTED BY IDOCK:    1.14 KCAL/MOL
REMARK 927      BINDING AFFINITY PREDICTED BY RF-SCORE:    0.00 PKD
ROOT
HETATM    1  C   UNL     1     -10.440   7.849  67.292  1.00  0.00    -0.390 C  
HETATM    2  C   UNL     1     -11.439   7.209  68.072  1.00  0.00     0.485 C  
HETATM    3  C   UNL     1     -10.481   8.158  68.689  1.00  0.00    -0.195 C  
HETATM    4  C   UNL     1     -11.150   8.252  70.274  1.00  0.00    -0.220 C  
HETATM    5  C   UNL     1      -9.531   9.377  67.324  1.00  0.00    -0.133 C  
HETATM    6  C   UNL     1      -7.052   5.081  70.186  1.00  0.00    -0.054 C  
HETATM    7  C   UNL     1      -7.143   5.384  68.634  1.00  0.00    -0.065 C  
HETATM    8  C   UNL     1     -10.253   9.484  68.468  1.00  0.00    -0.223 C  
HETATM    9  C   UNL     1      -5.689   5.330  68.180  1.00  0.00    -0.016 C  
HETATM   10  C   UNL     1      -5.150   4.155  67.764  1.00  0.00    -0.007 C  
HETATM   11  C   UNL     1      -8.730   9.327  69.535  1.00  0.00    -0.146 C  
HETATM   12  O   UNL     1      -5.510   1.855  67.183  1.00  0.00    -0.016 OA 
HETATM   13  C   UNL     1     -11.460  10.468  68.553  1.00  0.00    -0.284 C  
HETATM   14  C   UNL     1      -5.973   2.890  67.642  1.00  0.00    -0.027 C  
HETATM   15  C   UNL     1      -7.382   2.954  68.166  1.00  0.00    -0.049 C  
HETATM   16  C   UNL     1      -7.819   4.202  67.894  1.00  0.00    -0.079 C  
HETATM   17  C   UNL     1      -7.643   8.081  69.112  1.00  0.00    -0.097 C  
HETATM   18  O   UNL     1      -6.624   8.638  68.270  1.00  0.00    -0.058 OA 
HETATM   19  F   UNL     1      -8.715   3.396  65.852  1.00  0.00    -0.107 F  
HETATM   20  C   UNL     1      -8.146   6.613  68.519  1.00  0.00    -0.119 C  
HETATM   21  C   UNL     1      -8.265   4.518  66.480  1.00  0.00    -0.103 C  
HETATM   22  F   UNL     1      -9.099   6.066  69.407  1.00  0.00    -0.129 F  
HETATM   23  C   UNL     1      -9.403   5.518  66.502  1.00  0.00    -0.154 C  
HETATM   24  C   UNL     1      -8.984   6.849  67.145  1.00  0.00    -0.121 C  
HETATM   25  H   UNL     1      -6.019   7.946  68.035  1.00  0.00     0.000 HD 
ENDROOT
BRANCH   5  26
HETATM   26  C   UNL     1      -8.659  10.771  67.430  1.00  0.00    -0.126 C  
HETATM   27  O   UNL     1      -7.564  10.996  66.928  1.00  0.00    -0.119 OA 
BRANCH  26  28
HETATM   28  S   UNL     1      -9.359  11.997  68.513  1.00  0.00    -0.065 SA 
HETATM   29  F   UNL     1      -9.470  14.553  68.008  1.00  0.00    -0.191 F  
HETATM   30  C   UNL     1      -9.367  13.380  67.323  1.00  0.00    -0.233 C  
ENDBRANCH  26  28
ENDBRANCH   5  26
BRANCH   5  31
HETATM   31  O   UNL     1     -10.305   9.726  66.031  1.00  0.00    -0.221 OA 
BRANCH  31  32
HETATM   32  C   UNL     1      -9.906  10.429  64.926  1.00  0.00    -0.334 C  
HETATM   33  O   UNL     1     -10.191  11.590  64.699  1.00  0.00    -0.252 OA 
BRANCH  32  34
HETATM   34  C   UNL     1      -9.038   9.639  64.083  1.00  0.00    -0.209 A  
HETATM   35  C   UNL     1      -9.027   9.539  62.700  1.00  0.00    -0.249 A  
HETATM   36  O   UNL     1      -8.042   8.852  64.599  1.00  0.00    -0.133 OA 
HETATM   37  C   UNL     1      -7.988   8.647  62.357  1.00  0.00    -0.149 A  
HETATM   38  C   UNL     1      -7.422   8.251  63.546  1.00  0.00    -0.119 A  
ENDBRANCH  32  34
ENDBRANCH  31  32
ENDBRANCH   5  31
TORSDOF 5
ENDMDL
MODEL       91
REMARK 921   NORMALIZED FREE ENERGY PREDICTED BY IDOCK:   -3.27 KCAL/MOL
REMARK 922        TOTAL FREE ENERGY PREDICTED BY IDOCK:   -3.53 KCAL/MOL
REMARK 923 INTER-LIGAND FREE ENERGY PREDICTED BY IDOCK:   -5.20 KCAL/MOL
REMARK 924 INTRA-LIGAND FREE ENERGY PREDICTED BY IDOCK:    1.67 KCAL/MOL
REMARK 927      BINDING AFFINITY PREDICTED BY RF-SCORE:    0.00 PKD
ROOT
HETATM    1  C   UNL     1      -8.360   9.628  69.239  1.00  0.00    -0.137 C  
HETATM    2  C   UNL     1      -9.014   9.796  70.489  1.00  0.00    -0.052 C  
HETATM    3  C   UNL     1      -9.715   9.177  69.338  1.00  0.00    -0.170 C  
HETATM    4  C   UNL     1     -11.173   8.690  70.118  1.00  0.00    -0.152 C  
HETATM    5  C   UNL     1      -8.445   8.514  67.856  1.00  0.00    -0.130 C  
HETATM    6  C   UNL     1     -11.887  13.071  67.444  1.00  0.00    -0.411 C  
HETATM    7  C   UNL     1     -10.324  12.922  67.230  1.00  0.00    -0.234 C  
HETATM    8  C   UNL     1      -9.458   8.043  68.628  1.00  0.00    -0.147 C  
HETATM    9  C   UNL     1     -10.100  13.522  65.847  1.00  0.00    -0.311 C  
HETATM   10  C   UNL     1      -9.837  14.848  65.716  1.00  0.00    -0.380 C  
HETATM   11  C   UNL     1     -10.751   8.601  67.403  1.00  0.00    -0.212 C  
HETATM   12  O   UNL     1      -9.339  16.930  66.799  1.00  0.00    -0.232 OA 
HETATM   13  C   UNL     1      -9.303   6.699  69.404  1.00  0.00    -0.147 C  
HETATM   14  C   UNL     1      -9.663  15.757  66.915  1.00  0.00    -0.230 C  
HETATM   15  C   UNL     1      -9.962  15.154  68.261  1.00  0.00    -0.223 C  
HETATM   16  C   UNL     1      -9.558  13.869  68.187  1.00  0.00    -0.218 C  
HETATM   17  C   UNL     1     -10.569  10.183  66.789  1.00  0.00    -0.169 C  
HETATM   18  O   UNL     1      -9.862  10.105  65.544  1.00  0.00    -0.258 OA 
HETATM   19  F   UNL     1      -7.451  14.528  69.055  1.00  0.00    -0.112 F  
HETATM   20  C   UNL     1      -9.989  11.442  67.706  1.00  0.00    -0.178 C  
HETATM   21  C   UNL     1      -8.076  13.570  68.315  1.00  0.00    -0.155 C  
HETATM   22  F   UNL     1     -10.751  11.529  68.893  1.00  0.00    -0.189 F  
HETATM   23  C   UNL     1      -7.869  12.243  69.014  1.00  0.00     0.194 C  
HETATM   24  C   UNL     1      -8.493  11.078  68.230  1.00  0.00    -0.138 C  
HETATM   25  H   UNL     1      -9.760  10.985  65.202  1.00  0.00     0.000 HD 
ENDROOT
BRANCH   5  26
HETATM   26  C   UNL     1      -8.604   7.503  66.564  1.00  0.00    -0.132 C  
HETATM   27  O   UNL     1      -9.418   6.598  66.432  1.00  0.00    -0.168 OA 
BRANCH  26  28
HETATM   28  S   UNL     1      -7.348   7.698  65.318  1.00  0.00    -0.075 SA 
HETATM   29  F   UNL     1      -6.715   5.902  63.537  1.00  0.00    -0.033 F  
HETATM   30  C   UNL     1      -7.777   6.229  64.326  1.00  0.00    -0.107 C  
ENDBRANCH  26  28
ENDBRANCH   5  26
BRANCH   5  31
HETATM   31  O   UNL     1      -7.031   8.058  68.291  1.00  0.00    -0.069 OA 
BRANCH  31  32
HETATM   32  C   UNL     1      -6.564   6.809  68.602  1.00  0.00    -0.051 C  
HETATM   33  O   UNL     1      -6.523   5.869  67.829  1.00  0.00    -0.043 OA 
BRANCH  32  34
HETATM   34  C   UNL     1      -6.056   6.756  69.953  1.00  0.00    -0.027 A  
HETATM   35  C   UNL     1      -5.500   5.681  70.630  1.00  0.00    -0.009 A  
HETATM   36  O   UNL     1      -6.056   7.854  70.773  1.00  0.00    -0.034 OA 
HETATM   37  C   UNL     1      -5.154   6.137  71.920  1.00  0.00    -0.021 A  
HETATM   38  C   UNL     1      -5.516   7.464  71.962  1.00  0.00    -0.036 A  
ENDBRANCH  32  34
ENDBRANCH  31  32
ENDBRANCH   5  31
TORSDOF 5
ENDMDL
MODEL       92
REMARK 921   NORMALIZED FREE ENERGY PREDICTED BY IDOCK:   -3.21 KCAL/MOL
REMARK 922        TOTAL FREE ENERGY PREDICTED BY IDOCK:   -3.44 KCAL/MOL
REMARK 923 INTER-LIGAND FREE ENERGY PREDICTED BY IDOCK:   -4.80 KCAL/MOL
REMARK 924 INTRA-LIGAND FREE ENERGY PREDICTED BY IDOCK:    1.35 KCAL/MOL
REMARK 927      BINDING AFFINITY PREDICTED BY RF-SCORE:    0.00 PKD
ROOT
HETATM    1  C   UNL     1      -7.930   8.201  67.706  1.00  0.00    -0.127 C  
HETATM    2  C   UNL     1      -8.381   9.096  66.700  1.00  0.00    -0.122 C  
HETATM    3  C   UNL     1      -9.327   8.511  67.680  1.00  0.00    -0.157 C  
HETATM    4  C   UNL     1     -10.750   9.391  67.266  1.00  0.00    -0.258 C  
HETATM    5  C   UNL     1      -8.407   7.735  69.354  1.00  0.00    -0.133 C  
HETATM    6  C   UNL     1     -10.857   4.636  65.208  1.00  0.00    -0.059 C  
HETATM    7  C   UNL     1      -9.396   4.591  65.819  1.00  0.00    -0.162 C  
HETATM    8  C   UNL     1      -9.397   8.610  69.038  1.00  0.00    -0.146 C  
HETATM    9  C   UNL     1      -9.219   3.125  66.198  1.00  0.00    -0.135 C  
HETATM   10  C   UNL     1      -8.706   2.247  65.299  1.00  0.00    -0.118 C  
HETATM   11  C   UNL     1     -10.683   7.258  68.998  1.00  0.00    -0.183 C  
HETATM   12  O   UNL     1      -7.662   1.914  63.164  1.00  0.00    -0.053 OA 
HETATM   13  C   UNL     1      -9.431  10.031  69.679  1.00  0.00    -0.247 C  
HETATM   14  C   UNL     1      -8.205   2.688  63.939  1.00  0.00    -0.082 C  
HETATM   15  C   UNL     1      -8.460   4.123  63.564  1.00  0.00    -0.100 C  
HETATM   16  C   UNL     1      -8.341   4.828  64.708  1.00  0.00    -0.132 C  
HETATM   17  C   UNL     1     -10.252   5.836  68.157  1.00  0.00    -0.190 C  
HETATM   18  O   UNL     1      -9.731   4.893  69.103  1.00  0.00    -0.152 OA 
HETATM   19  F   UNL     1      -6.056   5.198  64.194  1.00  0.00    -0.020 F  
HETATM   20  C   UNL     1      -9.320   5.854  66.782  1.00  0.00    -0.136 C  
HETATM   21  C   UNL     1      -6.950   5.145  65.220  1.00  0.00    -0.062 C  
HETATM   22  F   UNL     1      -9.900   6.744  65.850  1.00  0.00    -0.051 F  
HETATM   23  C   UNL     1      -6.939   6.495  65.906  1.00  0.00    -0.061 C  
HETATM   24  C   UNL     1      -7.880   6.530  67.120  1.00  0.00    -0.108 C  
HETATM   25  H   UNL     1      -9.491   4.103  68.636  1.00  0.00     0.000 HD 
ENDROOT
BRANCH   5  26
HETATM   26  C   UNL     1      -8.925   7.279  70.851  1.00  0.00    -0.150 C  
HETATM   27  O   UNL     1      -9.851   7.764  71.490  1.00  0.00    -0.165 OA 
BRANCH  26  28
HETATM   28  S   UNL     1      -7.912   6.044  71.635  1.00  0.00    -0.111 SA 
HETATM   29  F   UNL     1      -7.603   5.777  74.211  1.00  0.00    -0.090 F  
HETATM   30  C   UNL     1      -8.508   6.305  73.340  1.00  0.00    -0.122 C  
ENDBRANCH  26  28
ENDBRANCH   5  26
BRANCH   5  31
HETATM   31  O   UNL     1      -7.077   8.390  69.796  1.00  0.00    -0.050 OA 
BRANCH  31  32
HETATM   32  C   UNL     1      -6.841   9.365  70.728  1.00  0.00    -0.109 C  
HETATM   33  O   UNL     1      -7.061   9.256  71.920  1.00  0.00    -0.319 OA 
BRANCH  32  34
HETATM   34  C   UNL     1      -6.229  10.529  70.131  1.00  0.00    -0.117 A  
HETATM   35  C   UNL     1      -5.774  10.701  68.833  1.00  0.00    -0.040 A  
HETATM   36  O   UNL     1      -6.029  11.687  70.836  1.00  0.00    -0.365 OA 
HETATM   37  C   UNL     1      -5.265  12.015  68.742  1.00  0.00    -0.050 A  
HETATM   38  C   UNL     1      -5.437  12.574  69.988  1.00  0.00    -0.115 A  
ENDBRANCH  32  34
ENDBRANCH  31  32
ENDBRANCH   5  31
TORSDOF 5
ENDMDL
MODEL       93
REMARK 921   NORMALIZED FREE ENERGY PREDICTED BY IDOCK:   -3.15 KCAL/MOL
REMARK 922        TOTAL FREE ENERGY PREDICTED BY IDOCK:   -3.37 KCAL/MOL
REMARK 923 INTER-LIGAND FREE ENERGY PREDICTED BY IDOCK:   -4.42 KCAL/MOL
REMARK 924 INTRA-LIGAND FREE ENERGY PREDICTED BY IDOCK:    1.04 KCAL/MOL
REMARK 927      BINDING AFFINITY PREDICTED BY RF-SCORE:    0.00 PKD
ROOT
HETATM    1  C   UNL     1      -9.109   8.112  70.935  1.00  0.00    -0.169 C  
HETATM    2  C   UNL     1      -9.655   9.332  70.455  1.00  0.00    -0.317 C  
HETATM    3  C   UNL     1     -10.524   8.162  70.730  1.00  0.00    -0.223 C  
HETATM    4  C   UNL     1     -12.069   8.888  70.491  1.00  0.00     0.067 C  
HETATM    5  C   UNL     1      -9.640   6.741  71.934  1.00  0.00    -0.148 C  
HETATM    6  C   UNL     1     -10.665   6.132  66.333  1.00  0.00    -0.081 C  
HETATM    7  C   UNL     1      -9.328   5.984  67.171  1.00  0.00    -0.121 C  
HETATM    8  C   UNL     1     -10.780   7.477  71.880  1.00  0.00    -0.253 C  
HETATM    9  C   UNL     1      -8.816   4.604  66.775  1.00  0.00    -0.111 C  
HETATM   10  C   UNL     1      -7.984   4.466  65.711  1.00  0.00    -0.095 C  
HETATM   11  C   UNL     1     -11.648   6.194  70.839  1.00  0.00    -0.259 C  
HETATM   12  O   UNL     1      -6.640   5.543  64.040  1.00  0.00    -0.032 OA 
HETATM   13  C   UNL     1     -11.266   8.276  73.128  1.00  0.00     0.229 C  
HETATM   14  C   UNL     1      -7.458   5.660  64.941  1.00  0.00    -0.078 C  
HETATM   15  C   UNL     1      -8.037   7.001  65.306  1.00  0.00    -0.134 C  
HETATM   16  C   UNL     1      -8.248   6.959  66.638  1.00  0.00    -0.115 C  
HETATM   17  C   UNL     1     -10.759   5.568  69.524  1.00  0.00    -0.262 C  
HETATM   18  O   UNL     1     -10.123   4.354  69.946  1.00  0.00    -0.222 OA 
HETATM   19  F   UNL     1      -6.097   7.904  66.965  1.00  0.00    -0.046 F  
HETATM   20  C   UNL     1      -9.705   6.492  68.630  1.00  0.00    -0.127 C  
HETATM   21  C   UNL     1      -7.062   7.151  67.563  1.00  0.00    -0.088 C  
HETATM   22  F   UNL     1     -10.384   7.646  68.177  1.00  0.00    -0.201 F  
HETATM   23  C   UNL     1      -7.492   7.874  68.822  1.00  0.00    -0.095 C  
HETATM   24  C   UNL     1      -8.547   7.081  69.608  1.00  0.00    -0.134 C  
HETATM   25  H   UNL     1      -9.629   4.005  69.215  1.00  0.00     0.000 HD 
ENDROOT
BRANCH   5  26
HETATM   26  C   UNL     1     -10.195   5.457  72.805  1.00  0.00    -0.187 C  
HETATM   27  O   UNL     1     -11.099   5.462  73.631  1.00  0.00    -0.280 OA 
BRANCH  26  28
HETATM   28  S   UNL     1      -9.256   3.960  72.588  1.00  0.00    -0.111 SA 
HETATM   29  F   UNL     1      -9.636   1.749  73.917  1.00  0.00    -0.072 F  
HETATM   30  C   UNL     1     -10.336   2.866  73.571  1.00  0.00    -0.134 C  
ENDBRANCH  26  28
ENDBRANCH   5  26
BRANCH   5  31
HETATM   31  O   UNL     1      -8.594   7.239  72.961  1.00  0.00    -0.117 OA 
BRANCH  31  32
HETATM   32  C   UNL     1      -7.274   6.907  73.105  1.00  0.00    -0.074 C  
HETATM   33  O   UNL     1      -6.846   5.770  73.181  1.00  0.00    -0.076 OA 
BRANCH  32  34
HETATM   34  C   UNL     1      -6.430   8.079  73.088  1.00  0.00    -0.080 A  
HETATM   35  C   UNL     1      -5.911   8.759  71.997  1.00  0.00    -0.071 A  
HETATM   36  O   UNL     1      -6.029   8.704  74.241  1.00  0.00    -0.118 OA 
HETATM   37  C   UNL     1      -5.155   9.839  72.503  1.00  0.00    -0.050 A  
HETATM   38  C   UNL     1      -5.252   9.761  73.873  1.00  0.00    -0.031 A  
ENDBRANCH  32  34
ENDBRANCH  31  32
ENDBRANCH   5  31
TORSDOF 5
ENDMDL
MODEL       94
REMARK 921   NORMALIZED FREE ENERGY PREDICTED BY IDOCK:   -3.14 KCAL/MOL
REMARK 922        TOTAL FREE ENERGY PREDICTED BY IDOCK:   -3.36 KCAL/MOL
REMARK 923 INTER-LIGAND FREE ENERGY PREDICTED BY IDOCK:   -5.43 KCAL/MOL
REMARK 924 INTRA-LIGAND FREE ENERGY PREDICTED BY IDOCK:    2.08 KCAL/MOL
REMARK 927      BINDING AFFINITY PREDICTED BY RF-SCORE:    0.00 PKD
ROOT
HETATM    1  C   UNL     1      -8.014   7.313  65.846  1.00  0.00    -0.115 C  
HETATM    2  C   UNL     1      -6.699   7.845  65.920  1.00  0.00    -0.049 C  
HETATM    3  C   UNL     1      -7.350   7.249  67.112  1.00  0.00    -0.094 C  
HETATM    4  C   UNL     1      -6.025   7.287  68.213  1.00  0.00    -0.030 C  
HETATM    5  C   UNL     1      -8.965   6.049  66.659  1.00  0.00    -0.128 C  
HETATM    6  C   UNL     1      -9.287  11.211  69.118  1.00  0.00     0.019 C  
HETATM    7  C   UNL     1      -9.979  10.631  67.815  1.00  0.00    -0.192 C  
HETATM    8  C   UNL     1      -7.803   5.987  67.359  1.00  0.00    -0.102 C  
HETATM    9  C   UNL     1     -11.457  10.921  68.043  1.00  0.00    -0.356 C  
HETATM   10  C   UNL     1     -11.993  12.095  67.620  1.00  0.00    -0.190 C  
HETATM   11  C   UNL     1      -8.609   6.654  68.904  1.00  0.00    -0.126 C  
HETATM   12  O   UNL     1     -11.694  14.125  66.377  1.00  0.00    -0.357 OA 
HETATM   13  C   UNL     1      -6.820   4.793  67.156  1.00  0.00    -0.056 C  
HETATM   14  C   UNL     1     -11.190  13.110  66.834  1.00  0.00    -0.296 C  
HETATM   15  C   UNL     1      -9.718  12.832  66.689  1.00  0.00    -0.252 C  
HETATM   16  C   UNL     1      -9.606  11.491  66.581  1.00  0.00    -0.215 C  
HETATM   17  C   UNL     1      -9.619   8.014  68.696  1.00  0.00    -0.148 C  
HETATM   18  O   UNL     1     -10.970   7.555  68.555  1.00  0.00    -0.422 OA 
HETATM   19  F   UNL     1      -9.701  11.716  64.222  1.00  0.00    -0.242 F  
HETATM   20  C   UNL     1      -9.295   9.212  67.591  1.00  0.00    -0.135 C  
HETATM   21  C   UNL     1      -9.922  10.845  65.246  1.00  0.00    -0.273 C  
HETATM   22  F   UNL     1      -7.980   9.684  67.802  1.00  0.00    -0.101 F  
HETATM   23  C   UNL     1      -9.032   9.641  65.023  1.00  0.00    -0.255 C  
HETATM   24  C   UNL     1      -9.242   8.565  66.100  1.00  0.00    -0.269 C  
HETATM   25  H   UNL     1     -11.532   8.312  68.440  1.00  0.00     0.000 HD 
ENDROOT
BRANCH   5  26
HETATM   26  C   UNL     1      -9.833   4.918  67.485  1.00  0.00    -0.167 C  
HETATM   27  O   UNL     1     -10.984   5.024  67.890  1.00  0.00     0.290 OA 
BRANCH  26  28
HETATM   28  S   UNL     1      -8.909   3.465  67.934  1.00  0.00    -0.138 SA 
HETATM   29  F   UNL     1      -7.970   2.964  70.315  1.00  0.00    -0.043 F  
HETATM   30  C   UNL     1      -8.954   3.711  69.742  1.00  0.00    -0.106 C  
ENDBRANCH  26  28
ENDBRANCH   5  26
BRANCH   5  31
HETATM   31  O   UNL     1      -8.941   5.321  65.293  1.00  0.00    -0.160 OA 
BRANCH  31  32
HETATM   32  C   UNL     1      -9.775   4.357  64.793  1.00  0.00    -0.125 C  
HETATM   33  O   UNL     1     -10.986   4.454  64.721  1.00  0.00    -0.205 OA 
BRANCH  32  34
HETATM   34  C   UNL     1      -9.032   3.225  64.292  1.00  0.00    -0.107 A  
HETATM   35  C   UNL     1      -9.137   2.594  63.061  1.00  0.00    -0.091 A  
HETATM   36  O   UNL     1      -8.055   2.610  65.031  1.00  0.00    -0.081 OA 
HETATM   37  C   UNL     1      -8.192   1.545  63.051  1.00  0.00    -0.057 A  
HETATM   38  C   UNL     1      -7.562   1.591  64.273  1.00  0.00    -0.059 A  
ENDBRANCH  32  34
ENDBRANCH  31  32
ENDBRANCH   5  31
TORSDOF 5
ENDMDL
MODEL       95
REMARK 921   NORMALIZED FREE ENERGY PREDICTED BY IDOCK:   -2.95 KCAL/MOL
REMARK 922        TOTAL FREE ENERGY PREDICTED BY IDOCK:   -3.12 KCAL/MOL
REMARK 923 INTER-LIGAND FREE ENERGY PREDICTED BY IDOCK:   -6.33 KCAL/MOL
REMARK 924 INTRA-LIGAND FREE ENERGY PREDICTED BY IDOCK:    3.22 KCAL/MOL
REMARK 927      BINDING AFFINITY PREDICTED BY RF-SCORE:    0.00 PKD
ROOT
HETATM    1  C   UNL     1      -7.952  10.996  67.270  1.00  0.00    -0.126 C  
HETATM    2  C   UNL     1      -7.011  10.885  66.212  1.00  0.00    -0.120 C  
HETATM    3  C   UNL     1      -8.433  10.513  66.011  1.00  0.00    -0.157 C  
HETATM    4  C   UNL     1      -8.415  10.218  64.313  1.00  0.00    -0.181 C  
HETATM    5  C   UNL     1      -9.698  11.281  67.446  1.00  0.00    -0.173 C  
HETATM    6  C   UNL     1      -8.233   5.767  66.961  1.00  0.00    -0.101 C  
HETATM    7  C   UNL     1      -8.135   6.768  68.186  1.00  0.00    -0.115 C  
HETATM    8  C   UNL     1      -9.579  11.246  66.093  1.00  0.00    -0.241 C  
HETATM    9  C   UNL     1      -8.846   6.021  69.308  1.00  0.00    -0.123 C  
HETATM   10  C   UNL     1      -8.144   5.194  70.125  1.00  0.00    -0.083 C  
HETATM   11  C   UNL     1     -10.528   9.644  65.975  1.00  0.00    -0.047 C  
HETATM   12  O   UNL     1      -5.997   4.375  70.817  1.00  0.00    -0.013 OA 
HETATM   13  C   UNL     1      -9.684  12.557  65.256  1.00  0.00    -0.074 C  
HETATM   14  C   UNL     1      -6.640   5.050  70.025  1.00  0.00    -0.036 C  
HETATM   15  C   UNL     1      -5.976   5.740  68.864  1.00  0.00    -0.024 C  
HETATM   16  C   UNL     1      -6.668   6.882  68.671  1.00  0.00    -0.060 C  
HETATM   17  C   UNL     1     -10.084   8.424  67.084  1.00  0.00    -0.265 C  
HETATM   18  O   UNL     1     -10.959   8.506  68.217  1.00  0.00    -0.450 OA 
HETATM   19  F   UNL     1      -5.133   8.001  70.091  1.00  0.00    -0.022 F  
HETATM   20  C   UNL     1      -8.515   8.188  67.579  1.00  0.00    -0.126 C  
HETATM   21  C   UNL     1      -6.402   8.053  69.597  1.00  0.00    -0.033 C  
HETATM   22  F   UNL     1      -7.694   8.048  66.437  1.00  0.00    -0.085 F  
HETATM   23  C   UNL     1      -6.547   9.359  68.845  1.00  0.00    -0.047 C  
HETATM   24  C   UNL     1      -7.967   9.545  68.288  1.00  0.00    -0.094 C  
HETATM   25  H   UNL     1     -10.712   7.828  68.834  1.00  0.00     0.000 HD 
ENDROOT
BRANCH   5  26
HETATM   26  C   UNL     1     -11.331  11.477  67.562  1.00  0.00    -0.299 C  
HETATM   27  O   UNL     1     -12.091  11.862  66.683  1.00  0.00    -0.587 OA 
BRANCH  26  28
HETATM   28  S   UNL     1     -11.988  11.222  69.196  1.00  0.00    -0.291 SA 
HETATM   29  F   UNL     1     -10.678  10.166  71.189  1.00  0.00    -0.351 F  
HETATM   30  C   UNL     1     -10.412  10.809  70.018  1.00  0.00     0.101 C  
ENDBRANCH  26  28
ENDBRANCH   5  26
BRANCH   5  31
HETATM   31  O   UNL     1      -9.292  12.624  68.100  1.00  0.00    -0.202 OA 
BRANCH  31  32
HETATM   32  C   UNL     1      -9.597  13.908  67.739  1.00  0.00    -0.222 C  
HETATM   33  O   UNL     1      -9.306  14.420  66.674  1.00  0.00    -0.258 OA 
BRANCH  32  34
HETATM   34  C   UNL     1     -10.376  14.572  68.758  1.00  0.00    -0.243 A  
HETATM   35  C   UNL     1      -9.933  15.275  69.868  1.00  0.00    -0.176 A  
HETATM   36  O   UNL     1     -11.746  14.593  68.729  1.00  0.00    -0.299 OA 
HETATM   37  C   UNL     1     -11.079  15.737  70.551  1.00  0.00    -0.383 A  
HETATM   38  C   UNL     1     -12.158  15.292  69.823  1.00  0.00    -0.328 A  
ENDBRANCH  32  34
ENDBRANCH  31  32
ENDBRANCH   5  31
TORSDOF 5
ENDMDL
MODEL       96
REMARK 921   NORMALIZED FREE ENERGY PREDICTED BY IDOCK:   -2.83 KCAL/MOL
REMARK 922        TOTAL FREE ENERGY PREDICTED BY IDOCK:   -2.96 KCAL/MOL
REMARK 923 INTER-LIGAND FREE ENERGY PREDICTED BY IDOCK:   -4.38 KCAL/MOL
REMARK 924 INTRA-LIGAND FREE ENERGY PREDICTED BY IDOCK:    1.42 KCAL/MOL
REMARK 927      BINDING AFFINITY PREDICTED BY RF-SCORE:    0.00 PKD
ROOT
HETATM    1  C   UNL     1     -10.231  12.666  67.198  1.00  0.00    -0.230 C  
HETATM    2  C   UNL     1     -10.066  13.005  65.828  1.00  0.00    -0.294 C  
HETATM    3  C   UNL     1      -9.268  11.919  66.447  1.00  0.00    -0.218 C  
HETATM    4  C   UNL     1      -8.479  11.307  65.043  1.00  0.00     0.286 C  
HETATM    5  C   UNL     1     -10.056  11.222  68.220  1.00  0.00    -0.188 C  
HETATM    6  C   UNL     1      -5.305  14.385  67.747  1.00  0.00    -0.009 C  
HETATM    7  C   UNL     1      -6.622  14.602  68.603  1.00  0.00    -0.085 C  
HETATM    8  C   UNL     1      -9.638  10.740  67.021  1.00  0.00    -0.195 C  
HETATM    9  C   UNL     1      -6.092  14.818  70.015  1.00  0.00    -0.150 C  
HETATM   10  C   UNL     1      -5.790  16.071  70.443  1.00  0.00    -0.061 C  
HETATM   11  C   UNL     1      -7.880  10.560  67.620  1.00  0.00    -0.105 C  
HETATM   12  O   UNL     1      -5.862  18.430  70.012  1.00  0.00    -0.237 OA 
HETATM   13  C   UNL     1     -10.541   9.767  66.203  1.00  0.00    -0.018 C  
HETATM   14  C   UNL     1      -6.050  17.297  69.593  1.00  0.00    -0.244 C  
HETATM   15  C   UNL     1      -6.502  17.048  68.179  1.00  0.00    -0.148 C  
HETATM   16  C   UNL     1      -7.287  15.952  68.232  1.00  0.00    -0.124 C  
HETATM   17  C   UNL     1      -7.240  11.889  68.479  1.00  0.00    -0.100 C  
HETATM   18  O   UNL     1      -7.420  11.649  69.881  1.00  0.00    -0.204 OA 
HETATM   19  F   UNL     1      -9.173  17.366  68.488  1.00  0.00    -0.246 F  
HETATM   20  C   UNL     1      -7.618  13.465  68.108  1.00  0.00    -0.138 C  
HETATM   21  C   UNL     1      -8.712  16.107  68.726  1.00  0.00    -0.240 C  
HETATM   22  F   UNL     1      -7.367  13.682  66.734  1.00  0.00     0.077 F  
HETATM   23  C   UNL     1      -9.625  15.140  68.001  1.00  0.00    -0.204 C  
HETATM   24  C   UNL     1      -9.224  13.678  68.248  1.00  0.00    -0.198 C  
HETATM   25  H   UNL     1      -7.064  12.388  70.359  1.00  0.00     0.000 HD 
ENDROOT
BRANCH   5  26
HETATM   26  C   UNL     1      -9.812   9.880  69.145  1.00  0.00    -0.198 C  
HETATM   27  O   UNL     1      -9.423   9.845  70.306  1.00  0.00    -0.232 OA 
BRANCH  26  28
HETATM   28  S   UNL     1     -10.016   8.341  68.276  1.00  0.00    -0.197 SA 
HETATM   29  F   UNL     1      -8.162   6.531  67.981  1.00  0.00    -0.112 F  
HETATM   30  C   UNL     1      -8.462   7.557  68.825  1.00  0.00    -0.129 C  
ENDBRANCH  26  28
ENDBRANCH   5  26
BRANCH   5  31
HETATM   31  O   UNL     1     -11.592  11.303  68.389  1.00  0.00    -0.280 OA 
BRANCH  31  32
HETATM   32  C   UNL     1     -12.343  11.984  69.309  1.00  0.00     0.080 C  
HETATM   33  O   UNL     1     -12.573  13.178  69.272  1.00  0.00     0.087 OA 
BRANCH  32  34
HETATM   34  C   UNL     1     -12.895  11.094  70.303  1.00  0.00    -0.060 A  
HETATM   35  C   UNL     1     -13.448  11.406  71.536  1.00  0.00     0.017 A  
HETATM   36  O   UNL     1     -12.949   9.737  70.116  1.00  0.00     0.193 OA 
HETATM   37  C   UNL     1     -13.849  10.190  72.131  1.00  0.00    -0.047 A  
HETATM   38  C   UNL     1     -13.519   9.202  71.232  1.00  0.00    -0.225 A  
ENDBRANCH  32  34
ENDBRANCH  31  32
ENDBRANCH   5  31
TORSDOF 5
ENDMDL
MODEL       97
REMARK 921   NORMALIZED FREE ENERGY PREDICTED BY IDOCK:   -2.75 KCAL/MOL
REMARK 922        TOTAL FREE ENERGY PREDICTED BY IDOCK:   -2.85 KCAL/MOL
REMARK 923 INTER-LIGAND FREE ENERGY PREDICTED BY IDOCK:   -6.46 KCAL/MOL
REMARK 924 INTRA-LIGAND FREE ENERGY PREDICTED BY IDOCK:    3.62 KCAL/MOL
REMARK 927      BINDING AFFINITY PREDICTED BY RF-SCORE:    0.00 PKD
ROOT
HETATM    1  C   UNL     1      -9.219  14.784  67.528  1.00  0.00    -0.198 C  
HETATM    2  C   UNL     1      -8.932  15.247  66.216  1.00  0.00    -0.314 C  
HETATM    3  C   UNL     1     -10.331  15.126  66.694  1.00  0.00    -0.274 C  
HETATM    4  C   UNL     1     -11.153  15.847  65.362  1.00  0.00    -0.199 C  
HETATM    5  C   UNL     1     -10.496  15.004  68.746  1.00  0.00    -0.238 C  
HETATM    6  C   UNL     1     -11.409  10.677  65.108  1.00  0.00     0.821 C  
HETATM    7  C   UNL     1     -10.450  10.800  66.363  1.00  0.00    -0.293 C  
HETATM    8  C   UNL     1     -10.993  15.738  67.716  1.00  0.00    -0.314 C  
HETATM    9  C   UNL     1     -10.816   9.583  67.205  1.00  0.00    -0.156 C  
HETATM   10  C   UNL     1     -10.167   8.405  67.016  1.00  0.00    -0.377 C  
HETATM   11  C   UNL     1     -12.393  14.535  67.436  1.00  0.00     0.003 C  
HETATM   12  O   UNL     1      -8.368   7.234  65.943  1.00  0.00    -0.130 OA 
HETATM   13  C   UNL     1     -10.985  17.296  67.780  1.00  0.00    -0.163 C  
HETATM   14  C   UNL     1      -9.010   8.269  66.049  1.00  0.00    -0.181 C  
HETATM   15  C   UNL     1      -8.720   9.464  65.180  1.00  0.00    -0.210 C  
HETATM   16  C   UNL     1      -8.980  10.546  65.942  1.00  0.00    -0.185 C  
HETATM   17  C   UNL     1     -11.969  12.882  67.417  1.00  0.00    -0.300 C  
HETATM   18  O   UNL     1     -12.178  12.348  68.731  1.00  0.00    -0.178 OA 
HETATM   19  F   UNL     1      -6.700  10.583  66.593  1.00  0.00    -0.077 F  
HETATM   20  C   UNL     1     -10.533  12.330  66.789  1.00  0.00    -0.218 C  
HETATM   21  C   UNL     1      -7.950  10.968  66.972  1.00  0.00    -0.137 C  
HETATM   22  F   UNL     1     -10.393  12.823  65.472  1.00  0.00    -0.267 F  
HETATM   23  C   UNL     1      -7.941  12.476  67.115  1.00  0.00    -0.140 C  
HETATM   24  C   UNL     1      -9.297  13.015  67.594  1.00  0.00    -0.202 C  
HETATM   25  H   UNL     1     -11.942  11.428  68.721  1.00  0.00     0.000 HD 
ENDROOT
BRANCH   5  26
HETATM   26  C   UNL     1     -11.735  15.179  69.818  1.00  0.00    -0.319 C  
HETATM   27  O   UNL     1     -12.920  14.942  69.620  1.00  0.00     0.075 OA 
BRANCH  26  28
HETATM   28  S   UNL     1     -11.269  15.924  71.366  1.00  0.00    -0.121 SA 
HETATM   29  F   UNL     1     -12.698  15.863  73.546  1.00  0.00    -0.470 F  
HETATM   30  C   UNL     1     -12.562  15.150  72.394  1.00  0.00    -0.351 C  
ENDBRANCH  26  28
ENDBRANCH   5  26
BRANCH   5  31
HETATM   31  O   UNL     1      -9.407  15.716  69.584  1.00  0.00    -0.280 OA 
BRANCH  31  32
HETATM   32  C   UNL     1      -8.313  16.434  69.182  1.00  0.00    -0.182 C  
HETATM   33  O   UNL     1      -8.355  17.444  68.505  1.00  0.00    -0.258 OA 
BRANCH  32  34
HETATM   34  C   UNL     1      -7.092  15.882  69.720  1.00  0.00    -0.038 A  
HETATM   35  C   UNL     1      -6.663  14.564  69.725  1.00  0.00    -0.150 A  
HETATM   36  O   UNL     1      -6.142  16.667  70.320  1.00  0.00    -0.151 OA 
HETATM   37  C   UNL     1      -5.403  14.539  70.362  1.00  0.00    -0.113 A  
HETATM   38  C   UNL     1      -5.131  15.842  70.711  1.00  0.00    -0.178 A  
ENDBRANCH  32  34
ENDBRANCH  31  32
ENDBRANCH   5  31
TORSDOF 5
ENDMDL
MODEL       98
REMARK 921   NORMALIZED FREE ENERGY PREDICTED BY IDOCK:   -2.71 KCAL/MOL
REMARK 922        TOTAL FREE ENERGY PREDICTED BY IDOCK:   -2.80 KCAL/MOL
REMARK 923 INTER-LIGAND FREE ENERGY PREDICTED BY IDOCK:   -4.63 KCAL/MOL
REMARK 924 INTRA-LIGAND FREE ENERGY PREDICTED BY IDOCK:    1.83 KCAL/MOL
REMARK 927      BINDING AFFINITY PREDICTED BY RF-SCORE:    0.00 PKD
ROOT
HETATM    1  C   UNL     1      -8.717  16.608  69.343  1.00  0.00     0.124 C  
HETATM    2  C   UNL     1      -8.637  15.666  70.402  1.00  0.00     1.327 C  
HETATM    3  C   UNL     1      -7.546  15.788  69.405  1.00  0.00    -0.214 C  
HETATM    4  C   UNL     1      -6.390  14.724  70.112  1.00  0.00    -0.169 C  
HETATM    5  C   UNL     1      -7.592  17.554  68.342  1.00  0.00    -0.254 C  
HETATM    6  C   UNL     1      -8.896  12.398  66.218  1.00  0.00     0.021 C  
HETATM    7  C   UNL     1      -9.717  13.753  66.245  1.00  0.00    -0.297 C  
HETATM    8  C   UNL     1      -6.722  16.827  69.090  1.00  0.00    -0.223 C  
HETATM    9  C   UNL     1     -10.101  13.960  64.785  1.00  0.00    -0.247 C  
HETATM   10  C   UNL     1     -11.263  13.444  64.307  1.00  0.00    -0.406 C  
HETATM   11  C   UNL     1      -6.158  15.839  67.610  1.00  0.00    -0.179 C  
HETATM   12  O   UNL     1     -13.342  12.348  64.793  1.00  0.00    -0.718 OA 
HETATM   13  C   UNL     1      -5.907  17.503  70.235  1.00  0.00    -0.126 C  
HETATM   14  C   UNL     1     -12.257  12.735  65.203  1.00  0.00    -0.477 C  
HETATM   15  C   UNL     1     -11.819  12.480  66.620  1.00  0.00    -0.422 C  
HETATM   16  C   UNL     1     -11.070  13.547  66.971  1.00  0.00    -0.310 C  
HETATM   17  C   UNL     1      -7.391  15.245  66.590  1.00  0.00     0.620 C  
HETATM   18  O   UNL     1      -7.575  16.177  65.516  1.00  0.00     1.041 OA 
HETATM   19  F   UNL     1     -13.019  14.569  67.856  1.00  0.00     0.349 F  
HETATM   20  C   UNL     1      -8.862  14.727  67.166  1.00  0.00    -0.216 C  
HETATM   21  C   UNL     1     -11.779  14.831  67.356  1.00  0.00    -0.350 C  
HETATM   22  F   UNL     1      -8.641  13.764  68.177  1.00  0.00    -0.145 F  
HETATM   23  C   UNL     1     -10.997  15.558  68.430  1.00  0.00    -0.297 C  
HETATM   24  C   UNL     1      -9.592  15.952  67.948  1.00  0.00    -0.215 C  
HETATM   25  H   UNL     1      -8.261  15.846  64.948  1.00  0.00     0.000 HD 
ENDROOT
BRANCH   5  26
HETATM   26  C   UNL     1      -6.515  18.358  67.389  1.00  0.00    -0.190 C  
HETATM   27  O   UNL     1      -5.441  18.837  67.732  1.00  0.00    -0.173 OA 
BRANCH  26  28
HETATM   28  S   UNL     1      -7.082  18.658  65.729  1.00  0.00    -0.179 SA 
HETATM   29  F   UNL     1      -6.272  20.610  64.200  1.00  0.00    -0.280 F  
HETATM   30  C   UNL     1      -5.828  19.905  65.278  1.00  0.00    -0.191 C  
ENDBRANCH  26  28
ENDBRANCH   5  26
BRANCH   5  31
HETATM   31  O   UNL     1      -8.187  18.792  69.056  1.00  0.00    -0.253 OA 
BRANCH  31  32
HETATM   32  C   UNL     1      -9.463  19.286  69.048  1.00  0.00    -0.330 C  
HETATM   33  O   UNL     1     -10.125  19.521  70.042  1.00  0.00     0.091 OA 
BRANCH  32  34
HETATM   34  C   UNL     1      -9.913  19.564  67.704  1.00  0.00    -0.383 A  
HETATM   35  C   UNL     1      -9.596  20.640  66.888  1.00  0.00    -0.422 A  
HETATM   36  O   UNL     1     -10.758  18.722  67.030  1.00  0.00    -0.416 OA 
HETATM   37  C   UNL     1     -10.283  20.452  65.669  1.00  0.00    -0.039 A  
HETATM   38  C   UNL     1     -10.981  19.274  65.805  1.00  0.00    -0.082 A  
ENDBRANCH  32  34
ENDBRANCH  31  32
ENDBRANCH   5  31
TORSDOF 5
ENDMDL
MODEL       99
REMARK 921   NORMALIZED FREE ENERGY PREDICTED BY IDOCK:   -2.63 KCAL/MOL
REMARK 922        TOTAL FREE ENERGY PREDICTED BY IDOCK:   -2.69 KCAL/MOL
REMARK 923 INTER-LIGAND FREE ENERGY PREDICTED BY IDOCK:   -4.81 KCAL/MOL
REMARK 924 INTRA-LIGAND FREE ENERGY PREDICTED BY IDOCK:    2.12 KCAL/MOL
REMARK 927      BINDING AFFINITY PREDICTED BY RF-SCORE:    0.00 PKD
ROOT
HETATM    1  C   UNL     1     -10.067  12.861  66.582  1.00  0.00    -0.247 C  
HETATM    2  C   UNL     1      -9.454  13.054  65.315  1.00  0.00     0.266 C  
HETATM    3  C   UNL     1      -9.194  11.829  66.109  1.00  0.00    -0.218 C  
HETATM    4  C   UNL     1      -8.271  10.934  64.963  1.00  0.00     0.081 C  
HETATM    5  C   UNL     1     -10.590  11.493  67.589  1.00  0.00    -0.199 C  
HETATM    6  C   UNL     1      -5.185  13.163  68.479  1.00  0.00    -0.070 C  
HETATM    7  C   UNL     1      -6.562  13.793  68.947  1.00  0.00    -0.104 C  
HETATM    8  C   UNL     1     -10.026  10.839  66.541  1.00  0.00    -0.260 C  
HETATM    9  C   UNL     1      -6.386  13.941  70.454  1.00  0.00    -0.041 C  
HETATM   10  C   UNL     1      -5.863  15.083  70.969  1.00  0.00     0.043 C  
HETATM   11  C   UNL     1      -8.617  10.212  67.592  1.00  0.00    -0.118 C  
HETATM   12  O   UNL     1      -5.139  17.336  70.573  1.00  0.00    -0.220 OA 
HETATM   13  C   UNL     1     -10.918  10.108  65.492  1.00  0.00     0.692 C  
HETATM   14  C   UNL     1      -5.525  16.277  70.100  1.00  0.00    -0.182 C  
HETATM   15  C   UNL     1      -5.639  16.077  68.613  1.00  0.00    -0.101 C  
HETATM   16  C   UNL     1      -6.689  15.249  68.432  1.00  0.00    -0.113 C  
HETATM   17  C   UNL     1      -7.875  11.360  68.615  1.00  0.00    -0.139 C  
HETATM   18  O   UNL     1      -8.481  11.268  69.911  1.00  0.00     0.219 OA 
HETATM   19  F   UNL     1      -8.089  17.148  68.189  1.00  0.00    -0.192 F  
HETATM   20  C   UNL     1      -7.673  12.952  68.181  1.00  0.00    -0.138 C  
HETATM   21  C   UNL     1      -8.088  15.828  68.522  1.00  0.00    -0.153 C  
HETATM   22  F   UNL     1      -7.016  13.003  66.932  1.00  0.00    -0.075 F  
HETATM   23  C   UNL     1      -9.013  15.112  67.561  1.00  0.00    -0.187 C  
HETATM   24  C   UNL     1      -9.128  13.614  67.883  1.00  0.00    -0.198 C  
HETATM   25  H   UNL     1      -8.069  11.906  70.480  1.00  0.00     0.000 HD 
ENDROOT
BRANCH   5  26
HETATM   26  C   UNL     1     -10.995  10.197  68.523  1.00  0.00    -0.232 C  
HETATM   27  O   UNL     1     -10.850   9.013  68.244  1.00  0.00    -0.142 OA 
BRANCH  26  28
HETATM   28  S   UNL     1     -11.859  10.611  70.023  1.00  0.00    -0.338 SA 
HETATM   29  F   UNL     1     -11.988   9.099  72.143  1.00  0.00    -0.412 F  
HETATM   30  C   UNL     1     -11.182   9.270  71.058  1.00  0.00    -0.321 C  
ENDBRANCH  26  28
ENDBRANCH   5  26
BRANCH   5  31
HETATM   31  O   UNL     1     -12.026  12.011  67.336  1.00  0.00    -0.583 OA 
BRANCH  31  32
HETATM   32  C   UNL     1     -12.476  13.282  67.101  1.00  0.00     0.108 C  
HETATM   33  O   UNL     1     -12.951  13.669  66.049  1.00  0.00    -0.294 OA 
BRANCH  32  34
HETATM   34  C   UNL     1     -12.384  14.102  68.286  1.00  0.00     0.008 A  
HETATM   35  C   UNL     1     -12.509  13.725  69.615  1.00  0.00    -0.176 A  
HETATM   36  O   UNL     1     -12.129  15.447  68.222  1.00  0.00    -0.191 OA 
HETATM   37  C   UNL     1     -12.332  14.888  70.395  1.00  0.00    -0.401 A  
HETATM   38  C   UNL     1     -12.109  15.911  69.503  1.00  0.00    -0.185 A  
ENDBRANCH  32  34
ENDBRANCH  31  32
ENDBRANCH   5  31
TORSDOF 5
ENDMDL
MODEL      100
REMARK 921   NORMALIZED FREE ENERGY PREDICTED BY IDOCK:   -2.60 KCAL/MOL
REMARK 922        TOTAL FREE ENERGY PREDICTED BY IDOCK:   -2.65 KCAL/MOL
REMARK 923 INTER-LIGAND FREE ENERGY PREDICTED BY IDOCK:   -3.35 KCAL/MOL
REMARK 924 INTRA-LIGAND FREE ENERGY PREDICTED BY IDOCK:    0.70 KCAL/MOL
REMARK 927      BINDING AFFINITY PREDICTED BY RF-SCORE:    0.00 PKD
ROOT
HETATM    1  C   UNL     1      -8.927  10.802  68.917  1.00  0.00    -0.158 C  
HETATM    2  C   UNL     1      -9.003  12.181  68.586  1.00  0.00    -0.004 C  
HETATM    3  C   UNL     1     -10.179  11.291  68.428  1.00  0.00    -0.205 C  
HETATM    4  C   UNL     1     -11.372  12.464  68.014  1.00  0.00    -0.340 C  
HETATM    5  C   UNL     1     -10.029   9.527  69.484  1.00  0.00    -0.194 C  
HETATM    6  C   UNL     1      -9.672   9.994  63.788  1.00  0.00    -0.065 C  
HETATM    7  C   UNL     1      -8.683   9.349  64.846  1.00  0.00    -0.220 C  
HETATM    8  C   UNL     1     -10.892  10.566  69.335  1.00  0.00    -0.291 C  
HETATM    9  C   UNL     1      -8.451   7.945  64.300  1.00  0.00     0.123 C  
HETATM   10  C   UNL     1      -7.432   7.712  63.434  1.00  0.00    -0.108 C  
HETATM   11  C   UNL     1     -11.752   9.744  67.897  1.00  0.00     1.208 C  
HETATM   12  O   UNL     1      -5.471   8.558  62.340  1.00  0.00    -0.070 OA 
HETATM   13  C   UNL     1     -11.470  11.299  70.584  1.00  0.00     0.059 C  
HETATM   14  C   UNL     1      -6.440   8.789  63.049  1.00  0.00    -0.090 C  
HETATM   15  C   UNL     1      -6.736  10.180  63.543  1.00  0.00    -0.124 C  
HETATM   16  C   UNL     1      -7.292  10.027  64.763  1.00  0.00    -0.143 C  
HETATM   17  C   UNL     1     -10.737   9.064  66.705  1.00  0.00     0.027 C  
HETATM   18  O   UNL     1     -10.562   7.672  67.002  1.00  0.00    -0.329 OA 
HETATM   19  F   UNL     1      -5.135  10.245  65.726  1.00  0.00    -0.036 F  
HETATM   20  C   UNL     1      -9.289   9.748  66.261  1.00  0.00    -0.180 C  
HETATM   21  C   UNL     1      -6.381   9.737  65.940  1.00  0.00    -0.080 C  
HETATM   22  F   UNL     1      -9.511  11.100  65.914  1.00  0.00    -0.200 F  
HETATM   23  C   UNL     1      -6.928  10.382  67.196  1.00  0.00    -0.088 C  
HETATM   24  C   UNL     1      -8.317   9.836  67.563  1.00  0.00    -0.114 C  
HETATM   25  H   UNL     1      -9.998   7.294  66.339  1.00  0.00     0.000 HD 
ENDROOT
BRANCH   5  26
HETATM   26  C   UNL     1     -11.098   8.359  69.940  1.00  0.00    -0.108 C  
HETATM   27  O   UNL     1     -11.414   7.360  69.305  1.00  0.00     0.128 OA 
BRANCH  26  28
HETATM   28  S   UNL     1     -11.960   8.702  71.459  1.00  0.00    -0.323 SA 
HETATM   29  F   UNL     1     -14.306   7.756  72.095  1.00  0.00    -0.412 F  
HETATM   30  C   UNL     1     -13.266   7.440  71.274  1.00  0.00    -0.281 C  
ENDBRANCH  26  28
ENDBRANCH   5  26
BRANCH   5  31
HETATM   31  O   UNL     1      -9.198   9.555  70.789  1.00  0.00    -0.236 OA 
BRANCH  31  32
HETATM   32  C   UNL     1      -8.380   8.602  71.334  1.00  0.00    -0.168 C  
HETATM   33  O   UNL     1      -8.632   7.959  72.336  1.00  0.00    -0.121 OA 
BRANCH  32  34
HETATM   34  C   UNL     1      -7.198   8.398  70.530  1.00  0.00    -0.042 A  
HETATM   35  C   UNL     1      -5.974   9.045  70.607  1.00  0.00    -0.038 A  
HETATM   36  O   UNL     1      -7.149   7.459  69.534  1.00  0.00    -0.066 OA 
HETATM   37  C   UNL     1      -5.145   8.485  69.611  1.00  0.00    -0.030 A  
HETATM   38  C   UNL     1      -5.906   7.528  68.981  1.00  0.00    -0.026 A  
ENDBRANCH  32  34
ENDBRANCH  31  32
ENDBRANCH   5  31
TORSDOF 5
ENDMDL
MODEL      101
REMARK 921   NORMALIZED FREE ENERGY PREDICTED BY IDOCK:   -2.56 KCAL/MOL
REMARK 922        TOTAL FREE ENERGY PREDICTED BY IDOCK:   -2.60 KCAL/MOL
REMARK 923 INTER-LIGAND FREE ENERGY PREDICTED BY IDOCK:   -5.92 KCAL/MOL
REMARK 924 INTRA-LIGAND FREE ENERGY PREDICTED BY IDOCK:    3.32 KCAL/MOL
REMARK 927      BINDING AFFINITY PREDICTED BY RF-SCORE:    0.00 PKD
ROOT
HETATM    1  C   UNL     1      -9.891   5.232  67.318  1.00  0.00    -0.183 C  
HETATM    2  C   UNL     1     -10.565   5.003  66.089  1.00  0.00    -0.321 C  
HETATM    3  C   UNL     1      -9.110   4.751  66.220  1.00  0.00    -0.122 C  
HETATM    4  C   UNL     1      -8.804   4.026  64.686  1.00  0.00    -0.131 C  
HETATM    5  C   UNL     1      -8.472   4.589  68.174  1.00  0.00    -0.094 C  
HETATM    6  C   UNL     1      -7.350   9.000  64.699  1.00  0.00    -0.098 C  
HETATM    7  C   UNL     1      -8.009   8.949  66.139  1.00  0.00    -0.106 C  
HETATM    8  C   UNL     1      -8.409   3.890  67.011  1.00  0.00    -0.100 C  
HETATM    9  C   UNL     1      -7.179   9.944  66.941  1.00  0.00    -0.090 C  
HETATM   10  C   UNL     1      -7.543  11.251  66.989  1.00  0.00    -0.143 C  
HETATM   11  C   UNL     1      -6.855   4.772  66.475  1.00  0.00    -0.058 C  
HETATM   12  O   UNL     1      -9.191  12.914  66.459  1.00  0.00    -0.235 OA 
HETATM   13  C   UNL     1      -8.785   2.377  66.977  1.00  0.00    -0.138 C  
HETATM   14  C   UNL     1      -8.816  11.756  66.341  1.00  0.00    -0.170 C  
HETATM   15  C   UNL     1      -9.575  10.768  65.496  1.00  0.00    -0.269 C  
HETATM   16  C   UNL     1      -9.427   9.573  66.104  1.00  0.00    -0.281 C  
HETATM   17  C   UNL     1      -6.853   6.469  66.662  1.00  0.00    -0.065 C  
HETATM   18  O   UNL     1      -6.235   6.784  67.917  1.00  0.00    -0.030 OA 
HETATM   19  F   UNL     1     -11.445   9.971  67.284  1.00  0.00    -0.257 F  
HETATM   20  C   UNL     1      -8.212   7.399  66.436  1.00  0.00    -0.122 C  
HETATM   21  C   UNL     1     -10.276   9.273  67.324  1.00  0.00    -0.252 C  
HETATM   22  F   UNL     1      -8.756   7.109  65.165  1.00  0.00    -0.113 F  
HETATM   23  C   UNL     1     -10.623   7.800  67.371  1.00  0.00    -0.345 C  
HETATM   24  C   UNL     1      -9.369   6.918  67.473  1.00  0.00    -0.130 C  
HETATM   25  H   UNL     1      -6.234   7.728  68.021  1.00  0.00     0.000 HD 
ENDROOT
BRANCH   5  26
HETATM   26  C   UNL     1      -7.109   4.016  68.901  1.00  0.00    -0.050 C  
HETATM   27  O   UNL     1      -6.638   2.890  68.801  1.00  0.00    -0.032 OA 
BRANCH  26  28
HETATM   28  S   UNL     1      -6.357   5.147  70.052  1.00  0.00    -0.027 SA 
HETATM   29  F   UNL     1      -7.159   7.589  70.490  1.00  0.00    -0.052 F  
HETATM   30  C   UNL     1      -7.666   6.417  70.015  1.00  0.00    -0.102 C  
ENDBRANCH  26  28
ENDBRANCH   5  26
BRANCH   5  31
HETATM   31  O   UNL     1      -9.490   4.046  69.205  1.00  0.00    -0.165 OA 
BRANCH  31  32
HETATM   32  C   UNL     1      -9.436   4.031  70.573  1.00  0.00    -0.178 C  
HETATM   33  O   UNL     1      -8.758   3.267  71.235  1.00  0.00    -0.073 OA 
BRANCH  32  34
HETATM   34  C   UNL     1     -10.237   5.088  71.145  1.00  0.00    -0.211 A  
HETATM   35  C   UNL     1     -10.261   5.549  72.452  1.00  0.00    -0.238 A  
HETATM   36  O   UNL     1     -11.121   5.818  70.393  1.00  0.00    -0.298 OA 
HETATM   37  C   UNL     1     -11.205   6.598  72.505  1.00  0.00    -0.302 A  
HETATM   38  C   UNL     1     -11.705   6.721  71.230  1.00  0.00    -0.336 A  
ENDBRANCH  32  34
ENDBRANCH  31  32
ENDBRANCH   5  31
TORSDOF 5
ENDMDL
MODEL      102
REMARK 921   NORMALIZED FREE ENERGY PREDICTED BY IDOCK:   -2.55 KCAL/MOL
REMARK 922        TOTAL FREE ENERGY PREDICTED BY IDOCK:   -2.59 KCAL/MOL
REMARK 923 INTER-LIGAND FREE ENERGY PREDICTED BY IDOCK:   -3.56 KCAL/MOL
REMARK 924 INTRA-LIGAND FREE ENERGY PREDICTED BY IDOCK:    0.97 KCAL/MOL
REMARK 927      BINDING AFFINITY PREDICTED BY RF-SCORE:    0.00 PKD
ROOT
HETATM    1  C   UNL     1      -7.559  12.474  66.760  1.00  0.00     0.199 C  
HETATM    2  C   UNL     1      -6.388  12.745  67.516  1.00  0.00    -0.162 C  
HETATM    3  C   UNL     1      -7.545  12.045  68.125  1.00  0.00    -0.120 C  
HETATM    4  C   UNL     1      -6.861  11.634  69.653  1.00  0.00    -0.006 C  
HETATM    5  C   UNL     1      -8.855  11.257  66.742  1.00  0.00    -0.170 C  
HETATM    6  C   UNL     1      -9.913  15.802  70.061  1.00  0.00    -0.115 C  
HETATM    7  C   UNL     1      -9.977  15.622  68.488  1.00  0.00    -0.211 C  
HETATM    8  C   UNL     1      -8.142  10.857  67.826  1.00  0.00    -0.115 C  
HETATM    9  C   UNL     1     -11.377  16.112  68.135  1.00  0.00    -0.270 C  
HETATM   10  C   UNL     1     -11.585  17.421  67.841  1.00  0.00     0.841 C  
HETATM   11  C   UNL     1      -9.514  11.332  68.999  1.00  0.00    -0.030 C  
HETATM   12  O   UNL     1     -10.623  19.576  67.404  1.00  0.00    -0.445 OA 
HETATM   13  C   UNL     1      -7.255   9.576  67.760  1.00  0.00    -0.082 C  
HETATM   14  C   UNL     1     -10.448  18.418  67.756  1.00  0.00    -0.409 C  
HETATM   15  C   UNL     1      -9.091  17.924  68.181  1.00  0.00    -0.278 C  
HETATM   16  C   UNL     1      -9.031  16.633  67.792  1.00  0.00    -0.211 C  
HETATM   17  C   UNL     1     -10.228  12.860  68.739  1.00  0.00    -0.091 C  
HETATM   18  O   UNL     1     -11.397  12.679  67.927  1.00  0.00    -0.250 OA 
HETATM   19  F   UNL     1      -8.035  17.336  65.758  1.00  0.00    -0.287 F  
HETATM   20  C   UNL     1      -9.362  14.180  68.220  1.00  0.00    -0.203 C  
HETATM   21  C   UNL     1      -8.752  16.331  66.333  1.00  0.00    -0.319 C  
HETATM   22  F   UNL     1      -8.257  14.366  69.080  1.00  0.00    -0.144 F  
HETATM   23  C   UNL     1      -7.939  15.060  66.208  1.00  0.00     0.916 C  
HETATM   24  C   UNL     1      -8.683  13.844  66.781  1.00  0.00    -0.119 C  
HETATM   25  H   UNL     1     -11.794  13.529  67.783  1.00  0.00     0.000 HD 
ENDROOT
BRANCH   5  26
HETATM   26  C   UNL     1     -10.076  10.152  66.805  1.00  0.00    -0.219 C  
HETATM   27  O   UNL     1     -11.248  10.330  66.498  1.00  0.00     0.082 OA 
BRANCH  26  28
HETATM   28  S   UNL     1      -9.620   8.594  67.535  1.00  0.00    -0.165 SA 
HETATM   29  F   UNL     1     -10.868   7.448  69.517  1.00  0.00    -0.230 F  
HETATM   30  C   UNL     1     -11.126   8.360  68.538  1.00  0.00     0.373 C  
ENDBRANCH  26  28
ENDBRANCH   5  26
BRANCH   5  31
HETATM   31  O   UNL     1      -8.265  10.823  65.379  1.00  0.00    -0.151 OA 
BRANCH  31  32
HETATM   32  C   UNL     1      -8.896  10.468  64.218  1.00  0.00    -0.197 C  
HETATM   33  O   UNL     1      -9.655  11.185  63.591  1.00  0.00    -0.240 OA 
BRANCH  32  34
HETATM   34  C   UNL     1      -8.498   9.150  63.781  1.00  0.00    -0.180 A  
HETATM   35  C   UNL     1      -7.941   8.121  64.525  1.00  0.00    -0.142 A  
HETATM   36  O   UNL     1      -8.653   8.735  62.484  1.00  0.00    -0.211 OA 
HETATM   37  C   UNL     1      -7.738   7.036  63.645  1.00  0.00    -0.111 A  
HETATM   38  C   UNL     1      -8.182   7.459  62.414  1.00  0.00    -0.084 A  
ENDBRANCH  32  34
ENDBRANCH  31  32
ENDBRANCH   5  31
TORSDOF 5
ENDMDL
MODEL      103
REMARK 921   NORMALIZED FREE ENERGY PREDICTED BY IDOCK:   -2.42 KCAL/MOL
REMARK 922        TOTAL FREE ENERGY PREDICTED BY IDOCK:   -2.42 KCAL/MOL
REMARK 923 INTER-LIGAND FREE ENERGY PREDICTED BY IDOCK:   -3.75 KCAL/MOL
REMARK 924 INTRA-LIGAND FREE ENERGY PREDICTED BY IDOCK:    1.33 KCAL/MOL
REMARK 927      BINDING AFFINITY PREDICTED BY RF-SCORE:    0.00 PKD
ROOT
HETATM    1  C   UNL     1     -10.695  12.462  68.288  1.00  0.00    -0.250 C  
HETATM    2  C   UNL     1     -12.102  12.477  68.099  1.00  0.00    -0.124 C  
HETATM    3  C   UNL     1     -11.177  12.381  66.943  1.00  0.00    -0.359 C  
HETATM    4  C   UNL     1     -12.321  12.121  65.680  1.00  0.00     0.149 C  
HETATM    5  C   UNL     1      -9.268  11.800  67.460  1.00  0.00    -0.175 C  
HETATM    6  C   UNL     1     -10.764  17.063  65.770  1.00  0.00    -0.146 C  
HETATM    7  C   UNL     1     -10.011  16.560  67.070  1.00  0.00    -0.268 C  
HETATM    8  C   UNL     1     -10.255  11.439  66.600  1.00  0.00    -0.258 C  
HETATM    9  C   UNL     1      -8.745  17.409  67.094  1.00  0.00    -0.239 C  
HETATM   10  C   UNL     1      -8.740  18.604  67.738  1.00  0.00    -0.298 C  
HETATM   11  C   UNL     1      -9.646  12.615  65.286  1.00  0.00     0.063 C  
HETATM   12  O   UNL     1      -9.899  20.130  69.183  1.00  0.00    -0.183 OA 
HETATM   13  C   UNL     1     -10.713   9.951  66.503  1.00  0.00    -0.082 C  
HETATM   14  C   UNL     1      -9.934  19.098  68.529  1.00  0.00    -0.425 C  
HETATM   15  C   UNL     1     -11.191  18.276  68.427  1.00  0.00     0.820 C  
HETATM   16  C   UNL     1     -10.785  16.992  68.341  1.00  0.00    -0.361 C  
HETATM   17  C   UNL     1      -9.260  14.193  65.811  1.00  0.00     0.253 C  
HETATM   18  O   UNL     1      -7.852  14.246  66.081  1.00  0.00     0.633 OA 
HETATM   19  F   UNL     1     -10.976  16.819  70.699  1.00  0.00    -0.281 F  
HETATM   20  C   UNL     1     -10.109  14.974  67.007  1.00  0.00    -0.244 C  
HETATM   21  C   UNL     1     -10.353  16.285  69.611  1.00  0.00    -0.261 C  
HETATM   22  F   UNL     1     -11.482  14.958  66.675  1.00  0.00    -0.342 F  
HETATM   23  C   UNL     1     -10.725  14.819  69.545  1.00  0.00    -0.229 C  
HETATM   24  C   UNL     1     -10.030  14.102  68.378  1.00  0.00    -0.235 C  
HETATM   25  H   UNL     1      -7.638  15.124  66.373  1.00  0.00     0.000 HD 
ENDROOT
BRANCH   5  26
HETATM   26  C   UNL     1      -7.966  11.232  66.623  1.00  0.00    -0.159 C  
HETATM   27  O   UNL     1      -6.855  11.742  66.554  1.00  0.00    -0.043 OA 
BRANCH  26  28
HETATM   28  S   UNL     1      -8.304   9.801  65.621  1.00  0.00    -0.140 SA 
HETATM   29  F   UNL     1      -6.618   8.707  63.959  1.00  0.00    -0.074 F  
HETATM   30  C   UNL     1      -6.591   9.497  65.068  1.00  0.00    -0.088 C  
ENDBRANCH  26  28
ENDBRANCH   5  26
BRANCH   5  31
HETATM   31  O   UNL     1      -9.119  10.888  68.700  1.00  0.00    -0.162 OA 
BRANCH  31  32
HETATM   32  C   UNL     1      -8.020  10.234  69.188  1.00  0.00    -0.135 C  
HETATM   33  O   UNL     1      -7.823   9.036  69.092  1.00  0.00    -0.089 OA 
BRANCH  32  34
HETATM   34  C   UNL     1      -7.075  11.154  69.776  1.00  0.00    -0.003 A  
HETATM   35  C   UNL     1      -5.922  10.875  70.493  1.00  0.00    -0.121 A  
HETATM   36  O   UNL     1      -7.220  12.513  69.667  1.00  0.00     0.240 OA 
HETATM   37  C   UNL     1      -5.343  12.113  70.847  1.00  0.00    -0.144 A  
HETATM   38  C   UNL     1      -6.171  13.080  70.327  1.00  0.00     0.008 A  
ENDBRANCH  32  34
ENDBRANCH  31  32
ENDBRANCH   5  31
TORSDOF 5
ENDMDL
MODEL      104
REMARK 921   NORMALIZED FREE ENERGY PREDICTED BY IDOCK:   -2.33 KCAL/MOL
REMARK 922        TOTAL FREE ENERGY PREDICTED BY IDOCK:   -2.30 KCAL/MOL
REMARK 923 INTER-LIGAND FREE ENERGY PREDICTED BY IDOCK:   -4.44 KCAL/MOL
REMARK 924 INTRA-LIGAND FREE ENERGY PREDICTED BY IDOCK:    2.13 KCAL/MOL
REMARK 927      BINDING AFFINITY PREDICTED BY RF-SCORE:    0.00 PKD
ROOT
HETATM    1  C   UNL     1      -7.088   6.808  68.827  1.00  0.00    -0.086 C  
HETATM    2  C   UNL     1      -5.737   6.948  68.412  1.00  0.00    -0.018 C  
HETATM    3  C   UNL     1      -6.767   7.935  68.005  1.00  0.00    -0.067 C  
HETATM    4  C   UNL     1      -5.759   9.100  67.233  1.00  0.00    -0.042 C  
HETATM    5  C   UNL     1      -8.473   7.871  69.160  1.00  0.00    -0.137 C  
HETATM    6  C   UNL     1      -8.105   6.084  63.732  1.00  0.00    -0.080 C  
HETATM    7  C   UNL     1      -8.597   5.342  65.043  1.00  0.00    -0.142 C  
HETATM    8  C   UNL     1      -7.552   8.775  68.736  1.00  0.00    -0.095 C  
HETATM    9  C   UNL     1      -9.975   4.820  64.655  1.00  0.00     0.203 C  
HETATM   10  C   UNL     1     -10.103   3.590  64.094  1.00  0.00    -0.204 C  
HETATM   11  C   UNL     1      -8.507   9.129  67.173  1.00  0.00    -0.120 C  
HETATM   12  O   UNL     1      -9.050   1.517  63.499  1.00  0.00    -0.086 OA 
HETATM   13  C   UNL     1      -6.865   9.739  69.751  1.00  0.00    -0.074 C  
HETATM   14  C   UNL     1      -8.922   2.658  63.920  1.00  0.00    -0.099 C  
HETATM   15  C   UNL     1      -7.566   3.227  64.243  1.00  0.00    -0.076 C  
HETATM   16  C   UNL     1      -7.757   4.063  65.285  1.00  0.00    -0.085 C  
HETATM   17  C   UNL     1      -9.087   7.767  66.322  1.00  0.00    -0.178 C  
HETATM   18  O   UNL     1     -10.439   7.522  66.731  1.00  0.00    -0.404 OA 
HETATM   19  F   UNL     1      -7.253   2.274  66.757  1.00  0.00    -0.051 F  
HETATM   20  C   UNL     1      -8.241   6.339  66.230  1.00  0.00    -0.117 C  
HETATM   21  C   UNL     1      -7.904   3.467  66.671  1.00  0.00    -0.081 C  
HETATM   22  F   UNL     1      -6.936   6.612  65.763  1.00  0.00    -0.051 F  
HETATM   23  C   UNL     1      -7.301   4.393  67.706  1.00  0.00    -0.069 C  
HETATM   24  C   UNL     1      -8.004   5.760  67.731  1.00  0.00    -0.098 C  
HETATM   25  H   UNL     1     -10.761   6.765  66.258  1.00  0.00     0.000 HD 
ENDROOT
BRANCH   5  26
HETATM   26  C   UNL     1      -9.752   8.885  69.389  1.00  0.00    -0.169 C  
HETATM   27  O   UNL     1      -9.789  10.088  69.163  1.00  0.00    -0.182 OA 
BRANCH  26  28
HETATM   28  S   UNL     1     -11.157   8.130  70.180  1.00  0.00    -0.129 SA 
HETATM   29  F   UNL     1     -12.383   9.080  72.277  1.00  0.00    -0.402 F  
HETATM   30  C   UNL     1     -11.593   9.533  71.263  1.00  0.00    -0.374 C  
ENDBRANCH  26  28
ENDBRANCH   5  26
BRANCH   5  31
HETATM   31  O   UNL     1      -8.312   7.420  70.632  1.00  0.00    -0.124 OA 
BRANCH  31  32
HETATM   32  C   UNL     1      -8.075   8.160  71.759  1.00  0.00    -0.128 C  
HETATM   33  O   UNL     1      -8.619   9.215  72.027  1.00  0.00    -0.321 OA 
BRANCH  32  34
HETATM   34  C   UNL     1      -7.140   7.496  72.639  1.00  0.00    -0.071 A  
HETATM   35  C   UNL     1      -6.536   7.982  73.788  1.00  0.00    -0.115 A  
HETATM   36  O   UNL     1      -6.728   6.207  72.423  1.00  0.00    -0.066 OA 
HETATM   37  C   UNL     1      -5.712   6.951  74.291  1.00  0.00    -0.055 A  
HETATM   38  C   UNL     1      -5.859   5.893  73.424  1.00  0.00    -0.044 A  
ENDBRANCH  32  34
ENDBRANCH  31  32
ENDBRANCH   5  31
TORSDOF 5
ENDMDL
MODEL      105
REMARK 921   NORMALIZED FREE ENERGY PREDICTED BY IDOCK:   -2.16 KCAL/MOL
REMARK 922        TOTAL FREE ENERGY PREDICTED BY IDOCK:   -2.09 KCAL/MOL
REMARK 923 INTER-LIGAND FREE ENERGY PREDICTED BY IDOCK:   -3.27 KCAL/MOL
REMARK 924 INTRA-LIGAND FREE ENERGY PREDICTED BY IDOCK:    1.18 KCAL/MOL
REMARK 927      BINDING AFFINITY PREDICTED BY RF-SCORE:    0.00 PKD
ROOT
HETATM    1  C   UNL     1      -8.828   9.593  69.410  1.00  0.00    -0.183 C  
HETATM    2  C   UNL     1      -9.273  10.917  69.151  1.00  0.00    -0.077 C  
HETATM    3  C   UNL     1     -10.182   9.758  68.976  1.00  0.00    -0.214 C  
HETATM    4  C   UNL     1     -11.653  10.594  68.651  1.00  0.00    -0.297 C  
HETATM    5  C   UNL     1      -9.539   8.051  69.937  1.00  0.00    -0.171 C  
HETATM    6  C   UNL     1      -9.523   8.840  64.265  1.00  0.00     1.056 C  
HETATM    7  C   UNL     1      -8.363   8.432  65.264  1.00  0.00    -0.169 C  
HETATM    8  C   UNL     1     -10.647   8.833  69.861  1.00  0.00    -0.230 C  
HETATM    9  C   UNL     1      -7.793   7.162  64.643  1.00  0.00    -0.123 C  
HETATM   10  C   UNL     1      -6.781   7.242  63.741  1.00  0.00    -0.052 C  
HETATM   11  C   UNL     1     -11.315   7.877  68.404  1.00  0.00     0.750 C  
HETATM   12  O   UNL     1      -5.149   8.618  62.646  1.00  0.00    -0.067 OA 
HETATM   13  C   UNL     1     -11.350   9.335  71.160  1.00  0.00    -0.412 C  
HETATM   14  C   UNL     1      -6.118   8.557  63.389  1.00  0.00    -0.077 C  
HETATM   15  C   UNL     1      -6.748   9.799  63.960  1.00  0.00    -0.120 C  
HETATM   16  C   UNL     1      -7.200   9.453  65.183  1.00  0.00    -0.101 C  
HETATM   17  C   UNL     1     -10.202   7.539  67.155  1.00  0.00    -0.280 C  
HETATM   18  O   UNL     1      -9.660   6.230  67.376  1.00  0.00    -0.116 OA 
HETATM   19  F   UNL     1      -5.141  10.187  66.104  1.00  0.00    -0.032 F  
HETATM   20  C   UNL     1      -8.999   8.597  66.713  1.00  0.00    -0.141 C  
HETATM   21  C   UNL     1      -6.202   9.362  66.322  1.00  0.00    -0.064 C  
HETATM   22  F   UNL     1      -9.579   9.857  66.440  1.00  0.00    -0.195 F  
HETATM   23  C   UNL     1      -6.853   9.785  67.622  1.00  0.00    -0.085 C  
HETATM   24  C   UNL     1      -8.037   8.880  67.993  1.00  0.00    -0.106 C  
HETATM   25  H   UNL     1      -9.041   6.042  66.682  1.00  0.00     0.000 HD 
ENDROOT
BRANCH   5  26
HETATM   26  C   UNL     1     -10.249   6.625  70.358  1.00  0.00    -0.188 C  
HETATM   27  O   UNL     1     -10.188   5.563  69.750  1.00  0.00    -0.216 OA 
BRANCH  26  28
HETATM   28  S   UNL     1     -11.319   6.726  71.776  1.00  0.00    -0.285 SA 
HETATM   29  F   UNL     1     -11.022   5.358  73.976  1.00  0.00    -0.307 F  
HETATM   30  C   UNL     1     -10.262   5.789  72.931  1.00  0.00    -0.190 C  
ENDBRANCH  26  28
ENDBRANCH   5  26
BRANCH   5  31
HETATM   31  O   UNL     1      -8.697   8.239  71.221  1.00  0.00    -0.130 OA 
BRANCH  31  32
HETATM   32  C   UNL     1      -7.344   8.150  71.409  1.00  0.00    -0.076 C  
HETATM   33  O   UNL     1      -6.624   9.077  71.733  1.00  0.00    -0.163 OA 
BRANCH  32  34
HETATM   34  C   UNL     1      -6.875   6.795  71.242  1.00  0.00    -0.062 A  
HETATM   35  C   UNL     1      -6.293   6.208  70.129  1.00  0.00    -0.032 A  
HETATM   36  O   UNL     1      -6.948   5.870  72.252  1.00  0.00    -0.078 OA 
HETATM   37  C   UNL     1      -6.006   4.868  70.468  1.00  0.00    -0.018 A  
HETATM   38  C   UNL     1      -6.428   4.708  71.767  1.00  0.00    -0.023 A  
ENDBRANCH  32  34
ENDBRANCH  31  32
ENDBRANCH   5  31
TORSDOF 5
ENDMDL
MODEL      106
REMARK 921   NORMALIZED FREE ENERGY PREDICTED BY IDOCK:   -2.09 KCAL/MOL
REMARK 922        TOTAL FREE ENERGY PREDICTED BY IDOCK:   -2.00 KCAL/MOL
REMARK 923 INTER-LIGAND FREE ENERGY PREDICTED BY IDOCK:   -4.78 KCAL/MOL
REMARK 924 INTRA-LIGAND FREE ENERGY PREDICTED BY IDOCK:    2.77 KCAL/MOL
REMARK 927      BINDING AFFINITY PREDICTED BY RF-SCORE:    0.00 PKD
ROOT
HETATM    1  C   UNL     1      -9.470  12.344  66.387  1.00  0.00    -0.240 C  
HETATM    2  C   UNL     1      -8.208  12.409  65.738  1.00  0.00     1.190 C  
HETATM    3  C   UNL     1      -8.303  12.261  67.211  1.00  0.00    -0.182 C  
HETATM    4  C   UNL     1      -6.636  12.025  67.584  1.00  0.00    -0.107 C  
HETATM    5  C   UNL     1     -10.150  11.617  67.860  1.00  0.00    -0.187 C  
HETATM    6  C   UNL     1      -8.073  16.906  68.568  1.00  0.00    -0.244 C  
HETATM    7  C   UNL     1      -9.424  16.394  67.916  1.00  0.00    -0.223 C  
HETATM    8  C   UNL     1      -8.841  11.279  67.988  1.00  0.00    -0.148 C  
HETATM    9  C   UNL     1     -10.493  17.196  68.649  1.00  0.00    -0.366 C  
HETATM   10  C   UNL     1     -10.893  18.399  68.164  1.00  0.00    -0.081 C  
HETATM   11  C   UNL     1      -8.614  12.412  69.454  1.00  0.00     1.166 C  
HETATM   12  O   UNL     1     -10.804  19.990  66.370  1.00  0.00    -0.364 OA 
HETATM   13  C   UNL     1      -8.377   9.809  67.755  1.00  0.00    -0.114 C  
HETATM   14  C   UNL     1     -10.378  18.949  66.850  1.00  0.00    -0.406 C  
HETATM   15  C   UNL     1      -9.271  18.174  66.188  1.00  0.00    -0.136 C  
HETATM   16  C   UNL     1      -9.526  16.874  66.446  1.00  0.00    -0.306 C  
HETATM   17  C   UNL     1      -9.266  13.982  69.297  1.00  0.00     0.426 C  
HETATM   18  O   UNL     1     -10.575  13.986  69.883  1.00  0.00    -0.421 OA 
HETATM   19  F   UNL     1     -10.716  16.744  64.399  1.00  0.00    -0.154 F  
HETATM   20  C   UNL     1      -9.272  14.812  67.858  1.00  0.00    -0.191 C  
HETATM   21  C   UNL     1     -10.592  16.171  65.628  1.00  0.00    -0.363 C  
HETATM   22  F   UNL     1      -7.956  14.842  67.344  1.00  0.00    -0.150 F  
HETATM   23  C   UNL     1     -10.217  14.719  65.420  1.00  0.00    -0.415 C  
HETATM   24  C   UNL     1     -10.102  13.959  66.750  1.00  0.00    -0.265 C  
HETATM   25  H   UNL     1     -10.938  14.859  69.796  1.00  0.00     0.000 HD 
ENDROOT
BRANCH   5  26
HETATM   26  C   UNL     1     -10.725  10.987  69.270  1.00  0.00    -0.222 C  
HETATM   27  O   UNL     1     -10.161  10.184  70.003  1.00  0.00    -0.254 OA 
BRANCH  26  28
HETATM   28  S   UNL     1     -12.402  11.445  69.651  1.00  0.00    -0.098 SA 
HETATM   29  F   UNL     1     -13.584  11.032  71.939  1.00  0.00    -0.412 F  
HETATM   30  C   UNL     1     -12.318  11.155  71.451  1.00  0.00    -0.233 C  
ENDBRANCH  26  28
ENDBRANCH   5  26
BRANCH   5  31
HETATM   31  O   UNL     1     -10.962  10.718  66.897  1.00  0.00    -0.256 OA 
BRANCH  31  32
HETATM   32  C   UNL     1     -10.598   9.571  66.243  1.00  0.00     0.052 C  
HETATM   33  O   UNL     1     -10.717   8.446  66.693  1.00  0.00    -0.195 OA 
BRANCH  32  34
HETATM   34  C   UNL     1     -10.113   9.852  64.913  1.00  0.00     0.015 A  
HETATM   35  C   UNL     1     -10.628  10.727  63.968  1.00  0.00    -0.175 A  
HETATM   36  O   UNL     1      -8.993   9.248  64.404  1.00  0.00    -0.198 OA 
HETATM   37  C   UNL     1      -9.795  10.647  62.831  1.00  0.00    -0.271 A  
HETATM   38  C   UNL     1      -8.818   9.731  63.142  1.00  0.00    -0.246 A  
ENDBRANCH  32  34
ENDBRANCH  31  32
ENDBRANCH   5  31
TORSDOF 5
ENDMDL
MODEL      107
REMARK 921   NORMALIZED FREE ENERGY PREDICTED BY IDOCK:   -1.87 KCAL/MOL
REMARK 922        TOTAL FREE ENERGY PREDICTED BY IDOCK:   -1.72 KCAL/MOL
REMARK 923 INTER-LIGAND FREE ENERGY PREDICTED BY IDOCK:   -5.01 KCAL/MOL
REMARK 924 INTRA-LIGAND FREE ENERGY PREDICTED BY IDOCK:    3.29 KCAL/MOL
REMARK 927      BINDING AFFINITY PREDICTED BY RF-SCORE:    0.00 PKD
ROOT
HETATM    1  C   UNL     1      -9.239  13.268  67.987  1.00  0.00    -0.217 C  
HETATM    2  C   UNL     1      -9.998  13.402  69.180  1.00  0.00     0.287 C  
HETATM    3  C   UNL     1     -10.633  13.563  67.849  1.00  0.00    -0.255 C  
HETATM    4  C   UNL     1     -12.282  13.697  68.332  1.00  0.00    -0.168 C  
HETATM    5  C   UNL     1      -9.521  12.775  66.303  1.00  0.00    -0.196 C  
HETATM    6  C   UNL     1     -10.281  18.363  67.295  1.00  0.00    -0.396 C  
HETATM    7  C   UNL     1      -8.960  17.503  67.130  1.00  0.00    -0.245 C  
HETATM    8  C   UNL     1     -10.779  12.697  66.807  1.00  0.00    -0.261 C  
HETATM    9  C   UNL     1      -8.184  18.253  66.053  1.00  0.00    -0.087 C  
HETATM   10  C   UNL     1      -7.317  19.239  66.401  1.00  0.00    -0.264 C  
HETATM   11  C   UNL     1     -11.361  14.143  65.780  1.00  0.00    -0.317 C  
HETATM   12  O   UNL     1      -6.166  20.394  68.162  1.00  0.00    -0.254 OA 
HETATM   13  C   UNL     1     -11.438  11.311  67.081  1.00  0.00    -0.217 C  
HETATM   14  C   UNL     1      -7.012  19.569  67.848  1.00  0.00    -0.253 C  
HETATM   15  C   UNL     1      -7.845  18.865  68.885  1.00  0.00    -0.314 C  
HETATM   16  C   UNL     1      -8.075  17.629  68.396  1.00  0.00    -0.285 C  
HETATM   17  C   UNL     1     -10.338  15.509  65.760  1.00  0.00    -0.363 C  
HETATM   18  O   UNL     1      -9.492  15.421  64.605  1.00  0.00     0.039 OA 
HETATM   19  F   UNL     1      -6.153  16.860  69.553  1.00  0.00    -0.172 F  
HETATM   20  C   UNL     1      -9.461  15.995  67.085  1.00  0.00    -0.216 C  
HETATM   21  C   UNL     1      -6.969  16.596  68.495  1.00  0.00    -0.161 C  
HETATM   22  F   UNL     1     -10.338  16.133  68.185  1.00  0.00    -0.241 F  
HETATM   23  C   UNL     1      -7.559  15.217  68.705  1.00  0.00    -0.129 C  
HETATM   24  C   UNL     1      -8.460  14.794  67.534  1.00  0.00    -0.204 C  
HETATM   25  H   UNL     1      -8.923  16.181  64.594  1.00  0.00     0.000 HD 
ENDROOT
BRANCH   5  26
HETATM   26  C   UNL     1      -9.839  12.379  64.735  1.00  0.00    -0.079 C  
HETATM   27  O   UNL     1     -10.738  12.821  64.031  1.00  0.00    -0.387 OA 
BRANCH  26  28
HETATM   28  S   UNL     1      -8.828  11.064  64.088  1.00  0.00     0.116 SA 
HETATM   29  F   UNL     1      -9.369   8.522  64.292  1.00  0.00     0.232 F  
HETATM   30  C   UNL     1     -10.031   9.712  64.322  1.00  0.00     0.704 C  
ENDBRANCH  26  28
ENDBRANCH   5  26
BRANCH   5  31
HETATM   31  O   UNL     1      -8.613  11.565  66.632  1.00  0.00    -0.168 OA 
BRANCH  31  32
HETATM   32  C   UNL     1      -7.368  11.525  67.198  1.00  0.00    -0.139 C  
HETATM   33  O   UNL     1      -6.947  12.328  68.010  1.00  0.00    -0.078 OA 
BRANCH  32  34
HETATM   34  C   UNL     1      -6.627  10.364  66.765  1.00  0.00    -0.078 A  
HETATM   35  C   UNL     1      -5.584  10.289  65.855  1.00  0.00    -0.081 A  
HETATM   36  O   UNL     1      -6.887   9.111  67.256  1.00  0.00    -0.075 OA 
HETATM   37  C   UNL     1      -5.195   8.934  65.779  1.00  0.00    -0.033 A  
HETATM   38  C   UNL     1      -6.020   8.255  66.645  1.00  0.00    -0.052 A  
ENDBRANCH  32  34
ENDBRANCH  31  32
ENDBRANCH   5  31
TORSDOF 5
ENDMDL
MODEL      108
REMARK 921   NORMALIZED FREE ENERGY PREDICTED BY IDOCK:   -1.86 KCAL/MOL
REMARK 922        TOTAL FREE ENERGY PREDICTED BY IDOCK:   -1.70 KCAL/MOL
REMARK 923 INTER-LIGAND FREE ENERGY PREDICTED BY IDOCK:   -6.14 KCAL/MOL
REMARK 924 INTRA-LIGAND FREE ENERGY PREDICTED BY IDOCK:    4.44 KCAL/MOL
REMARK 927      BINDING AFFINITY PREDICTED BY RF-SCORE:    0.00 PKD
ROOT
HETATM    1  C   UNL     1     -10.662  11.570  67.829  1.00  0.00    -0.249 C  
HETATM    2  C   UNL     1     -11.806  11.507  66.989  1.00  0.00     0.065 C  
HETATM    3  C   UNL     1     -10.697  12.449  66.700  1.00  0.00    -0.263 C  
HETATM    4  C   UNL     1     -11.222  13.051  65.173  1.00  0.00    -0.321 C  
HETATM    5  C   UNL     1      -8.939  11.977  67.668  1.00  0.00    -0.172 C  
HETATM    6  C   UNL     1     -12.316  16.418  68.958  1.00  0.00     0.938 C  
HETATM    7  C   UNL     1     -11.760  15.235  69.854  1.00  0.00    -0.349 C  
HETATM    8  C   UNL     1      -9.383  12.236  66.410  1.00  0.00    -0.219 C  
HETATM    9  C   UNL     1     -11.111  15.959  71.028  1.00  0.00    -0.283 C  
HETATM   10  C   UNL     1     -11.842  16.251  72.135  1.00  0.00    -0.585 C  
HETATM   11  C   UNL     1      -9.113  14.071  66.611  1.00  0.00    -0.221 C  
HETATM   12  O   UNL     1     -13.907  15.984  73.326  1.00  0.00    -0.520 OA 
HETATM   13  C   UNL     1      -9.028  11.276  65.234  1.00  0.00    -0.079 C  
HETATM   14  C   UNL     1     -13.278  15.799  72.294  1.00  0.00    -0.442 C  
HETATM   15  C   UNL     1     -13.914  15.153  71.092  1.00  0.00    -0.487 C  
HETATM   16  C   UNL     1     -12.933  14.448  70.491  1.00  0.00    -0.283 C  
HETATM   17  C   UNL     1      -9.678  14.758  68.068  1.00  0.00    -0.213 C  
HETATM   18  O   UNL     1      -8.587  14.805  68.997  1.00  0.00    -0.210 OA 
HETATM   19  F   UNL     1     -13.591  12.545  71.745  1.00  0.00    -0.464 F  
HETATM   20  C   UNL     1     -11.063  14.241  68.827  1.00  0.00    -0.256 C  
HETATM   21  C   UNL     1     -12.543  13.107  71.082  1.00  0.00    -0.314 C  
HETATM   22  F   UNL     1     -12.128  14.271  67.898  1.00  0.00    -0.371 F  
HETATM   23  C   UNL     1     -12.133  12.151  69.981  1.00  0.00    -0.352 C  
HETATM   24  C   UNL     1     -10.915  12.665  69.198  1.00  0.00    -0.195 C  
HETATM   25  H   UNL     1      -8.901  15.186  69.808  1.00  0.00     0.000 HD 
ENDROOT
BRANCH   5  26
HETATM   26  C   UNL     1      -7.364  12.431  67.492  1.00  0.00    -0.146 C  
HETATM   27  O   UNL     1      -6.893  13.124  66.598  1.00  0.00     0.467 OA 
BRANCH  26  28
HETATM   28  S   UNL     1      -6.250  11.698  68.670  1.00  0.00    -0.056 SA 
HETATM   29  F   UNL     1      -5.717  12.667  71.031  1.00  0.00    -0.176 F  
HETATM   30  C   UNL     1      -6.709  12.736  70.099  1.00  0.00     0.509 C  
ENDBRANCH  26  28
ENDBRANCH   5  26
BRANCH   5  31
HETATM   31  O   UNL     1      -8.680  10.482  67.971  1.00  0.00    -0.124 OA 
BRANCH  31  32
HETATM   32  C   UNL     1      -9.305   9.363  67.488  1.00  0.00    -0.127 C  
HETATM   33  O   UNL     1     -10.366   8.929  67.895  1.00  0.00    -0.211 OA 
BRANCH  32  34
HETATM   34  C   UNL     1      -8.579   8.791  66.378  1.00  0.00    -0.128 A  
HETATM   35  C   UNL     1      -9.007   7.848  65.455  1.00  0.00    -0.016 A  
HETATM   36  O   UNL     1      -7.292   9.157  66.084  1.00  0.00    -0.092 OA 
HETATM   37  C   UNL     1      -7.934   7.621  64.566  1.00  0.00    -0.130 A  
HETATM   38  C   UNL     1      -6.911   8.436  64.993  1.00  0.00    -0.067 A  
ENDBRANCH  32  34
ENDBRANCH  31  32
ENDBRANCH   5  31
TORSDOF 5
ENDMDL
MODEL      109
REMARK 921   NORMALIZED FREE ENERGY PREDICTED BY IDOCK:   -1.67 KCAL/MOL
REMARK 922        TOTAL FREE ENERGY PREDICTED BY IDOCK:   -1.46 KCAL/MOL
REMARK 923 INTER-LIGAND FREE ENERGY PREDICTED BY IDOCK:   -5.37 KCAL/MOL
REMARK 924 INTRA-LIGAND FREE ENERGY PREDICTED BY IDOCK:    3.91 KCAL/MOL
REMARK 927      BINDING AFFINITY PREDICTED BY RF-SCORE:    0.00 PKD
ROOT
HETATM    1  C   UNL     1      -8.118   9.841  68.179  1.00  0.00    -0.108 C  
HETATM    2  C   UNL     1      -7.686  11.022  68.839  1.00  0.00    -0.140 C  
HETATM    3  C   UNL     1      -7.066   9.708  69.140  1.00  0.00    -0.062 C  
HETATM    4  C   UNL     1      -5.790  10.224  70.178  1.00  0.00    -0.064 C  
HETATM    5  C   UNL     1      -7.420   8.278  67.699  1.00  0.00    -0.094 C  
HETATM    6  C   UNL     1      -9.752   8.328  72.929  1.00  0.00    -0.310 C  
HETATM    7  C   UNL     1     -10.416   8.262  71.492  1.00  0.00    -0.289 C  
HETATM    8  C   UNL     1      -6.372   8.836  68.357  1.00  0.00    -0.055 C  
HETATM    9  C   UNL     1     -11.328   7.044  71.582  1.00  0.00    -0.288 C  
HETATM   10  C   UNL     1     -12.612   7.185  72.001  1.00  0.00    -0.253 C  
HETATM   11  C   UNL     1      -6.490   7.600  69.750  1.00  0.00    -0.031 C  
HETATM   12  O   UNL     1     -14.396   8.676  72.592  1.00  0.00    -0.533 OA 
HETATM   13  C   UNL     1      -5.136   9.367  67.568  1.00  0.00    -0.037 C  
HETATM   14  C   UNL     1     -13.216   8.541  72.301  1.00  0.00    -0.327 C  
HETATM   15  C   UNL     1     -12.274   9.715  72.275  1.00  0.00    -0.059 C  
HETATM   16  C   UNL     1     -11.387   9.453  71.293  1.00  0.00    -0.436 C  
HETATM   17  C   UNL     1      -8.057   7.307  70.362  1.00  0.00    -0.116 C  
HETATM   18  O   UNL     1      -8.590   6.153  69.700  1.00  0.00    -0.125 OA 
HETATM   19  F   UNL     1     -12.771  10.649  69.783  1.00  0.00    -0.354 F  
HETATM   20  C   UNL     1      -9.213   8.495  70.478  1.00  0.00    -0.156 C  
HETATM   21  C   UNL     1     -11.812   9.684  69.856  1.00  0.00     0.124 C  
HETATM   22  F   UNL     1      -8.672   9.588  71.192  1.00  0.00    -0.233 F  
HETATM   23  C   UNL     1     -10.631  10.149  69.030  1.00  0.00    -0.245 C  
HETATM   24  C   UNL     1      -9.506   9.104  68.999  1.00  0.00    -0.152 C  
HETATM   25  H   UNL     1      -9.462   5.990  70.040  1.00  0.00     0.000 HD 
ENDROOT
BRANCH   5  26
HETATM   26  C   UNL     1      -6.756   6.814  67.335  1.00  0.00    -0.067 C  
HETATM   27  O   UNL     1      -6.876   6.190  66.288  1.00  0.00    -0.058 OA 
BRANCH  26  28
HETATM   28  S   UNL     1      -5.900   6.037  68.689  1.00  0.00    -0.013 SA 
HETATM   29  F   UNL     1      -5.471   3.475  68.916  1.00  0.00    -0.011 F  
HETATM   30  C   UNL     1      -5.725   4.385  67.934  1.00  0.00    -0.021 C  
ENDBRANCH  26  28
ENDBRANCH   5  26
BRANCH   5  31
HETATM   31  O   UNL     1      -7.614   8.773  66.246  1.00  0.00    -0.089 OA 
BRANCH  31  32
HETATM   32  C   UNL     1      -8.583   8.462  65.330  1.00  0.00    -0.150 C  
HETATM   33  O   UNL     1      -9.372   7.542  65.437  1.00  0.00     0.272 OA 
BRANCH  32  34
HETATM   34  C   UNL     1      -8.602   9.408  64.239  1.00  0.00    -0.196 A  
HETATM   35  C   UNL     1      -7.532  10.000  63.585  1.00  0.00    -0.137 A  
HETATM   36  O   UNL     1      -9.772   9.848  63.677  1.00  0.00    -0.138 OA 
HETATM   37  C   UNL     1      -8.070  10.844  62.589  1.00  0.00    -0.120 A  
HETATM   38  C   UNL     1      -9.437  10.722  62.688  1.00  0.00    -0.300 A  
ENDBRANCH  32  34
ENDBRANCH  31  32
ENDBRANCH   5  31
TORSDOF 5
ENDMDL
MODEL      110
REMARK 921   NORMALIZED FREE ENERGY PREDICTED BY IDOCK:   -1.60 KCAL/MOL
REMARK 922        TOTAL FREE ENERGY PREDICTED BY IDOCK:   -1.37 KCAL/MOL
REMARK 923 INTER-LIGAND FREE ENERGY PREDICTED BY IDOCK:   -2.03 KCAL/MOL
REMARK 924 INTRA-LIGAND FREE ENERGY PREDICTED BY IDOCK:    0.66 KCAL/MOL
REMARK 927      BINDING AFFINITY PREDICTED BY RF-SCORE:    0.00 PKD
ROOT
HETATM    1  C   UNL     1      -8.998  14.710  68.853  1.00  0.00    -0.136 C  
HETATM    2  C   UNL     1      -8.083  13.627  68.935  1.00  0.00     0.093 C  
HETATM    3  C   UNL     1      -7.793  14.809  68.088  1.00  0.00    -0.125 C  
HETATM    4  C   UNL     1      -6.181  14.432  67.610  1.00  0.00    -0.098 C  
HETATM    5  C   UNL     1      -8.932  16.462  68.559  1.00  0.00    -0.224 C  
HETATM    6  C   UNL     1      -9.539  13.283  63.835  1.00  0.00     1.669 C  
HETATM    7  C   UNL     1     -10.582  13.699  64.953  1.00  0.00    -0.421 C  
HETATM    8  C   UNL     1      -7.626  16.125  68.400  1.00  0.00    -0.158 C  
HETATM    9  C   UNL     1     -11.729  14.307  64.154  1.00  0.00    -0.279 C  
HETATM   10  C   UNL     1     -12.745  13.520  63.715  1.00  0.00     0.056 C  
HETATM   11  C   UNL     1      -7.674  16.493  66.571  1.00  0.00    -0.323 C  
HETATM   12  O   UNL     1     -13.794  11.362  63.752  1.00  0.00     0.292 OA 
HETATM   13  C   UNL     1      -6.574  16.503  69.488  1.00  0.00    -0.217 C  
HETATM   14  C   UNL     1     -12.835  12.050  64.071  1.00  0.00    -0.236 C  
HETATM   15  C   UNL     1     -11.654  11.462  64.796  1.00  0.00     0.021 C  
HETATM   16  C   UNL     1     -11.198  12.438  65.609  1.00  0.00    -0.360 C  
HETATM   17  C   UNL     1      -9.013  15.869  65.715  1.00  0.00    -0.060 C  
HETATM   18  O   UNL     1     -10.014  16.893  65.638  1.00  0.00    -0.552 OA 
HETATM   19  F   UNL     1     -12.571  11.576  67.341  1.00  0.00     0.439 F  
HETATM   20  C   UNL     1      -9.708  14.405  66.079  1.00  0.00    -0.294 C  
HETATM   21  C   UNL     1     -11.940  12.702  66.905  1.00  0.00    -0.275 C  
HETATM   22  F   UNL     1      -8.703  13.412  66.083  1.00  0.00     0.001 F  
HETATM   23  C   UNL     1     -10.968  13.129  67.985  1.00  0.00    -0.270 C  
HETATM   24  C   UNL     1     -10.236  14.429  67.617  1.00  0.00    -0.229 C  
HETATM   25  H   UNL     1     -10.759  16.546  65.162  1.00  0.00     0.000 HD 
ENDROOT
BRANCH   5  26
HETATM   26  C   UNL     1      -8.835  18.070  68.210  1.00  0.00    -0.286 C  
HETATM   27  O   UNL     1      -9.588  18.715  67.492  1.00  0.00    -0.287 OA 
BRANCH  26  28
HETATM   28  S   UNL     1      -7.387  18.877  68.857  1.00  0.00    -0.284 SA 
HETATM   29  F   UNL     1      -6.292  21.020  67.851  1.00  0.00    -0.313 F  
HETATM   30  C   UNL     1      -7.505  20.400  67.858  1.00  0.00    -0.227 C  
ENDBRANCH  26  28
ENDBRANCH   5  26
BRANCH   5  31
HETATM   31  O   UNL     1      -9.393  16.606  70.029  1.00  0.00     0.605 OA 
BRANCH  31  32
HETATM   32  C   UNL     1     -10.578  17.060  70.541  1.00  0.00     0.760 C  
HETATM   33  O   UNL     1     -10.905  18.230  70.606  1.00  0.00     1.545 OA 
BRANCH  32  34
HETATM   34  C   UNL     1     -11.435  15.967  70.938  1.00  0.00    -0.409 A  
HETATM   35  C   UNL     1     -11.408  15.224  72.108  1.00  0.00    -0.414 A  
HETATM   36  O   UNL     1     -12.458  15.519  70.143  1.00  0.00    -0.387 OA 
HETATM   37  C   UNL     1     -12.452  14.277  72.022  1.00  0.00    -0.337 A  
HETATM   38  C   UNL     1     -13.059  14.492  70.806  1.00  0.00    -0.306 A  
ENDBRANCH  32  34
ENDBRANCH  31  32
ENDBRANCH   5  31
TORSDOF 5
ENDMDL
MODEL      111
REMARK 921   NORMALIZED FREE ENERGY PREDICTED BY IDOCK:   -1.57 KCAL/MOL
REMARK 922        TOTAL FREE ENERGY PREDICTED BY IDOCK:   -1.33 KCAL/MOL
REMARK 923 INTER-LIGAND FREE ENERGY PREDICTED BY IDOCK:   -2.46 KCAL/MOL
REMARK 924 INTRA-LIGAND FREE ENERGY PREDICTED BY IDOCK:    1.13 KCAL/MOL
REMARK 927      BINDING AFFINITY PREDICTED BY RF-SCORE:    0.00 PKD
ROOT
HETATM    1  C   UNL     1      -9.381  10.503  68.728  1.00  0.00    -0.181 C  
HETATM    2  C   UNL     1     -10.608  10.258  69.399  1.00  0.00    -0.262 C  
HETATM    3  C   UNL     1     -10.239   9.497  68.181  1.00  0.00    -0.231 C  
HETATM    4  C   UNL     1     -11.527   8.353  68.156  1.00  0.00     1.212 C  
HETATM    5  C   UNL     1      -8.230   9.591  67.725  1.00  0.00    -0.114 C  
HETATM    6  C   UNL     1     -12.400  12.190  64.783  1.00  0.00    -0.310 C  
HETATM    7  C   UNL     1     -11.080  12.762  65.448  1.00  0.00    -0.317 C  
HETATM    8  C   UNL     1      -9.197   8.658  67.921  1.00  0.00    -0.148 C  
HETATM    9  C   UNL     1     -10.412  13.518  64.306  1.00  0.00    -0.258 C  
HETATM   10  C   UNL     1     -10.695  14.830  64.101  1.00  0.00     0.692 C  
HETATM   11  C   UNL     1      -9.705   8.696  66.126  1.00  0.00    -0.292 C  
HETATM   12  O   UNL     1     -11.779  16.816  64.902  1.00  0.00     0.080 OA 
HETATM   13  C   UNL     1      -8.951   7.457  68.885  1.00  0.00    -0.130 C  
HETATM   14  C   UNL     1     -11.595  15.615  65.034  1.00  0.00    -0.079 C  
HETATM   15  C   UNL     1     -12.298  14.826  66.106  1.00  0.00     0.037 C  
HETATM   16  C   UNL     1     -11.432  13.862  66.481  1.00  0.00    -0.361 C  
HETATM   17  C   UNL     1      -9.890  10.244  65.431  1.00  0.00    -0.296 C  
HETATM   18  O   UNL     1      -8.663  10.594  64.776  1.00  0.00    -0.184 OA 
HETATM   19  F   UNL     1     -10.636  15.300  68.191  1.00  0.00    -0.237 F  
HETATM   20  C   UNL     1     -10.485  11.544  66.280  1.00  0.00    -0.251 C  
HETATM   21  C   UNL     1     -10.296  14.234  67.414  1.00  0.00    -0.259 C  
HETATM   22  F   UNL     1     -11.723  11.183  66.856  1.00  0.00    -0.281 F  
HETATM   23  C   UNL     1      -9.978  13.077  68.338  1.00  0.00    -0.216 C  
HETATM   24  C   UNL     1      -9.527  11.830  67.562  1.00  0.00    -0.174 C  
HETATM   25  H   UNL     1      -8.766  11.455  64.390  1.00  0.00     0.000 HD 
ENDROOT
BRANCH   5  26
HETATM   26  C   UNL     1      -7.227   8.731  66.740  1.00  0.00    -0.082 C  
HETATM   27  O   UNL     1      -6.524   9.171  65.839  1.00  0.00    -0.060 OA 
BRANCH  26  28
HETATM   28  S   UNL     1      -7.316   6.967  66.958  1.00  0.00    -0.087 SA 
HETATM   29  F   UNL     1      -5.431   5.283  66.321  1.00  0.00    -0.011 F  
HETATM   30  C   UNL     1      -5.559   6.604  66.627  1.00  0.00    -0.014 C  
ENDBRANCH  26  28
ENDBRANCH   5  26
BRANCH   5  31
HETATM   31  O   UNL     1      -7.246   9.767  68.906  1.00  0.00    -0.069 OA 
BRANCH  31  32
HETATM   32  C   UNL     1      -6.191  10.626  69.054  1.00  0.00    -0.045 C  
HETATM   33  O   UNL     1      -5.639  11.214  68.143  1.00  0.00    -0.043 OA 
BRANCH  32  34
HETATM   34  C   UNL     1      -5.850  10.808  70.446  1.00  0.00    -0.118 A  
HETATM   35  C   UNL     1      -5.668   9.847  71.428  1.00  0.00    -0.030 A  
HETATM   36  O   UNL     1      -5.639  12.050  70.987  1.00  0.00    -0.304 OA 
HETATM   37  C   UNL     1      -5.341  10.528  72.621  1.00  0.00     0.405 A  
HETATM   38  C   UNL     1      -5.341  11.867  72.303  1.00  0.00     0.556 A  
ENDBRANCH  32  34
ENDBRANCH  31  32
ENDBRANCH   5  31
TORSDOF 5
ENDMDL
MODEL      112
REMARK 921   NORMALIZED FREE ENERGY PREDICTED BY IDOCK:   -1.12 KCAL/MOL
REMARK 922        TOTAL FREE ENERGY PREDICTED BY IDOCK:   -0.75 KCAL/MOL
REMARK 923 INTER-LIGAND FREE ENERGY PREDICTED BY IDOCK:   -3.66 KCAL/MOL
REMARK 924 INTRA-LIGAND FREE ENERGY PREDICTED BY IDOCK:    2.91 KCAL/MOL
REMARK 927      BINDING AFFINITY PREDICTED BY RF-SCORE:    0.00 PKD
ROOT
HETATM    1  C   UNL     1      -8.330  15.537  67.627  1.00  0.00    -0.167 C  
HETATM    2  C   UNL     1      -7.550  16.152  66.612  1.00  0.00    -0.238 C  
HETATM    3  C   UNL     1      -8.732  16.838  67.187  1.00  0.00    -0.218 C  
HETATM    4  C   UNL     1      -8.573  18.374  66.422  1.00  0.00    -0.264 C  
HETATM    5  C   UNL     1      -9.347  16.052  68.991  1.00  0.00    -0.239 C  
HETATM    6  C   UNL     1     -12.145  15.483  64.027  1.00  0.00     0.058 C  
HETATM    7  C   UNL     1     -11.629  14.401  65.063  1.00  0.00    -0.374 C  
HETATM    8  C   UNL     1      -9.008  17.253  68.455  1.00  0.00    -0.273 C  
HETATM    9  C   UNL     1     -12.872  13.567  65.349  1.00  0.00    -0.420 C  
HETATM   10  C   UNL     1     -13.152  12.479  64.585  1.00  0.00     0.021 C  
HETATM   11  C   UNL     1     -10.756  17.582  67.892  1.00  0.00    -0.340 C  
HETATM   12  O   UNL     1     -12.422  10.967  62.871  1.00  0.00     0.608 OA 
HETATM   13  C   UNL     1      -7.978  18.177  69.175  1.00  0.00     0.032 C  
HETATM   14  C   UNL     1     -12.214  11.996  63.499  1.00  0.00    -0.547 C  
HETATM   15  C   UNL     1     -11.035  12.879  63.190  1.00  0.00     0.419 C  
HETATM   16  C   UNL     1     -10.657  13.413  64.370  1.00  0.00    -0.423 C  
HETATM   17  C   UNL     1     -11.549  16.288  67.109  1.00  0.00     0.534 C  
HETATM   18  O   UNL     1     -12.321  15.575  68.086  1.00  0.00    -0.351 OA 
HETATM   19  F   UNL     1      -9.126  11.622  64.641  1.00  0.00    -0.108 F  
HETATM   20  C   UNL     1     -10.757  15.224  66.108  1.00  0.00    -0.320 C  
HETATM   21  C   UNL     1      -9.844  12.557  65.322  1.00  0.00    -0.139 C  
HETATM   22  F   UNL     1     -10.061  15.959  65.122  1.00  0.00    -0.353 F  
HETATM   23  C   UNL     1      -8.864  13.418  66.091  1.00  0.00     0.367 C  
HETATM   24  C   UNL     1      -9.576  14.479  66.943  1.00  0.00    -0.258 C  
HETATM   25  H   UNL     1     -12.761  14.856  67.651  1.00  0.00     0.000 HD 
ENDROOT
BRANCH   5  26
HETATM   26  C   UNL     1     -10.339  16.572  70.200  1.00  0.00     0.172 C  
HETATM   27  O   UNL     1     -10.557  17.732  70.526  1.00  0.00     0.868 OA 
BRANCH  26  28
HETATM   28  S   UNL     1     -11.030  15.269  71.196  1.00  0.00    -0.065 SA 
HETATM   29  F   UNL     1     -12.194  15.608  73.505  1.00  0.00    -0.465 F  
HETATM   30  C   UNL     1     -11.914  16.333  72.386  1.00  0.00    -0.540 C  
ENDBRANCH  26  28
ENDBRANCH   5  26
BRANCH   5  31
HETATM   31  O   UNL     1      -8.261  15.410  69.887  1.00  0.00    -0.131 OA 
BRANCH  31  32
HETATM   32  C   UNL     1      -6.905  15.339  69.716  1.00  0.00    -0.172 C  
HETATM   33  O   UNL     1      -6.124  16.237  69.968  1.00  0.00    -0.198 OA 
BRANCH  32  34
HETATM   34  C   UNL     1      -6.499  14.031  69.259  1.00  0.00    -0.114 A  
HETATM   35  C   UNL     1      -7.159  12.819  69.397  1.00  0.00     0.186 A  
HETATM   36  O   UNL     1      -5.330  13.831  68.572  1.00  0.00    -0.082 OA 
HETATM   37  C   UNL     1      -6.356  11.836  68.777  1.00  0.00    -0.061 A  
HETATM   38  C   UNL     1      -5.252  12.499  68.295  1.00  0.00    -0.062 A  
ENDBRANCH  32  34
ENDBRANCH  31  32
ENDBRANCH   5  31
TORSDOF 5
ENDMDL
MODEL      113
REMARK 921   NORMALIZED FREE ENERGY PREDICTED BY IDOCK:   -1.02 KCAL/MOL
REMARK 922        TOTAL FREE ENERGY PREDICTED BY IDOCK:   -0.61 KCAL/MOL
REMARK 923 INTER-LIGAND FREE ENERGY PREDICTED BY IDOCK:   -2.62 KCAL/MOL
REMARK 924 INTRA-LIGAND FREE ENERGY PREDICTED BY IDOCK:    2.00 KCAL/MOL
REMARK 927      BINDING AFFINITY PREDICTED BY RF-SCORE:    0.00 PKD
ROOT
HETATM    1  C   UNL     1      -8.335   6.801  69.518  1.00  0.00    -0.132 C  
HETATM    2  C   UNL     1      -8.761   6.965  70.864  1.00  0.00    -0.141 C  
HETATM    3  C   UNL     1      -9.730   7.034  69.743  1.00  0.00    -0.168 C  
HETATM    4  C   UNL     1     -11.199   7.128  70.639  1.00  0.00    -0.311 C  
HETATM    5  C   UNL     1      -9.024   6.211  67.989  1.00  0.00    -0.113 C  
HETATM    6  C   UNL     1      -9.780  11.809  68.928  1.00  0.00     0.005 C  
HETATM    7  C   UNL     1      -8.507  10.994  68.453  1.00  0.00    -0.144 C  
HETATM    8  C   UNL     1     -10.100   6.111  68.811  1.00  0.00    -0.205 C  
HETATM    9  C   UNL     1      -8.081  11.717  67.181  1.00  0.00    -0.169 C  
HETATM   10  C   UNL     1      -7.204  12.752  67.249  1.00  0.00    -0.088 C  
HETATM   11  C   UNL     1     -11.004   7.478  67.920  1.00  0.00    -0.027 C  
HETATM   12  O   UNL     1      -5.691  14.039  68.595  1.00  0.00    -0.079 OA 
HETATM   13  C   UNL     1     -10.593   4.715  69.303  1.00  0.00     0.577 C  
HETATM   14  C   UNL     1      -6.547  13.167  68.548  1.00  0.00    -0.088 C  
HETATM   15  C   UNL     1      -7.041  12.486  69.796  1.00  0.00     0.520 C  
HETATM   16  C   UNL     1      -7.329  11.218  69.434  1.00  0.00    -0.027 C  
HETATM   17  C   UNL     1     -10.093   8.880  67.575  1.00  0.00    -0.227 C  
HETATM   18  O   UNL     1      -9.577   8.766  66.242  1.00  0.00    -0.223 OA 
HETATM   19  F   UNL     1      -5.133  10.584  70.070  1.00  0.00    -0.037 F  
HETATM   20  C   UNL     1      -8.925   9.466  68.602  1.00  0.00    -0.132 C  
HETATM   21  C   UNL     1      -6.184  10.235  69.277  1.00  0.00    -0.045 C  
HETATM   22  F   UNL     1      -9.488   9.627  69.888  1.00  0.00    -0.180 F  
HETATM   23  C   UNL     1      -6.627   8.847  69.689  1.00  0.00    -0.043 C  
HETATM   24  C   UNL     1      -7.781   8.330  68.816  1.00  0.00    -0.114 C  
HETATM   25  H   UNL     1      -9.070   9.546  66.051  1.00  0.00     0.000 HD 
ENDROOT
BRANCH   5  26
HETATM   26  C   UNL     1      -9.722   5.723  66.578  1.00  0.00    -0.159 C  
HETATM   27  O   UNL     1     -10.903   5.454  66.395  1.00  0.00    -0.284 OA 
BRANCH  26  28
HETATM   28  S   UNL     1      -8.574   5.439  65.249  1.00  0.00    -0.143 SA 
HETATM   29  F   UNL     1      -7.267   7.302  63.976  1.00  0.00    -0.059 F  
HETATM   30  C   UNL     1      -7.877   7.124  65.181  1.00  0.00    -0.124 C  
ENDBRANCH  26  28
ENDBRANCH   5  26
BRANCH   5  31
HETATM   31  O   UNL     1      -8.002   5.056  68.113  1.00  0.00    -0.086 OA 
BRANCH  31  32
HETATM   32  C   UNL     1      -6.685   5.000  67.744  1.00  0.00    -0.055 C  
HETATM   33  O   UNL     1      -6.012   5.961  67.419  1.00  0.00    -0.016 OA 
BRANCH  32  34
HETATM   34  C   UNL     1      -6.162   3.658  67.852  1.00  0.00    -0.033 A  
HETATM   35  C   UNL     1      -6.237   2.781  68.923  1.00  0.00    -0.029 A  
HETATM   36  O   UNL     1      -5.494   3.052  66.820  1.00  0.00    -0.018 OA 
HETATM   37  C   UNL     1      -5.580   1.594  68.535  1.00  0.00    -0.018 A  
HETATM   38  C   UNL     1      -5.139   1.809  67.249  1.00  0.00    -0.005 A  
ENDBRANCH  32  34
ENDBRANCH  31  32
ENDBRANCH   5  31
TORSDOF 5
ENDMDL
MODEL      114
REMARK 921   NORMALIZED FREE ENERGY PREDICTED BY IDOCK:   -0.94 KCAL/MOL
REMARK 922        TOTAL FREE ENERGY PREDICTED BY IDOCK:   -0.52 KCAL/MOL
REMARK 923 INTER-LIGAND FREE ENERGY PREDICTED BY IDOCK:   -2.80 KCAL/MOL
REMARK 924 INTRA-LIGAND FREE ENERGY PREDICTED BY IDOCK:    2.28 KCAL/MOL
REMARK 927      BINDING AFFINITY PREDICTED BY RF-SCORE:    0.00 PKD
ROOT
HETATM    1  C   UNL     1      -9.179   7.201  67.557  1.00  0.00    -0.131 C  
HETATM    2  C   UNL     1      -9.885   8.431  67.642  1.00  0.00    -0.222 C  
HETATM    3  C   UNL     1      -8.426   8.369  67.901  1.00  0.00    -0.131 C  
HETATM    4  C   UNL     1      -8.090  10.052  68.055  1.00  0.00    -0.112 C  
HETATM    5  C   UNL     1      -7.530   6.661  67.173  1.00  0.00    -0.088 C  
HETATM    6  C   UNL     1      -8.422   7.805  72.713  1.00  0.00    -0.196 C  
HETATM    7  C   UNL     1      -8.836   6.559  71.826  1.00  0.00    -0.138 C  
HETATM    8  C   UNL     1      -7.381   8.009  67.104  1.00  0.00    -0.091 C  
HETATM    9  C   UNL     1      -8.299   5.371  72.615  1.00  0.00    -0.114 C  
HETATM   10  C   UNL     1      -9.077   4.769  73.551  1.00  0.00    -0.113 C  
HETATM   11  C   UNL     1      -6.300   8.045  68.625  1.00  0.00    -0.052 C  
HETATM   12  O   UNL     1     -11.244   4.578  74.564  1.00  0.00    -0.059 OA 
HETATM   13  C   UNL     1      -7.222   8.717  65.724  1.00  0.00    -0.080 C  
HETATM   14  C   UNL     1     -10.516   5.177  73.785  1.00  0.00    -0.261 C  
HETATM   15  C   UNL     1     -10.995   6.398  73.046  1.00  0.00    -0.269 C  
HETATM   16  C   UNL     1     -10.374   6.371  71.849  1.00  0.00    -0.228 C  
HETATM   17  C   UNL     1      -6.851   7.133  69.959  1.00  0.00    -0.056 C  
HETATM   18  O   UNL     1      -6.223   5.844  69.914  1.00  0.00    -0.025 OA 
HETATM   19  F   UNL     1     -12.241   5.213  70.955  1.00  0.00     1.281 F  
HETATM   20  C   UNL     1      -8.462   6.979  70.338  1.00  0.00    -0.141 C  
HETATM   21  C   UNL     1     -10.909   5.438  70.779  1.00  0.00    -0.120 C  
HETATM   22  F   UNL     1      -9.031   8.269  70.436  1.00  0.00    -0.136 F  
HETATM   23  C   UNL     1     -10.726   6.055  69.409  1.00  0.00    -0.403 C  
HETATM   24  C   UNL     1      -9.246   6.303  69.083  1.00  0.00    -0.128 C  
HETATM   25  H   UNL     1      -6.529   5.337  70.656  1.00  0.00     0.000 HD 
ENDROOT
BRANCH   5  26
HETATM   26  C   UNL     1      -5.972   6.207  66.881  1.00  0.00    -0.021 C  
HETATM   27  O   UNL     1      -5.230   5.593  67.638  1.00  0.00    -0.004 OA 
BRANCH  26  28
HETATM   28  S   UNL     1      -5.302   6.819  65.351  1.00  0.00    -0.027 SA 
HETATM   29  F   UNL     1      -5.246   5.493  63.106  1.00  0.00    -0.012 F  
HETATM   30  C   UNL     1      -5.953   5.500  64.270  1.00  0.00    -0.022 C  
ENDBRANCH  26  28
ENDBRANCH   5  26
BRANCH   5  31
HETATM   31  O   UNL     1      -8.163   6.011  65.920  1.00  0.00    -0.117 OA 
BRANCH  31  32
HETATM   32  C   UNL     1      -9.133   5.050  65.819  1.00  0.00    -0.154 C  
HETATM   33  O   UNL     1     -10.316   5.271  65.642  1.00  0.00    -0.015 OA 
BRANCH  32  34
HETATM   34  C   UNL     1      -8.568   3.722  65.880  1.00  0.00    -0.113 A  
HETATM   35  C   UNL     1      -8.388   2.807  64.854  1.00  0.00    -0.088 A  
HETATM   36  O   UNL     1      -8.099   3.184  67.050  1.00  0.00    -0.078 OA 
HETATM   37  C   UNL     1      -7.793   1.659  65.421  1.00  0.00    -0.072 A  
HETATM   38  C   UNL     1      -7.642   1.934  66.760  1.00  0.00    -0.065 A  
ENDBRANCH  32  34
ENDBRANCH  31  32
ENDBRANCH   5  31
TORSDOF 5
ENDMDL
MODEL      115
REMARK 921   NORMALIZED FREE ENERGY PREDICTED BY IDOCK:   -0.87 KCAL/MOL
REMARK 922        TOTAL FREE ENERGY PREDICTED BY IDOCK:   -0.43 KCAL/MOL
REMARK 923 INTER-LIGAND FREE ENERGY PREDICTED BY IDOCK:   -2.07 KCAL/MOL
REMARK 924 INTRA-LIGAND FREE ENERGY PREDICTED BY IDOCK:    1.64 KCAL/MOL
REMARK 927      BINDING AFFINITY PREDICTED BY RF-SCORE:    0.00 PKD
ROOT
HETATM    1  C   UNL     1      -8.539  13.874  66.931  1.00  0.00    -0.138 C  
HETATM    2  C   UNL     1      -7.219  13.351  66.902  1.00  0.00     0.630 C  
HETATM    3  C   UNL     1      -7.996  13.392  68.164  1.00  0.00    -0.150 C  
HETATM    4  C   UNL     1      -6.919  12.524  69.192  1.00  0.00    -0.025 C  
HETATM    5  C   UNL     1     -10.024  13.632  67.879  1.00  0.00    -0.244 C  
HETATM    6  C   UNL     1      -6.498  17.630  69.971  1.00  0.00     0.203 C  
HETATM    7  C   UNL     1      -7.506  17.665  68.750  1.00  0.00    -0.255 C  
HETATM    8  C   UNL     1      -9.168  12.797  68.524  1.00  0.00    -0.062 C  
HETATM    9  C   UNL     1      -8.354  18.900  69.029  1.00  0.00    -0.180 C  
HETATM   10  C   UNL     1      -7.969  20.111  68.550  1.00  0.00    -0.031 C  
HETATM   11  C   UNL     1      -9.159  13.864  70.054  1.00  0.00     2.107 C  
HETATM   12  O   UNL     1      -6.465  21.349  67.149  1.00  0.00    -0.485 OA 
HETATM   13  C   UNL     1      -9.298  11.251  68.359  1.00  0.00    -0.181 C  
HETATM   14  C   UNL     1      -6.760  20.275  67.653  1.00  0.00    -0.264 C  
HETATM   15  C   UNL     1      -5.902  19.054  67.456  1.00  0.00    -0.176 C  
HETATM   16  C   UNL     1      -6.752  18.006  67.440  1.00  0.00    -0.194 C  
HETATM   17  C   UNL     1      -8.970  15.541  69.799  1.00  0.00    -0.033 C  
HETATM   18  O   UNL     1     -10.272  16.141  69.759  1.00  0.00    -0.260 OA 
HETATM   19  F   UNL     1      -6.868  18.192  65.078  1.00  0.00    -0.159 F  
HETATM   20  C   UNL     1      -8.008  16.163  68.595  1.00  0.00    -0.201 C  
HETATM   21  C   UNL     1      -7.539  17.734  66.172  1.00  0.00    -0.267 C  
HETATM   22  F   UNL     1      -6.717  15.599  68.707  1.00  0.00    -0.106 F  
HETATM   23  C   UNL     1      -7.743  16.245  65.993  1.00  0.00     0.423 C  
HETATM   24  C   UNL     1      -8.542  15.632  67.154  1.00  0.00    -0.235 C  
HETATM   25  H   UNL     1     -10.167  17.073  69.617  1.00  0.00     0.000 HD 
ENDROOT
BRANCH   5  26
HETATM   26  C   UNL     1     -11.356  13.430  68.827  1.00  0.00    -0.292 C  
HETATM   27  O   UNL     1     -12.124  14.302  69.216  1.00  0.00    -0.325 OA 
BRANCH  26  28
HETATM   28  S   UNL     1     -11.580  11.773  69.439  1.00  0.00    -0.342 SA 
HETATM   29  F   UNL     1     -12.538  11.161  71.786  1.00  0.00    -0.437 F  
HETATM   30  C   UNL     1     -12.575  12.202  70.907  1.00  0.00    -0.247 C  
ENDBRANCH  26  28
ENDBRANCH   5  26
BRANCH   5  31
HETATM   31  O   UNL     1     -10.624  13.065  66.571  1.00  0.00    -0.277 OA 
BRANCH  31  32
HETATM   32  C   UNL     1     -11.507  13.627  65.689  1.00  0.00    -0.308 C  
HETATM   33  O   UNL     1     -12.321  13.009  65.029  1.00  0.00    -0.422 OA 
BRANCH  32  34
HETATM   34  C   UNL     1     -11.404  15.068  65.685  1.00  0.00    -0.297 A  
HETATM   35  C   UNL     1     -11.119  15.915  64.625  1.00  0.00    -0.368 A  
HETATM   36  O   UNL     1     -11.606  15.815  66.816  1.00  0.00     0.080 OA 
HETATM   37  C   UNL     1     -11.139  17.233  65.130  1.00  0.00     0.256 A  
HETATM   38  C   UNL     1     -11.434  17.121  66.469  1.00  0.00     1.195 A  
ENDBRANCH  32  34
ENDBRANCH  31  32
ENDBRANCH   5  31
TORSDOF 5
ENDMDL
MODEL      116
REMARK 921   NORMALIZED FREE ENERGY PREDICTED BY IDOCK:   -0.83 KCAL/MOL
REMARK 922        TOTAL FREE ENERGY PREDICTED BY IDOCK:   -0.38 KCAL/MOL
REMARK 923 INTER-LIGAND FREE ENERGY PREDICTED BY IDOCK:   -3.75 KCAL/MOL
REMARK 924 INTRA-LIGAND FREE ENERGY PREDICTED BY IDOCK:    3.38 KCAL/MOL
REMARK 927      BINDING AFFINITY PREDICTED BY RF-SCORE:    0.00 PKD
ROOT
HETATM    1  C   UNL     1      -8.188  10.961  66.167  1.00  0.00    -0.168 C  
HETATM    2  C   UNL     1      -6.896  11.368  65.738  1.00  0.00     0.469 C  
HETATM    3  C   UNL     1      -7.150  10.995  67.151  1.00  0.00    -0.104 C  
HETATM    4  C   UNL     1      -5.536  11.045  67.755  1.00  0.00    -0.039 C  
HETATM    5  C   UNL     1      -8.881   9.909  67.421  1.00  0.00    -0.132 C  
HETATM    6  C   UNL     1      -8.121  15.349  69.041  1.00  0.00    -0.213 C  
HETATM    7  C   UNL     1      -9.229  14.678  68.129  1.00  0.00    -0.192 C  
HETATM    8  C   UNL     1      -7.558   9.825  67.717  1.00  0.00    -0.090 C  
HETATM    9  C   UNL     1     -10.535  15.136  68.768  1.00  0.00    -0.234 C  
HETATM   10  C   UNL     1     -11.120  16.293  68.364  1.00  0.00    -0.362 C  
HETATM   11  C   UNL     1      -7.779  10.758  69.318  1.00  0.00    -0.129 C  
HETATM   12  O   UNL     1     -11.145  18.109  66.797  1.00  0.00     0.018 OA 
HETATM   13  C   UNL     1      -6.758   8.525  67.397  1.00  0.00    -0.063 C  
HETATM   14  C   UNL     1     -10.569  17.117  67.219  1.00  0.00    -0.270 C  
HETATM   15  C   UNL     1      -9.242  16.681  66.658  1.00  0.00    -0.277 C  
HETATM   16  C   UNL     1      -9.239  15.333  66.725  1.00  0.00    -0.274 C  
HETATM   17  C   UNL     1      -8.732  12.172  69.238  1.00  0.00     0.832 C  
HETATM   18  O   UNL     1     -10.076  11.832  69.604  1.00  0.00    -0.161 OA 
HETATM   19  F   UNL     1     -10.092  15.264  64.513  1.00  0.00    -0.231 F  
HETATM   20  C   UNL     1      -8.729  13.182  67.918  1.00  0.00    -0.192 C  
HETATM   21  C   UNL     1     -10.008  14.556  65.674  1.00  0.00    -0.347 C  
HETATM   22  F   UNL     1      -7.395  13.548  67.627  1.00  0.00    -0.116 F  
HETATM   23  C   UNL     1      -9.301  13.253  65.366  1.00  0.00     0.399 C  
HETATM   24  C   UNL     1      -9.200  12.349  66.604  1.00  0.00    -0.218 C  
HETATM   25  H   UNL     1     -10.605  12.618  69.559  1.00  0.00     0.000 HD 
ENDROOT
BRANCH   5  26
HETATM   26  C   UNL     1      -9.486   8.982  68.642  1.00  0.00    -0.147 C  
HETATM   27  O   UNL     1      -8.885   8.132  69.289  1.00  0.00    -0.142 OA 
BRANCH  26  28
HETATM   28  S   UNL     1     -11.233   9.175  68.917  1.00  0.00     0.374 SA 
HETATM   29  F   UNL     1     -12.342   9.646  71.229  1.00  0.00    -0.339 F  
HETATM   30  C   UNL     1     -11.131   9.804  70.627  1.00  0.00    -0.332 C  
ENDBRANCH  26  28
ENDBRANCH   5  26
BRANCH   5  31
HETATM   31  O   UNL     1      -9.343   9.014  66.246  1.00  0.00    -0.188 OA 
BRANCH  31  32
HETATM   32  C   UNL     1      -8.706   7.972  65.629  1.00  0.00    -0.125 C  
HETATM   33  O   UNL     1      -8.614   6.846  66.082  1.00  0.00    -0.132 OA 
BRANCH  32  34
HETATM   34  C   UNL     1      -8.208   8.353  64.328  1.00  0.00    -0.127 A  
HETATM   35  C   UNL     1      -8.669   9.347  63.479  1.00  0.00    -0.221 A  
HETATM   36  O   UNL     1      -7.131   7.732  63.751  1.00  0.00    -0.067 OA 
HETATM   37  C   UNL     1      -7.846   9.328  62.332  1.00  0.00    -0.123 A  
HETATM   38  C   UNL     1      -6.929   8.325  62.541  1.00  0.00    -0.090 A  
ENDBRANCH  32  34
ENDBRANCH  31  32
ENDBRANCH   5  31
TORSDOF 5
ENDMDL
MODEL      117
REMARK 921   NORMALIZED FREE ENERGY PREDICTED BY IDOCK:   -0.69 KCAL/MOL
REMARK 922        TOTAL FREE ENERGY PREDICTED BY IDOCK:   -0.18 KCAL/MOL
REMARK 923 INTER-LIGAND FREE ENERGY PREDICTED BY IDOCK:   -1.06 KCAL/MOL
REMARK 924 INTRA-LIGAND FREE ENERGY PREDICTED BY IDOCK:    0.88 KCAL/MOL
REMARK 927      BINDING AFFINITY PREDICTED BY RF-SCORE:    0.00 PKD
ROOT
HETATM    1  C   UNL     1      -8.518   9.596  66.724  1.00  0.00    -0.129 C  
HETATM    2  C   UNL     1      -9.396   9.094  65.727  1.00  0.00    -0.309 C  
HETATM    3  C   UNL     1      -9.542  10.475  66.248  1.00  0.00    -0.232 C  
HETATM    4  C   UNL     1     -10.766  11.056  65.183  1.00  0.00    -0.253 C  
HETATM    5  C   UNL     1      -7.864  11.173  67.221  1.00  0.00    -0.137 C  
HETATM    6  C   UNL     1     -12.787   9.738  69.769  1.00  0.00     0.948 C  
HETATM    7  C   UNL     1     -11.301   9.251  70.023  1.00  0.00    -0.137 C  
HETATM    8  C   UNL     1      -8.700  11.546  66.218  1.00  0.00    -0.159 C  
HETATM    9  C   UNL     1     -11.107   9.476  71.518  1.00  0.00    -0.406 C  
HETATM   10  C   UNL     1     -11.419   8.492  72.400  1.00  0.00    -0.419 C  
HETATM   11  C   UNL     1      -9.860  12.403  67.401  1.00  0.00    -0.199 C  
HETATM   12  O   UNL     1     -12.066   6.206  72.737  1.00  0.00    -0.040 OA 
HETATM   13  C   UNL     1      -8.128  12.003  64.840  1.00  0.00     2.106 C  
HETATM   14  C   UNL     1     -11.872   7.119  71.948  1.00  0.00    -0.300 C  
HETATM   15  C   UNL     1     -12.124   6.949  70.474  1.00  0.00    -0.315 C  
HETATM   16  C   UNL     1     -11.202   7.714  69.852  1.00  0.00    -0.097 C  
HETATM   17  C   UNL     1     -10.265  11.536  68.815  1.00  0.00    -0.192 C  
HETATM   18  O   UNL     1      -9.378  11.948  69.865  1.00  0.00     1.063 OA 
HETATM   19  F   UNL     1      -9.777   5.822  69.731  1.00  0.00    -0.164 F  
HETATM   20  C   UNL     1     -10.457   9.886  68.833  1.00  0.00    -0.211 C  
HETATM   21  C   UNL     1      -9.786   7.184  69.733  1.00  0.00    -0.173 C  
HETATM   22  F   UNL     1     -11.385   9.525  67.830  1.00  0.00    -0.218 F  
HETATM   23  C   UNL     1      -9.162   7.648  68.434  1.00  0.00    -0.140 C  
HETATM   24  C   UNL     1      -9.073   9.179  68.354  1.00  0.00    -0.132 C  
HETATM   25  H   UNL     1      -9.603  11.466  70.651  1.00  0.00     0.000 HD 
ENDROOT
BRANCH   5  26
HETATM   26  C   UNL     1      -7.337  12.661  67.693  1.00  0.00    -0.139 C  
HETATM   27  O   UNL     1      -7.501  13.722  67.105  1.00  0.00    -0.092 OA 
BRANCH  26  28
HETATM   28  S   UNL     1      -6.306  12.650  69.144  1.00  0.00    -0.104 SA 
HETATM   29  F   UNL     1      -5.906  14.695  70.712  1.00  0.00    -0.140 F  
HETATM   30  C   UNL     1      -6.838  14.261  69.817  1.00  0.00    -0.053 C  
ENDBRANCH  26  28
ENDBRANCH   5  26
BRANCH   5  31
HETATM   31  O   UNL     1      -6.496  10.618  66.754  1.00  0.00    -0.073 OA 
BRANCH  31  32
HETATM   32  C   UNL     1      -5.695   9.661  67.317  1.00  0.00    -0.044 C  
HETATM   33  O   UNL     1      -5.172   9.748  68.413  1.00  0.00    -0.034 OA 
BRANCH  32  34
HETATM   34  C   UNL     1      -5.597   8.492  66.475  1.00  0.00    -0.039 A  
HETATM   35  C   UNL     1      -5.277   8.417  65.128  1.00  0.00    -0.035 A  
HETATM   36  O   UNL     1      -5.812   7.228  66.958  1.00  0.00    -0.025 OA 
HETATM   37  C   UNL     1      -5.308   7.052  64.769  1.00  0.00    -0.028 A  
HETATM   38  C   UNL     1      -5.643   6.367  65.915  1.00  0.00    -0.017 A  
ENDBRANCH  32  34
ENDBRANCH  31  32
ENDBRANCH   5  31
TORSDOF 5
ENDMDL
MODEL      118
REMARK 921   NORMALIZED FREE ENERGY PREDICTED BY IDOCK:   -0.67 KCAL/MOL
REMARK 922        TOTAL FREE ENERGY PREDICTED BY IDOCK:   -0.16 KCAL/MOL
REMARK 923 INTER-LIGAND FREE ENERGY PREDICTED BY IDOCK:   -4.37 KCAL/MOL
REMARK 924 INTRA-LIGAND FREE ENERGY PREDICTED BY IDOCK:    4.21 KCAL/MOL
REMARK 927      BINDING AFFINITY PREDICTED BY RF-SCORE:    0.00 PKD
ROOT
HETATM    1  C   UNL     1      -8.932  13.404  68.457  1.00  0.00    -0.071 C  
HETATM    2  C   UNL     1      -9.623  13.530  69.691  1.00  0.00     1.343 C  
HETATM    3  C   UNL     1     -10.298  13.827  68.404  1.00  0.00    -0.247 C  
HETATM    4  C   UNL     1     -11.906  14.076  68.973  1.00  0.00    -0.391 C  
HETATM    5  C   UNL     1      -9.330  13.039  66.763  1.00  0.00    -0.244 C  
HETATM    6  C   UNL     1      -9.538  18.602  68.105  1.00  0.00    -0.364 C  
HETATM    7  C   UNL     1      -8.308  17.642  67.827  1.00  0.00    -0.226 C  
HETATM    8  C   UNL     1     -10.568  13.043  67.323  1.00  0.00    -0.247 C  
HETATM    9  C   UNL     1      -7.516  18.385  66.758  1.00  0.00    -0.240 C  
HETATM   10  C   UNL     1      -6.549  19.267  67.119  1.00  0.00    -0.201 C  
HETATM   11  C   UNL     1     -11.061  14.593  66.409  1.00  0.00    -0.334 C  
HETATM   12  O   UNL     1      -5.223  20.208  68.883  1.00  0.00    -0.186 OA 
HETATM   13  C   UNL     1     -11.336  11.705  67.550  1.00  0.00    -0.364 C  
HETATM   14  C   UNL     1      -6.152  19.481  68.565  1.00  0.00    -0.232 C  
HETATM   15  C   UNL     1      -7.000  18.792  69.600  1.00  0.00     0.006 C  
HETATM   16  C   UNL     1      -7.362  17.612  69.054  1.00  0.00    -0.194 C  
HETATM   17  C   UNL     1      -9.920  15.863  66.416  1.00  0.00    -0.287 C  
HETATM   18  O   UNL     1      -9.136  15.771  65.218  1.00  0.00    -0.151 OA 
HETATM   19  F   UNL     1      -5.468  16.609  70.070  1.00  0.00    -0.154 F  
HETATM   20  C   UNL     1      -8.946  16.188  67.722  1.00  0.00    -0.192 C  
HETATM   21  C   UNL     1      -6.350  16.482  69.040  1.00  0.00    -0.169 C  
HETATM   22  F   UNL     1      -9.757  16.336  68.869  1.00  0.00    -0.207 F  
HETATM   23  C   UNL     1      -7.053  15.150  69.200  1.00  0.00    -0.154 C  
HETATM   24  C   UNL     1      -8.039  14.880  68.053  1.00  0.00    -0.137 C  
HETATM   25  H   UNL     1      -8.502  16.477  65.222  1.00  0.00     0.000 HD 
ENDROOT
BRANCH   5  26
HETATM   26  C   UNL     1      -9.751  12.769  65.193  1.00  0.00     0.025 C  
HETATM   27  O   UNL     1      -9.014  12.809  64.215  1.00  0.00     1.094 OA 
BRANCH  26  28
HETATM   28  S   UNL     1     -11.495  12.535  64.928  1.00  0.00    -0.339 SA 
HETATM   29  F   UNL     1     -13.153  14.392  64.151  1.00  0.00     0.057 F  
HETATM   30  C   UNL     1     -11.817  14.127  64.096  1.00  0.00    -0.337 C  
ENDBRANCH  26  28
ENDBRANCH   5  26
BRANCH   5  31
HETATM   31  O   UNL     1      -8.523  11.737  66.979  1.00  0.00    -0.162 OA 
BRANCH  31  32
HETATM   32  C   UNL     1      -8.932  10.431  66.954  1.00  0.00    -0.139 C  
HETATM   33  O   UNL     1      -9.379   9.860  65.976  1.00  0.00    -0.165 OA 
BRANCH  32  34
HETATM   34  C   UNL     1      -8.705   9.782  68.224  1.00  0.00    -0.119 A  
HETATM   35  C   UNL     1      -8.179  10.317  69.390  1.00  0.00    -0.171 A  
HETATM   36  O   UNL     1      -9.024   8.466  68.436  1.00  0.00    -0.136 OA 
HETATM   37  C   UNL     1      -8.166   9.283  70.352  1.00  0.00    -0.199 A  
HETATM   38  C   UNL     1      -8.684   8.175  69.723  1.00  0.00    -0.135 A  
ENDBRANCH  32  34
ENDBRANCH  31  32
ENDBRANCH   5  31
TORSDOF 5
ENDMDL
MODEL      119
REMARK 921   NORMALIZED FREE ENERGY PREDICTED BY IDOCK:   -0.06 KCAL/MOL
REMARK 922        TOTAL FREE ENERGY PREDICTED BY IDOCK:    0.62 KCAL/MOL
REMARK 923 INTER-LIGAND FREE ENERGY PREDICTED BY IDOCK:   -0.53 KCAL/MOL
REMARK 924 INTRA-LIGAND FREE ENERGY PREDICTED BY IDOCK:    1.14 KCAL/MOL
REMARK 927      BINDING AFFINITY PREDICTED BY RF-SCORE:    0.00 PKD
ROOT
HETATM    1  C   UNL     1      -8.929  13.207  69.227  1.00  0.00     0.904 C  
HETATM    2  C   UNL     1      -7.691  13.004  69.893  1.00  0.00     1.627 C  
HETATM    3  C   UNL     1      -7.802  13.954  68.759  1.00  0.00    -0.079 C  
HETATM    4  C   UNL     1      -6.227  14.652  68.815  1.00  0.00    -0.087 C  
HETATM    5  C   UNL     1      -9.740  14.515  68.338  1.00  0.00    -0.224 C  
HETATM    6  C   UNL     1      -6.528  11.072  65.080  1.00  0.00     0.459 C  
HETATM    7  C   UNL     1      -7.965  10.865  65.715  1.00  0.00    -0.075 C  
HETATM    8  C   UNL     1      -8.538  15.090  68.601  1.00  0.00    -0.174 C  
HETATM    9  C   UNL     1      -8.822  10.459  64.521  1.00  0.00    -0.225 C  
HETATM   10  C   UNL     1      -8.947   9.149  64.188  1.00  0.00    -0.054 C  
HETATM   11  C   UNL     1      -8.050  15.072  66.800  1.00  0.00    -0.061 C  
HETATM   12  O   UNL     1      -8.523   6.861  64.776  1.00  0.00    -0.037 OA 
HETATM   13  C   UNL     1      -8.416  16.211  69.679  1.00  0.00     0.233 C  
HETATM   14  C   UNL     1      -8.336   8.044  65.024  1.00  0.00    -0.113 C  
HETATM   15  C   UNL     1      -7.436   8.476  66.151  1.00  0.00    -0.089 C  
HETATM   16  C   UNL     1      -7.972   9.617  66.633  1.00  0.00    -0.109 C  
HETATM   17  C   UNL     1      -8.337  13.614  65.960  1.00  0.00     1.497 C  
HETATM   18  O   UNL     1      -9.606  13.716  65.300  1.00  0.00    -0.534 OA 
HETATM   19  F   UNL     1      -9.181   8.329  68.216  1.00  0.00    -0.135 F  
HETATM   20  C   UNL     1      -8.171  12.120  66.669  1.00  0.00    -0.017 C  
HETATM   21  C   UNL     1      -9.175   9.517  67.550  1.00  0.00    -0.126 C  
HETATM   22  F   UNL     1      -6.886  12.033  67.252  1.00  0.00    -0.102 F  
HETATM   23  C   UNL     1      -9.136  10.622  68.585  1.00  0.00    -0.170 C  
HETATM   24  C   UNL     1      -9.181  12.015  67.939  1.00  0.00    -0.190 C  
HETATM   25  H   UNL     1      -9.765  12.905  64.833  1.00  0.00     0.000 HD 
ENDROOT
BRANCH   5  26
HETATM   26  C   UNL     1     -10.428  15.729  67.460  1.00  0.00    -0.288 C  
HETATM   27  O   UNL     1     -10.698  15.712  66.266  1.00  0.00    -0.308 OA 
BRANCH  26  28
HETATM   28  S   UNL     1     -10.652  17.250  68.356  1.00  0.00    -0.341 SA 
HETATM   29  F   UNL     1     -10.142  19.629  67.419  1.00  0.00    -0.413 F  
HETATM   30  C   UNL     1     -10.431  18.385  66.945  1.00  0.00    -0.389 C  
ENDBRANCH  26  28
ENDBRANCH   5  26
BRANCH   5  31
HETATM   31  O   UNL     1     -10.741  14.533  69.518  1.00  0.00    -0.223 OA 
BRANCH  31  32
HETATM   32  C   UNL     1     -12.050  14.133  69.571  1.00  0.00    -0.340 C  
HETATM   33  O   UNL     1     -13.007  14.884  69.590  1.00  0.00     0.075 OA 
BRANCH  32  34
HETATM   34  C   UNL     1     -12.163  12.694  69.532  1.00  0.00    -0.090 A  
HETATM   35  C   UNL     1     -12.168  11.794  70.587  1.00  0.00    -0.443 A  
HETATM   36  O   UNL     1     -12.304  12.007  68.354  1.00  0.00    -0.270 OA 
HETATM   37  C   UNL     1     -12.308  10.504  70.032  1.00  0.00    -0.290 A  
HETATM   38  C   UNL     1     -12.381  10.684  68.670  1.00  0.00     0.675 A  
ENDBRANCH  32  34
ENDBRANCH  31  32
ENDBRANCH   5  31
TORSDOF 5
ENDMDL
MODEL      120
REMARK 921   NORMALIZED FREE ENERGY PREDICTED BY IDOCK:    0.01 KCAL/MOL
REMARK 922        TOTAL FREE ENERGY PREDICTED BY IDOCK:    0.72 KCAL/MOL
REMARK 923 INTER-LIGAND FREE ENERGY PREDICTED BY IDOCK:   -3.38 KCAL/MOL
REMARK 924 INTRA-LIGAND FREE ENERGY PREDICTED BY IDOCK:    4.10 KCAL/MOL
REMARK 927      BINDING AFFINITY PREDICTED BY RF-SCORE:    0.00 PKD
ROOT
HETATM    1  C   UNL     1      -9.212  10.071  69.949  1.00  0.00    -0.195 C  
HETATM    2  C   UNL     1     -10.119  10.566  70.924  1.00  0.00     1.487 C  
HETATM    3  C   UNL     1     -10.545   9.550  69.932  1.00  0.00    -0.269 C  
HETATM    4  C   UNL     1     -12.121   9.201  70.537  1.00  0.00    -0.014 C  
HETATM    5  C   UNL     1      -8.973   8.572  69.023  1.00  0.00    -0.146 C  
HETATM    6  C   UNL     1     -12.373  12.415  66.480  1.00  0.00     0.309 C  
HETATM    7  C   UNL     1     -10.796  12.354  66.628  1.00  0.00    -0.281 C  
HETATM    8  C   UNL     1     -10.114   8.278  69.699  1.00  0.00    -0.199 C  
HETATM    9  C   UNL     1     -10.302  12.502  65.194  1.00  0.00    -0.312 C  
HETATM   10  C   UNL     1     -10.053  13.735  64.684  1.00  0.00    -0.193 C  
HETATM   11  C   UNL     1     -11.134   8.293  68.137  1.00  0.00     0.330 C  
HETATM   12  O   UNL     1      -9.850  16.091  65.092  1.00  0.00    -0.397 OA 
HETATM   13  C   UNL     1     -10.089   7.272  70.891  1.00  0.00    -0.192 C  
HETATM   14  C   UNL     1     -10.159  14.991  65.525  1.00  0.00    -0.369 C  
HETATM   15  C   UNL     1     -10.720  14.822  66.912  1.00  0.00    -0.308 C  
HETATM   16  C   UNL     1     -10.274  13.625  67.346  1.00  0.00    -0.241 C  
HETATM   17  C   UNL     1     -10.869   9.607  67.080  1.00  0.00    -0.114 C  
HETATM   18  O   UNL     1      -9.914   9.204  66.090  1.00  0.00    -0.286 OA 
HETATM   19  F   UNL     1      -8.416  14.721  68.331  1.00  0.00    -0.134 F  
HETATM   20  C   UNL     1     -10.530  11.141  67.622  1.00  0.00    -0.196 C  
HETATM   21  C   UNL     1      -8.846  13.523  67.844  1.00  0.00    -0.190 C  
HETATM   22  F   UNL     1     -11.527  11.529  68.546  1.00  0.00    -0.243 F  
HETATM   23  C   UNL     1      -8.755  12.514  68.969  1.00  0.00     0.482 C  
HETATM   24  C   UNL     1      -9.168  11.106  68.511  1.00  0.00    -0.183 C  
HETATM   25  H   UNL     1      -9.766   9.935  65.502  1.00  0.00     0.000 HD 
ENDROOT
BRANCH   5  26
HETATM   26  C   UNL     1      -8.830   7.193  68.133  1.00  0.00    -0.126 C  
HETATM   27  O   UNL     1      -8.287   7.074  67.042  1.00  0.00    -0.118 OA 
BRANCH  26  28
HETATM   28  S   UNL     1      -9.691   5.789  68.806  1.00  0.00    -0.140 SA 
HETATM   29  F   UNL     1      -9.743   3.411  67.738  1.00  0.00    -0.249 F  
HETATM   30  C   UNL     1      -8.956   4.523  67.718  1.00  0.00    -0.116 C  
ENDBRANCH  26  28
ENDBRANCH   5  26
BRANCH   5  31
HETATM   31  O   UNL     1      -7.672   8.414  69.845  1.00  0.00    -0.087 OA 
BRANCH  31  32
HETATM   32  C   UNL     1      -7.490   8.306  71.197  1.00  0.00    -0.076 C  
HETATM   33  O   UNL     1      -7.763   9.172  72.008  1.00  0.00    -0.331 OA 
BRANCH  32  34
HETATM   34  C   UNL     1      -6.994   6.999  71.561  1.00  0.00    -0.065 A  
HETATM   35  C   UNL     1      -6.117   6.180  70.867  1.00  0.00    -0.038 A  
HETATM   36  O   UNL     1      -7.354   6.384  72.731  1.00  0.00    -0.089 OA 
HETATM   37  C   UNL     1      -5.941   5.011  71.640  1.00  0.00    -0.020 A  
HETATM   38  C   UNL     1      -6.718   5.180  72.762  1.00  0.00    -0.070 A  
ENDBRANCH  32  34
ENDBRANCH  31  32
ENDBRANCH   5  31
TORSDOF 5
ENDMDL
MODEL      121
REMARK 921   NORMALIZED FREE ENERGY PREDICTED BY IDOCK:    0.33 KCAL/MOL
REMARK 922        TOTAL FREE ENERGY PREDICTED BY IDOCK:    1.13 KCAL/MOL
REMARK 923 INTER-LIGAND FREE ENERGY PREDICTED BY IDOCK:   -3.90 KCAL/MOL
REMARK 924 INTRA-LIGAND FREE ENERGY PREDICTED BY IDOCK:    5.03 KCAL/MOL
REMARK 927      BINDING AFFINITY PREDICTED BY RF-SCORE:    0.00 PKD
ROOT
HETATM    1  C   UNL     1      -8.106  10.748  69.178  1.00  0.00    -0.133 C  
HETATM    2  C   UNL     1      -6.924  11.018  69.917  1.00  0.00    -0.055 C  
HETATM    3  C   UNL     1      -6.861  10.675  68.476  1.00  0.00    -0.065 C  
HETATM    4  C   UNL     1      -5.182  10.940  68.190  1.00  0.00    -0.036 C  
HETATM    5  C   UNL     1      -8.662  10.894  67.495  1.00  0.00    -0.130 C  
HETATM    6  C   UNL     1      -6.183   5.886  68.749  1.00  0.00    -0.032 C  
HETATM    7  C   UNL     1      -7.628   6.446  69.079  1.00  0.00    -0.100 C  
HETATM    8  C   UNL     1      -7.371  11.298  67.376  1.00  0.00    -0.115 C  
HETATM    9  C   UNL     1      -8.554   5.351  68.562  1.00  0.00    -0.098 C  
HETATM   10  C   UNL     1      -8.928   4.334  69.380  1.00  0.00    -0.155 C  
HETATM   11  C   UNL     1      -6.908   9.783  66.390  1.00  0.00    -0.088 C  
HETATM   12  O   UNL     1      -8.940   3.421  71.599  1.00  0.00    -0.094 OA 
HETATM   13  C   UNL     1      -7.031  12.803  67.150  1.00  0.00     0.004 C  
HETATM   14  C   UNL     1      -8.531   4.289  70.841  1.00  0.00    -0.083 C  
HETATM   15  C   UNL     1      -7.557   5.340  71.304  1.00  0.00    -0.100 C  
HETATM   16  C   UNL     1      -7.865   6.456  70.610  1.00  0.00    -0.107 C  
HETATM   17  C   UNL     1      -7.471   8.290  66.999  1.00  0.00    -0.088 C  
HETATM   18  O   UNL     1      -8.703   7.970  66.338  1.00  0.00    -0.135 OA 
HETATM   19  F   UNL     1      -9.283   7.120  72.391  1.00  0.00    -0.140 F  
HETATM   20  C   UNL     1      -7.586   7.970  68.625  1.00  0.00    -0.100 C  
HETATM   21  C   UNL     1      -9.058   7.277  71.057  1.00  0.00    -0.153 C  
HETATM   22  F   UNL     1      -6.337   8.235  69.231  1.00  0.00    -0.036 F  
HETATM   23  C   UNL     1      -8.803   8.749  70.806  1.00  0.00    -0.228 C  
HETATM   24  C   UNL     1      -8.589   9.048  69.315  1.00  0.00    -0.136 C  
HETATM   25  H   UNL     1      -9.016   7.141  66.676  1.00  0.00     0.000 HD 
ENDROOT
BRANCH   5  26
HETATM   26  C   UNL     1      -9.114  10.978  65.913  1.00  0.00    -0.197 C  
HETATM   27  O   UNL     1      -8.704  11.767  65.070  1.00  0.00     0.309 OA 
BRANCH  26  28
HETATM   28  S   UNL     1     -10.439   9.877  65.466  1.00  0.00     0.411 SA 
HETATM   29  F   UNL     1     -11.376   7.971  66.979  1.00  0.00    -0.089 F  
HETATM   30  C   UNL     1     -10.697   9.144  67.117  1.00  0.00    -0.143 C  
ENDBRANCH  26  28
ENDBRANCH   5  26
BRANCH   5  31
HETATM   31  O   UNL     1      -9.633  11.971  68.035  1.00  0.00    -0.186 OA 
BRANCH  31  32
HETATM   32  C   UNL     1     -10.727  12.546  67.447  1.00  0.00    -0.229 C  
HETATM   33  O   UNL     1     -11.415  12.019  66.593  1.00  0.00    -0.339 OA 
BRANCH  32  34
HETATM   34  C   UNL     1     -11.013  13.842  68.018  1.00  0.00    -0.250 A  
HETATM   35  C   UNL     1     -12.080  14.688  67.757  1.00  0.00    -0.211 A  
HETATM   36  O   UNL     1     -10.205  14.414  68.964  1.00  0.00    -0.230 OA 
HETATM   37  C   UNL     1     -11.912  15.830  68.570  1.00  0.00    -0.109 A  
HETATM   38  C   UNL     1     -10.754  15.620  69.283  1.00  0.00    -0.239 A  
ENDBRANCH  32  34
ENDBRANCH  31  32
ENDBRANCH   5  31
TORSDOF 5
ENDMDL
MODEL      122
REMARK 921   NORMALIZED FREE ENERGY PREDICTED BY IDOCK:    0.59 KCAL/MOL
REMARK 922        TOTAL FREE ENERGY PREDICTED BY IDOCK:    1.46 KCAL/MOL
REMARK 923 INTER-LIGAND FREE ENERGY PREDICTED BY IDOCK:   -0.83 KCAL/MOL
REMARK 924 INTRA-LIGAND FREE ENERGY PREDICTED BY IDOCK:    2.29 KCAL/MOL
REMARK 927      BINDING AFFINITY PREDICTED BY RF-SCORE:    0.00 PKD
ROOT
HETATM    1  C   UNL     1      -9.674   9.641  70.143  1.00  0.00    -0.301 C  
HETATM    2  C   UNL     1     -10.738  10.004  71.011  1.00  0.00    -0.101 C  
HETATM    3  C   UNL     1     -10.906   8.927  70.006  1.00  0.00    -0.239 C  
HETATM    4  C   UNL     1     -12.467   8.353  70.459  1.00  0.00     0.413 C  
HETATM    5  C   UNL     1      -9.124   8.186  69.282  1.00  0.00    -0.151 C  
HETATM    6  C   UNL     1     -12.774  11.458  66.322  1.00  0.00     4.074 C  
HETATM    7  C   UNL     1     -11.229  11.634  66.628  1.00  0.00    -0.362 C  
HETATM    8  C   UNL     1     -10.271   7.731  69.848  1.00  0.00    -0.213 C  
HETATM    9  C   UNL     1     -10.619  11.840  65.247  1.00  0.00    -0.327 C  
HETATM   10  C   UNL     1     -10.503  13.093  64.735  1.00  0.00    -0.390 C  
HETATM   11  C   UNL     1     -11.118   7.581  68.192  1.00  0.00     0.164 C  
HETATM   12  O   UNL     1     -10.692  15.456  65.105  1.00  0.00    -0.384 OA 
HETATM   13  C   UNL     1     -10.221   6.751  71.060  1.00  0.00    -0.217 C  
HETATM   14  C   UNL     1     -10.878  14.326  65.531  1.00  0.00    -0.322 C  
HETATM   15  C   UNL     1     -11.546  14.088  66.859  1.00  0.00    -0.407 C  
HETATM   16  C   UNL     1     -10.976  12.974  67.363  1.00  0.00    -0.284 C  
HETATM   17  C   UNL     1     -10.943   8.911  67.136  1.00  0.00     0.189 C  
HETATM   18  O   UNL     1      -9.843   8.645  66.255  1.00  0.00    -0.286 OA 
HETATM   19  F   UNL     1      -9.409  14.343  68.502  1.00  0.00    -0.184 F  
HETATM   20  C   UNL     1     -10.890  10.483  67.672  1.00  0.00    -0.300 C  
HETATM   21  C   UNL     1      -9.606  13.091  68.004  1.00  0.00    -0.224 C  
HETATM   22  F   UNL     1     -12.022  10.726  68.482  1.00  0.00    -0.373 F  
HETATM   23  C   UNL     1      -9.483  12.115  69.156  1.00  0.00     0.486 C  
HETATM   24  C   UNL     1      -9.636  10.658  68.693  1.00  0.00    -0.179 C  
HETATM   25  H   UNL     1      -9.745   9.385  65.668  1.00  0.00     0.000 HD 
ENDROOT
BRANCH   5  26
HETATM   26  C   UNL     1      -8.689   6.836  68.443  1.00  0.00    -0.123 C  
HETATM   27  O   UNL     1      -8.632   6.710  67.226  1.00  0.00    -0.119 OA 
BRANCH  26  28
HETATM   28  S   UNL     1      -8.417   5.397  69.455  1.00  0.00    -0.100 SA 
HETATM   29  F   UNL     1      -7.668   3.063  68.566  1.00  0.00    -0.054 F  
HETATM   30  C   UNL     1      -7.611   4.368  68.181  1.00  0.00    -0.068 C  
ENDBRANCH  26  28
ENDBRANCH   5  26
BRANCH   5  31
HETATM   31  O   UNL     1      -7.903   8.231  70.232  1.00  0.00    -0.087 OA 
BRANCH  31  32
HETATM   32  C   UNL     1      -6.568   8.329  69.948  1.00  0.00    -0.039 C  
HETATM   33  O   UNL     1      -5.754   7.439  70.114  1.00  0.00    -0.023 OA 
BRANCH  32  34
HETATM   34  C   UNL     1      -6.246   9.606  69.357  1.00  0.00    -0.040 A  
HETATM   35  C   UNL     1      -6.826  10.843  69.593  1.00  0.00    -0.137 A  
HETATM   36  O   UNL     1      -5.242   9.749  68.435  1.00  0.00    -0.034 OA 
HETATM   37  C   UNL     1      -6.157  11.779  68.775  1.00  0.00    -0.050 A  
HETATM   38  C   UNL     1      -5.205  11.065  68.084  1.00  0.00    -0.039 A  
ENDBRANCH  32  34
ENDBRANCH  31  32
ENDBRANCH   5  31
TORSDOF 5
ENDMDL
MODEL      123
REMARK 921   NORMALIZED FREE ENERGY PREDICTED BY IDOCK:    1.88 KCAL/MOL
REMARK 922        TOTAL FREE ENERGY PREDICTED BY IDOCK:    3.13 KCAL/MOL
REMARK 923 INTER-LIGAND FREE ENERGY PREDICTED BY IDOCK:   -1.46 KCAL/MOL
REMARK 924 INTRA-LIGAND FREE ENERGY PREDICTED BY IDOCK:    4.59 KCAL/MOL
REMARK 927      BINDING AFFINITY PREDICTED BY RF-SCORE:    0.00 PKD
ROOT
HETATM    1  C   UNL     1      -9.493  12.153  65.492  1.00  0.00    -0.077 C  
HETATM    2  C   UNL     1      -8.729  12.312  64.305  1.00  0.00     1.656 C  
HETATM    3  C   UNL     1      -8.359  11.296  65.320  1.00  0.00     0.250 C  
HETATM    4  C   UNL     1      -7.090  10.493  64.475  1.00  0.00     0.088 C  
HETATM    5  C   UNL     1      -9.885  10.848  66.633  1.00  0.00    -0.198 C  
HETATM    6  C   UNL     1      -5.171  13.819  67.955  1.00  0.00    -0.074 C  
HETATM    7  C   UNL     1      -6.707  14.172  68.121  1.00  0.00    -0.125 C  
HETATM    8  C   UNL     1      -9.029  10.208  65.795  1.00  0.00    -0.187 C  
HETATM    9  C   UNL     1      -6.823  14.555  69.591  1.00  0.00    -0.142 C  
HETATM   10  C   UNL     1      -6.642  15.845  69.974  1.00  0.00    -0.010 C  
HETATM   11  C   UNL     1      -7.719  10.067  67.117  1.00  0.00    -0.092 C  
HETATM   12  O   UNL     1      -6.343  18.131  69.310  1.00  0.00    -0.241 OA 
HETATM   13  C   UNL     1      -9.561   9.158  64.772  1.00  0.00     0.306 C  
HETATM   14  C   UNL     1      -6.417  16.958  68.973  1.00  0.00    -0.202 C  
HETATM   15  C   UNL     1      -6.234  16.542  67.538  1.00  0.00    -0.181 C  
HETATM   16  C   UNL     1      -7.044  15.478  67.357  1.00  0.00    -0.235 C  
HETATM   17  C   UNL     1      -7.414  11.480  68.025  1.00  0.00    -0.098 C  
HETATM   18  O   UNL     1      -8.198  11.424  69.224  1.00  0.00    -0.371 OA 
HETATM   19  F   UNL     1      -8.745  16.954  66.613  1.00  0.00    -0.208 F  
HETATM   20  C   UNL     1      -7.476  13.003  67.363  1.00  0.00    -0.131 C  
HETATM   21  C   UNL     1      -8.527  15.726  67.160  1.00  0.00    -0.208 C  
HETATM   22  F   UNL     1      -6.641  13.038  66.223  1.00  0.00     1.173 F  
HETATM   23  C   UNL     1      -9.108  14.695  66.215  1.00  0.00    -0.196 C  
HETATM   24  C   UNL     1      -8.964  13.268  66.764  1.00  0.00    -0.183 C  
HETATM   25  H   UNL     1      -8.029  12.210  69.729  1.00  0.00     0.000 HD 
ENDROOT
BRANCH   5  26
HETATM   26  C   UNL     1     -10.165   9.629  67.706  1.00  0.00    -0.205 C  
HETATM   27  O   UNL     1     -11.190   9.432  68.347  1.00  0.00    -0.006 OA 
BRANCH  26  28
HETATM   28  S   UNL     1      -8.751   8.601  68.039  1.00  0.00    -0.142 SA 
HETATM   29  F   UNL     1      -8.719   5.999  67.870  1.00  0.00    -0.113 F  
HETATM   30  C   UNL     1      -9.433   7.046  67.371  1.00  0.00    -0.133 C  
ENDBRANCH  26  28
ENDBRANCH   5  26
BRANCH   5  31
HETATM   31  O   UNL     1     -11.333  10.982  66.104  1.00  0.00    -0.089 OA 
BRANCH  31  32
HETATM   32  C   UNL     1     -12.177  12.060  66.110  1.00  0.00     0.427 C  
HETATM   33  O   UNL     1     -12.964  12.332  65.223  1.00  0.00    -0.344 OA 
BRANCH  32  34
HETATM   34  C   UNL     1     -12.070  12.808  67.341  1.00  0.00    -0.158 A  
HETATM   35  C   UNL     1     -12.287  14.161  67.556  1.00  0.00    -0.106 A  
HETATM   36  O   UNL     1     -11.728  12.213  68.527  1.00  0.00    -0.295 OA 
HETATM   37  C   UNL     1     -12.060  14.404  68.928  1.00  0.00    -0.288 A  
HETATM   38  C   UNL     1     -11.717  13.190  69.476  1.00  0.00    -0.319 A  
ENDBRANCH  32  34
ENDBRANCH  31  32
ENDBRANCH   5  31
TORSDOF 5
ENDMDL
MODEL      124
REMARK 921   NORMALIZED FREE ENERGY PREDICTED BY IDOCK:    2.02 KCAL/MOL
REMARK 922        TOTAL FREE ENERGY PREDICTED BY IDOCK:    3.31 KCAL/MOL
REMARK 923 INTER-LIGAND FREE ENERGY PREDICTED BY IDOCK:    1.30 KCAL/MOL
REMARK 924 INTRA-LIGAND FREE ENERGY PREDICTED BY IDOCK:    2.01 KCAL/MOL
REMARK 927      BINDING AFFINITY PREDICTED BY RF-SCORE:    0.00 PKD
ROOT
HETATM    1  C   UNL     1     -11.650  14.082  67.495  1.00  0.00    -0.397 C  
HETATM    2  C   UNL     1     -12.881  14.784  67.392  1.00  0.00     1.549 C  
HETATM    3  C   UNL     1     -12.003  14.604  66.210  1.00  0.00    -0.262 C  
HETATM    4  C   UNL     1     -13.032  15.250  64.988  1.00  0.00     0.881 C  
HETATM    5  C   UNL     1     -10.607  13.104  66.438  1.00  0.00    -0.286 C  
HETATM    6  C   UNL     1      -9.440  18.710  66.395  1.00  0.00    -0.319 C  
HETATM    7  C   UNL     1      -9.103  17.583  67.457  1.00  0.00    -0.234 C  
HETATM    8  C   UNL     1     -11.576  13.482  65.564  1.00  0.00    -0.337 C  
HETATM    9  C   UNL     1      -7.599  17.723  67.653  1.00  0.00    -0.215 C  
HETATM   10  C   UNL     1      -7.112  18.556  68.610  1.00  0.00    -0.298 C  
HETATM   11  C   UNL     1     -10.397  14.567  64.608  1.00  0.00    -0.173 C  
HETATM   12  O   UNL     1      -7.581  19.974  70.487  1.00  0.00     0.469 OA 
HETATM   13  C   UNL     1     -12.642  12.455  65.074  1.00  0.00    -0.305 C  
HETATM   14  C   UNL     1      -8.020  19.296  69.570  1.00  0.00     0.170 C  
HETATM   15  C   UNL     1      -9.499  19.196  69.306  1.00  0.00    -0.162 C  
HETATM   16  C   UNL     1      -9.705  17.948  68.837  1.00  0.00    -0.268 C  
HETATM   17  C   UNL     1      -9.390  15.585  65.539  1.00  0.00    -0.027 C  
HETATM   18  O   UNL     1      -8.136  14.918  65.737  1.00  0.00     0.898 OA 
HETATM   19  F   UNL     1     -10.150  17.235  71.055  1.00  0.00     1.613 F  
HETATM   20  C   UNL     1      -9.896  16.300  66.951  1.00  0.00    -0.247 C  
HETATM   21  C   UNL     1      -9.744  16.802  69.829  1.00  0.00     0.368 C  
HETATM   22  F   UNL     1     -11.098  17.000  66.701  1.00  0.00    -0.113 F  
HETATM   23  C   UNL     1     -10.727  15.745  69.369  1.00  0.00    -0.266 C  
HETATM   24  C   UNL     1     -10.331  15.146  68.011  1.00  0.00    -0.240 C  
HETATM   25  H   UNL     1      -7.576  15.484  66.255  1.00  0.00     0.000 HD 
ENDROOT
BRANCH   5  26
HETATM   26  C   UNL     1      -9.634  12.265  65.407  1.00  0.00    -0.063 C  
HETATM   27  O   UNL     1      -9.513  12.440  64.200  1.00  0.00     0.080 OA 
BRANCH  26  28
HETATM   28  S   UNL     1      -8.797  10.880  66.147  1.00  0.00    -0.190 SA 
HETATM   29  F   UNL     1      -9.802   8.487  66.404  1.00  0.00    -0.272 F  
HETATM   30  C   UNL     1      -9.977   9.590  65.624  1.00  0.00    -0.199 C  
ENDBRANCH  26  28
ENDBRANCH   5  26
BRANCH   5  31
HETATM   31  O   UNL     1     -10.988  11.920  67.358  1.00  0.00    -0.235 OA 
BRANCH  31  32
HETATM   32  C   UNL     1     -10.899  11.797  68.719  1.00  0.00    -0.227 C  
HETATM   33  O   UNL     1     -11.846  11.829  69.483  1.00  0.00    -0.300 OA 
BRANCH  32  34
HETATM   34  C   UNL     1      -9.540  11.553  69.140  1.00  0.00     0.176 A  
HETATM   35  C   UNL     1      -8.476  12.440  69.196  1.00  0.00     0.601 A  
HETATM   36  O   UNL     1      -9.123  10.322  69.578  1.00  0.00    -0.206 OA 
HETATM   37  C   UNL     1      -7.361  11.721  69.679  1.00  0.00     0.368 A  
HETATM   38  C   UNL     1      -7.803  10.436  69.892  1.00  0.00    -0.034 A  
ENDBRANCH  32  34
ENDBRANCH  31  32
ENDBRANCH   5  31
TORSDOF 5
ENDMDL
MODEL      125
REMARK 921   NORMALIZED FREE ENERGY PREDICTED BY IDOCK:    3.21 KCAL/MOL
REMARK 922        TOTAL FREE ENERGY PREDICTED BY IDOCK:    4.85 KCAL/MOL
REMARK 923 INTER-LIGAND FREE ENERGY PREDICTED BY IDOCK:   -0.34 KCAL/MOL
REMARK 924 INTRA-LIGAND FREE ENERGY PREDICTED BY IDOCK:    5.19 KCAL/MOL
REMARK 927      BINDING AFFINITY PREDICTED BY RF-SCORE:    0.00 PKD
ROOT
HETATM    1  C   UNL     1      -8.893   7.513  68.316  1.00  0.00    -0.125 C  
HETATM    2  C   UNL     1      -7.918   8.538  68.446  1.00  0.00    -0.118 C  
HETATM    3  C   UNL     1      -7.834   7.297  69.254  1.00  0.00    -0.116 C  
HETATM    4  C   UNL     1      -6.301   7.545  70.002  1.00  0.00    -0.031 C  
HETATM    5  C   UNL     1      -8.973   5.748  68.510  1.00  0.00    -0.112 C  
HETATM    6  C   UNL     1     -10.153   8.713  73.265  1.00  0.00     0.827 C  
HETATM    7  C   UNL     1     -11.025   8.423  71.974  1.00  0.00    -0.394 C  
HETATM    8  C   UNL     1      -7.693   5.991  68.893  1.00  0.00    -0.092 C  
HETATM    9  C   UNL     1     -12.317   7.851  72.543  1.00  0.00    -0.188 C  
HETATM   10  C   UNL     1     -13.345   8.679  72.864  1.00  0.00     0.004 C  
HETATM   11  C   UNL     1      -8.054   5.534  70.665  1.00  0.00    -0.115 C  
HETATM   12  O   UNL     1     -14.253  10.898  72.795  1.00  0.00     0.910 OA 
HETATM   13  C   UNL     1      -6.503   5.603  67.962  1.00  0.00    -0.044 C  
HETATM   14  C   UNL     1     -13.295  10.167  72.589  1.00  0.00     0.344 C  
HETATM   15  C   UNL     1     -11.982  10.714  72.096  1.00  0.00     1.192 C  
HETATM   16  C   UNL     1     -11.456   9.754  71.307  1.00  0.00    -0.457 C  
HETATM   17  C   UNL     1      -9.477   6.198  71.336  1.00  0.00    -0.156 C  
HETATM   18  O   UNL     1     -10.533   5.239  71.193  1.00  0.00    -0.229 OA 
HETATM   19  F   UNL     1     -12.482  10.790  69.437  1.00  0.00    -0.375 F  
HETATM   20  C   UNL     1     -10.022   7.721  70.958  1.00  0.00    -0.177 C  
HETATM   21  C   UNL     1     -11.993   9.605  69.897  1.00  0.00     0.203 C  
HETATM   22  F   UNL     1      -8.975   8.646  71.173  1.00  0.00    -0.159 F  
HETATM   23  C   UNL     1     -10.886   9.172  68.959  1.00  0.00    -0.115 C  
HETATM   24  C   UNL     1     -10.296   7.810  69.357  1.00  0.00    -0.219 C  
HETATM   25  H   UNL     1     -11.324   5.608  71.566  1.00  0.00     0.000 HD 
ENDROOT
BRANCH   5  26
HETATM   26  C   UNL     1      -9.023   4.122  68.771  1.00  0.00    -0.113 C  
HETATM   27  O   UNL     1      -9.873   3.501  69.398  1.00  0.00    -0.076 OA 
BRANCH  26  28
HETATM   28  S   UNL     1      -7.597   3.237  68.179  1.00  0.00    -0.056 SA 
HETATM   29  F   UNL     1      -5.667   2.332  69.681  1.00  0.00    -0.015 F  
HETATM   30  C   UNL     1      -6.977   2.684  69.804  1.00  0.00    -0.033 C  
ENDBRANCH  26  28
ENDBRANCH   5  26
BRANCH   5  31
HETATM   31  O   UNL     1      -9.199   5.710  66.980  1.00  0.00    -0.115 OA 
BRANCH  31  32
HETATM   32  C   UNL     1      -9.184   6.725  66.061  1.00  0.00    -0.030 C  
HETATM   33  O   UNL     1      -9.848   7.742  66.137  1.00  0.00    -0.096 OA 
BRANCH  32  34
HETATM   34  C   UNL     1      -8.224   6.474  65.012  1.00  0.00    -0.115 A  
HETATM   35  C   UNL     1      -8.379   6.616  63.642  1.00  0.00     0.189 A  
HETATM   36  O   UNL     1      -6.950   6.046  65.279  1.00  0.00    -0.057 OA 
HETATM   37  C   UNL     1      -7.152   6.252  63.045  1.00  0.00    -0.052 A  
HETATM   38  C   UNL     1      -6.316   5.907  64.081  1.00  0.00    -0.029 A  
ENDBRANCH  32  34
ENDBRANCH  31  32
ENDBRANCH   5  31
TORSDOF 5
ENDMDL
MODEL      126
REMARK 921   NORMALIZED FREE ENERGY PREDICTED BY IDOCK:    3.51 KCAL/MOL
REMARK 922        TOTAL FREE ENERGY PREDICTED BY IDOCK:    5.24 KCAL/MOL
REMARK 923 INTER-LIGAND FREE ENERGY PREDICTED BY IDOCK:   -2.93 KCAL/MOL
REMARK 924 INTRA-LIGAND FREE ENERGY PREDICTED BY IDOCK:    8.17 KCAL/MOL
REMARK 927      BINDING AFFINITY PREDICTED BY RF-SCORE:    0.00 PKD
ROOT
HETATM    1  C   UNL     1     -10.669   9.981  67.549  1.00  0.00    -0.339 C  
HETATM    2  C   UNL     1     -10.504   9.791  66.151  1.00  0.00    -0.128 C  
HETATM    3  C   UNL     1      -9.334   9.809  67.062  1.00  0.00    -0.178 C  
HETATM    4  C   UNL     1      -8.096   9.366  65.948  1.00  0.00    -0.114 C  
HETATM    5  C   UNL     1      -9.825   9.517  69.043  1.00  0.00    -0.176 C  
HETATM    6  C   UNL     1      -8.083  14.481  66.781  1.00  0.00     0.128 C  
HETATM    7  C   UNL     1      -9.377  14.113  67.619  1.00  0.00    -0.209 C  
HETATM    8  C   UNL     1      -8.988   9.002  68.105  1.00  0.00    -0.133 C  
HETATM    9  C   UNL     1      -9.366  15.135  68.750  1.00  0.00    -0.200 C  
HETATM   10  C   UNL     1      -9.992  16.330  68.593  1.00  0.00    -0.233 C  
HETATM   11  C   UNL     1      -7.646  10.231  68.518  1.00  0.00    -0.089 C  
HETATM   12  O   UNL     1     -11.434  17.699  67.250  1.00  0.00     0.398 OA 
HETATM   13  C   UNL     1      -8.922   7.463  67.863  1.00  0.00    -0.131 C  
HETATM   14  C   UNL     1     -10.797  16.661  67.353  1.00  0.00    -0.186 C  
HETATM   15  C   UNL     1     -10.729  15.666  66.226  1.00  0.00    -0.295 C  
HETATM   16  C   UNL     1     -10.655  14.452  66.810  1.00  0.00    -0.282 C  
HETATM   17  C   UNL     1      -8.141  11.856  68.682  1.00  0.00    -0.086 C  
HETATM   18  O   UNL     1      -8.384  12.115  70.071  1.00  0.00     1.431 OA 
HETATM   19  F   UNL     1     -13.018  14.294  66.683  1.00  0.00    -0.265 F  
HETATM   20  C   UNL     1      -9.340  12.529  67.748  1.00  0.00    -0.198 C  
HETATM   21  C   UNL     1     -11.928  13.836  67.359  1.00  0.00    -0.388 C  
HETATM   22  F   UNL     1      -9.033  12.310  66.386  1.00  0.00    -0.203 F  
HETATM   23  C   UNL     1     -11.891  12.331  67.200  1.00  0.00    -0.328 C  
HETATM   24  C   UNL     1     -10.722  11.701  67.973  1.00  0.00    -0.246 C  
HETATM   25  H   UNL     1      -8.660  13.019  70.162  1.00  0.00     0.000 HD 
ENDROOT
BRANCH   5  26
HETATM   26  C   UNL     1      -8.974   9.126  70.399  1.00  0.00    -0.229 C  
HETATM   27  O   UNL     1      -8.886   9.784  71.429  1.00  0.00     0.131 OA 
BRANCH  26  28
HETATM   28  S   UNL     1      -7.985   7.654  70.249  1.00  0.00    -0.102 SA 
HETATM   29  F   UNL     1      -5.379   7.602  70.180  1.00  0.00    -0.022 F  
HETATM   30  C   UNL     1      -6.373   8.419  70.628  1.00  0.00    -0.036 C  
ENDBRANCH  26  28
ENDBRANCH   5  26
BRANCH   5  31
HETATM   31  O   UNL     1     -11.076   8.656  69.340  1.00  0.00    -0.086 OA 
BRANCH  31  32
HETATM   32  C   UNL     1     -12.220   8.969  70.024  1.00  0.00     0.689 C  
HETATM   33  O   UNL     1     -13.059   8.164  70.383  1.00  0.00     0.682 OA 
BRANCH  32  34
HETATM   34  C   UNL     1     -12.280  10.379  70.335  1.00  0.00    -0.303 A  
HETATM   35  C   UNL     1     -13.070  11.028  71.271  1.00  0.00    -0.381 A  
HETATM   36  O   UNL     1     -11.490  11.299  69.696  1.00  0.00    -0.260 OA 
HETATM   37  C   UNL     1     -12.758  12.403  71.195  1.00  0.00    -0.336 A  
HETATM   38  C   UNL     1     -11.795  12.519  70.220  1.00  0.00    -0.223 A  
ENDBRANCH  32  34
ENDBRANCH  31  32
ENDBRANCH   5  31
TORSDOF 5
ENDMDL
MODEL      127
REMARK 921   NORMALIZED FREE ENERGY PREDICTED BY IDOCK:    3.52 KCAL/MOL
REMARK 922        TOTAL FREE ENERGY PREDICTED BY IDOCK:    5.25 KCAL/MOL
REMARK 923 INTER-LIGAND FREE ENERGY PREDICTED BY IDOCK:    2.17 KCAL/MOL
REMARK 924 INTRA-LIGAND FREE ENERGY PREDICTED BY IDOCK:    3.08 KCAL/MOL
REMARK 927      BINDING AFFINITY PREDICTED BY RF-SCORE:    0.00 PKD
ROOT
HETATM    1  C   UNL     1      -9.185  12.659  66.198  1.00  0.00    -0.052 C  
HETATM    2  C   UNL     1      -8.688  13.053  64.927  1.00  0.00     2.448 C  
HETATM    3  C   UNL     1     -10.020  12.414  65.061  1.00  0.00    -0.219 C  
HETATM    4  C   UNL     1     -10.581  12.578  63.440  1.00  0.00    -0.294 C  
HETATM    5  C   UNL     1     -10.768  12.460  66.982  1.00  0.00    -0.239 C  
HETATM    6  C   UNL     1      -8.838   7.776  64.313  1.00  0.00     0.651 C  
HETATM    7  C   UNL     1      -8.440   8.423  65.704  1.00  0.00    -0.179 C  
HETATM    8  C   UNL     1     -11.146  12.803  65.723  1.00  0.00    -0.316 C  
HETATM    9  C   UNL     1      -8.583   7.264  66.684  1.00  0.00    -0.128 C  
HETATM   10  C   UNL     1      -7.525   6.450  66.933  1.00  0.00    -0.084 C  
HETATM   11  C   UNL     1     -11.844  11.105  65.388  1.00  0.00     0.932 C  
HETATM   12  O   UNL     1      -5.183   6.023  66.630  1.00  0.00    -0.008 OA 
HETATM   13  C   UNL     1     -11.728  14.220  65.430  1.00  0.00    -0.354 C  
HETATM   14  C   UNL     1      -6.156   6.703  66.337  1.00  0.00    -0.033 C  
HETATM   15  C   UNL     1      -6.063   7.807  65.317  1.00  0.00    -0.038 C  
HETATM   16  C   UNL     1      -6.927   8.759  65.726  1.00  0.00    -0.076 C  
HETATM   17  C   UNL     1     -10.863   9.786  65.850  1.00  0.00     0.625 C  
HETATM   18  O   UNL     1     -11.267   9.361  67.159  1.00  0.00    -0.215 OA 
HETATM   19  F   UNL     1      -5.150   9.812  66.891  1.00  0.00    -0.038 F  
HETATM   20  C   UNL     1      -9.206   9.816  65.737  1.00  0.00    -0.191 C  
HETATM   21  C   UNL     1      -6.505   9.681  66.853  1.00  0.00    -0.067 C  
HETATM   22  F   UNL     1      -8.846  10.176  64.418  1.00  0.00    -0.158 F  
HETATM   23  C   UNL     1      -7.092  11.062  66.647  1.00  0.00    -0.139 C  
HETATM   24  C   UNL     1      -8.629  11.037  66.643  1.00  0.00    -0.157 C  
HETATM   25  H   UNL     1     -10.722   8.628  67.416  1.00  0.00     0.000 HD 
ENDROOT
BRANCH   5  26
HETATM   26  C   UNL     1     -12.256  12.220  67.649  1.00  0.00     0.320 C  
HETATM   27  O   UNL     1     -13.258  12.905  67.482  1.00  0.00     2.023 OA 
BRANCH  26  28
HETATM   28  S   UNL     1     -12.326  10.897  68.836  1.00  0.00     0.494 SA 
HETATM   29  F   UNL     1     -10.552  10.461  70.698  1.00  0.00    -0.331 F  
HETATM   30  C   UNL     1     -10.993  11.496  69.928  1.00  0.00     0.116 C  
ENDBRANCH  26  28
ENDBRANCH   5  26
BRANCH   5  31
HETATM   31  O   UNL     1     -10.340  13.647  67.878  1.00  0.00    -0.239 OA 
BRANCH  31  32
HETATM   32  C   UNL     1     -11.087  14.661  68.415  1.00  0.00    -0.257 C  
HETATM   33  O   UNL     1     -11.945  14.517  69.266  1.00  0.00    -0.310 OA 
BRANCH  32  34
HETATM   34  C   UNL     1     -10.683  15.947  67.896  1.00  0.00    -0.312 A  
HETATM   35  C   UNL     1      -9.695  16.237  66.968  1.00  0.00    -0.244 A  
HETATM   36  O   UNL     1     -11.289  17.112  68.287  1.00  0.00    -0.121 OA 
HETATM   37  C   UNL     1      -9.691  17.637  66.789  1.00  0.00    -0.300 A  
HETATM   38  C   UNL     1     -10.674  18.127  67.617  1.00  0.00    -0.343 A  
ENDBRANCH  32  34
ENDBRANCH  31  32
ENDBRANCH   5  31
TORSDOF 5
ENDMDL
MODEL      128
REMARK 921   NORMALIZED FREE ENERGY PREDICTED BY IDOCK:    3.78 KCAL/MOL
REMARK 922        TOTAL FREE ENERGY PREDICTED BY IDOCK:    5.59 KCAL/MOL
REMARK 923 INTER-LIGAND FREE ENERGY PREDICTED BY IDOCK:    1.49 KCAL/MOL
REMARK 924 INTRA-LIGAND FREE ENERGY PREDICTED BY IDOCK:    4.10 KCAL/MOL
REMARK 927      BINDING AFFINITY PREDICTED BY RF-SCORE:    0.00 PKD
ROOT
HETATM    1  C   UNL     1      -8.489  11.195  66.155  1.00  0.00    -0.156 C  
HETATM    2  C   UNL     1      -7.468  12.151  65.905  1.00  0.00     1.407 C  
HETATM    3  C   UNL     1      -7.369  11.208  67.046  1.00  0.00    -0.128 C  
HETATM    4  C   UNL     1      -5.773  11.576  67.585  1.00  0.00    -0.054 C  
HETATM    5  C   UNL     1      -8.621   9.579  66.883  1.00  0.00    -0.128 C  
HETATM    6  C   UNL     1      -9.311  13.904  70.572  1.00  0.00     3.650 C  
HETATM    7  C   UNL     1     -10.291  13.291  69.487  1.00  0.00     0.556 C  
HETATM    8  C   UNL     1      -7.306   9.848  67.091  1.00  0.00    -0.091 C  
HETATM    9  C   UNL     1     -11.557  12.996  70.284  1.00  0.00    -0.060 C  
HETATM   10  C   UNL     1     -12.523  13.943  70.401  1.00  0.00    -0.404 C  
HETATM   11  C   UNL     1      -7.546   9.969  68.938  1.00  0.00    -0.086 C  
HETATM   12  O   UNL     1     -13.348  16.089  69.715  1.00  0.00     0.477 OA 
HETATM   13  C   UNL     1      -6.208   9.126  66.251  1.00  0.00    -0.064 C  
HETATM   14  C   UNL     1     -12.438  15.273  69.682  1.00  0.00    -0.139 C  
HETATM   15  C   UNL     1     -11.147  15.566  68.966  1.00  0.00    -0.267 C  
HETATM   16  C   UNL     1     -10.722  14.383  68.475  1.00  0.00    -0.258 C  
HETATM   17  C   UNL     1      -8.885  10.888  69.462  1.00  0.00     0.263 C  
HETATM   18  O   UNL     1      -9.985   9.996  69.685  1.00  0.00    -0.212 OA 
HETATM   19  F   UNL     1     -11.851  14.868  66.446  1.00  0.00    -0.347 F  
HETATM   20  C   UNL     1      -9.399  12.257  68.673  1.00  0.00    -0.009 C  
HETATM   21  C   UNL     1     -11.373  13.849  67.214  1.00  0.00    -0.323 C  
HETATM   22  F   UNL     1      -8.304  13.139  68.530  1.00  0.00    -0.151 F  
HETATM   23  C   UNL     1     -10.360  13.087  66.385  1.00  0.00    -0.287 C  
HETATM   24  C   UNL     1      -9.794  11.876  67.142  1.00  0.00    -0.206 C  
HETATM   25  H   UNL     1     -10.730  10.508  69.976  1.00  0.00     0.000 HD 
ENDROOT
BRANCH   5  26
HETATM   26  C   UNL     1      -8.713   8.112  67.629  1.00  0.00    -0.130 C  
HETATM   27  O   UNL     1      -8.425   7.858  68.792  1.00  0.00    -0.127 OA 
BRANCH  26  28
HETATM   28  S   UNL     1      -9.147   6.764  66.552  1.00  0.00    -0.151 SA 
HETATM   29  F   UNL     1     -11.290   5.296  66.780  1.00  0.00    -0.043 F  
HETATM   30  C   UNL     1     -10.857   6.535  67.146  1.00  0.00    -0.401 C  
ENDBRANCH  26  28
ENDBRANCH   5  26
BRANCH   5  31
HETATM   31  O   UNL     1      -8.967   9.095  65.454  1.00  0.00    -0.187 OA 
BRANCH  31  32
HETATM   32  C   UNL     1      -8.810   9.725  64.248  1.00  0.00    -0.228 C  
HETATM   33  O   UNL     1      -7.887   9.534  63.478  1.00  0.00    -0.122 OA 
BRANCH  32  34
HETATM   34  C   UNL     1      -9.921  10.602  63.962  1.00  0.00    -0.337 A  
HETATM   35  C   UNL     1     -11.196  10.594  64.508  1.00  0.00     0.872 A  
HETATM   36  O   UNL     1      -9.824  11.628  63.059  1.00  0.00    -0.393 OA 
HETATM   37  C   UNL     1     -11.911  11.653  63.907  1.00  0.00    -0.348 A  
HETATM   38  C   UNL     1     -11.036  12.250  63.029  1.00  0.00     0.099 A  
ENDBRANCH  32  34
ENDBRANCH  31  32
ENDBRANCH   5  31
TORSDOF 5
ENDMDL
MODEL      129
REMARK 921   NORMALIZED FREE ENERGY PREDICTED BY IDOCK:    5.59 KCAL/MOL
REMARK 922        TOTAL FREE ENERGY PREDICTED BY IDOCK:    7.92 KCAL/MOL
REMARK 923 INTER-LIGAND FREE ENERGY PREDICTED BY IDOCK:    4.96 KCAL/MOL
REMARK 924 INTRA-LIGAND FREE ENERGY PREDICTED BY IDOCK:    2.96 KCAL/MOL
REMARK 927      BINDING AFFINITY PREDICTED BY RF-SCORE:    0.00 PKD
ROOT
HETATM    1  C   UNL     1      -9.217  12.378  69.390  1.00  0.00     1.183 C  
HETATM    2  C   UNL     1     -10.364  11.899  70.077  1.00  0.00     1.436 C  
HETATM    3  C   UNL     1      -9.423  10.962  69.418  1.00  0.00     0.036 C  
HETATM    4  C   UNL     1     -10.082   9.464  69.959  1.00  0.00    -0.259 C  
HETATM    5  C   UNL     1      -7.583  11.795  69.003  1.00  0.00     0.004 C  
HETATM    6  C   UNL     1     -11.558  10.479  65.096  1.00  0.00     1.853 C  
HETATM    7  C   UNL     1     -10.799  11.838  65.396  1.00  0.00    -0.347 C  
HETATM    8  C   UNL     1      -8.101  10.709  69.633  1.00  0.00     0.015 C  
HETATM    9  C   UNL     1     -10.232  12.231  64.037  1.00  0.00    -0.399 C  
HETATM   10  C   UNL     1     -10.963  13.002  63.192  1.00  0.00     0.612 C  
HETATM   11  C   UNL     1      -8.110   9.705  68.060  1.00  0.00    -0.105 C  
HETATM   12  O   UNL     1     -12.924  14.344  62.861  1.00  0.00     0.460 OA 
HETATM   13  C   UNL     1      -7.641  10.338  71.076  1.00  0.00     1.397 C  
HETATM   14  C   UNL     1     -12.307  13.578  63.586  1.00  0.00    -0.310 C  
HETATM   15  C   UNL     1     -12.875  13.113  64.901  1.00  0.00    -0.349 C  
HETATM   16  C   UNL     1     -11.817  12.960  65.724  1.00  0.00    -0.469 C  
HETATM   17  C   UNL     1      -8.726  10.488  66.674  1.00  0.00    -0.133 C  
HETATM   18  O   UNL     1      -7.626  11.053  65.948  1.00  0.00    -0.301 OA 
HETATM   19  F   UNL     1     -12.136  15.185  66.479  1.00  0.00    -0.168 F  
HETATM   20  C   UNL     1      -9.991  11.564  66.738  1.00  0.00    -0.208 C  
HETATM   21  C   UNL     1     -11.207  14.197  66.355  1.00  0.00    -0.328 C  
HETATM   22  F   UNL     1     -11.077  10.950  67.402  1.00  0.00    -0.291 F  
HETATM   23  C   UNL     1     -10.691  13.877  67.742  1.00  0.00    -0.252 C  
HETATM   24  C   UNL     1      -9.591  12.804  67.711  1.00  0.00    -0.204 C  
HETATM   25  H   UNL     1      -7.969  11.488  65.177  1.00  0.00     0.000 HD 
ENDROOT
BRANCH   5  26
HETATM   26  C   UNL     1      -6.103  11.189  68.604  1.00  0.00    -0.043 C  
HETATM   27  O   UNL     1      -5.235  11.742  67.940  1.00  0.00    -0.045 OA 
BRANCH  26  28
HETATM   28  S   UNL     1      -5.844   9.498  69.093  1.00  0.00    -0.034 SA 
HETATM   29  F   UNL     1      -5.238   7.547  67.473  1.00  0.00    -0.021 F  
HETATM   30  C   UNL     1      -5.145   8.905  67.516  1.00  0.00    -0.034 C  
ENDBRANCH  26  28
ENDBRANCH   5  26
BRANCH   5  31
HETATM   31  O   UNL     1      -7.089  12.918  69.945  1.00  0.00     0.349 OA 
BRANCH  31  32
HETATM   32  C   UNL     1      -7.525  14.209  70.083  1.00  0.00     0.716 C  
HETATM   33  O   UNL     1      -8.304  14.593  70.936  1.00  0.00     1.868 OA 
BRANCH  32  34
HETATM   34  C   UNL     1      -6.890  15.086  69.127  1.00  0.00    -0.132 A  
HETATM   35  C   UNL     1      -5.638  15.677  69.190  1.00  0.00    -0.101 A  
HETATM   36  O   UNL     1      -7.500  15.447  67.954  1.00  0.00    -0.121 OA 
HETATM   37  C   UNL     1      -5.479  16.438  68.012  1.00  0.00    -0.118 A  
HETATM   38  C   UNL     1      -6.640  16.271  67.294  1.00  0.00    -0.193 A  
ENDBRANCH  32  34
ENDBRANCH  31  32
ENDBRANCH   5  31
TORSDOF 5
ENDMDL
MODEL      130
REMARK 921   NORMALIZED FREE ENERGY PREDICTED BY IDOCK:    5.71 KCAL/MOL
REMARK 922        TOTAL FREE ENERGY PREDICTED BY IDOCK:    8.08 KCAL/MOL
REMARK 923 INTER-LIGAND FREE ENERGY PREDICTED BY IDOCK:    4.03 KCAL/MOL
REMARK 924 INTRA-LIGAND FREE ENERGY PREDICTED BY IDOCK:    4.05 KCAL/MOL
REMARK 927      BINDING AFFINITY PREDICTED BY RF-SCORE:    0.00 PKD
ROOT
HETATM    1  C   UNL     1      -6.878  13.226  67.597  1.00  0.00    -0.168 C  
HETATM    2  C   UNL     1      -6.011  13.567  66.524  1.00  0.00     2.942 C  
HETATM    3  C   UNL     1      -6.649  14.618  67.353  1.00  0.00     0.010 C  
HETATM    4  C   UNL     1      -5.853  16.008  66.717  1.00  0.00     0.533 C  
HETATM    5  C   UNL     1      -7.371  13.924  69.156  1.00  0.00    -0.004 C  
HETATM    6  C   UNL     1     -10.607  15.526  64.711  1.00  0.00    -0.246 C  
HETATM    7  C   UNL     1     -10.568  14.176  65.540  1.00  0.00    -0.335 C  
HETATM    8  C   UNL     1      -6.555  14.902  68.683  1.00  0.00    -0.087 C  
HETATM    9  C   UNL     1     -12.021  13.976  65.955  1.00  0.00    -0.434 C  
HETATM   10  C   UNL     1     -12.868  13.281  65.154  1.00  0.00    -0.376 C  
HETATM   11  C   UNL     1      -7.978  16.087  68.459  1.00  0.00    -0.159 C  
HETATM   12  O   UNL     1     -13.142  11.904  63.208  1.00  0.00    -0.674 OA 
HETATM   13  C   UNL     1      -5.138  15.115  69.298  1.00  0.00    -0.091 C  
HETATM   14  C   UNL     1     -12.400  12.603  63.883  1.00  0.00    -0.459 C  
HETATM   15  C   UNL     1     -10.982  12.879  63.460  1.00  0.00    -0.226 C  
HETATM   16  C   UNL     1     -10.270  12.978  64.602  1.00  0.00    -0.324 C  
HETATM   17  C   UNL     1      -9.373  15.452  67.707  1.00  0.00    -0.195 C  
HETATM   18  O   UNL     1     -10.284  15.029  68.731  1.00  0.00    -0.221 OA 
HETATM   19  F   UNL     1      -9.770  10.666  64.442  1.00  0.00    -0.248 F  
HETATM   20  C   UNL     1      -9.302  14.321  66.492  1.00  0.00    -0.271 C  
HETATM   21  C   UNL     1      -9.874  11.702  65.319  1.00  0.00    -0.248 C  
HETATM   22  F   UNL     1      -8.448  14.801  65.473  1.00  0.00     0.716 F  
HETATM   23  C   UNL     1      -8.525  11.875  65.985  1.00  0.00     0.194 C  
HETATM   24  C   UNL     1      -8.544  12.991  67.041  1.00  0.00    -0.165 C  
HETATM   25  H   UNL     1     -11.060  14.676  68.313  1.00  0.00     0.000 HD 
ENDROOT
BRANCH   5  26
HETATM   26  C   UNL     1      -7.855  14.639  70.559  1.00  0.00     1.340 C  
HETATM   27  O   UNL     1      -9.002  14.736  70.979  1.00  0.00     2.028 OA 
BRANCH  26  28
HETATM   28  S   UNL     1      -6.556  15.464  71.452  1.00  0.00     1.691 SA 
HETATM   29  F   UNL     1      -5.245  14.449  73.465  1.00  0.00    -0.284 F  
HETATM   30  C   UNL     1      -5.968  14.016  72.394  1.00  0.00     0.386 C  
ENDBRANCH  26  28
ENDBRANCH   5  26
BRANCH   5  31
HETATM   31  O   UNL     1      -6.639  12.718  69.791  1.00  0.00    -0.056 OA 
BRANCH  31  32
HETATM   32  C   UNL     1      -6.620  11.401  69.416  1.00  0.00    -0.119 C  
HETATM   33  O   UNL     1      -5.614  10.761  69.175  1.00  0.00    -0.041 OA 
BRANCH  32  34
HETATM   34  C   UNL     1      -7.949  10.835  69.406  1.00  0.00    -0.067 A  
HETATM   35  C   UNL     1      -8.332   9.516  69.591  1.00  0.00    -0.155 A  
HETATM   36  O   UNL     1      -9.066  11.605  69.212  1.00  0.00     0.228 OA 
HETATM   37  C   UNL     1      -9.740   9.475  69.497  1.00  0.00    -0.201 A  
HETATM   38  C   UNL     1     -10.141  10.769  69.260  1.00  0.00    -0.177 A  
ENDBRANCH  32  34
ENDBRANCH  31  32
ENDBRANCH   5  31
TORSDOF 5
ENDMDL
MODEL      131
REMARK 921   NORMALIZED FREE ENERGY PREDICTED BY IDOCK:    5.75 KCAL/MOL
REMARK 922        TOTAL FREE ENERGY PREDICTED BY IDOCK:    8.13 KCAL/MOL
REMARK 923 INTER-LIGAND FREE ENERGY PREDICTED BY IDOCK:    3.87 KCAL/MOL
REMARK 924 INTRA-LIGAND FREE ENERGY PREDICTED BY IDOCK:    4.26 KCAL/MOL
REMARK 927      BINDING AFFINITY PREDICTED BY RF-SCORE:    0.00 PKD
ROOT
HETATM    1  C   UNL     1      -7.111  14.642  67.699  1.00  0.00    -0.203 C  
HETATM    2  C   UNL     1      -6.989  15.152  66.379  1.00  0.00     2.165 C  
HETATM    3  C   UNL     1      -8.240  15.334  67.155  1.00  0.00    -0.250 C  
HETATM    4  C   UNL     1      -9.098  16.370  66.078  1.00  0.00    -0.317 C  
HETATM    5  C   UNL     1      -8.003  15.046  69.183  1.00  0.00    -0.195 C  
HETATM    6  C   UNL     1     -10.764  11.481  65.653  1.00  0.00    -0.323 C  
HETATM    7  C   UNL     1      -9.568  11.231  66.662  1.00  0.00    -0.218 C  
HETATM    8  C   UNL     1      -8.489  15.982  68.328  1.00  0.00    -0.177 C  
HETATM    9  C   UNL     1     -10.061  10.063  67.509  1.00  0.00    -0.243 C  
HETATM   10  C   UNL     1      -9.803   8.787  67.124  1.00  0.00    -0.268 C  
HETATM   11  C   UNL     1     -10.184  15.201  68.317  1.00  0.00    -0.223 C  
HETATM   12  O   UNL     1      -8.641   7.323  65.619  1.00  0.00    -0.148 OA 
HETATM   13  C   UNL     1      -8.055  17.474  68.458  1.00  0.00    -0.275 C  
HETATM   14  C   UNL     1      -8.948   8.468  65.915  1.00  0.00    -0.189 C  
HETATM   15  C   UNL     1      -8.538   9.636  65.058  1.00  0.00    -0.180 C  
HETATM   16  C   UNL     1      -8.338  10.664  65.908  1.00  0.00    -0.161 C  
HETATM   17  C   UNL     1     -10.228  13.505  68.127  1.00  0.00    -0.249 C  
HETATM   18  O   UNL     1     -10.295  12.907  69.429  1.00  0.00    -0.371 OA 
HETATM   19  F   UNL     1      -6.047  10.066  66.026  1.00  0.00    -0.061 F  
HETATM   20  C   UNL     1      -9.152  12.681  67.165  1.00  0.00    -0.210 C  
HETATM   21  C   UNL     1      -7.043  10.708  66.696  1.00  0.00    -0.124 C  
HETATM   22  F   UNL     1      -9.162  13.257  65.875  1.00  0.00    -0.154 F  
HETATM   23  C   UNL     1      -6.605  12.143  66.901  1.00  0.00    -0.006 C  
HETATM   24  C   UNL     1      -7.640  12.951  67.700  1.00  0.00    -0.156 C  
HETATM   25  H   UNL     1     -10.319  11.964  69.323  1.00  0.00     0.000 HD 
ENDROOT
BRANCH   5  26
HETATM   26  C   UNL     1      -8.901  15.411  70.515  1.00  0.00     1.417 C  
HETATM   27  O   UNL     1      -8.741  14.984  71.652  1.00  0.00     3.249 OA 
BRANCH  26  28
HETATM   28  S   UNL     1     -10.325  16.427  70.187  1.00  0.00     0.252 SA 
HETATM   29  F   UNL     1     -12.454  16.550  71.687  1.00  0.00    -0.351 F  
HETATM   30  C   UNL     1     -11.139  16.214  71.806  1.00  0.00     0.306 C  
ENDBRANCH  26  28
ENDBRANCH   5  26
BRANCH   5  31
HETATM   31  O   UNL     1      -6.615  15.374  69.784  1.00  0.00    -0.161 OA 
BRANCH  31  32
HETATM   32  C   UNL     1      -6.276  15.791  71.043  1.00  0.00     0.720 C  
HETATM   33  O   UNL     1      -6.207  15.070  72.021  1.00  0.00     0.667 OA 
BRANCH  32  34
HETATM   34  C   UNL     1      -5.937  17.195  71.060  1.00  0.00     0.899 A  
HETATM   35  C   UNL     1      -5.891  18.090  70.002  1.00  0.00    -0.214 A  
HETATM   36  O   UNL     1      -5.613  17.851  72.219  1.00  0.00     0.108 OA 
HETATM   37  C   UNL     1      -5.514  19.342  70.534  1.00  0.00    -0.252 A  
HETATM   38  C   UNL     1      -5.351  19.146  71.886  1.00  0.00    -0.234 A  
ENDBRANCH  32  34
ENDBRANCH  31  32
ENDBRANCH   5  31
TORSDOF 5
ENDMDL
MODEL      132
REMARK 921   NORMALIZED FREE ENERGY PREDICTED BY IDOCK:    5.90 KCAL/MOL
REMARK 922        TOTAL FREE ENERGY PREDICTED BY IDOCK:    8.33 KCAL/MOL
REMARK 923 INTER-LIGAND FREE ENERGY PREDICTED BY IDOCK:    3.46 KCAL/MOL
REMARK 924 INTRA-LIGAND FREE ENERGY PREDICTED BY IDOCK:    4.87 KCAL/MOL
REMARK 927      BINDING AFFINITY PREDICTED BY RF-SCORE:    0.00 PKD
ROOT
HETATM    1  C   UNL     1      -8.536  15.115  66.221  1.00  0.00    -0.020 C  
HETATM    2  C   UNL     1      -7.354  14.340  66.084  1.00  0.00     3.541 C  
HETATM    3  C   UNL     1      -8.341  14.044  67.150  1.00  0.00    -0.174 C  
HETATM    4  C   UNL     1      -7.663  12.588  67.774  1.00  0.00    -0.142 C  
HETATM    5  C   UNL     1     -10.196  14.880  66.814  1.00  0.00    -0.259 C  
HETATM    6  C   UNL     1      -6.475  16.621  70.803  1.00  0.00     1.367 C  
HETATM    7  C   UNL     1      -7.202  17.413  69.640  1.00  0.00     0.322 C  
HETATM    8  C   UNL     1      -9.650  13.668  67.091  1.00  0.00    -0.241 C  
HETATM    9  C   UNL     1      -7.848  18.588  70.364  1.00  0.00     2.583 C  
HETATM   10  C   UNL     1      -7.163  19.750  70.520  1.00  0.00     0.568 C  
HETATM   11  C   UNL     1      -9.744  13.960  68.932  1.00  0.00    -0.013 C  
HETATM   12  O   UNL     1      -5.214  21.040  69.975  1.00  0.00    -0.419 OA 
HETATM   13  C   UNL     1     -10.025  12.418  66.237  1.00  0.00    -0.259 C  
HETATM   14  C   UNL     1      -5.792  19.965  69.911  1.00  0.00    -0.293 C  
HETATM   15  C   UNL     1      -5.150  18.765  69.267  1.00  0.00    -0.193 C  
HETATM   16  C   UNL     1      -6.158  18.069  68.701  1.00  0.00    -0.195 C  
HETATM   17  C   UNL     1      -9.206  15.486  69.478  1.00  0.00    -0.265 C  
HETATM   18  O   UNL     1     -10.343  16.352  69.589  1.00  0.00    -0.279 OA 
HETATM   19  F   UNL     1      -5.776  19.243  66.677  1.00  0.00    -0.161 F  
HETATM   20  C   UNL     1      -7.930  16.290  68.779  1.00  0.00    -0.221 C  
HETATM   21  C   UNL     1      -6.719  18.555  67.379  1.00  0.00    -0.201 C  
HETATM   22  F   UNL     1      -6.811  15.428  68.746  1.00  0.00    -0.103 F  
HETATM   23  C   UNL     1      -7.153  17.379  66.530  1.00  0.00    -0.300 C  
HETATM   24  C   UNL     1      -8.261  16.559  67.210  1.00  0.00    -0.196 C  
HETATM   25  H   UNL     1     -10.043  17.200  69.893  1.00  0.00     0.000 HD 
ENDROOT
BRANCH   5  26
HETATM   26  C   UNL     1     -11.702  14.641  67.440  1.00  0.00    -0.390 C  
HETATM   27  O   UNL     1     -12.002  14.548  68.623  1.00  0.00    -0.322 OA 
BRANCH  26  28
HETATM   28  S   UNL     1     -12.968  14.356  66.222  1.00  0.00     0.939 SA 
HETATM   29  F   UNL     1     -13.213  12.186  64.798  1.00  0.00    -0.386 F  
HETATM   30  C   UNL     1     -12.659  12.574  65.980  1.00  0.00     0.517 C  
ENDBRANCH  26  28
ENDBRANCH   5  26
BRANCH   5  31
HETATM   31  O   UNL     1     -10.623  15.079  65.340  1.00  0.00    -0.322 OA 
BRANCH  31  32
HETATM   32  C   UNL     1     -11.415  16.042  64.774  1.00  0.00    -0.201 C  
HETATM   33  O   UNL     1     -12.256  15.836  63.919  1.00  0.00    -0.690 OA 
BRANCH  32  34
HETATM   34  C   UNL     1     -11.178  17.337  65.368  1.00  0.00     0.475 A  
HETATM   35  C   UNL     1     -10.934  17.651  66.696  1.00  0.00     0.211 A  
HETATM   36  O   UNL     1     -11.153  18.486  64.621  1.00  0.00    -0.217 OA 
HETATM   37  C   UNL     1     -10.762  19.051  66.766  1.00  0.00    -0.450 A  
HETATM   38  C   UNL     1     -10.910  19.515  65.480  1.00  0.00    -0.151 A  
ENDBRANCH  32  34
ENDBRANCH  31  32
ENDBRANCH   5  31
TORSDOF 5
ENDMDL
MODEL      133
REMARK 921   NORMALIZED FREE ENERGY PREDICTED BY IDOCK:    6.07 KCAL/MOL
REMARK 922        TOTAL FREE ENERGY PREDICTED BY IDOCK:    8.54 KCAL/MOL
REMARK 923 INTER-LIGAND FREE ENERGY PREDICTED BY IDOCK:    6.84 KCAL/MOL
REMARK 924 INTRA-LIGAND FREE ENERGY PREDICTED BY IDOCK:    1.70 KCAL/MOL
REMARK 927      BINDING AFFINITY PREDICTED BY RF-SCORE:    0.00 PKD
ROOT
HETATM    1  C   UNL     1      -8.861  13.555  66.736  1.00  0.00    -0.146 C  
HETATM    2  C   UNL     1      -7.839  14.441  67.169  1.00  0.00    -0.111 C  
HETATM    3  C   UNL     1      -7.912  13.051  67.682  1.00  0.00    -0.169 C  
HETATM    4  C   UNL     1      -6.445  13.001  68.584  1.00  0.00    -0.087 C  
HETATM    5  C   UNL     1      -9.072  11.803  66.521  1.00  0.00    -0.203 C  
HETATM    6  C   UNL     1     -10.508  13.747  71.712  1.00  0.00     5.696 C  
HETATM    7  C   UNL     1     -11.269  13.819  70.324  1.00  0.00     0.181 C  
HETATM    8  C   UNL     1      -7.821  11.848  67.048  1.00  0.00    -0.152 C  
HETATM    9  C   UNL     1     -12.644  13.246  70.647  1.00  0.00    -0.305 C  
HETATM   10  C   UNL     1     -13.642  14.067  71.063  1.00  0.00    -0.115 C  
HETATM   11  C   UNL     1      -8.378  11.048  68.638  1.00  0.00    -0.153 C  
HETATM   12  O   UNL     1     -14.396  16.317  71.423  1.00  0.00     0.641 OA 
HETATM   13  C   UNL     1      -6.575  11.574  66.151  1.00  0.00     0.228 C  
HETATM   14  C   UNL     1     -13.472  15.570  71.134  1.00  0.00    -0.439 C  
HETATM   15  C   UNL     1     -12.085  16.100  70.883  1.00  0.00    -0.194 C  
HETATM   16  C   UNL     1     -11.549  15.295  69.942  1.00  0.00    -0.335 C  
HETATM   17  C   UNL     1      -9.813  11.665  69.327  1.00  0.00     0.311 C  
HETATM   18  O   UNL     1     -10.910  10.852  68.889  1.00  0.00    -0.189 OA 
HETATM   19  F   UNL     1     -12.324  16.796  68.277  1.00  0.00     0.424 F  
HETATM   20  C   UNL     1     -10.221  13.275  69.259  1.00  0.00     0.357 C  
HETATM   21  C   UNL     1     -11.958  15.502  68.496  1.00  0.00    -0.158 C  
HETATM   22  F   UNL     1      -9.143  14.040  69.758  1.00  0.00     0.494 F  
HETATM   23  C   UNL     1     -10.796  15.193  67.575  1.00  0.00    -0.301 C  
HETATM   24  C   UNL     1     -10.335  13.733  67.703  1.00  0.00    -0.239 C  
HETATM   25  H   UNL     1     -11.708  11.196  69.272  1.00  0.00     0.000 HD 
ENDROOT
BRANCH   5  26
HETATM   26  C   UNL     1      -9.250  10.168  66.405  1.00  0.00    -0.158 C  
HETATM   27  O   UNL     1      -9.379   9.373  67.328  1.00  0.00    -0.129 OA 
BRANCH  26  28
HETATM   28  S   UNL     1      -9.093   9.527  64.752  1.00  0.00    -0.187 SA 
HETATM   29  F   UNL     1      -6.994   8.292  63.820  1.00  0.00    -0.075 F  
HETATM   30  C   UNL     1      -7.571   8.557  65.025  1.00  0.00    -0.093 C  
ENDBRANCH  26  28
ENDBRANCH   5  26
BRANCH   5  31
HETATM   31  O   UNL     1      -9.152  12.118  65.008  1.00  0.00     0.235 OA 
BRANCH  31  32
HETATM   32  C   UNL     1      -9.946  13.007  64.334  1.00  0.00    -0.105 C  
HETATM   33  O   UNL     1      -9.621  14.140  64.031  1.00  0.00     1.283 OA 
BRANCH  32  34
HETATM   34  C   UNL     1     -11.207  12.410  63.960  1.00  0.00    -0.396 A  
HETATM   35  C   UNL     1     -12.464  12.624  64.504  1.00  0.00    -0.525 A  
HETATM   36  O   UNL     1     -11.308  11.504  62.936  1.00  0.00     0.034 OA 
HETATM   37  C   UNL     1     -13.370  11.810  63.789  1.00  0.00     0.331 A  
HETATM   38  C   UNL     1     -12.619  11.143  62.850  1.00  0.00     1.588 A  
ENDBRANCH  32  34
ENDBRANCH  31  32
ENDBRANCH   5  31
TORSDOF 5
ENDMDL
MODEL      134
REMARK 921   NORMALIZED FREE ENERGY PREDICTED BY IDOCK:    6.60 KCAL/MOL
REMARK 922        TOTAL FREE ENERGY PREDICTED BY IDOCK:    9.23 KCAL/MOL
REMARK 923 INTER-LIGAND FREE ENERGY PREDICTED BY IDOCK:   -3.91 KCAL/MOL
REMARK 924 INTRA-LIGAND FREE ENERGY PREDICTED BY IDOCK:   13.14 KCAL/MOL
REMARK 927      BINDING AFFINITY PREDICTED BY RF-SCORE:    0.00 PKD
ROOT
HETATM    1  C   UNL     1     -10.116  12.564  67.823  1.00  0.00    -0.218 C  
HETATM    2  C   UNL     1     -10.514  12.812  66.483  1.00  0.00    -0.276 C  
HETATM    3  C   UNL     1      -9.242  12.111  66.784  1.00  0.00    -0.207 C  
HETATM    4  C   UNL     1      -8.773  11.667  65.187  1.00  0.00     0.388 C  
HETATM    5  C   UNL     1      -9.148  11.358  68.701  1.00  0.00    -0.135 C  
HETATM    6  C   UNL     1      -6.165  15.853  66.780  1.00  0.00     0.516 C  
HETATM    7  C   UNL     1      -7.139  15.701  68.021  1.00  0.00    -0.133 C  
HETATM    8  C   UNL     1      -8.989  10.933  67.421  1.00  0.00    -0.136 C  
HETATM    9  C   UNL     1      -6.301  16.208  69.189  1.00  0.00    -0.159 C  
HETATM   10  C   UNL     1      -6.327  17.524  69.523  1.00  0.00    -0.230 C  
HETATM   11  C   UNL     1      -7.181  11.399  67.412  1.00  0.00    -0.115 C  
HETATM   12  O   UNL     1      -7.331  19.678  69.190  1.00  0.00    -0.358 OA 
HETATM   13  C   UNL     1      -9.712   9.646  66.920  1.00  0.00    -0.240 C  
HETATM   14  C   UNL     1      -7.242  18.513  68.831  1.00  0.00    -0.279 C  
HETATM   15  C   UNL     1      -8.000  18.000  67.636  1.00  0.00    -0.221 C  
HETATM   16  C   UNL     1      -8.305  16.716  67.916  1.00  0.00    -0.187 C  
HETATM   17  C   UNL     1      -6.799  12.937  68.045  1.00  0.00    -0.108 C  
HETATM   18  O   UNL     1      -6.438  12.780  69.424  1.00  0.00    -0.111 OA 
HETATM   19  F   UNL     1     -10.380  17.447  68.803  1.00  0.00    -0.294 F  
HETATM   20  C   UNL     1      -7.788  14.259  67.852  1.00  0.00    -0.152 C  
HETATM   21  C   UNL     1      -9.466  16.437  68.850  1.00  0.00    -0.254 C  
HETATM   22  F   UNL     1      -8.069  14.420  66.477  1.00  0.00    -0.052 F  
HETATM   23  C   UNL     1     -10.172  15.162  68.440  1.00  0.00    -0.221 C  
HETATM   24  C   UNL     1      -9.241  13.942  68.511  1.00  0.00    -0.154 C  
HETATM   25  H   UNL     1      -6.226  13.635  69.777  1.00  0.00     0.000 HD 
ENDROOT
BRANCH   5  26
HETATM   26  C   UNL     1      -8.185  10.262  69.467  1.00  0.00    -0.155 C  
HETATM   27  O   UNL     1      -8.367   9.766  70.572  1.00  0.00    -0.194 OA 
BRANCH  26  28
HETATM   28  S   UNL     1      -6.663   9.900  68.618  1.00  0.00    -0.050 SA 
HETATM   29  F   UNL     1      -5.276   7.710  68.901  1.00  0.00    -0.017 F  
HETATM   30  C   UNL     1      -6.559   8.136  69.073  1.00  0.00    -0.048 C  
ENDBRANCH  26  28
ENDBRANCH   5  26
BRANCH   5  31
HETATM   31  O   UNL     1     -10.485  10.943  69.362  1.00  0.00    -0.219 OA 
BRANCH  31  32
HETATM   32  C   UNL     1     -11.242   9.816  69.187  1.00  0.00    -0.061 C  
HETATM   33  O   UNL     1     -12.437   9.811  68.954  1.00  0.00     1.022 OA 
BRANCH  32  34
HETATM   34  C   UNL     1     -10.433   8.621  69.243  1.00  0.00    -0.217 A  
HETATM   35  C   UNL     1      -9.526   8.233  70.216  1.00  0.00    -0.164 A  
HETATM   36  O   UNL     1     -10.489   7.659  68.269  1.00  0.00    -0.199 OA 
HETATM   37  C   UNL     1      -8.998   6.985  69.817  1.00  0.00    -0.141 A  
HETATM   38  C   UNL     1      -9.611   6.680  68.624  1.00  0.00    -0.130 A  
ENDBRANCH  32  34
ENDBRANCH  31  32
ENDBRANCH   5  31
TORSDOF 5
ENDMDL
MODEL      135
REMARK 921   NORMALIZED FREE ENERGY PREDICTED BY IDOCK:    7.18 KCAL/MOL
REMARK 922        TOTAL FREE ENERGY PREDICTED BY IDOCK:    9.98 KCAL/MOL
REMARK 923 INTER-LIGAND FREE ENERGY PREDICTED BY IDOCK:   -3.39 KCAL/MOL
REMARK 924 INTRA-LIGAND FREE ENERGY PREDICTED BY IDOCK:   13.38 KCAL/MOL
REMARK 927      BINDING AFFINITY PREDICTED BY RF-SCORE:    0.00 PKD
ROOT
HETATM    1  C   UNL     1      -7.120  11.699  69.140  1.00  0.00    -0.090 C  
HETATM    2  C   UNL     1      -5.747  11.344  69.065  1.00  0.00    -0.044 C  
HETATM    3  C   UNL     1      -6.524  11.651  67.839  1.00  0.00    -0.061 C  
HETATM    4  C   UNL     1      -5.253  11.618  66.677  1.00  0.00    -0.092 C  
HETATM    5  C   UNL     1      -8.273  12.679  68.207  1.00  0.00    -0.164 C  
HETATM    6  C   UNL     1      -7.957   7.198  66.578  1.00  0.00    -0.112 C  
HETATM    7  C   UNL     1      -8.670   7.878  67.819  1.00  0.00    -0.127 C  
HETATM    8  C   UNL     1      -7.161  12.786  67.434  1.00  0.00    -0.134 C  
HETATM    9  C   UNL     1     -10.100   7.359  67.729  1.00  0.00    -0.232 C  
HETATM   10  C   UNL     1     -10.446   6.205  68.356  1.00  0.00    -0.280 C  
HETATM   11  C   UNL     1      -7.926  11.781  66.060  1.00  0.00     0.365 C  
HETATM   12  O   UNL     1      -9.811   4.455  69.870  1.00  0.00    -0.210 OA 
HETATM   13  C   UNL     1      -6.352  14.118  67.394  1.00  0.00     0.142 C  
HETATM   14  C   UNL     1      -9.475   5.444  69.235  1.00  0.00    -0.133 C  
HETATM   15  C   UNL     1      -8.053   5.938  69.245  1.00  0.00    -0.106 C  
HETATM   16  C   UNL     1      -8.129   7.281  69.143  1.00  0.00    -0.121 C  
HETATM   17  C   UNL     1      -8.723  10.347  66.533  1.00  0.00    -0.136 C  
HETATM   18  O   UNL     1     -10.119  10.637  66.687  1.00  0.00    -0.205 OA 
HETATM   19  F   UNL     1      -8.095   7.420  71.510  1.00  0.00    -0.096 F  
HETATM   20  C   UNL     1      -8.188   9.393  67.784  1.00  0.00    -0.114 C  
HETATM   21  C   UNL     1      -8.480   8.081  70.382  1.00  0.00    -0.130 C  
HETATM   22  F   UNL     1      -6.828   9.075  67.564  1.00  0.00    -0.071 F  
HETATM   23  C   UNL     1      -7.761   9.414  70.365  1.00  0.00    -0.163 C  
HETATM   24  C   UNL     1      -8.166  10.268  69.154  1.00  0.00    -0.152 C  
HETATM   25  H   UNL     1     -10.562   9.839  66.950  1.00  0.00     0.000 HD 
ENDROOT
BRANCH   5  26
HETATM   26  C   UNL     1      -9.327  13.538  67.275  1.00  0.00    -0.233 C  
HETATM   27  O   UNL     1      -9.045  14.347  66.399  1.00  0.00    -0.243 OA 
BRANCH  26  28
HETATM   28  S   UNL     1     -11.037  13.338  67.723  1.00  0.00    -0.277 SA 
HETATM   29  F   UNL     1     -11.947  11.567  69.407  1.00  0.00    -0.308 F  
HETATM   30  C   UNL     1     -10.777  12.209  69.132  1.00  0.00    -0.061 C  
ENDBRANCH  26  28
ENDBRANCH   5  26
BRANCH   5  31
HETATM   31  O   UNL     1      -8.298  13.610  69.443  1.00  0.00     0.463 OA 
BRANCH  31  32
HETATM   32  C   UNL     1      -8.634  14.933  69.543  1.00  0.00     0.010 C  
HETATM   33  O   UNL     1      -9.125  15.453  70.528  1.00  0.00     0.609 OA 
BRANCH  32  34
HETATM   34  C   UNL     1      -8.269  15.663  68.352  1.00  0.00    -0.146 A  
HETATM   35  C   UNL     1      -9.044  16.526  67.592  1.00  0.00    -0.199 A  
HETATM   36  O   UNL     1      -7.014  15.586  67.807  1.00  0.00    -0.132 OA 
HETATM   37  C   UNL     1      -8.232  16.989  66.533  1.00  0.00    -0.314 A  
HETATM   38  C   UNL     1      -7.008  16.385  66.704  1.00  0.00    -0.097 A  
ENDBRANCH  32  34
ENDBRANCH  31  32
ENDBRANCH   5  31
TORSDOF 5
ENDMDL
MODEL      136
REMARK 921   NORMALIZED FREE ENERGY PREDICTED BY IDOCK:    7.60 KCAL/MOL
REMARK 922        TOTAL FREE ENERGY PREDICTED BY IDOCK:   10.52 KCAL/MOL
REMARK 923 INTER-LIGAND FREE ENERGY PREDICTED BY IDOCK:    3.30 KCAL/MOL
REMARK 924 INTRA-LIGAND FREE ENERGY PREDICTED BY IDOCK:    7.22 KCAL/MOL
REMARK 927      BINDING AFFINITY PREDICTED BY RF-SCORE:    0.00 PKD
ROOT
HETATM    1  C   UNL     1      -8.299  16.114  67.737  1.00  0.00    -0.162 C  
HETATM    2  C   UNL     1      -8.576  16.126  66.344  1.00  0.00    -0.365 C  
HETATM    3  C   UNL     1      -9.674  16.083  67.340  1.00  0.00    -0.232 C  
HETATM    4  C   UNL     1     -11.025  16.259  66.285  1.00  0.00     0.008 C  
HETATM    5  C   UNL     1      -9.093  16.650  69.235  1.00  0.00    -0.066 C  
HETATM    6  C   UNL     1     -10.385  11.301  67.649  1.00  0.00    -0.212 C  
HETATM    7  C   UNL     1      -9.091  11.900  68.341  1.00  0.00    -0.167 C  
HETATM    8  C   UNL     1     -10.043  16.960  68.316  1.00  0.00    -0.302 C  
HETATM    9  C   UNL     1      -8.909  11.018  69.570  1.00  0.00     0.356 C  
HETATM   10  C   UNL     1      -8.158   9.889  69.492  1.00  0.00    -0.155 C  
HETATM   11  C   UNL     1     -11.203  15.647  68.959  1.00  0.00    -0.306 C  
HETATM   12  O   UNL     1      -6.657   8.542  68.192  1.00  0.00    -0.059 OA 
HETATM   13  C   UNL     1     -10.305  18.446  67.920  1.00  0.00    -0.425 C  
HETATM   14  C   UNL     1      -7.403   9.510  68.235  1.00  0.00    -0.077 C  
HETATM   15  C   UNL     1      -7.660  10.357  67.018  1.00  0.00    -0.101 C  
HETATM   16  C   UNL     1      -7.837  11.614  67.475  1.00  0.00    -0.137 C  
HETATM   17  C   UNL     1     -10.511  14.114  69.254  1.00  0.00    -0.061 C  
HETATM   18  O   UNL     1     -10.149  14.042  70.639  1.00  0.00     1.221 OA 
HETATM   19  F   UNL     1      -5.523  12.013  67.150  1.00  0.00    -0.084 F  
HETATM   20  C   UNL     1      -9.305  13.476  68.305  1.00  0.00    -0.205 C  
HETATM   21  C   UNL     1      -6.613  12.423  67.856  1.00  0.00    -0.097 C  
HETATM   22  F   UNL     1      -9.724  13.504  66.956  1.00  0.00    -0.224 F  
HETATM   23  C   UNL     1      -6.836  13.888  67.543  1.00  0.00    -0.148 C  
HETATM   24  C   UNL     1      -8.018  14.470  68.334  1.00  0.00    -0.141 C  
HETATM   25  H   UNL     1      -9.765  13.190  70.803  1.00  0.00     0.000 HD 
ENDROOT
BRANCH   5  26
HETATM   26  C   UNL     1      -9.894  17.096  70.605  1.00  0.00     2.636 C  
HETATM   27  O   UNL     1     -10.186  18.234  70.950  1.00  0.00     1.953 OA 
BRANCH  26  28
HETATM   28  S   UNL     1     -10.221  15.760  71.734  1.00  0.00     2.765 SA 
HETATM   29  F   UNL     1     -12.587  15.058  72.576  1.00  0.00    -0.349 F  
HETATM   30  C   UNL     1     -12.032  15.714  71.519  1.00  0.00    -0.417 C  
ENDBRANCH  26  28
ENDBRANCH   5  26
BRANCH   5  31
HETATM   31  O   UNL     1      -7.934  17.670  69.342  1.00  0.00     0.076 OA 
BRANCH  31  32
HETATM   32  C   UNL     1      -7.834  18.945  68.854  1.00  0.00    -0.279 C  
HETATM   33  O   UNL     1      -8.381  19.920  69.337  1.00  0.00    -0.004 OA 
BRANCH  32  34
HETATM   34  C   UNL     1      -6.937  19.010  67.725  1.00  0.00    -0.215 A  
HETATM   35  C   UNL     1      -5.688  18.426  67.574  1.00  0.00    -0.150 A  
HETATM   36  O   UNL     1      -7.253  19.699  66.583  1.00  0.00    -0.217 OA 
HETATM   37  C   UNL     1      -5.217  18.780  66.291  1.00  0.00    -0.165 A  
HETATM   38  C   UNL     1      -6.201  19.559  65.728  1.00  0.00    -0.194 A  
ENDBRANCH  32  34
ENDBRANCH  31  32
ENDBRANCH   5  31
TORSDOF 5
ENDMDL
MODEL      137
REMARK 921   NORMALIZED FREE ENERGY PREDICTED BY IDOCK:    7.87 KCAL/MOL
REMARK 922        TOTAL FREE ENERGY PREDICTED BY IDOCK:   10.88 KCAL/MOL
REMARK 923 INTER-LIGAND FREE ENERGY PREDICTED BY IDOCK:    9.31 KCAL/MOL
REMARK 924 INTRA-LIGAND FREE ENERGY PREDICTED BY IDOCK:    1.56 KCAL/MOL
REMARK 927      BINDING AFFINITY PREDICTED BY RF-SCORE:    0.00 PKD
ROOT
HETATM    1  C   UNL     1      -7.352  11.880  67.836  1.00  0.00    -0.104 C  
HETATM    2  C   UNL     1      -6.414  11.699  66.784  1.00  0.00    -0.106 C  
HETATM    3  C   UNL     1      -6.709  13.050  67.320  1.00  0.00    -0.020 C  
HETATM    4  C   UNL     1      -5.523  13.963  66.465  1.00  0.00     3.252 C  
HETATM    5  C   UNL     1      -7.621  13.025  69.169  1.00  0.00     0.254 C  
HETATM    6  C   UNL     1     -10.183  14.463  64.254  1.00  0.00     0.824 C  
HETATM    7  C   UNL     1     -10.563  13.385  65.351  1.00  0.00    -0.310 C  
HETATM    8  C   UNL     1      -6.543  13.586  68.562  1.00  0.00    -0.089 C  
HETATM    9  C   UNL     1     -12.010  13.721  65.689  1.00  0.00    -0.410 C  
HETATM   10  C   UNL     1     -13.023  13.145  64.991  1.00  0.00    -0.221 C  
HETATM   11  C   UNL     1      -7.537  15.055  67.985  1.00  0.00    -0.126 C  
HETATM   12  O   UNL     1     -13.687  11.507  63.368  1.00  0.00     0.000 OA 
HETATM   13  C   UNL     1      -5.133  13.505  69.224  1.00  0.00    -0.077 C  
HETATM   14  C   UNL     1     -12.773  12.091  63.933  1.00  0.00    -0.354 C  
HETATM   15  C   UNL     1     -11.335  11.833  63.570  1.00  0.00    -0.496 C  
HETATM   16  C   UNL     1     -10.636  11.974  64.715  1.00  0.00    -0.340 C  
HETATM   17  C   UNL     1      -9.053  14.707  67.282  1.00  0.00    -0.206 C  
HETATM   18  O   UNL     1     -10.057  14.813  68.300  1.00  0.00    -0.213 OA 
HETATM   19  F   UNL     1     -10.861   9.643  65.088  1.00  0.00     0.316 F  
HETATM   20  C   UNL     1      -9.320  13.362  66.343  1.00  0.00    -0.172 C  
HETATM   21  C   UNL     1     -10.652  10.834  65.715  1.00  0.00    -0.134 C  
HETATM   22  F   UNL     1      -8.352  13.326  65.314  1.00  0.00     1.723 F  
HETATM   23  C   UNL     1      -9.319  10.746  66.429  1.00  0.00    -0.198 C  
HETATM   24  C   UNL     1      -9.006  12.027  67.218  1.00  0.00    -0.180 C  
HETATM   25  H   UNL     1     -10.900  14.619  67.909  1.00  0.00     0.000 HD 
ENDROOT
BRANCH   5  26
HETATM   26  C   UNL     1      -7.876  14.148  70.348  1.00  0.00     1.724 C  
HETATM   27  O   UNL     1      -8.937  14.689  70.633  1.00  0.00     1.440 OA 
BRANCH  26  28
HETATM   28  S   UNL     1      -6.397  14.702  71.169  1.00  0.00     0.420 SA 
HETATM   29  F   UNL     1      -5.458  17.133  71.084  1.00  0.00    -0.202 F  
HETATM   30  C   UNL     1      -6.648  16.491  70.916  1.00  0.00     1.824 C  
ENDBRANCH  26  28
ENDBRANCH   5  26
BRANCH   5  31
HETATM   31  O   UNL     1      -7.296  11.832  70.099  1.00  0.00     0.557 OA 
BRANCH  31  32
HETATM   32  C   UNL     1      -7.997  10.680  70.334  1.00  0.00     1.194 C  
HETATM   33  O   UNL     1      -9.194  10.546  70.160  1.00  0.00     0.248 OA 
BRANCH  32  34
HETATM   34  C   UNL     1      -7.126   9.607  70.754  1.00  0.00    -0.068 A  
HETATM   35  C   UNL     1      -6.346   8.767  69.975  1.00  0.00    -0.037 A  
HETATM   36  O   UNL     1      -6.951   9.287  72.075  1.00  0.00    -0.313 OA 
HETATM   37  C   UNL     1      -5.674   7.891  70.854  1.00  0.00    -0.033 A  
HETATM   38  C   UNL     1      -6.078   8.243  72.121  1.00  0.00    -0.054 A  
ENDBRANCH  32  34
ENDBRANCH  31  32
ENDBRANCH   5  31
TORSDOF 5
ENDMDL
MODEL      138
REMARK 921   NORMALIZED FREE ENERGY PREDICTED BY IDOCK:    9.43 KCAL/MOL
REMARK 922        TOTAL FREE ENERGY PREDICTED BY IDOCK:   12.89 KCAL/MOL
REMARK 923 INTER-LIGAND FREE ENERGY PREDICTED BY IDOCK:   11.35 KCAL/MOL
REMARK 924 INTRA-LIGAND FREE ENERGY PREDICTED BY IDOCK:    1.53 KCAL/MOL
REMARK 927      BINDING AFFINITY PREDICTED BY RF-SCORE:    0.00 PKD
ROOT
HETATM    1  C   UNL     1      -9.189   5.783  68.872  1.00  0.00    -0.127 C  
HETATM    2  C   UNL     1     -10.030   5.217  69.867  1.00  0.00    -0.309 C  
HETATM    3  C   UNL     1     -10.516   6.308  68.987  1.00  0.00    -0.287 C  
HETATM    4  C   UNL     1     -12.171   6.346  69.466  1.00  0.00     1.143 C  
HETATM    5  C   UNL     1      -9.379   6.566  67.287  1.00  0.00    -0.121 C  
HETATM    6  C   UNL     1      -9.505  10.163  71.741  1.00  0.00     3.744 C  
HETATM    7  C   UNL     1      -8.295   9.431  71.026  1.00  0.00    -0.028 C  
HETATM    8  C   UNL     1     -10.677   6.374  67.636  1.00  0.00    -0.387 C  
HETATM    9  C   UNL     1      -7.337  10.571  70.702  1.00  0.00     0.815 C  
HETATM   10  C   UNL     1      -6.386  10.936  71.600  1.00  0.00     1.547 C  
HETATM   11  C   UNL     1     -10.975   8.206  67.832  1.00  0.00     0.098 C  
HETATM   12  O   UNL     1      -5.261  10.456  73.664  1.00  0.00    -0.334 OA 
HETATM   13  C   UNL     1     -11.530   5.273  66.934  1.00  0.00     1.662 C  
HETATM   14  C   UNL     1      -6.173  10.184  72.898  1.00  0.00     1.467 C  
HETATM   15  C   UNL     1      -7.179   9.113  73.224  1.00  0.00     0.660 C  
HETATM   16  C   UNL     1      -7.520   8.556  72.043  1.00  0.00    -0.120 C  
HETATM   17  C   UNL     1      -9.788   9.070  68.703  1.00  0.00    -0.165 C  
HETATM   18  O   UNL     1      -8.859   9.631  67.765  1.00  0.00    -0.125 OA 
HETATM   19  F   UNL     1      -5.824   6.931  72.369  1.00  0.00    -0.037 F  
HETATM   20  C   UNL     1      -8.979   8.423  70.003  1.00  0.00    -0.138 C  
HETATM   21  C   UNL     1      -6.569   7.556  71.415  1.00  0.00    -0.042 C  
HETATM   22  F   UNL     1      -9.927   7.941  70.934  1.00  0.00    -0.180 F  
HETATM   23  C   UNL     1      -7.346   6.492  70.670  1.00  0.00    -0.079 C  
HETATM   24  C   UNL     1      -8.184   7.086  69.529  1.00  0.00    -0.132 C  
HETATM   25  H   UNL     1      -8.199  10.111  68.249  1.00  0.00     0.000 HD 
ENDROOT
BRANCH   5  26
HETATM   26  C   UNL     1      -9.602   7.351  65.856  1.00  0.00     0.268 C  
HETATM   27  O   UNL     1     -10.649   7.458  65.229  1.00  0.00     3.214 OA 
BRANCH  26  28
HETATM   28  S   UNL     1      -8.108   7.972  65.115  1.00  0.00    -0.145 SA 
HETATM   29  F   UNL     1      -6.879   6.886  63.088  1.00  0.00    -0.046 F  
HETATM   30  C   UNL     1      -8.129   6.913  63.630  1.00  0.00     0.005 C  
ENDBRANCH  26  28
ENDBRANCH   5  26
BRANCH   5  31
HETATM   31  O   UNL     1      -8.667   5.316  66.718  1.00  0.00    -0.113 OA 
BRANCH  31  32
HETATM   32  C   UNL     1      -7.332   5.032  66.615  1.00  0.00    -0.086 C  
HETATM   33  O   UNL     1      -6.485   5.364  67.424  1.00  0.00    -0.048 OA 
BRANCH  32  34
HETATM   34  C   UNL     1      -7.052   4.222  65.453  1.00  0.00    -0.063 A  
HETATM   35  C   UNL     1      -7.475   2.932  65.171  1.00  0.00    -0.072 A  
HETATM   36  O   UNL     1      -6.288   4.683  64.412  1.00  0.00    -0.032 OA 
HETATM   37  C   UNL     1      -6.941   2.586  63.911  1.00  0.00    -0.040 A  
HETATM   38  C   UNL     1      -6.222   3.681  63.491  1.00  0.00    -0.015 A  
ENDBRANCH  32  34
ENDBRANCH  31  32
ENDBRANCH   5  31
TORSDOF 5
ENDMDL
MODEL      139
REMARK 921   NORMALIZED FREE ENERGY PREDICTED BY IDOCK:    9.80 KCAL/MOL
REMARK 922        TOTAL FREE ENERGY PREDICTED BY IDOCK:   13.36 KCAL/MOL
REMARK 923 INTER-LIGAND FREE ENERGY PREDICTED BY IDOCK:    4.16 KCAL/MOL
REMARK 924 INTRA-LIGAND FREE ENERGY PREDICTED BY IDOCK:    9.20 KCAL/MOL
REMARK 927      BINDING AFFINITY PREDICTED BY RF-SCORE:    0.00 PKD
ROOT
HETATM    1  C   UNL     1     -10.237   9.255  68.503  1.00  0.00    -0.225 C  
HETATM    2  C   UNL     1     -11.398   9.195  67.686  1.00  0.00     0.752 C  
HETATM    3  C   UNL     1     -11.262   8.332  68.885  1.00  0.00     0.427 C  
HETATM    4  C   UNL     1     -12.837   7.632  68.914  1.00  0.00     5.957 C  
HETATM    5  C   UNL     1      -9.819   8.977  70.208  1.00  0.00    -0.194 C  
HETATM    6  C   UNL     1      -9.394   4.339  66.876  1.00  0.00    -0.181 C  
HETATM    7  C   UNL     1      -8.442   5.595  67.041  1.00  0.00    -0.110 C  
HETATM    8  C   UNL     1     -11.133   8.636  70.207  1.00  0.00    -0.230 C  
HETATM    9  C   UNL     1      -7.081   4.971  67.324  1.00  0.00    -0.066 C  
HETATM   10  C   UNL     1      -6.247   4.665  66.297  1.00  0.00    -0.032 C  
HETATM   11  C   UNL     1     -10.746   6.836  70.511  1.00  0.00    -0.277 C  
HETATM   12  O   UNL     1      -5.790   4.817  63.946  1.00  0.00    -0.017 OA 
HETATM   13  C   UNL     1     -12.194   9.574  70.861  1.00  0.00    -0.332 C  
HETATM   14  C   UNL     1      -6.578   5.010  64.860  1.00  0.00    -0.040 C  
HETATM   15  C   UNL     1      -7.957   5.558  64.604  1.00  0.00    -0.115 C  
HETATM   16  C   UNL     1      -8.259   6.313  65.680  1.00  0.00    -0.143 C  
HETATM   17  C   UNL     1      -9.503   6.164  69.552  1.00  0.00    -0.140 C  
HETATM   18  O   UNL     1      -8.275   6.239  70.289  1.00  0.00    -0.120 OA 
HETATM   19  F   UNL     1      -7.397   8.206  64.540  1.00  0.00    -0.075 F  
HETATM   20  C   UNL     1      -9.255   6.600  67.968  1.00  0.00    -0.112 C  
HETATM   21  C   UNL     1      -7.659   7.702  65.778  1.00  0.00    -0.088 C  
HETATM   22  F   UNL     1     -10.469   6.452  67.260  1.00  0.00    -0.185 F  
HETATM   23  C   UNL     1      -8.629   8.644  66.459  1.00  0.00    -0.124 C  
HETATM   24  C   UNL     1      -8.953   8.197  67.893  1.00  0.00    -0.133 C  
HETATM   25  H   UNL     1      -7.584   5.865  69.756  1.00  0.00     0.000 HD 
ENDROOT
BRANCH   5  26
HETATM   26  C   UNL     1      -9.459   8.640  71.781  1.00  0.00    -0.284 C  
HETATM   27  O   UNL     1      -8.437   8.942  72.384  1.00  0.00    -0.396 OA 
BRANCH  26  28
HETATM   28  S   UNL     1     -10.652   7.606  72.604  1.00  0.00    -0.330 SA 
HETATM   29  F   UNL     1     -12.981   8.402  73.466  1.00  0.00     0.404 F  
HETATM   30  C   UNL     1     -12.052   8.774  72.540  1.00  0.00    -0.250 C  
ENDBRANCH  26  28
ENDBRANCH   5  26
BRANCH   5  31
HETATM   31  O   UNL     1      -9.542  10.498  70.264  1.00  0.00     0.286 OA 
BRANCH  31  32
HETATM   32  C   UNL     1      -9.204  11.370  69.264  1.00  0.00     0.332 C  
HETATM   33  O   UNL     1      -8.316  11.188  68.452  1.00  0.00    -0.134 OA 
BRANCH  32  34
HETATM   34  C   UNL     1     -10.084  12.515  69.242  1.00  0.00     0.489 A  
HETATM   35  C   UNL     1     -10.203  13.501  68.274  1.00  0.00    -0.250 A  
HETATM   36  O   UNL     1     -10.978  12.765  70.251  1.00  0.00     0.620 OA 
HETATM   37  C   UNL     1     -11.204  14.395  68.712  1.00  0.00    -0.282 A  
HETATM   38  C   UNL     1     -11.642  13.908  69.922  1.00  0.00    -0.241 A  
ENDBRANCH  32  34
ENDBRANCH  31  32
ENDBRANCH   5  31
TORSDOF 5
ENDMDL
MODEL      140
REMARK 921   NORMALIZED FREE ENERGY PREDICTED BY IDOCK:    9.85 KCAL/MOL
REMARK 922        TOTAL FREE ENERGY PREDICTED BY IDOCK:   13.43 KCAL/MOL
REMARK 923 INTER-LIGAND FREE ENERGY PREDICTED BY IDOCK:    9.91 KCAL/MOL
REMARK 924 INTRA-LIGAND FREE ENERGY PREDICTED BY IDOCK:    3.53 KCAL/MOL
REMARK 927      BINDING AFFINITY PREDICTED BY RF-SCORE:    0.00 PKD
ROOT
HETATM    1  C   UNL     1      -7.419  10.809  69.763  1.00  0.00    -0.028 C  
HETATM    2  C   UNL     1      -7.129  11.221  71.091  1.00  0.00     3.255 C  
HETATM    3  C   UNL     1      -8.123  10.153  70.822  1.00  0.00     0.963 C  
HETATM    4  C   UNL     1      -8.450   9.652  72.438  1.00  0.00     2.726 C  
HETATM    5  C   UNL     1      -7.964   9.332  68.938  1.00  0.00    -0.098 C  
HETATM    6  C   UNL     1     -12.196  12.773  70.683  1.00  0.00    -0.374 C  
HETATM    7  C   UNL     1     -11.210  12.876  69.446  1.00  0.00    -0.197 C  
HETATM    8  C   UNL     1      -7.999   8.930  70.235  1.00  0.00    -0.116 C  
HETATM    9  C   UNL     1     -12.152  13.057  68.261  1.00  0.00    -0.197 C  
HETATM   10  C   UNL     1     -12.525  14.303  67.872  1.00  0.00     0.201 C  
HETATM   11  C   UNL     1      -9.862   8.821  70.231  1.00  0.00    -0.198 C  
HETATM   12  O   UNL     1     -12.230  16.672  68.113  1.00  0.00     0.697 OA 
HETATM   13  C   UNL     1      -6.922   7.947  70.787  1.00  0.00    -0.045 C  
HETATM   14  C   UNL     1     -11.963  15.551  68.521  1.00  0.00    -0.158 C  
HETATM   15  C   UNL     1     -11.096  15.343  69.733  1.00  0.00    -0.295 C  
HETATM   16  C   UNL     1     -10.411  14.203  69.505  1.00  0.00     0.089 C  
HETATM   17  C   UNL     1     -10.689  10.143  69.536  1.00  0.00    -0.249 C  
HETATM   18  O   UNL     1     -10.972   9.827  68.166  1.00  0.00    -0.394 OA 
HETATM   19  F   UNL     1      -8.650  15.496  68.583  1.00  0.00    -0.150 F  
HETATM   20  C   UNL     1     -10.153  11.710  69.672  1.00  0.00     0.735 C  
HETATM   21  C   UNL     1      -9.211  14.255  68.579  1.00  0.00    -0.197 C  
HETATM   22  F   UNL     1      -9.948  12.004  71.038  1.00  0.00     4.346 F  
HETATM   23  C   UNL     1      -8.153  13.273  69.039  1.00  0.00     0.300 C  
HETATM   24  C   UNL     1      -8.667  11.826  69.021  1.00  0.00     0.240 C  
HETATM   25  H   UNL     1     -11.432  10.562  67.779  1.00  0.00     0.000 HD 
ENDROOT
BRANCH   5  26
HETATM   26  C   UNL     1      -8.540   7.964  68.221  1.00  0.00    -0.124 C  
HETATM   27  O   UNL     1      -9.409   7.216  68.652  1.00  0.00    -0.136 OA 
BRANCH  26  28
HETATM   28  S   UNL     1      -7.677   7.492  66.738  1.00  0.00    -0.104 SA 
HETATM   29  F   UNL     1      -8.729   7.425  64.352  1.00  0.00     0.053 F  
HETATM   30  C   UNL     1      -8.947   8.041  65.548  1.00  0.00     0.003 C  
ENDBRANCH  26  28
ENDBRANCH   5  26
BRANCH   5  31
HETATM   31  O   UNL     1      -6.559   9.318  68.291  1.00  0.00    -0.058 OA 
BRANCH  31  32
HETATM   32  C   UNL     1      -5.817  10.345  67.771  1.00  0.00    -0.044 C  
HETATM   33  O   UNL     1      -5.347  11.261  68.420  1.00  0.00    -0.043 OA 
BRANCH  32  34
HETATM   34  C   UNL     1      -5.598  10.175  66.354  1.00  0.00    -0.052 A  
HETATM   35  C   UNL     1      -5.618   9.007  65.607  1.00  0.00    -0.049 A  
HETATM   36  O   UNL     1      -5.340  11.235  65.525  1.00  0.00    -0.243 OA 
HETATM   37  C   UNL     1      -5.352   9.367  64.268  1.00  0.00    -0.060 A  
HETATM   38  C   UNL     1      -5.185  10.732  64.269  1.00  0.00    -0.096 A  
ENDBRANCH  32  34
ENDBRANCH  31  32
ENDBRANCH   5  31
TORSDOF 5
ENDMDL
MODEL      141
REMARK 921   NORMALIZED FREE ENERGY PREDICTED BY IDOCK:   11.63 KCAL/MOL
REMARK 922        TOTAL FREE ENERGY PREDICTED BY IDOCK:   15.73 KCAL/MOL
REMARK 923 INTER-LIGAND FREE ENERGY PREDICTED BY IDOCK:   13.46 KCAL/MOL
REMARK 924 INTRA-LIGAND FREE ENERGY PREDICTED BY IDOCK:    2.27 KCAL/MOL
REMARK 927      BINDING AFFINITY PREDICTED BY RF-SCORE:    0.00 PKD
ROOT
HETATM    1  C   UNL     1     -10.126  15.012  66.812  1.00  0.00    -0.257 C  
HETATM    2  C   UNL     1     -10.323  15.665  65.566  1.00  0.00    -0.421 C  
HETATM    3  C   UNL     1      -9.097  14.872  65.828  1.00  0.00     0.181 C  
HETATM    4  C   UNL     1      -8.384  14.920  64.259  1.00  0.00    10.872 C  
HETATM    5  C   UNL     1      -9.277  13.573  67.418  1.00  0.00    -0.223 C  
HETATM    6  C   UNL     1      -6.130  18.357  67.415  1.00  0.00    -0.174 C  
HETATM    7  C   UNL     1      -7.275  17.863  68.392  1.00  0.00    -0.256 C  
HETATM    8  C   UNL     1      -8.919  13.551  66.108  1.00  0.00     0.226 C  
HETATM    9  C   UNL     1      -6.633  17.971  69.770  1.00  0.00     0.016 C  
HETATM   10  C   UNL     1      -6.735  19.124  70.480  1.00  0.00     0.509 C  
HETATM   11  C   UNL     1      -7.140  13.949  66.510  1.00  0.00     2.247 C  
HETATM   12  O   UNL     1      -7.721  21.304  70.669  1.00  0.00     3.190 OA 
HETATM   13  C   UNL     1      -9.533  12.495  65.138  1.00  0.00     0.194 C  
HETATM   14  C   UNL     1      -7.555  20.300  69.991  1.00  0.00     0.784 C  
HETATM   15  C   UNL     1      -8.115  20.193  68.598  1.00  0.00     0.061 C  
HETATM   16  C   UNL     1      -8.433  18.893  68.428  1.00  0.00    -0.385 C  
HETATM   17  C   UNL     1      -6.888  15.213  67.629  1.00  0.00    -0.180 C  
HETATM   18  O   UNL     1      -6.735  14.637  68.933  1.00  0.00    -0.087 OA 
HETATM   19  F   UNL     1     -10.631  19.376  69.174  1.00  0.00    -0.237 F  
HETATM   20  C   UNL     1      -7.863  16.557  67.700  1.00  0.00    -0.159 C  
HETATM   21  C   UNL     1      -9.716  18.376  69.049  1.00  0.00    -0.223 C  
HETATM   22  F   UNL     1      -7.938  17.134  66.412  1.00  0.00    -0.243 F  
HETATM   23  C   UNL     1     -10.326  17.303  68.172  1.00  0.00    -0.357 C  
HETATM   24  C   UNL     1      -9.392  16.095  68.008  1.00  0.00    -0.203 C  
HETATM   25  H   UNL     1      -6.595  15.340  69.555  1.00  0.00     0.000 HD 
ENDROOT
BRANCH   5  26
HETATM   26  C   UNL     1      -8.418  12.271  67.950  1.00  0.00    -0.165 C  
HETATM   27  O   UNL     1      -7.394  12.289  68.623  1.00  0.00    -0.105 OA 
BRANCH  26  28
HETATM   28  S   UNL     1      -9.001  10.705  67.340  1.00  0.00    -0.135 SA 
HETATM   29  F   UNL     1      -7.531   8.571  67.045  1.00  0.00    -0.080 F  
HETATM   30  C   UNL     1      -7.525   9.724  67.772  1.00  0.00    -0.090 C  
ENDBRANCH  26  28
ENDBRANCH   5  26
BRANCH   5  31
HETATM   31  O   UNL     1     -10.689  13.013  67.715  1.00  0.00    -0.223 OA 
BRANCH  31  32
HETATM   32  C   UNL     1     -11.416  13.025  68.875  1.00  0.00    -0.299 C  
HETATM   33  O   UNL     1     -11.730  14.027  69.489  1.00  0.00    -0.273 OA 
BRANCH  32  34
HETATM   34  C   UNL     1     -11.830  11.693  69.253  1.00  0.00    -0.331 A  
HETATM   35  C   UNL     1     -11.374  10.475  68.775  1.00  0.00    -0.310 A  
HETATM   36  O   UNL     1     -12.786  11.473  70.210  1.00  0.00    -0.140 OA 
HETATM   37  C   UNL     1     -12.086   9.467  69.462  1.00  0.00     0.689 A  
HETATM   38  C   UNL     1     -12.937  10.123  70.320  1.00  0.00     0.046 A  
ENDBRANCH  32  34
ENDBRANCH  31  32
ENDBRANCH   5  31
TORSDOF 5
ENDMDL
MODEL      142
REMARK 921   NORMALIZED FREE ENERGY PREDICTED BY IDOCK:   12.47 KCAL/MOL
REMARK 922        TOTAL FREE ENERGY PREDICTED BY IDOCK:   16.82 KCAL/MOL
REMARK 923 INTER-LIGAND FREE ENERGY PREDICTED BY IDOCK:   13.77 KCAL/MOL
REMARK 924 INTRA-LIGAND FREE ENERGY PREDICTED BY IDOCK:    3.05 KCAL/MOL
REMARK 927      BINDING AFFINITY PREDICTED BY RF-SCORE:    0.00 PKD
ROOT
HETATM    1  C   UNL     1      -8.986  12.618  68.978  1.00  0.00     0.500 C  
HETATM    2  C   UNL     1      -9.896  11.719  69.596  1.00  0.00     1.037 C  
HETATM    3  C   UNL     1      -8.966  11.257  68.537  1.00  0.00    -0.166 C  
HETATM    4  C   UNL     1      -9.276   9.563  68.601  1.00  0.00    -0.135 C  
HETATM    5  C   UNL     1      -7.386  12.540  68.208  1.00  0.00    -0.115 C  
HETATM    6  C   UNL     1     -11.784  11.748  64.627  1.00  0.00    -0.241 C  
HETATM    7  C   UNL     1     -11.198  13.066  65.283  1.00  0.00    -0.316 C  
HETATM    8  C   UNL     1      -7.605  11.228  68.480  1.00  0.00    -0.123 C  
HETATM    9  C   UNL     1     -10.964  13.980  64.086  1.00  0.00    -0.011 C  
HETATM   10  C   UNL     1     -11.951  14.812  63.663  1.00  0.00     0.482 C  
HETATM   11  C   UNL     1      -7.759  10.799  66.671  1.00  0.00    -0.141 C  
HETATM   12  O   UNL     1     -14.120  15.753  64.073  1.00  0.00     2.151 OA 
HETATM   13  C   UNL     1      -6.828  10.519  69.632  1.00  0.00    -0.117 C  
HETATM   14  C   UNL     1     -13.267  14.940  64.401  1.00  0.00     1.390 C  
HETATM   15  C   UNL     1     -13.498  13.974  65.532  1.00  0.00     0.639 C  
HETATM   16  C   UNL     1     -12.292  13.788  66.109  1.00  0.00    -0.496 C  
HETATM   17  C   UNL     1      -8.740  11.838  65.735  1.00  0.00     0.134 C  
HETATM   18  O   UNL     1      -7.895  12.819  65.118  1.00  0.00     2.742 OA 
HETATM   19  F   UNL     1     -12.795  15.540  67.626  1.00  0.00     0.864 F  
HETATM   20  C   UNL     1     -10.117  12.551  66.331  1.00  0.00    -0.243 C  
HETATM   21  C   UNL     1     -11.768  14.857  67.047  1.00  0.00    -0.261 C  
HETATM   22  F   UNL     1     -10.952  11.547  66.871  1.00  0.00    -0.275 F  
HETATM   23  C   UNL     1     -10.955  14.226  68.158  1.00  0.00    -0.259 C  
HETATM   24  C   UNL     1      -9.732  13.470  67.616  1.00  0.00    -0.229 C  
HETATM   25  H   UNL     1      -8.440  13.397  64.597  1.00  0.00     0.000 HD 
ENDROOT
BRANCH   5  26
HETATM   26  C   UNL     1      -5.935  12.413  67.438  1.00  0.00    -0.154 C  
HETATM   27  O   UNL     1      -5.325  11.383  67.180  1.00  0.00    -0.056 OA 
BRANCH  26  28
HETATM   28  S   UNL     1      -5.147  13.971  67.089  1.00  0.00     1.132 SA 
HETATM   29  F   UNL     1      -6.286  15.989  65.894  1.00  0.00     1.269 F  
HETATM   30  C   UNL     1      -6.650  14.886  66.606  1.00  0.00     1.931 C  
ENDBRANCH  26  28
ENDBRANCH   5  26
BRANCH   5  31
HETATM   31  O   UNL     1      -6.898  13.381  69.412  1.00  0.00    -0.087 OA 
BRANCH  31  32
HETATM   32  C   UNL     1      -7.564  14.310  70.166  1.00  0.00     0.736 C  
HETATM   33  O   UNL     1      -8.052  14.096  71.261  1.00  0.00     3.330 OA 
BRANCH  32  34
HETATM   34  C   UNL     1      -7.559  15.607  69.533  1.00  0.00    -0.187 A  
HETATM   35  C   UNL     1      -8.597  16.263  68.890  1.00  0.00    -0.260 A  
HETATM   36  O   UNL     1      -6.441  16.401  69.508  1.00  0.00    -0.195 OA 
HETATM   37  C   UNL     1      -8.092  17.505  68.446  1.00  0.00    -0.266 A  
HETATM   38  C   UNL     1      -6.775  17.540  68.840  1.00  0.00    -0.239 A  
ENDBRANCH  32  34
ENDBRANCH  31  32
ENDBRANCH   5  31
TORSDOF 5
ENDMDL
MODEL      143
REMARK 921   NORMALIZED FREE ENERGY PREDICTED BY IDOCK:   12.98 KCAL/MOL
REMARK 922        TOTAL FREE ENERGY PREDICTED BY IDOCK:   17.47 KCAL/MOL
REMARK 923 INTER-LIGAND FREE ENERGY PREDICTED BY IDOCK:   14.62 KCAL/MOL
REMARK 924 INTRA-LIGAND FREE ENERGY PREDICTED BY IDOCK:    2.85 KCAL/MOL
REMARK 927      BINDING AFFINITY PREDICTED BY RF-SCORE:    0.00 PKD
ROOT
HETATM    1  C   UNL     1      -8.075  12.825  66.720  1.00  0.00     0.105 C  
HETATM    2  C   UNL     1      -6.776  13.169  66.259  1.00  0.00     3.113 C  
HETATM    3  C   UNL     1      -7.377  11.852  65.935  1.00  0.00     1.013 C  
HETATM    4  C   UNL     1      -6.183  11.251  64.848  1.00  0.00     1.064 C  
HETATM    5  C   UNL     1      -9.422  11.792  66.192  1.00  0.00    -0.226 C  
HETATM    6  C   UNL     1      -5.604   9.170  69.559  1.00  0.00    -0.034 C  
HETATM    7  C   UNL     1      -6.766  10.192  69.899  1.00  0.00    -0.110 C  
HETATM    8  C   UNL     1      -8.498  11.518  65.235  1.00  0.00     0.404 C  
HETATM    9  C   UNL     1      -7.554   9.477  70.990  1.00  0.00     0.057 C  
HETATM   10  C   UNL     1      -7.224   9.654  72.295  1.00  0.00     1.369 C  
HETATM   11  C   UNL     1      -8.272   9.769  65.846  1.00  0.00    -0.117 C  
HETATM   12  O   UNL     1      -5.906  10.848  73.906  1.00  0.00     0.496 OA 
HETATM   13  C   UNL     1      -8.666  12.080  63.790  1.00  0.00     1.170 C  
HETATM   14  C   UNL     1      -6.143  10.622  72.728  1.00  0.00     1.973 C  
HETATM   15  C   UNL     1      -5.333  11.257  71.629  1.00  0.00     0.159 C  
HETATM   16  C   UNL     1      -6.189  11.447  70.604  1.00  0.00     0.164 C  
HETATM   17  C   UNL     1      -8.100   9.580  67.533  1.00  0.00    -0.110 C  
HETATM   18  O   UNL     1      -9.389   9.284  68.087  1.00  0.00    -0.134 OA 
HETATM   19  F   UNL     1      -6.617  13.631  71.421  1.00  0.00     0.251 F  
HETATM   20  C   UNL     1      -7.301  10.683  68.484  1.00  0.00    -0.090 C  
HETATM   21  C   UNL     1      -7.141  12.626  70.666  1.00  0.00     2.680 C  
HETATM   22  F   UNL     1      -6.013  10.901  67.944  1.00  0.00    -0.046 F  
HETATM   23  C   UNL     1      -7.384  13.176  69.277  1.00  0.00     0.227 C  
HETATM   24  C   UNL     1      -8.028  12.132  68.351  1.00  0.00    -0.152 C  
HETATM   25  H   UNL     1      -9.294   9.178  69.026  1.00  0.00     0.000 HD 
ENDROOT
BRANCH   5  26
HETATM   26  C   UNL     1     -10.618  10.769  65.705  1.00  0.00    -0.134 C  
HETATM   27  O   UNL     1     -10.529   9.871  64.876  1.00  0.00     0.099 OA 
BRANCH  26  28
HETATM   28  S   UNL     1     -12.223  11.138  66.380  1.00  0.00     2.907 SA 
HETATM   29  F   UNL     1     -12.787  11.254  68.923  1.00  0.00     0.034 F  
HETATM   30  C   UNL     1     -11.698  11.368  68.112  1.00  0.00    -0.284 C  
ENDBRANCH  26  28
ENDBRANCH   5  26
BRANCH   5  31
HETATM   31  O   UNL     1     -10.198  13.115  65.987  1.00  0.00    -0.275 OA 
BRANCH  31  32
HETATM   32  C   UNL     1      -9.737  14.399  65.872  1.00  0.00    -0.276 C  
HETATM   33  O   UNL     1      -9.346  14.909  64.838  1.00  0.00     0.487 OA 
BRANCH  32  34
HETATM   34  C   UNL     1      -9.834  15.109  67.126  1.00  0.00    -0.228 A  
HETATM   35  C   UNL     1     -10.881  15.127  68.035  1.00  0.00    -0.284 A  
HETATM   36  O   UNL     1      -8.814  15.893  67.599  1.00  0.00    -0.172 OA 
HETATM   37  C   UNL     1     -10.490  15.964  69.102  1.00  0.00    -0.235 A  
HETATM   38  C   UNL     1      -9.228  16.411  68.790  1.00  0.00    -0.239 A  
ENDBRANCH  32  34
ENDBRANCH  31  32
ENDBRANCH   5  31
TORSDOF 5
ENDMDL
MODEL      144
REMARK 921   NORMALIZED FREE ENERGY PREDICTED BY IDOCK:   14.13 KCAL/MOL
REMARK 922        TOTAL FREE ENERGY PREDICTED BY IDOCK:   18.96 KCAL/MOL
REMARK 923 INTER-LIGAND FREE ENERGY PREDICTED BY IDOCK:   14.58 KCAL/MOL
REMARK 924 INTRA-LIGAND FREE ENERGY PREDICTED BY IDOCK:    4.38 KCAL/MOL
REMARK 927      BINDING AFFINITY PREDICTED BY RF-SCORE:    0.00 PKD
ROOT
HETATM    1  C   UNL     1      -7.298  12.357  67.624  1.00  0.00    -0.132 C  
HETATM    2  C   UNL     1      -6.604  13.521  68.051  1.00  0.00    -0.137 C  
HETATM    3  C   UNL     1      -7.234  12.605  69.032  1.00  0.00     0.009 C  
HETATM    4  C   UNL     1      -6.657  13.310  70.495  1.00  0.00     0.597 C  
HETATM    5  C   UNL     1      -7.662  10.739  68.265  1.00  0.00    -0.109 C  
HETATM    6  C   UNL     1     -11.552  14.736  69.563  1.00  0.00    -0.339 C  
HETATM    7  C   UNL     1     -11.284  13.940  68.220  1.00  0.00    -0.298 C  
HETATM    8  C   UNL     1      -7.007  11.292  69.318  1.00  0.00    -0.119 C  
HETATM    9  C   UNL     1     -12.649  13.355  67.880  1.00  0.00     0.630 C  
HETATM   10  C   UNL     1     -13.518  14.060  67.109  1.00  0.00     4.347 C  
HETATM   11  C   UNL     1      -8.553  11.324  70.362  1.00  0.00     3.214 C  
HETATM   12  O   UNL     1     -13.892  15.980  65.719  1.00  0.00     4.196 OA 
HETATM   13  C   UNL     1      -5.552  10.848  69.665  1.00  0.00    -0.042 C  
HETATM   14  C   UNL     1     -13.145  15.388  66.485  1.00  0.00     2.868 C  
HETATM   15  C   UNL     1     -11.821  15.974  66.897  1.00  0.00     0.854 C  
HETATM   16  C   UNL     1     -10.989  14.925  67.061  1.00  0.00    -0.327 C  
HETATM   17  C   UNL     1      -9.962  11.912  69.597  1.00  0.00     1.062 C  
HETATM   18  O   UNL     1     -10.697  10.793  69.085  1.00  0.00    -0.201 OA 
HETATM   19  F   UNL     1     -10.293  15.180  64.808  1.00  0.00    -0.400 F  
HETATM   20  C   UNL     1      -9.931  13.145  68.483  1.00  0.00    -0.180 C  
HETATM   21  C   UNL     1     -10.388  14.281  65.826  1.00  0.00    -0.327 C  
HETATM   22  F   UNL     1      -9.257  14.251  69.047  1.00  0.00    -0.176 F  
HETATM   23  C   UNL     1      -8.991  13.779  66.126  1.00  0.00     0.223 C  
HETATM   24  C   UNL     1      -8.989  12.712  67.231  1.00  0.00    -0.194 C  
HETATM   25  H   UNL     1     -11.481  11.120  68.660  1.00  0.00     0.000 HD 
ENDROOT
BRANCH   5  26
HETATM   26  C   UNL     1      -8.039   9.277  68.924  1.00  0.00    -0.103 C  
HETATM   27  O   UNL     1      -9.132   8.724  68.915  1.00  0.00    -0.140 OA 
BRANCH  26  28
HETATM   28  S   UNL     1      -6.720   8.528  69.856  1.00  0.00    -0.043 SA 
HETATM   29  F   UNL     1      -5.135   6.658  68.969  1.00  0.00    -0.010 F  
HETATM   30  C   UNL     1      -5.929   7.645  68.469  1.00  0.00    -0.031 C  
ENDBRANCH  26  28
ENDBRANCH   5  26
BRANCH   5  31
HETATM   31  O   UNL     1      -6.747  10.216  67.132  1.00  0.00    -0.072 OA 
BRANCH  31  32
HETATM   32  C   UNL     1      -6.846   9.082  66.371  1.00  0.00    -0.079 C  
HETATM   33  O   UNL     1      -6.167   8.083  66.520  1.00  0.00    -0.047 OA 
BRANCH  32  34
HETATM   34  C   UNL     1      -7.913   9.187  65.403  1.00  0.00    -0.106 A  
HETATM   35  C   UNL     1      -9.265   9.401  65.621  1.00  0.00    -0.285 A  
HETATM   36  O   UNL     1      -7.684   9.093  64.055  1.00  0.00    -0.112 OA 
HETATM   37  C   UNL     1      -9.890   9.430  64.356  1.00  0.00     0.716 A  
HETATM   38  C   UNL     1      -8.888   9.232  63.434  1.00  0.00    -0.126 A  
ENDBRANCH  32  34
ENDBRANCH  31  32
ENDBRANCH   5  31
TORSDOF 5
ENDMDL
MODEL      145
REMARK 921   NORMALIZED FREE ENERGY PREDICTED BY IDOCK:   16.08 KCAL/MOL
REMARK 922        TOTAL FREE ENERGY PREDICTED BY IDOCK:   21.48 KCAL/MOL
REMARK 923 INTER-LIGAND FREE ENERGY PREDICTED BY IDOCK:    4.00 KCAL/MOL
REMARK 924 INTRA-LIGAND FREE ENERGY PREDICTED BY IDOCK:   17.48 KCAL/MOL
REMARK 927      BINDING AFFINITY PREDICTED BY RF-SCORE:    0.00 PKD
ROOT
HETATM    1  C   UNL     1     -10.003  12.876  67.391  1.00  0.00    -0.217 C  
HETATM    2  C   UNL     1     -10.902  12.711  68.479  1.00  0.00    -0.279 C  
HETATM    3  C   UNL     1     -11.365  13.264  67.182  1.00  0.00    -0.351 C  
HETATM    4  C   UNL     1     -13.059  13.337  67.490  1.00  0.00     2.915 C  
HETATM    5  C   UNL     1     -10.081  12.880  65.615  1.00  0.00    -0.272 C  
HETATM    6  C   UNL     1     -10.881  18.008  68.035  1.00  0.00    -0.194 C  
HETATM    7  C   UNL     1      -9.562  17.165  67.789  1.00  0.00    -0.256 C  
HETATM    8  C   UNL     1     -11.393  12.727  65.930  1.00  0.00    -0.363 C  
HETATM    9  C   UNL     1      -8.649  18.145  67.062  1.00  0.00    -0.260 C  
HETATM   10  C   UNL     1      -7.818  18.954  67.768  1.00  0.00    -0.267 C  
HETATM   11  C   UNL     1     -11.824  14.425  65.288  1.00  0.00    -0.373 C  
HETATM   12  O   UNL     1      -6.878  19.522  69.902  1.00  0.00    -0.242 OA 
HETATM   13  C   UNL     1     -12.099  11.351  65.727  1.00  0.00     1.160 C  
HETATM   14  C   UNL     1      -7.690  18.857  69.274  1.00  0.00    -0.038 C  
HETATM   15  C   UNL     1      -8.655  17.936  69.971  1.00  0.00     2.139 C  
HETATM   16  C   UNL     1      -8.839  16.894  69.133  1.00  0.00    -0.080 C  
HETATM   17  C   UNL     1     -10.787  15.694  65.767  1.00  0.00    -0.306 C  
HETATM   18  O   UNL     1      -9.806  15.887  64.740  1.00  0.00    -0.157 OA 
HETATM   19  F   UNL     1      -7.086  15.746  70.242  1.00  0.00    -0.034 F  
HETATM   20  C   UNL     1     -10.074  15.753  67.267  1.00  0.00    -0.247 C  
HETATM   21  C   UNL     1      -7.768  15.823  69.066  1.00  0.00    -0.202 C  
HETATM   22  F   UNL     1     -11.078  15.624  68.254  1.00  0.00    -0.276 F  
HETATM   23  C   UNL     1      -8.398  14.469  68.813  1.00  0.00    -0.149 C  
HETATM   24  C   UNL     1      -9.153  14.429  67.475  1.00  0.00    -0.195 C  
HETATM   25  H   UNL     1      -9.230  16.593  65.006  1.00  0.00     0.000 HD 
ENDROOT
BRANCH   5  26
HETATM   26  C   UNL     1     -10.208  12.947  63.974  1.00  0.00    -0.231 C  
HETATM   27  O   UNL     1      -9.576  12.287  63.158  1.00  0.00    -0.271 OA 
BRANCH  26  28
HETATM   28  S   UNL     1     -11.288  14.226  63.371  1.00  0.00     1.841 SA 
HETATM   29  F   UNL     1     -13.800  14.493  64.018  1.00  0.00     2.204 F  
HETATM   30  C   UNL     1     -12.669  13.925  64.524  1.00  0.00    -0.071 C  
ENDBRANCH  26  28
ENDBRANCH   5  26
BRANCH   5  31
HETATM   31  O   UNL     1      -9.238  11.584  65.696  1.00  0.00    -0.218 OA 
BRANCH  31  32
HETATM   32  C   UNL     1      -9.293  10.448  64.934  1.00  0.00    -0.243 C  
HETATM   33  O   UNL     1     -10.299  10.013  64.406  1.00  0.00     0.036 OA 
BRANCH  32  34
HETATM   34  C   UNL     1      -7.986   9.856  64.774  1.00  0.00    -0.143 A  
HETATM   35  C   UNL     1      -6.906   9.887  65.643  1.00  0.00    -0.106 A  
HETATM   36  O   UNL     1      -7.648   9.128  63.663  1.00  0.00    -0.107 OA 
HETATM   37  C   UNL     1      -5.862   9.157  65.034  1.00  0.00    -0.059 A  
HETATM   38  C   UNL     1      -6.359   8.719  63.829  1.00  0.00    -0.080 A  
ENDBRANCH  32  34
ENDBRANCH  31  32
ENDBRANCH   5  31
TORSDOF 5
ENDMDL
MODEL      146
REMARK 921   NORMALIZED FREE ENERGY PREDICTED BY IDOCK:   16.64 KCAL/MOL
REMARK 922        TOTAL FREE ENERGY PREDICTED BY IDOCK:   22.21 KCAL/MOL
REMARK 923 INTER-LIGAND FREE ENERGY PREDICTED BY IDOCK:   18.79 KCAL/MOL
REMARK 924 INTRA-LIGAND FREE ENERGY PREDICTED BY IDOCK:    3.41 KCAL/MOL
REMARK 927      BINDING AFFINITY PREDICTED BY RF-SCORE:    0.00 PKD
ROOT
HETATM    1  C   UNL     1     -10.937  13.625  68.819  1.00  0.00    -0.292 C  
HETATM    2  C   UNL     1     -11.406  13.634  70.159  1.00  0.00     0.006 C  
HETATM    3  C   UNL     1     -10.406  14.626  69.693  1.00  0.00    -0.025 C  
HETATM    4  C   UNL     1     -10.326  15.631  71.091  1.00  0.00     0.691 C  
HETATM    5  C   UNL     1     -10.310  14.801  67.642  1.00  0.00    -0.237 C  
HETATM    6  C   UNL     1      -6.301  12.370  70.930  1.00  0.00     1.060 C  
HETATM    7  C   UNL     1      -7.096  11.818  69.675  1.00  0.00     0.176 C  
HETATM    8  C   UNL     1     -10.471  15.591  68.734  1.00  0.00    -0.234 C  
HETATM    9  C   UNL     1      -5.991  11.337  68.743  1.00  0.00    -0.043 C  
HETATM   10  C   UNL     1      -5.539  10.059  68.827  1.00  0.00    -0.035 C  
HETATM   11  C   UNL     1      -8.629  15.816  68.937  1.00  0.00    -0.220 C  
HETATM   12  O   UNL     1      -5.815   7.872  69.775  1.00  0.00    -0.023 OA 
HETATM   13  C   UNL     1     -11.637  16.625  68.797  1.00  0.00     0.086 C  
HETATM   14  C   UNL     1      -6.162   9.045  69.763  1.00  0.00    -0.038 C  
HETATM   15  C   UNL     1      -7.199   9.566  70.721  1.00  0.00    -0.105 C  
HETATM   16  C   UNL     1      -7.867  10.528  70.052  1.00  0.00     0.167 C  
HETATM   17  C   UNL     1      -7.683  14.401  68.816  1.00  0.00    -0.139 C  
HETATM   18  O   UNL     1      -7.213  14.287  67.465  1.00  0.00    -0.175 OA 
HETATM   19  F   UNL     1      -9.450   8.897  69.374  1.00  0.00    -0.154 F  
HETATM   20  C   UNL     1      -8.199  12.924  69.376  1.00  0.00     1.033 C  
HETATM   21  C   UNL     1      -8.921  10.108  69.045  1.00  0.00    -0.167 C  
HETATM   22  F   UNL     1      -8.592  13.062  70.726  1.00  0.00     4.935 F  
HETATM   23  C   UNL     1     -10.054  11.112  69.025  1.00  0.00    -0.173 C  
HETATM   24  C   UNL     1      -9.574  12.512  68.611  1.00  0.00    -0.029 C  
HETATM   25  H   UNL     1      -6.686  13.500  67.398  1.00  0.00     0.000 HD 
ENDROOT
BRANCH   5  26
HETATM   26  C   UNL     1      -9.667  15.908  66.605  1.00  0.00    -0.253 C  
HETATM   27  O   UNL     1      -8.846  15.700  65.720  1.00  0.00    -0.196 OA 
BRANCH  26  28
HETATM   28  S   UNL     1     -10.141  17.591  66.938  1.00  0.00    -0.337 SA 
HETATM   29  F   UNL     1      -8.855  19.702  66.107  1.00  0.00    -0.344 F  
HETATM   30  C   UNL     1      -8.997  18.391  65.764  1.00  0.00     0.474 C  
ENDBRANCH  26  28
ENDBRANCH   5  26
BRANCH   5  31
HETATM   31  O   UNL     1     -11.608  14.517  66.848  1.00  0.00    -0.361 OA 
BRANCH  31  32
HETATM   32  C   UNL     1     -12.454  15.379  66.204  1.00  0.00     1.128 C  
HETATM   33  O   UNL     1     -12.884  16.415  66.678  1.00  0.00     3.554 OA 
BRANCH  32  34
HETATM   34  C   UNL     1     -12.727  14.943  64.855  1.00  0.00     0.151 A  
HETATM   35  C   UNL     1     -13.562  15.518  63.909  1.00  0.00     3.306 A  
HETATM   36  O   UNL     1     -12.132  13.833  64.315  1.00  0.00    -0.426 OA 
HETATM   37  C   UNL     1     -13.482  14.722  62.746  1.00  0.00     5.284 A  
HETATM   38  C   UNL     1     -12.604  13.706  63.043  1.00  0.00     0.747 A  
ENDBRANCH  32  34
ENDBRANCH  31  32
ENDBRANCH   5  31
TORSDOF 5
ENDMDL
MODEL      147
REMARK 921   NORMALIZED FREE ENERGY PREDICTED BY IDOCK:   17.96 KCAL/MOL
REMARK 922        TOTAL FREE ENERGY PREDICTED BY IDOCK:   23.92 KCAL/MOL
REMARK 923 INTER-LIGAND FREE ENERGY PREDICTED BY IDOCK:   16.24 KCAL/MOL
REMARK 924 INTRA-LIGAND FREE ENERGY PREDICTED BY IDOCK:    7.67 KCAL/MOL
REMARK 927      BINDING AFFINITY PREDICTED BY RF-SCORE:    0.00 PKD
ROOT
HETATM    1  C   UNL     1     -10.638   9.155  69.890  1.00  0.00    -0.246 C  
HETATM    2  C   UNL     1     -11.269   8.247  70.781  1.00  0.00    -0.284 C  
HETATM    3  C   UNL     1      -9.891   8.732  71.036  1.00  0.00    -0.293 C  
HETATM    4  C   UNL     1      -9.631   8.051  72.597  1.00  0.00    -0.327 C  
HETATM    5  C   UNL     1      -9.406  10.434  69.978  1.00  0.00     0.261 C  
HETATM    6  C   UNL     1      -7.324   5.203  68.933  1.00  0.00    -0.065 C  
HETATM    7  C   UNL     1      -8.064   6.238  67.989  1.00  0.00    -0.115 C  
HETATM    8  C   UNL     1      -9.401   9.984  71.259  1.00  0.00     1.620 C  
HETATM    9  C   UNL     1      -7.119   6.367  66.800  1.00  0.00    -0.073 C  
HETATM   10  C   UNL     1      -7.249   5.535  65.735  1.00  0.00    -0.068 C  
HETATM   11  C   UNL     1      -7.687   9.268  71.081  1.00  0.00    -0.052 C  
HETATM   12  O   UNL     1      -8.544   3.839  64.638  1.00  0.00    -0.103 OA 
HETATM   13  C   UNL     1     -10.035  10.838  72.399  1.00  0.00    10.325 C  
HETATM   14  C   UNL     1      -8.373   4.525  65.635  1.00  0.00    -0.115 C  
HETATM   15  C   UNL     1      -9.244   4.370  66.852  1.00  0.00    -0.150 C  
HETATM   16  C   UNL     1      -9.345   5.602  67.393  1.00  0.00    -0.113 C  
HETATM   17  C   UNL     1      -7.396   8.359  69.666  1.00  0.00    -0.072 C  
HETATM   18  O   UNL     1      -6.806   9.225  68.687  1.00  0.00    -0.060 OA 
HETATM   19  F   UNL     1     -11.326   5.946  66.135  1.00  0.00    -0.149 F  
HETATM   20  C   UNL     1      -8.554   7.396  68.963  1.00  0.00    -0.133 C  
HETATM   21  C   UNL     1     -10.302   6.592  66.759  1.00  0.00    -0.210 C  
HETATM   22  F   UNL     1      -9.066   6.513  69.941  1.00  0.00    -0.139 F  
HETATM   23  C   UNL     1     -10.906   7.488  67.821  1.00  0.00    -0.156 C  
HETATM   24  C   UNL     1      -9.836   8.310  68.555  1.00  0.00    -0.188 C  
HETATM   25  H   UNL     1      -6.644   8.720  67.900  1.00  0.00     0.000 HD 
ENDROOT
BRANCH   5  26
HETATM   26  C   UNL     1      -8.209  11.562  70.088  1.00  0.00     2.480 C  
HETATM   27  O   UNL     1      -7.722  12.022  71.114  1.00  0.00     5.184 OA 
BRANCH  26  28
HETATM   28  S   UNL     1      -7.704  12.254  68.529  1.00  0.00    -0.089 SA 
HETATM   29  F   UNL     1      -5.771  11.336  67.039  1.00  0.00    -0.048 F  
HETATM   30  C   UNL     1      -6.614  10.887  68.010  1.00  0.00    -0.062 C  
ENDBRANCH  26  28
ENDBRANCH   5  26
BRANCH   5  31
HETATM   31  O   UNL     1     -10.561  11.404  69.634  1.00  0.00    -0.073 OA 
BRANCH  31  32
HETATM   32  C   UNL     1     -10.523  12.699  69.192  1.00  0.00     0.119 C  
HETATM   33  O   UNL     1     -10.653  13.681  69.900  1.00  0.00     0.350 OA 
BRANCH  32  34
HETATM   34  C   UNL     1     -10.238  12.766  67.777  1.00  0.00    -0.223 A  
HETATM   35  C   UNL     1     -11.008  12.318  66.715  1.00  0.00    -0.321 A  
HETATM   36  O   UNL     1      -9.091  13.338  67.293  1.00  0.00    -0.203 OA 
HETATM   37  C   UNL     1     -10.298  12.619  65.532  1.00  0.00    -0.305 A  
HETATM   38  C   UNL     1      -9.136  13.235  65.935  1.00  0.00     0.340 A  
ENDBRANCH  32  34
ENDBRANCH  31  32
ENDBRANCH   5  31
TORSDOF 5
ENDMDL
MODEL      148
REMARK 921   NORMALIZED FREE ENERGY PREDICTED BY IDOCK:   23.28 KCAL/MOL
REMARK 922        TOTAL FREE ENERGY PREDICTED BY IDOCK:   30.79 KCAL/MOL
REMARK 923 INTER-LIGAND FREE ENERGY PREDICTED BY IDOCK:   24.32 KCAL/MOL
REMARK 924 INTRA-LIGAND FREE ENERGY PREDICTED BY IDOCK:    6.46 KCAL/MOL
REMARK 927      BINDING AFFINITY PREDICTED BY RF-SCORE:    0.00 PKD
ROOT
HETATM    1  C   UNL     1      -7.104  10.094  69.191  1.00  0.00    -0.073 C  
HETATM    2  C   UNL     1      -5.824  10.679  69.001  1.00  0.00    -0.040 C  
HETATM    3  C   UNL     1      -6.614  10.954  70.225  1.00  0.00    -0.065 C  
HETATM    4  C   UNL     1      -5.449  11.851  71.124  1.00  0.00    -0.017 C  
HETATM    5  C   UNL     1      -8.124   9.590  70.557  1.00  0.00    -0.166 C  
HETATM    6  C   UNL     1      -8.896  15.015  68.897  1.00  0.00    -0.201 C  
HETATM    7  C   UNL     1      -9.393  13.650  68.263  1.00  0.00    -0.204 C  
HETATM    8  C   UNL     1      -7.065  10.130  71.213  1.00  0.00     0.972 C  
HETATM    9  C   UNL     1     -10.895  13.858  68.114  1.00  0.00    -0.262 C  
HETATM   10  C   UNL     1     -11.398  14.395  66.973  1.00  0.00    -0.357 C  
HETATM   11  C   UNL     1      -8.087  11.559  71.842  1.00  0.00    12.607 C  
HETATM   12  O   UNL     1     -10.984  15.115  64.721  1.00  0.00    -0.399 OA 
HETATM   13  C   UNL     1      -6.036   9.214  71.943  1.00  0.00    -0.035 C  
HETATM   14  C   UNL     1     -10.521  14.716  65.780  1.00  0.00    -0.325 C  
HETATM   15  C   UNL     1      -9.036  14.571  65.982  1.00  0.00     0.026 C  
HETATM   16  C   UNL     1      -8.879  13.515  66.808  1.00  0.00    -0.146 C  
HETATM   17  C   UNL     1      -9.092  12.325  70.694  1.00  0.00     7.596 C  
HETATM   18  O   UNL     1     -10.401  11.746  70.784  1.00  0.00     2.355 OA 
HETATM   19  F   UNL     1      -8.663  12.114  64.906  1.00  0.00     0.406 F  
HETATM   20  C   UNL     1      -8.652  12.521  69.103  1.00  0.00     0.677 C  
HETATM   21  C   UNL     1      -8.998  12.120  66.226  1.00  0.00    -0.094 C  
HETATM   22  F   UNL     1      -7.389  13.152  69.055  1.00  0.00    -0.103 F  
HETATM   23  C   UNL     1      -8.057  11.173  66.941  1.00  0.00    -0.150 C  
HETATM   24  C   UNL     1      -8.384  11.061  68.438  1.00  0.00    -0.139 C  
HETATM   25  H   UNL     1     -10.960  12.172  70.145  1.00  0.00     0.000 HD 
ENDROOT
BRANCH   5  26
HETATM   26  C   UNL     1      -9.068   9.202  71.851  1.00  0.00     0.208 C  
HETATM   27  O   UNL     1      -9.336   9.917  72.808  1.00  0.00     3.300 OA 
BRANCH  26  28
HETATM   28  S   UNL     1      -9.615   7.509  71.881  1.00  0.00    -0.150 SA 
HETATM   29  F   UNL     1     -10.615   6.222  69.846  1.00  0.00    -0.217 F  
HETATM   30  C   UNL     1      -9.811   7.296  70.080  1.00  0.00    -0.175 C  
ENDBRANCH  26  28
ENDBRANCH   5  26
BRANCH   5  31
HETATM   31  O   UNL     1      -7.900   8.149  70.036  1.00  0.00    -0.098 OA 
BRANCH  31  32
HETATM   32  C   UNL     1      -6.744   7.512  69.677  1.00  0.00    -0.040 C  
HETATM   33  O   UNL     1      -5.740   7.451  70.363  1.00  0.00    -0.024 OA 
BRANCH  32  34
HETATM   34  C   UNL     1      -6.879   6.852  68.399  1.00  0.00    -0.074 A  
HETATM   35  C   UNL     1      -5.885   6.401  67.545  1.00  0.00    -0.013 A  
HETATM   36  O   UNL     1      -8.104   6.564  67.856  1.00  0.00    -0.114 OA 
HETATM   37  C   UNL     1      -6.527   5.822  66.429  1.00  0.00    -0.047 A  
HETATM   38  C   UNL     1      -7.877   5.950  66.661  1.00  0.00    -0.101 A  
ENDBRANCH  32  34
ENDBRANCH  31  32
ENDBRANCH   5  31
TORSDOF 5
ENDMDL
MODEL      149
REMARK 921   NORMALIZED FREE ENERGY PREDICTED BY IDOCK:   24.07 KCAL/MOL
REMARK 922        TOTAL FREE ENERGY PREDICTED BY IDOCK:   31.81 KCAL/MOL
REMARK 923 INTER-LIGAND FREE ENERGY PREDICTED BY IDOCK:   23.65 KCAL/MOL
REMARK 924 INTRA-LIGAND FREE ENERGY PREDICTED BY IDOCK:    8.16 KCAL/MOL
REMARK 927      BINDING AFFINITY PREDICTED BY RF-SCORE:    0.00 PKD
ROOT
HETATM    1  C   UNL     1     -11.881  14.625  67.289  1.00  0.00    -0.375 C  
HETATM    2  C   UNL     1     -12.651  15.252  68.304  1.00  0.00     0.841 C  
HETATM    3  C   UNL     1     -12.113  16.032  67.163  1.00  0.00     1.201 C  
HETATM    4  C   UNL     1     -12.873  17.548  67.467  1.00  0.00     5.877 C  
HETATM    5  C   UNL     1     -11.549  14.866  65.559  1.00  0.00    -0.263 C  
HETATM    6  C   UNL     1      -7.945  17.602  69.068  1.00  0.00    -0.081 C  
HETATM    7  C   UNL     1      -8.035  16.077  68.648  1.00  0.00    -0.174 C  
HETATM    8  C   UNL     1     -12.336  15.941  65.821  1.00  0.00     1.670 C  
HETATM    9  C   UNL     1      -6.623  15.762  68.167  1.00  0.00    -0.136 C  
HETATM   10  C   UNL     1      -5.692  15.307  69.044  1.00  0.00    -0.098 C  
HETATM   11  C   UNL     1     -10.921  17.133  65.576  1.00  0.00     0.064 C  
HETATM   12  O   UNL     1      -5.212  14.514  71.257  1.00  0.00    -0.127 OA 
HETATM   13  C   UNL     1     -13.808  15.987  65.308  1.00  0.00     4.675 C  
HETATM   14  C   UNL     1      -6.026  15.007  70.490  1.00  0.00    -0.109 C  
HETATM   15  C   UNL     1      -7.404  15.397  70.954  1.00  0.00     1.601 C  
HETATM   16  C   UNL     1      -8.221  15.184  69.901  1.00  0.00     0.160 C  
HETATM   17  C   UNL     1      -9.451  16.718  66.337  1.00  0.00    -0.282 C  
HETATM   18  O   UNL     1      -8.631  16.025  65.387  1.00  0.00     0.157 OA 
HETATM   19  F   UNL     1      -8.658  13.008  70.734  1.00  0.00     4.935 F  
HETATM   20  C   UNL     1      -9.386  15.964  67.817  1.00  0.00    -0.207 C  
HETATM   21  C   UNL     1      -8.657  13.763  69.601  1.00  0.00     1.260 C  
HETATM   22  F   UNL     1     -10.151  16.711  68.742  1.00  0.00    -0.219 F  
HETATM   23  C   UNL     1     -10.065  13.756  69.044  1.00  0.00     0.005 C  
HETATM   24  C   UNL     1     -10.166  14.540  67.727  1.00  0.00    -0.226 C  
HETATM   25  H   UNL     1      -7.813  15.794  65.810  1.00  0.00     0.000 HD 
ENDROOT
BRANCH   5  26
HETATM   26  C   UNL     1     -11.211  15.165  63.974  1.00  0.00     0.443 C  
HETATM   27  O   UNL     1     -11.181  16.257  63.420  1.00  0.00     0.164 OA 
BRANCH  26  28
HETATM   28  S   UNL     1     -11.014  13.706  62.975  1.00  0.00     3.203 SA 
HETATM   29  F   UNL     1     -12.452  11.541  63.186  1.00  0.00    -0.606 F  
HETATM   30  C   UNL     1     -12.552  12.867  63.485  1.00  0.00    -0.211 C  
ENDBRANCH  26  28
ENDBRANCH   5  26
BRANCH   5  31
HETATM   31  O   UNL     1     -12.313  13.536  65.350  1.00  0.00    -0.420 OA 
BRANCH  31  32
HETATM   32  C   UNL     1     -12.089  12.297  65.888  1.00  0.00    -0.186 C  
HETATM   33  O   UNL     1     -12.854  11.715  66.635  1.00  0.00     2.122 OA 
BRANCH  32  34
HETATM   34  C   UNL     1     -10.855  11.725  65.404  1.00  0.00    -0.295 A  
HETATM   35  C   UNL     1      -9.557  11.986  65.817  1.00  0.00    -0.227 A  
HETATM   36  O   UNL     1     -10.831  10.777  64.415  1.00  0.00    -0.226 OA 
HETATM   37  C   UNL     1      -8.703  11.171  65.042  1.00  0.00     0.040 A  
HETATM   38  C   UNL     1      -9.524  10.458  64.199  1.00  0.00    -0.300 A  
ENDBRANCH  32  34
ENDBRANCH  31  32
ENDBRANCH   5  31
TORSDOF 5
ENDMDL
MODEL      150
REMARK 921   NORMALIZED FREE ENERGY PREDICTED BY IDOCK:   24.19 KCAL/MOL
REMARK 922        TOTAL FREE ENERGY PREDICTED BY IDOCK:   31.96 KCAL/MOL
REMARK 923 INTER-LIGAND FREE ENERGY PREDICTED BY IDOCK:   24.45 KCAL/MOL
REMARK 924 INTRA-LIGAND FREE ENERGY PREDICTED BY IDOCK:    7.51 KCAL/MOL
REMARK 927      BINDING AFFINITY PREDICTED BY RF-SCORE:    0.00 PKD
ROOT
HETATM    1  C   UNL     1      -8.845  15.506  67.636  1.00  0.00    -0.185 C  
HETATM    2  C   UNL     1      -9.405  15.259  66.354  1.00  0.00    -0.328 C  
HETATM    3  C   UNL     1     -10.250  15.726  67.479  1.00  0.00    -0.265 C  
HETATM    4  C   UNL     1     -11.733  15.981  66.638  1.00  0.00     0.764 C  
HETATM    5  C   UNL     1      -9.176  16.559  69.030  1.00  0.00    -0.237 C  
HETATM    6  C   UNL     1     -11.821  11.483  69.210  1.00  0.00    -0.414 C  
HETATM    7  C   UNL     1     -10.316  11.886  69.501  1.00  0.00     0.420 C  
HETATM    8  C   UNL     1     -10.219  16.871  68.218  1.00  0.00    -0.318 C  
HETATM    9  C   UNL     1     -10.057  11.300  70.883  1.00  0.00     4.032 C  
HETATM   10  C   UNL     1      -9.582  10.034  71.007  1.00  0.00     0.856 C  
HETATM   11  C   UNL     1     -11.454  16.078  69.371  1.00  0.00    -0.336 C  
HETATM   12  O   UNL     1      -8.693   8.089  69.918  1.00  0.00    -0.136 OA 
HETATM   13  C   UNL     1     -10.257  18.239  67.470  1.00  0.00    -0.384 C  
HETATM   14  C   UNL     1      -9.204   9.194  69.805  1.00  0.00    -0.171 C  
HETATM   15  C   UNL     1      -9.540   9.769  68.455  1.00  0.00    -0.157 C  
HETATM   16  C   UNL     1      -9.360  11.101  68.567  1.00  0.00    -0.190 C  
HETATM   17  C   UNL     1     -11.036  14.534  69.970  1.00  0.00    -0.126 C  
HETATM   18  O   UNL     1     -10.409  14.702  71.248  1.00  0.00     0.335 OA 
HETATM   19  F   UNL     1      -7.136  10.823  67.791  1.00  0.00    -0.080 F  
HETATM   20  C   UNL     1     -10.213  13.411  69.062  1.00  0.00     0.067 C  
HETATM   21  C   UNL     1      -7.946  11.646  68.515  1.00  0.00    -0.144 C  
HETATM   22  F   UNL     1     -10.896  13.225  67.839  1.00  0.00    -0.231 F  
HETATM   23  C   UNL     1      -7.933  13.004  67.846  1.00  0.00    -0.157 C  
HETATM   24  C   UNL     1      -8.778  14.031  68.616  1.00  0.00    -0.103 C  
HETATM   25  H   UNL     1     -10.177  13.844  71.581  1.00  0.00     0.000 HD 
ENDROOT
BRANCH   5  26
HETATM   26  C   UNL     1      -9.560  17.499  70.328  1.00  0.00     2.140 C  
HETATM   27  O   UNL     1     -10.112  18.593  70.308  1.00  0.00     0.877 OA 
BRANCH  26  28
HETATM   28  S   UNL     1      -8.964  16.881  71.887  1.00  0.00    12.086 SA 
HETATM   29  F   UNL     1      -6.583  15.898  72.295  1.00  0.00     2.149 F  
HETATM   30  C   UNL     1      -7.205  16.738  71.421  1.00  0.00     5.565 C  
ENDBRANCH  26  28
ENDBRANCH   5  26
BRANCH   5  31
HETATM   31  O   UNL     1      -7.841  17.254  68.670  1.00  0.00    -0.255 OA 
BRANCH  31  32
HETATM   32  C   UNL     1      -7.082  18.133  69.394  1.00  0.00    -0.022 C  
HETATM   33  O   UNL     1      -6.730  17.963  70.547  1.00  0.00     0.863 OA 
BRANCH  32  34
HETATM   34  C   UNL     1      -6.685  19.270  68.596  1.00  0.00    -0.286 A  
HETATM   35  C   UNL     1      -5.423  19.823  68.442  1.00  0.00    -0.222 A  
HETATM   36  O   UNL     1      -7.581  19.971  67.833  1.00  0.00    -0.290 OA 
HETATM   37  C   UNL     1      -5.554  20.914  67.556  1.00  0.00    -0.302 A  
HETATM   38  C   UNL     1      -6.886  20.968  67.217  1.00  0.00    -0.369 A  
ENDBRANCH  32  34
ENDBRANCH  31  32
ENDBRANCH   5  31
TORSDOF 5
ENDMDL
MODEL      151
REMARK 921   NORMALIZED FREE ENERGY PREDICTED BY IDOCK:   26.20 KCAL/MOL
REMARK 922        TOTAL FREE ENERGY PREDICTED BY IDOCK:   34.56 KCAL/MOL
REMARK 923 INTER-LIGAND FREE ENERGY PREDICTED BY IDOCK:   32.66 KCAL/MOL
REMARK 924 INTRA-LIGAND FREE ENERGY PREDICTED BY IDOCK:    1.90 KCAL/MOL
REMARK 927      BINDING AFFINITY PREDICTED BY RF-SCORE:    0.00 PKD
ROOT
HETATM    1  C   UNL     1      -8.726  16.432  67.087  1.00  0.00    -0.207 C  
HETATM    2  C   UNL     1      -8.843  17.460  66.113  1.00  0.00    -0.180 C  
HETATM    3  C   UNL     1      -7.520  16.888  66.465  1.00  0.00    -0.328 C  
HETATM    4  C   UNL     1      -6.544  17.676  65.283  1.00  0.00     0.616 C  
HETATM    5  C   UNL     1      -7.636  15.070  67.430  1.00  0.00    -0.205 C  
HETATM    6  C   UNL     1      -6.107  20.010  69.889  1.00  0.00    -0.390 C  
HETATM    7  C   UNL     1      -7.233  18.962  70.268  1.00  0.00     0.969 C  
HETATM    8  C   UNL     1      -7.023  15.624  66.353  1.00  0.00     1.311 C  
HETATM    9  C   UNL     1      -6.952  18.658  71.734  1.00  0.00     4.110 C  
HETATM   10  C   UNL     1      -7.534  19.405  72.708  1.00  0.00     4.027 C  
HETATM   11  C   UNL     1      -5.565  16.183  67.374  1.00  0.00    -0.136 C  
HETATM   12  O   UNL     1      -9.134  21.101  73.273  1.00  0.00     4.152 OA 
HETATM   13  C   UNL     1      -7.084  14.923  64.961  1.00  0.00    12.685 C  
HETATM   14  C   UNL     1      -8.544  20.490  72.394  1.00  0.00     2.769 C  
HETATM   15  C   UNL     1      -8.745  20.817  70.939  1.00  0.00     2.658 C  
HETATM   16  C   UNL     1      -8.623  19.647  70.279  1.00  0.00     1.384 C  
HETATM   17  C   UNL     1      -5.934  16.943  68.857  1.00  0.00    -0.159 C  
HETATM   18  O   UNL     1      -5.893  15.953  69.894  1.00  0.00    -0.144 OA 
HETATM   19  F   UNL     1     -10.972  19.359  70.443  1.00  0.00     0.968 F  
HETATM   20  C   UNL     1      -7.254  17.934  69.054  1.00  0.00    -0.209 C  
HETATM   21  C   UNL     1      -9.797  18.687  70.288  1.00  0.00     1.553 C  
HETATM   22  F   UNL     1      -7.225  18.934  68.056  1.00  0.00    -0.236 F  
HETATM   23  C   UNL     1      -9.869  17.935  68.976  1.00  0.00    -0.236 C  
HETATM   24  C   UNL     1      -8.608  17.094  68.726  1.00  0.00    -0.236 C  
HETATM   25  H   UNL     1      -6.098  16.375  70.718  1.00  0.00     0.000 HD 
ENDROOT
BRANCH   5  26
HETATM   26  C   UNL     1      -6.562  13.863  67.754  1.00  0.00    -0.176 C  
HETATM   27  O   UNL     1      -5.564  13.571  67.107  1.00  0.00    -0.288 OA 
BRANCH  26  28
HETATM   28  S   UNL     1      -7.022  12.815  69.117  1.00  0.00     0.046 SA 
HETATM   29  F   UNL     1      -5.413  12.034  71.015  1.00  0.00    -0.132 F  
HETATM   30  C   UNL     1      -5.509  13.047  70.109  1.00  0.00    -0.122 C  
ENDBRANCH  26  28
ENDBRANCH   5  26
BRANCH   5  31
HETATM   31  O   UNL     1      -8.850  14.170  67.096  1.00  0.00    -0.208 OA 
BRANCH  31  32
HETATM   32  C   UNL     1      -9.562  13.318  67.896  1.00  0.00    -0.217 C  
HETATM   33  O   UNL     1      -9.871  13.543  69.051  1.00  0.00    -0.010 OA 
BRANCH  32  34
HETATM   34  C   UNL     1      -9.968  12.133  67.176  1.00  0.00    -0.200 A  
HETATM   35  C   UNL     1     -11.249  11.691  66.885  1.00  0.00    -0.376 A  
HETATM   36  O   UNL     1      -9.058  11.255  66.648  1.00  0.00    -0.169 OA 
HETATM   37  C   UNL     1     -11.118  10.488  66.157  1.00  0.00     0.192 A  
HETATM   38  C   UNL     1      -9.766  10.261  66.043  1.00  0.00    -0.218 A  
ENDBRANCH  32  34
ENDBRANCH  31  32
ENDBRANCH   5  31
TORSDOF 5
ENDMDL
MODEL      152
REMARK 921   NORMALIZED FREE ENERGY PREDICTED BY IDOCK:   30.33 KCAL/MOL
REMARK 922        TOTAL FREE ENERGY PREDICTED BY IDOCK:   39.89 KCAL/MOL
REMARK 923 INTER-LIGAND FREE ENERGY PREDICTED BY IDOCK:   29.39 KCAL/MOL
REMARK 924 INTRA-LIGAND FREE ENERGY PREDICTED BY IDOCK:   10.50 KCAL/MOL
REMARK 927      BINDING AFFINITY PREDICTED BY RF-SCORE:    0.00 PKD
ROOT
HETATM    1  C   UNL     1      -9.038  14.697  65.951  1.00  0.00     0.117 C  
HETATM    2  C   UNL     1      -7.905  15.554  65.981  1.00  0.00     1.379 C  
HETATM    3  C   UNL     1      -7.811  14.146  66.439  1.00  0.00     1.373 C  
HETATM    4  C   UNL     1      -6.111  14.042  66.700  1.00  0.00     2.702 C  
HETATM    5  C   UNL     1      -9.361  12.958  65.780  1.00  0.00     0.115 C  
HETATM    6  C   UNL     1      -8.626  14.716  71.180  1.00  0.00     3.628 C  
HETATM    7  C   UNL     1      -9.863  14.852  70.198  1.00  0.00     0.304 C  
HETATM    8  C   UNL     1      -8.003  12.968  65.782  1.00  0.00     2.584 C  
HETATM    9  C   UNL     1     -11.021  14.284  71.010  1.00  0.00     0.885 C  
HETATM   10  C   UNL     1     -11.758  15.100  71.807  1.00  0.00    -0.480 C  
HETATM   11  C   UNL     1      -7.924  12.112  67.439  1.00  0.00    -0.168 C  
HETATM   12  O   UNL     1     -12.254  17.343  72.500  1.00  0.00     1.354 OA 
HETATM   13  C   UNL     1      -7.209  12.713  64.464  1.00  0.00     8.429 C  
HETATM   14  C   UNL     1     -11.533  16.597  71.853  1.00  0.00     0.126 C  
HETATM   15  C   UNL     1     -10.339  17.119  71.100  1.00  0.00     2.542 C  
HETATM   16  C   UNL     1     -10.230  16.344  70.000  1.00  0.00     0.078 C  
HETATM   17  C   UNL     1      -8.963  12.721  68.648  1.00  0.00     0.051 C  
HETATM   18  O   UNL     1     -10.165  11.939  68.644  1.00  0.00    -0.216 OA 
HETATM   19  F   UNL     1     -11.548  17.919  68.814  1.00  0.00     0.692 F  
HETATM   20  C   UNL     1      -9.323  14.337  68.794  1.00  0.00    -0.119 C  
HETATM   21  C   UNL     1     -11.160  16.613  68.833  1.00  0.00    -0.247 C  
HETATM   22  F   UNL     1      -8.116  15.068  68.860  1.00  0.00    -0.135 F  
HETATM   23  C   UNL     1     -10.453  16.326  67.525  1.00  0.00    -0.302 C  
HETATM   24  C   UNL     1     -10.018  14.857  67.418  1.00  0.00    -0.223 C  
HETATM   25  H   UNL     1     -10.744  12.277  69.317  1.00  0.00     0.000 HD 
ENDROOT
BRANCH   5  26
HETATM   26  C   UNL     1      -9.615  11.332  65.691  1.00  0.00    -0.229 C  
HETATM   27  O   UNL     1     -10.694  10.757  65.622  1.00  0.00    -0.183 OA 
BRANCH  26  28
HETATM   28  S   UNL     1      -8.142  10.347  65.859  1.00  0.00    -0.153 SA 
HETATM   29  F   UNL     1      -7.377   9.158  68.050  1.00  0.00    -0.079 F  
HETATM   30  C   UNL     1      -8.526   9.632  67.493  1.00  0.00    -0.125 C  
ENDBRANCH  26  28
ENDBRANCH   5  26
BRANCH   5  31
HETATM   31  O   UNL     1     -10.012  13.333  64.427  1.00  0.00    -0.260 OA 
BRANCH  31  32
HETATM   32  C   UNL     1     -10.979  12.687  63.704  1.00  0.00    -0.416 C  
HETATM   33  O   UNL     1     -12.017  13.195  63.321  1.00  0.00    -0.545 OA 
BRANCH  32  34
HETATM   34  C   UNL     1     -10.586  11.334  63.388  1.00  0.00    -0.324 A  
HETATM   35  C   UNL     1     -11.141  10.143  63.830  1.00  0.00     2.975 A  
HETATM   36  O   UNL     1      -9.548  11.058  62.537  1.00  0.00    -0.266 OA 
HETATM   37  C   UNL     1     -10.407   9.096  63.233  1.00  0.00     4.439 A  
HETATM   38  C   UNL     1      -9.444   9.702  62.459  1.00  0.00     0.092 A  
ENDBRANCH  32  34
ENDBRANCH  31  32
ENDBRANCH   5  31
TORSDOF 5
ENDMDL
MODEL      153
REMARK 921   NORMALIZED FREE ENERGY PREDICTED BY IDOCK:   34.68 KCAL/MOL
REMARK 922        TOTAL FREE ENERGY PREDICTED BY IDOCK:   45.52 KCAL/MOL
REMARK 923 INTER-LIGAND FREE ENERGY PREDICTED BY IDOCK:   27.08 KCAL/MOL
REMARK 924 INTRA-LIGAND FREE ENERGY PREDICTED BY IDOCK:   18.44 KCAL/MOL
REMARK 927      BINDING AFFINITY PREDICTED BY RF-SCORE:    0.00 PKD
ROOT
HETATM    1  C   UNL     1      -7.107  10.117  69.215  1.00  0.00    -0.076 C  
HETATM    2  C   UNL     1      -5.806  10.649  69.011  1.00  0.00    -0.040 C  
HETATM    3  C   UNL     1      -6.589  10.991  70.223  1.00  0.00    -0.015 C  
HETATM    4  C   UNL     1      -5.394  11.874  71.097  1.00  0.00    -0.069 C  
HETATM    5  C   UNL     1      -8.148   9.694  70.593  1.00  0.00    -0.024 C  
HETATM    6  C   UNL     1      -8.717  15.088  68.757  1.00  0.00    -0.186 C  
HETATM    7  C   UNL     1      -9.262  13.723  68.166  1.00  0.00    -0.199 C  
HETATM    8  C   UNL     1      -7.072  10.216  71.235  1.00  0.00     0.972 C  
HETATM    9  C   UNL     1     -10.755  13.980  68.004  1.00  0.00    -0.253 C  
HETATM   10  C   UNL     1     -11.235  14.497  66.844  1.00  0.00    -0.340 C  
HETATM   11  C   UNL     1      -8.042  11.702  71.814  1.00  0.00    12.368 C  
HETATM   12  O   UNL     1     -10.789  15.129  64.572  1.00  0.00    -0.312 OA 
HETATM   13  C   UNL     1      -6.079   9.287  71.998  1.00  0.00     0.039 C  
HETATM   14  C   UNL     1     -10.344  14.748  65.645  1.00  0.00    -0.349 C  
HETATM   15  C   UNL     1      -8.866  14.555  65.857  1.00  0.00     0.554 C  
HETATM   16  C   UNL     1      -8.749  13.522  66.717  1.00  0.00    -0.100 C  
HETATM   17  C   UNL     1      -9.016  12.466  70.639  1.00  0.00     7.792 C  
HETATM   18  O   UNL     1     -10.345  11.939  70.742  1.00  0.00     2.579 OA 
HETATM   19  F   UNL     1      -8.580  12.054  64.862  1.00  0.00     0.431 F  
HETATM   20  C   UNL     1      -8.565  12.594  69.044  1.00  0.00     0.495 C  
HETATM   21  C   UNL     1      -8.918  12.114  66.180  1.00  0.00    -0.043 C  
HETATM   22  F   UNL     1      -7.279  13.177  68.980  1.00  0.00    -0.102 F  
HETATM   23  C   UNL     1      -8.014  11.157  66.929  1.00  0.00    -0.151 C  
HETATM   24  C   UNL     1      -8.348  11.105  68.427  1.00  0.00    -0.149 C  
HETATM   25  H   UNL     1     -10.886  12.364  70.088  1.00  0.00     0.000 HD 
ENDROOT
BRANCH   5  26
HETATM   26  C   UNL     1      -9.109   9.383  71.895  1.00  0.00     0.840 C  
HETATM   27  O   UNL     1     -10.308   9.134  71.884  1.00  0.00    -0.335 OA 
BRANCH  26  28
HETATM   28  S   UNL     1      -8.301   9.578  73.469  1.00  0.00     3.963 SA 
HETATM   29  F   UNL     1      -5.931   8.665  74.059  1.00  0.00    -0.101 F  
HETATM   30  C   UNL     1      -6.646   9.010  72.952  1.00  0.00     0.250 C  
ENDBRANCH  26  28
ENDBRANCH   5  26
BRANCH   5  31
HETATM   31  O   UNL     1      -7.976   8.231  70.120  1.00  0.00    -0.100 OA 
BRANCH  31  32
HETATM   32  C   UNL     1      -6.842   7.539  69.786  1.00  0.00    -0.047 C  
HETATM   33  O   UNL     1      -6.247   7.646  68.730  1.00  0.00    -0.034 OA 
BRANCH  32  34
HETATM   34  C   UNL     1      -6.391   6.708  70.877  1.00  0.00    -0.047 A  
HETATM   35  C   UNL     1      -5.517   5.632  70.845  1.00  0.00    -0.009 A  
HETATM   36  O   UNL     1      -6.798   6.917  72.169  1.00  0.00    -0.058 OA 
HETATM   37  C   UNL     1      -5.392   5.158  72.169  1.00  0.00    -0.008 A  
HETATM   38  C   UNL     1      -6.195   5.968  72.937  1.00  0.00    -0.057 A  
ENDBRANCH  32  34
ENDBRANCH  31  32
ENDBRANCH   5  31
TORSDOF 5
ENDMDL
MODEL      154
REMARK 921   NORMALIZED FREE ENERGY PREDICTED BY IDOCK:   40.47 KCAL/MOL
REMARK 922        TOTAL FREE ENERGY PREDICTED BY IDOCK:   53.00 KCAL/MOL
REMARK 923 INTER-LIGAND FREE ENERGY PREDICTED BY IDOCK:   36.44 KCAL/MOL
REMARK 924 INTRA-LIGAND FREE ENERGY PREDICTED BY IDOCK:   16.56 KCAL/MOL
REMARK 927      BINDING AFFINITY PREDICTED BY RF-SCORE:    0.00 PKD
ROOT
HETATM    1  C   UNL     1     -11.526  12.146  68.693  1.00  0.00    -0.347 C  
HETATM    2  C   UNL     1     -12.267  12.399  69.878  1.00  0.00    -0.227 C  
HETATM    3  C   UNL     1     -11.140  13.277  69.481  1.00  0.00    -0.086 C  
HETATM    4  C   UNL     1     -11.304  14.511  70.672  1.00  0.00    -0.141 C  
HETATM    5  C   UNL     1     -10.603  13.085  67.499  1.00  0.00    -0.230 C  
HETATM    6  C   UNL     1      -7.516  11.211  71.943  1.00  0.00     7.408 C  
HETATM    7  C   UNL     1      -8.056  10.459  70.657  1.00  0.00     1.291 C  
HETATM    8  C   UNL     1     -10.949  14.059  68.381  1.00  0.00    -0.269 C  
HETATM    9  C   UNL     1      -6.805   9.804  70.083  1.00  0.00    -0.109 C  
HETATM   10  C   UNL     1      -6.450   8.554  70.477  1.00  0.00    -0.037 C  
HETATM   11  C   UNL     1      -9.183  14.287  68.938  1.00  0.00    -0.044 C  
HETATM   12  O   UNL     1      -7.037   6.573  71.697  1.00  0.00    -0.077 OA 
HETATM   13  C   UNL     1     -12.045  15.105  68.013  1.00  0.00     0.028 C  
HETATM   14  C   UNL     1      -7.310   7.730  71.413  1.00  0.00    -0.067 C  
HETATM   15  C   UNL     1      -8.497   8.428  72.021  1.00  0.00    -0.245 C  
HETATM   16  C   UNL     1      -8.957   9.267  71.070  1.00  0.00    -0.225 C  
HETATM   17  C   UNL     1      -8.308  12.858  69.267  1.00  0.00     0.833 C  
HETATM   18  O   UNL     1      -7.570  12.501  68.090  1.00  0.00    -0.107 OA 
HETATM   19  F   UNL     1     -10.445   7.567  70.349  1.00  0.00    -0.209 F  
HETATM   20  C   UNL     1      -9.010  11.512  69.943  1.00  0.00     1.922 C  
HETATM   21  C   UNL     1      -9.794   8.693  69.943  1.00  0.00    -0.183 C  
HETATM   22  F   UNL     1      -9.672  11.892  71.132  1.00  0.00     5.495 F  
HETATM   23  C   UNL     1     -10.842   9.696  69.508  1.00  0.00    -0.253 C  
HETATM   24  C   UNL     1     -10.211  10.992  68.978  1.00  0.00    -0.217 C  
HETATM   25  H   UNL     1      -7.084  11.706  68.273  1.00  0.00     0.000 HD 
ENDROOT
BRANCH   5  26
HETATM   26  C   UNL     1      -9.697  13.983  66.455  1.00  0.00    -0.295 C  
HETATM   27  O   UNL     1      -8.605  14.491  66.677  1.00  0.00    -0.188 OA 
BRANCH  26  28
HETATM   28  S   UNL     1     -10.496  14.339  64.906  1.00  0.00    -0.381 SA 
HETATM   29  F   UNL     1     -11.302  12.548  63.191  1.00  0.00    -0.496 F  
HETATM   30  C   UNL     1     -11.025  12.635  64.522  1.00  0.00    -0.332 C  
ENDBRANCH  26  28
ENDBRANCH   5  26
BRANCH   5  31
HETATM   31  O   UNL     1     -11.717  12.686  66.502  1.00  0.00    -0.365 OA 
BRANCH  31  32
HETATM   32  C   UNL     1     -12.613  11.652  66.548  1.00  0.00     2.791 C  
HETATM   33  O   UNL     1     -13.810  11.760  66.354  1.00  0.00     7.972 OA 
BRANCH  32  34
HETATM   34  C   UNL     1     -11.952  10.391  66.789  1.00  0.00     2.680 A  
HETATM   35  C   UNL     1     -10.649  10.159  67.201  1.00  0.00    -0.308 A  
HETATM   36  O   UNL     1     -12.597   9.191  66.638  1.00  0.00     8.303 OA 
HETATM   37  C   UNL     1     -10.487   8.760  67.298  1.00  0.00    -0.353 A  
HETATM   38  C   UNL     1     -11.698   8.213  66.940  1.00  0.00     3.505 A  
ENDBRANCH  32  34
ENDBRANCH  31  32
ENDBRANCH   5  31
TORSDOF 5
ENDMDL
MODEL      155
REMARK 921   NORMALIZED FREE ENERGY PREDICTED BY IDOCK:   41.35 KCAL/MOL
REMARK 922        TOTAL FREE ENERGY PREDICTED BY IDOCK:   54.13 KCAL/MOL
REMARK 923 INTER-LIGAND FREE ENERGY PREDICTED BY IDOCK:   41.37 KCAL/MOL
REMARK 924 INTRA-LIGAND FREE ENERGY PREDICTED BY IDOCK:   12.76 KCAL/MOL
REMARK 927      BINDING AFFINITY PREDICTED BY RF-SCORE:    0.00 PKD
ROOT
HETATM    1  C   UNL     1     -10.012  16.650  65.042  1.00  0.00     0.772 C  
HETATM    2  C   UNL     1      -9.033  16.101  64.171  1.00  0.00     8.585 C  
HETATM    3  C   UNL     1      -9.912  15.224  64.982  1.00  0.00    -0.159 C  
HETATM    4  C   UNL     1      -9.459  13.690  64.339  1.00  0.00     1.541 C  
HETATM    5  C   UNL     1     -11.593  16.176  65.701  1.00  0.00     0.603 C  
HETATM    6  C   UNL     1      -7.116  14.552  68.880  1.00  0.00    -0.118 C  
HETATM    7  C   UNL     1      -7.818  15.963  68.712  1.00  0.00    -0.185 C  
HETATM    8  C   UNL     1     -11.266  15.064  64.994  1.00  0.00    -0.413 C  
HETATM    9  C   UNL     1      -8.120  16.379  70.146  1.00  0.00     1.582 C  
HETATM   10  C   UNL     1      -7.205  17.090  70.854  1.00  0.00     3.818 C  
HETATM   11  C   UNL     1     -11.061  14.046  66.545  1.00  0.00    -0.315 C  
HETATM   12  O   UNL     1      -5.127  18.291  70.846  1.00  0.00    -0.249 OA 
HETATM   13  C   UNL     1     -11.988  14.740  63.650  1.00  0.00     0.482 C  
HETATM   14  C   UNL     1      -5.910  17.576  70.237  1.00  0.00    -0.126 C  
HETATM   15  C   UNL     1      -5.606  17.088  68.846  1.00  0.00    -0.147 C  
HETATM   16  C   UNL     1      -6.796  17.016  68.214  1.00  0.00    -0.170 C  
HETATM   17  C   UNL     1     -10.166  14.770  67.805  1.00  0.00    -0.232 C  
HETATM   18  O   UNL     1     -11.086  15.401  68.706  1.00  0.00    -0.253 OA 
HETATM   19  F   UNL     1      -6.456  19.222  67.413  1.00  0.00    -0.187 F  
HETATM   20  C   UNL     1      -8.859  15.758  67.526  1.00  0.00    -0.186 C  
HETATM   21  C   UNL     1      -7.417  18.298  67.694  1.00  0.00    -0.216 C  
HETATM   22  F   UNL     1      -7.946  15.078  66.689  1.00  0.00    -0.228 F  
HETATM   23  C   UNL     1      -8.181  18.028  66.415  1.00  0.00    -0.285 C  
HETATM   24  C   UNL     1      -9.331  17.032  66.633  1.00  0.00    -0.274 C  
HETATM   25  H   UNL     1     -10.588  15.804  69.407  1.00  0.00     0.000 HD 
ENDROOT
BRANCH   5  26
HETATM   26  C   UNL     1     -13.023  15.669  66.346  1.00  0.00     2.945 C  
HETATM   27  O   UNL     1     -13.659  16.208  67.243  1.00  0.00     5.179 OA 
BRANCH  26  28
HETATM   28  S   UNL     1     -13.587  14.094  65.738  1.00  0.00     2.275 SA 
HETATM   29  F   UNL     1     -12.515  11.791  66.328  1.00  0.00     0.114 F  
HETATM   30  C   UNL     1     -12.591  13.046  66.852  1.00  0.00     0.540 C  
ENDBRANCH  26  28
ENDBRANCH   5  26
BRANCH   5  31
HETATM   31  O   UNL     1     -12.161  17.341  64.855  1.00  0.00     1.633 OA 
BRANCH  31  32
HETATM   32  C   UNL     1     -12.105  18.692  65.065  1.00  0.00     6.228 C  
HETATM   33  O   UNL     1     -12.705  19.524  64.409  1.00  0.00     8.948 OA 
BRANCH  32  34
HETATM   34  C   UNL     1     -11.292  19.015  66.214  1.00  0.00     0.813 A  
HETATM   35  C   UNL     1     -10.244  19.918  66.310  1.00  0.00    -0.614 A  
HETATM   36  O   UNL     1     -11.494  18.428  67.436  1.00  0.00     0.342 OA 
HETATM   37  C   UNL     1      -9.779  19.874  67.643  1.00  0.00    -0.511 A  
HETATM   38  C   UNL     1     -10.567  18.949  68.288  1.00  0.00    -0.156 A  
ENDBRANCH  32  34
ENDBRANCH  31  32
ENDBRANCH   5  31
TORSDOF 5
ENDMDL
MODEL      156
REMARK 921   NORMALIZED FREE ENERGY PREDICTED BY IDOCK:   59.98 KCAL/MOL
REMARK 922        TOTAL FREE ENERGY PREDICTED BY IDOCK:   78.21 KCAL/MOL
REMARK 923 INTER-LIGAND FREE ENERGY PREDICTED BY IDOCK:   74.29 KCAL/MOL
REMARK 924 INTRA-LIGAND FREE ENERGY PREDICTED BY IDOCK:    3.93 KCAL/MOL
REMARK 927      BINDING AFFINITY PREDICTED BY RF-SCORE:    0.00 PKD
ROOT
HETATM    1  C   UNL     1     -11.340  13.335  71.178  1.00  0.00     1.836 C  
HETATM    2  C   UNL     1     -12.484  13.804  71.878  1.00  0.00    -0.203 C  
HETATM    3  C   UNL     1     -12.391  13.920  70.402  1.00  0.00    -0.433 C  
HETATM    4  C   UNL     1     -13.979  14.495  70.059  1.00  0.00     2.100 C  
HETATM    5  C   UNL     1     -10.965  12.690  69.564  1.00  0.00     0.109 C  
HETATM    6  C   UNL     1     -10.556  18.385  69.996  1.00  0.00     1.468 C  
HETATM    7  C   UNL     1      -9.584  17.231  70.479  1.00  0.00     2.876 C  
HETATM    8  C   UNL     1     -12.285  12.975  69.426  1.00  0.00    -0.167 C  
HETATM    9  C   UNL     1      -8.242  17.625  69.875  1.00  0.00     1.648 C  
HETATM   10  C   UNL     1      -7.391  18.423  70.571  1.00  0.00     2.354 C  
HETATM   11  C   UNL     1     -11.938  14.359  68.222  1.00  0.00    -0.323 C  
HETATM   12  O   UNL     1      -6.880  19.515  72.645  1.00  0.00     1.285 OA 
HETATM   13  C   UNL     1     -13.342  11.829  69.384  1.00  0.00     2.714 C  
HETATM   14  C   UNL     1      -7.685  18.872  71.987  1.00  0.00     6.603 C  
HETATM   15  C   UNL     1      -9.047  18.530  72.529  1.00  0.00    11.114 C  
HETATM   16  C   UNL     1      -9.358  17.324  72.009  1.00  0.00    10.864 C  
HETATM   17  C   UNL     1     -10.688  15.437  68.658  1.00  0.00    -0.246 C  
HETATM   18  O   UNL     1      -9.475  14.997  68.032  1.00  0.00    -0.190 OA 
HETATM   19  F   UNL     1      -8.435  16.302  73.941  1.00  0.00    12.629 F  
HETATM   20  C   UNL     1     -10.398  15.887  70.231  1.00  0.00    -0.077 C  
HETATM   21  C   UNL     1      -8.733  16.088  72.629  1.00  0.00    12.589 C  
HETATM   22  F   UNL     1     -11.599  16.374  70.794  1.00  0.00    -0.395 F  
HETATM   23  C   UNL     1      -9.700  14.925  72.562  1.00  0.00     5.458 C  
HETATM   24  C   UNL     1     -10.064  14.562  71.114  1.00  0.00     2.317 C  
HETATM   25  H   UNL     1      -8.780  15.596  68.274  1.00  0.00     0.000 HD 
ENDROOT
BRANCH   5  26
HETATM   26  C   UNL     1     -10.646  12.164  68.035  1.00  0.00    -0.210 C  
HETATM   27  O   UNL     1     -11.258  12.452  67.014  1.00  0.00    -0.269 OA 
BRANCH  26  28
HETATM   28  S   UNL     1      -9.355  10.943  67.931  1.00  0.00    -0.159 SA 
HETATM   29  F   UNL     1      -7.866  10.514  65.834  1.00  0.00    -0.129 F  
HETATM   30  C   UNL     1      -8.618  11.519  66.364  1.00  0.00    -0.159 C  
ENDBRANCH  26  28
ENDBRANCH   5  26
BRANCH   5  31
HETATM   31  O   UNL     1     -10.660  11.362  70.298  1.00  0.00     0.536 OA 
BRANCH  31  32
HETATM   32  C   UNL     1     -11.299  10.153  70.234  1.00  0.00    -0.315 C  
HETATM   33  O   UNL     1     -12.381   9.964  69.709  1.00  0.00     0.134 OA 
BRANCH  32  34
HETATM   34  C   UNL     1     -10.496   9.100  70.811  1.00  0.00    -0.257 A  
HETATM   35  C   UNL     1     -10.743   7.736  70.839  1.00  0.00    -0.229 A  
HETATM   36  O   UNL     1      -9.300   9.354  71.431  1.00  0.00    -0.265 OA 
HETATM   37  C   UNL     1      -9.659   7.132  71.512  1.00  0.00    -0.161 A  
HETATM   38  C   UNL     1      -8.810   8.157  71.857  1.00  0.00    -0.159 A  
ENDBRANCH  32  34
ENDBRANCH  31  32
ENDBRANCH   5  31
TORSDOF 5
ENDMDL
MODEL      157
REMARK 921   NORMALIZED FREE ENERGY PREDICTED BY IDOCK:   70.55 KCAL/MOL
REMARK 922        TOTAL FREE ENERGY PREDICTED BY IDOCK:   91.87 KCAL/MOL
REMARK 923 INTER-LIGAND FREE ENERGY PREDICTED BY IDOCK:   78.92 KCAL/MOL
REMARK 924 INTRA-LIGAND FREE ENERGY PREDICTED BY IDOCK:   12.96 KCAL/MOL
REMARK 927      BINDING AFFINITY PREDICTED BY RF-SCORE:    0.00 PKD
ROOT
HETATM    1  C   UNL     1      -7.999   7.882  68.990  1.00  0.00    -0.122 C  
HETATM    2  C   UNL     1      -6.772   8.597  69.010  1.00  0.00    -0.052 C  
HETATM    3  C   UNL     1      -6.963   7.385  69.843  1.00  0.00    -0.060 C  
HETATM    4  C   UNL     1      -5.361   7.201  70.453  1.00  0.00    -0.023 C  
HETATM    5  C   UNL     1      -8.545   6.209  69.239  1.00  0.00    -0.119 C  
HETATM    6  C   UNL     1      -8.442   9.402  73.991  1.00  0.00     2.802 C  
HETATM    7  C   UNL     1      -9.469   9.360  72.785  1.00  0.00     2.394 C  
HETATM    8  C   UNL     1      -7.218   6.089  69.507  1.00  0.00    -0.070 C  
HETATM    9  C   UNL     1     -10.814   9.170  73.476  1.00  0.00     4.382 C  
HETATM   10  C   UNL     1     -11.542  10.251  73.858  1.00  0.00    13.489 C  
HETATM   11  C   UNL     1      -7.536   5.757  71.315  1.00  0.00    -0.095 C  
HETATM   12  O   UNL     1     -11.806  12.635  73.803  1.00  0.00     6.624 OA 
HETATM   13  C   UNL     1      -6.268   5.383  68.492  1.00  0.00    -0.030 C  
HETATM   14  C   UNL     1     -11.108  11.666  73.538  1.00  0.00    16.610 C  
HETATM   15  C   UNL     1      -9.744  11.826  72.923  1.00  0.00    22.014 C  
HETATM   16  C   UNL     1      -9.574  10.756  72.120  1.00  0.00     9.859 C  
HETATM   17  C   UNL     1      -8.656   6.791  72.083  1.00  0.00    -0.117 C  
HETATM   18  O   UNL     1      -9.944   6.161  72.055  1.00  0.00    -0.172 OA 
HETATM   19  F   UNL     1     -10.434  12.029  70.313  1.00  0.00     0.734 F  
HETATM   20  C   UNL     1      -8.791   8.404  71.709  1.00  0.00    -0.195 C  
HETATM   21  C   UNL     1     -10.252  10.756  70.764  1.00  0.00     1.736 C  
HETATM   22  F   UNL     1      -7.516   9.004  71.811  1.00  0.00    -0.124 F  
HETATM   23  C   UNL     1      -9.394  10.030  69.750  1.00  0.00    -0.233 C  
HETATM   24  C   UNL     1      -9.169   8.560  70.135  1.00  0.00    -0.159 C  
HETATM   25  H   UNL     1     -10.567   6.736  72.482  1.00  0.00     0.000 HD 
ENDROOT
BRANCH   5  26
HETATM   26  C   UNL     1      -9.018   4.661  69.548  1.00  0.00    -0.092 C  
HETATM   27  O   UNL     1      -9.819   4.290  70.397  1.00  0.00    -0.202 OA 
BRANCH  26  28
HETATM   28  S   UNL     1      -8.140   3.423  68.618  1.00  0.00    -0.061 SA 
HETATM   29  F   UNL     1      -5.773   3.738  67.569  1.00  0.00    -0.019 F  
HETATM   30  C   UNL     1      -6.525   4.271  68.573  1.00  0.00    -0.037 C  
ENDBRANCH  26  28
ENDBRANCH   5  26
BRANCH   5  31
HETATM   31  O   UNL     1      -8.905   6.229  67.734  1.00  0.00    -0.114 OA 
BRANCH  31  32
HETATM   32  C   UNL     1     -10.127   6.185  67.119  1.00  0.00    -0.170 C  
HETATM   33  O   UNL     1     -10.963   7.069  67.168  1.00  0.00    -0.357 OA 
BRANCH  32  34
HETATM   34  C   UNL     1     -10.283   4.979  66.340  1.00  0.00    -0.273 A  
HETATM   35  C   UNL     1     -10.967   4.798  65.148  1.00  0.00     0.118 A  
HETATM   36  O   UNL     1      -9.715   3.790  66.718  1.00  0.00    -0.208 OA 
HETATM   37  C   UNL     1     -10.819   3.442  64.786  1.00  0.00     0.468 A  
HETATM   38  C   UNL     1     -10.054   2.868  65.774  1.00  0.00     0.787 A  
ENDBRANCH  32  34
ENDBRANCH  31  32
ENDBRANCH   5  31
TORSDOF 5
ENDMDL
MODEL      158
REMARK 921   NORMALIZED FREE ENERGY PREDICTED BY IDOCK:   80.25 KCAL/MOL
REMARK 922        TOTAL FREE ENERGY PREDICTED BY IDOCK:  104.41 KCAL/MOL
REMARK 923 INTER-LIGAND FREE ENERGY PREDICTED BY IDOCK:   83.97 KCAL/MOL
REMARK 924 INTRA-LIGAND FREE ENERGY PREDICTED BY IDOCK:   20.44 KCAL/MOL
REMARK 927      BINDING AFFINITY PREDICTED BY RF-SCORE:    0.00 PKD
ROOT
HETATM    1  C   UNL     1      -9.903  17.496  66.507  1.00  0.00    -0.315 C  
HETATM    2  C   UNL     1      -8.801  17.048  65.731  1.00  0.00     0.154 C  
HETATM    3  C   UNL     1      -9.702  16.083  66.407  1.00  0.00    -0.307 C  
HETATM    4  C   UNL     1      -9.079  14.610  65.764  1.00  0.00     0.281 C  
HETATM    5  C   UNL     1     -11.511  16.896  66.968  1.00  0.00     0.761 C  
HETATM    6  C   UNL     1      -7.306  15.421  70.565  1.00  0.00     0.819 C  
HETATM    7  C   UNL     1      -8.079  16.791  70.370  1.00  0.00     2.936 C  
HETATM    8  C   UNL     1     -11.035  15.838  66.263  1.00  0.00    -0.163 C  
HETATM    9  C   UNL     1      -8.561  17.126  71.776  1.00  0.00    11.736 C  
HETATM   10  C   UNL     1      -7.778  17.862  72.606  1.00  0.00    12.286 C  
HETATM   11  C   UNL     1     -10.931  14.769  67.789  1.00  0.00    -0.294 C  
HETATM   12  O   UNL     1      -5.798  19.190  72.872  1.00  0.00     0.969 OA 
HETATM   13  C   UNL     1     -11.583  15.527  64.837  1.00  0.00    -0.201 C  
HETATM   14  C   UNL     1      -6.460  18.454  72.155  1.00  0.00     3.069 C  
HETATM   15  C   UNL     1      -5.975  18.046  70.789  1.00  0.00     0.416 C  
HETATM   16  C   UNL     1      -7.082  17.926  70.026  1.00  0.00     0.912 C  
HETATM   17  C   UNL     1     -10.229  15.493  69.166  1.00  0.00    -0.240 C  
HETATM   18  O   UNL     1     -11.281  16.026  69.981  1.00  0.00    -0.315 OA 
HETATM   19  F   UNL     1      -6.806  20.182  69.348  1.00  0.00    -0.341 F  
HETATM   20  C   UNL     1      -8.968  16.572  69.069  1.00  0.00    -0.225 C  
HETATM   21  C   UNL     1      -7.727  19.188  69.488  1.00  0.00     0.122 C  
HETATM   22  F   UNL     1      -7.926  15.988  68.315  1.00  0.00    -0.135 F  
HETATM   23  C   UNL     1      -8.329  18.926  68.123  1.00  0.00    -0.341 C  
HETATM   24  C   UNL     1      -9.426  17.852  68.176  1.00  0.00    -0.288 C  
HETATM   25  H   UNL     1     -10.891  16.429  70.747  1.00  0.00     0.000 HD 
ENDROOT
BRANCH   5  26
HETATM   26  C   UNL     1     -12.964  16.272  67.432  1.00  0.00     4.105 C  
HETATM   27  O   UNL     1     -13.871  15.895  66.701  1.00  0.00     5.420 OA 
BRANCH  26  28
HETATM   28  S   UNL     1     -13.252  16.302  69.188  1.00  0.00     3.910 SA 
HETATM   29  F   UNL     1     -11.494  17.005  70.981  1.00  0.00    -0.170 F  
HETATM   30  C   UNL     1     -11.736  17.204  69.655  1.00  0.00     1.719 C  
ENDBRANCH  26  28
ENDBRANCH   5  26
BRANCH   5  31
HETATM   31  O   UNL     1     -12.060  18.057  66.106  1.00  0.00     3.244 OA 
BRANCH  31  32
HETATM   32  C   UNL     1     -12.640  19.238  66.485  1.00  0.00     5.949 C  
HETATM   33  O   UNL     1     -13.438  19.868  65.815  1.00  0.00     9.186 OA 
BRANCH  32  34
HETATM   34  C   UNL     1     -12.241  19.619  67.820  1.00  0.00     3.426 A  
HETATM   35  C   UNL     1     -11.098  19.263  68.518  1.00  0.00     0.896 A  
HETATM   36  O   UNL     1     -13.003  20.452  68.597  1.00  0.00     4.824 OA 
HETATM   37  C   UNL     1     -11.168  19.896  69.779  1.00  0.00     2.739 A  
HETATM   38  C   UNL     1     -12.347  20.603  69.781  1.00  0.00     7.425 A  
ENDBRANCH  32  34
ENDBRANCH  31  32
ENDBRANCH   5  31
TORSDOF 5
ENDMDL
MODEL      159
REMARK 921   NORMALIZED FREE ENERGY PREDICTED BY IDOCK:   87.34 KCAL/MOL
REMARK 922        TOTAL FREE ENERGY PREDICTED BY IDOCK:  113.57 KCAL/MOL
REMARK 923 INTER-LIGAND FREE ENERGY PREDICTED BY IDOCK:  112.73 KCAL/MOL
REMARK 924 INTRA-LIGAND FREE ENERGY PREDICTED BY IDOCK:    0.84 KCAL/MOL
REMARK 927      BINDING AFFINITY PREDICTED BY RF-SCORE:    0.00 PKD
ROOT
HETATM    1  C   UNL     1      -7.373  10.890  69.968  1.00  0.00     0.219 C  
HETATM    2  C   UNL     1      -6.319  10.717  70.904  1.00  0.00     0.183 C  
HETATM    3  C   UNL     1      -7.558   9.907  70.992  1.00  0.00     0.563 C  
HETATM    4  C   UNL     1      -7.102   8.821  72.250  1.00  0.00     0.022 C  
HETATM    5  C   UNL     1      -8.667   9.901  69.254  1.00  0.00    -0.169 C  
HETATM    6  C   UNL     1     -10.137  12.599  74.086  1.00  0.00    19.318 C  
HETATM    7  C   UNL     1      -9.979  13.131  72.602  1.00  0.00    15.330 C  
HETATM    8  C   UNL     1      -8.119   9.016  70.127  1.00  0.00    -0.128 C  
HETATM    9  C   UNL     1     -11.309  13.825  72.334  1.00  0.00     3.041 C  
HETATM   10  C   UNL     1     -11.459  15.143  72.627  1.00  0.00    -0.321 C  
HETATM   11  C   UNL     1      -9.639   9.028  71.210  1.00  0.00    -0.361 C  
HETATM   12  O   UNL     1     -10.422  17.195  73.313  1.00  0.00     4.378 OA 
HETATM   13  C   UNL     1      -7.246   7.833  69.609  1.00  0.00    -0.075 C  
HETATM   14  C   UNL     1     -10.311  15.991  73.134  1.00  0.00     5.435 C  
HETATM   15  C   UNL     1      -9.033  15.264  73.458  1.00  0.00    11.059 C  
HETATM   16  C   UNL     1      -8.933  14.273  72.548  1.00  0.00     9.121 C  
HETATM   17  C   UNL     1     -10.293  10.564  71.569  1.00  0.00     3.070 C  
HETATM   18  O   UNL     1     -11.336  10.841  70.625  1.00  0.00    -0.405 OA 
HETATM   19  F   UNL     1      -7.650  15.721  71.176  1.00  0.00     1.694 F  
HETATM   20  C   UNL     1      -9.347  11.911  71.800  1.00  0.00    16.156 C  
HETATM   21  C   UNL     1      -8.452  14.620  71.153  1.00  0.00     3.627 C  
HETATM   22  F   UNL     1      -8.373  11.621  72.782  1.00  0.00    14.061 F  
HETATM   23  C   UNL     1      -7.643  13.476  70.579  1.00  0.00     2.670 C  
HETATM   24  C   UNL     1      -8.474  12.190  70.457  1.00  0.00     5.936 C  
HETATM   25  H   UNL     1     -11.700  11.695  70.824  1.00  0.00     0.000 HD 
ENDROOT
BRANCH   5  26
HETATM   26  C   UNL     1      -9.896   8.971  68.670  1.00  0.00    -0.165 C  
HETATM   27  O   UNL     1     -11.092   9.231  68.694  1.00  0.00    -0.054 OA 
BRANCH  26  28
HETATM   28  S   UNL     1      -9.390   7.370  68.079  1.00  0.00    -0.134 SA 
HETATM   29  F   UNL     1     -10.769   5.173  68.347  1.00  0.00    -0.193 F  
HETATM   30  C   UNL     1     -10.984   6.518  68.330  1.00  0.00    -0.281 C  
ENDBRANCH  26  28
ENDBRANCH   5  26
BRANCH   5  31
HETATM   31  O   UNL     1      -7.893  10.065  67.924  1.00  0.00    -0.090 OA 
BRANCH  31  32
HETATM   32  C   UNL     1      -8.201  10.799  66.810  1.00  0.00    -0.135 C  
HETATM   33  O   UNL     1      -8.999  11.717  66.780  1.00  0.00    -0.184 OA 
BRANCH  32  34
HETATM   34  C   UNL     1      -7.406  10.394  65.674  1.00  0.00    -0.148 A  
HETATM   35  C   UNL     1      -6.172   9.761  65.660  1.00  0.00    -0.072 A  
HETATM   36  O   UNL     1      -7.824  10.594  64.385  1.00  0.00    -0.040 OA 
HETATM   37  C   UNL     1      -5.817   9.575  64.306  1.00  0.00    -0.079 A  
HETATM   38  C   UNL     1      -6.850  10.103  63.568  1.00  0.00    -0.120 A  
ENDBRANCH  32  34
ENDBRANCH  31  32
ENDBRANCH   5  31
TORSDOF 5
ENDMDL
MODEL      160
REMARK 921   NORMALIZED FREE ENERGY PREDICTED BY IDOCK:   96.35 KCAL/MOL
REMARK 922        TOTAL FREE ENERGY PREDICTED BY IDOCK:  125.21 KCAL/MOL
REMARK 923 INTER-LIGAND FREE ENERGY PREDICTED BY IDOCK:  122.70 KCAL/MOL
REMARK 924 INTRA-LIGAND FREE ENERGY PREDICTED BY IDOCK:    2.51 KCAL/MOL
REMARK 927      BINDING AFFINITY PREDICTED BY RF-SCORE:    0.00 PKD
ROOT
HETATM    1  C   UNL     1      -9.548  12.491  66.218  1.00  0.00    -0.246 C  
HETATM    2  C   UNL     1      -9.464  12.715  64.818  1.00  0.00     0.345 C  
HETATM    3  C   UNL     1     -10.534  13.346  65.629  1.00  0.00    -0.293 C  
HETATM    4  C   UNL     1     -11.238  14.365  64.432  1.00  0.00    -0.235 C  
HETATM    5  C   UNL     1     -10.135  13.363  67.652  1.00  0.00    -0.229 C  
HETATM    6  C   UNL     1     -14.068  10.076  65.099  1.00  0.00    17.350 C  
HETATM    7  C   UNL     1     -12.858   9.704  66.051  1.00  0.00    14.234 C  
HETATM    8  C   UNL     1     -10.480  14.230  66.665  1.00  0.00    -0.278 C  
HETATM    9  C   UNL     1     -13.514   8.869  67.144  1.00  0.00    20.330 C  
HETATM   10  C   UNL     1     -13.617   7.523  67.002  1.00  0.00    19.987 C  
HETATM   11  C   UNL     1     -12.302  13.924  66.928  1.00  0.00    -0.331 C  
HETATM   12  O   UNL     1     -13.027   5.570  65.739  1.00  0.00     4.564 OA 
HETATM   13  C   UNL     1      -9.688  15.558  66.468  1.00  0.00    -0.290 C  
HETATM   14  C   UNL     1     -13.013   6.789  65.823  1.00  0.00    11.303 C  
HETATM   15  C   UNL     1     -12.438   7.644  64.725  1.00  0.00    18.939 C  
HETATM   16  C   UNL     1     -11.898   8.717  65.340  1.00  0.00    10.163 C  
HETATM   17  C   UNL     1     -12.774  12.290  67.080  1.00  0.00     2.159 C  
HETATM   18  O   UNL     1     -12.829  11.965  68.476  1.00  0.00     0.676 OA 
HETATM   19  F   UNL     1      -9.820   7.577  65.412  1.00  0.00     0.409 F  
HETATM   20  C   UNL     1     -12.049  11.062  66.227  1.00  0.00     2.129 C  
HETATM   21  C   UNL     1     -10.547   8.561  66.010  1.00  0.00     1.210 C  
HETATM   22  F   UNL     1     -12.072  11.388  64.852  1.00  0.00    -0.064 F  
HETATM   23  C   UNL     1      -9.755   9.847  65.897  1.00  0.00    -0.326 C  
HETATM   24  C   UNL     1     -10.464  11.021  66.591  1.00  0.00    -0.307 C  
HETATM   25  H   UNL     1     -13.092  11.057  68.560  1.00  0.00     0.000 HD 
ENDROOT
BRANCH   5  26
HETATM   26  C   UNL     1     -10.756  14.173  68.945  1.00  0.00    -0.256 C  
HETATM   27  O   UNL     1     -11.926  14.492  69.124  1.00  0.00    -0.313 OA 
BRANCH  26  28
HETATM   28  S   UNL     1      -9.538  14.746  70.109  1.00  0.00     0.860 SA 
HETATM   29  F   UNL     1      -8.607  17.179  70.226  1.00  0.00     1.407 F  
HETATM   30  C   UNL     1      -9.714  16.530  69.769  1.00  0.00     0.240 C  
ENDBRANCH  26  28
ENDBRANCH   5  26
BRANCH   5  31
HETATM   31  O   UNL     1      -8.649  13.420  68.078  1.00  0.00    -0.156 OA 
BRANCH  31  32
HETATM   32  C   UNL     1      -7.616  12.570  67.790  1.00  0.00    -0.138 C  
HETATM   33  O   UNL     1      -6.826  12.718  66.875  1.00  0.00     0.004 OA 
BRANCH  32  34
HETATM   34  C   UNL     1      -7.530  11.497  68.754  1.00  0.00    -0.119 A  
HETATM   35  C   UNL     1      -6.907  11.492  69.992  1.00  0.00     0.204 A  
HETATM   36  O   UNL     1      -8.113  10.276  68.538  1.00  0.00    -0.101 OA 
HETATM   37  C   UNL     1      -7.109  10.212  70.553  1.00  0.00    -0.016 A  
HETATM   38  C   UNL     1      -7.844   9.506  69.628  1.00  0.00    -0.116 A  
ENDBRANCH  32  34
ENDBRANCH  31  32
ENDBRANCH   5  31
TORSDOF 5
ENDMDL
